data_PCOD9420572
_publ_section_title
;
Structure prediction by ZEFSAII (Michael W. Deem and Ramdas Pophale) SiO2 
 PCOD9420572
Probable space group: P C C A
;
_chemical_formula_sum "Si O2"
_cell_formula_units_Z 40
_cell_length_a 8.934231
_cell_length_b 9.610528
_cell_length_c 22.908564
_cell_angle_alpha 90.000000
_cell_angle_beta 90.000000
_cell_angle_gamma 90.000000
_cell_volume 1966.990635
_symmetry_space_group_name_H-M "P C C A"
_symmetry_group_IT_number 54
_symmetry_cell_setting 'orthorhombic'
loop_
_space_group_symop_operation_xyz
x,y,z
1/2-x,-y,z
1/2+x,-y,1/2-z
-x,y,1/2-z
-x,-y,-z
1/2+x,y,-z
1/2-x,y,1/2+z
x,-y,1/2+z
loop_
_atom_site_type_symbol
_atom_site_label
_atom_site_fract_x
_atom_site_fract_y
_atom_site_fract_z
Si Si1 0.668470 0.135515 0.634772
Si Si2 0.250000 0.500000 0.515736
Si Si3 0.418183 0.641443 0.836601
Si Si4 0.000000 0.174845 0.250000
Si Si5 0.718895 0.350383 0.291514
Si Si6 0.527042 0.619987 0.078156
O O1 0.799979 0.250730 0.638161
O O2 0.592896 0.100152 0.698105
O O3 0.545100 0.222794 0.599957
O O4 0.750000 0.000000 0.610749
O O5 0.143725 0.408256 0.474154
O O6 0.362305 0.409714 0.554347
O O7 0.352622 0.617169 0.771968
O O8 0.581926 0.711110 0.828614
O O9 0.433535 0.498114 0.872761
O O10 0.129060 0.267114 0.218828
O O11 0.750000 0.500000 0.318572
#
# Coordination Sequence:
#
# PCOD9420572 Si02
#       6
#     8   4   8   4   8   8
#     4  11  23  40  60  86 128 169 203 247 303 381
#     4  10  24  38  70  88 120 146 214 276 330 362
#     4  10  20  35  58  84 121 153 201 248 314 365
#     4  10  22  34  54  86 124 164 206 238 296 374
#     4  10  18  30  54  90 116 155 198 255 293 366
#     4  11  21  42  63  91 116 158 202 269 325 370
#
# _framework density 20.335632
#
# number of rings (size 3 to 8) (size 9 to 14) (size 15 to 20)
#    0.000    1.600    2.000    4.800    4.200    3.200 
#    0.000    1.000    0.000    0.000    0.000    0.000 
#    0.000    0.000    0.000    0.000    0.000    0.000 
#
# Total GULP energy -223103.527093 kJ/mol
# GULP energy per Si atom -5577.588177 kJ/mol
# Density = 2.028935 g / cm^3
# Si number density = 20.335632 Si / 1000 Ang^3
#
#
#
# Elastic Constant Matrix: (Units=GPa)
#
#
# Indices 1 2 3 4 5 6 
#
# 1 142.1162 24.5834 32.4600 0.0000 0.0000 0.0000
# 2 24.5834 69.7728 31.7576 0.0000 0.0000 0.0000
# 3 32.4600 31.7576 64.1638 0.0000 0.0000 0.0000
# 4 0.0000 0.0000 0.0000 6.1355 0.0000 0.0000
# 5 0.0000 0.0000 0.0000 0.0000 34.0616 0.0000
# 6 0.0000 0.0000 0.0000 0.0000 0.0000 14.6686
#
#
#
# Elastic Compliance Matrix: (Units=1/GPa)
#
#
# Indices 1 2 3 4 5 6 
#
# 1 0.008042 -0.001267 -0.003441 0.000000 0.000000 0.000000
# 2 -0.001267 0.018700 -0.008614 0.000000 0.000000 0.000000
# 3 -0.003441 -0.008614 0.021589 0.000000 0.000000 0.000000
# 4 0.000000 0.000000 0.000000 0.162986 0.000000 0.000000
# 5 0.000000 0.000000 0.000000 0.000000 0.029359 0.000000
# 6 0.000000 0.000000 0.000000 0.000000 0.000000 0.068173
#
#
# Mechanical properties :
#
#
# Convention : Reuss Voigt Hill
#
# Bulk Modulus (GPa) = 46.11302 50.40609 48.25956
# Shear Modulus (GPa) = 14.58913 23.45661 19.02287
#
# Velocity S-wave (km/s) = 2.68137 3.39997 3.06182
# Velocity P-wave (km/s) = 5.68432 6.34460 6.02351
#
# Compressibility (1/GPa) = 0.02168585
#
# Stress axis : x y z
#
# Youngs Moduli (GPa) = 124.35288 53.47731 46.31891
#
# Poissons Ratio (x) = 0.06776 0.15938
# Poissons Ratio (y) = 0.15757 0.39900
# Poissons Ratio (z) = 0.42790 0.46066
#
# Static dielectric constant tensor:
#      x y z
#    x 1.796590 0.000000 0.000000 
#    y 0.000000 1.703280 0.000000 
#    z 0.000000 0.000000 1.781350 
# 
# From -- ./inp_files/23330.got.cif
#   From: 2010.05.17/outbox.cif.g08.bks.cpg/sg54_12_cif.got.tgz:23330.got - 2010.06.03 13:09:01.
