data_PCOD9420597
_publ_section_title
;
Structure prediction by ZEFSAII (Michael W. Deem and Ramdas Pophale) SiO2 
 PCOD9420597
Probable space group: P C C A
;
_chemical_formula_sum "Si O2"
_cell_formula_units_Z 40
_cell_length_a 20.337251
_cell_length_b 7.442472
_cell_length_c 11.147486
_cell_angle_alpha 90.000000
_cell_angle_beta 90.000000
_cell_angle_gamma 90.000000
_cell_volume 1687.277028
_symmetry_space_group_name_H-M "P C C A"
_symmetry_group_IT_number 54
_symmetry_cell_setting 'orthorhombic'
loop_
_space_group_symop_operation_xyz
x,y,z
1/2-x,-y,z
1/2+x,-y,1/2-z
-x,y,1/2-z
-x,-y,-z
1/2+x,y,-z
1/2-x,y,1/2+z
x,-y,1/2+z
loop_
_atom_site_type_symbol
_atom_site_label
_atom_site_fract_x
_atom_site_fract_y
_atom_site_fract_z
Si Si1 0.132955 0.392859 0.553626
Si Si2 0.861508 0.417538 0.686597
Si Si3 0.511939 0.732903 0.582433
Si Si4 0.549978 0.883015 0.341038
Si Si5 0.321646 0.075633 0.201912
O O1 0.149176 0.495413 0.679258
O O2 0.157836 0.470174 0.428964
O O3 0.160341 0.194312 0.584026
O O4 0.054117 0.371263 0.547618
O O5 0.938546 0.364131 0.672972
O O6 0.826453 0.223891 0.693027
O O7 0.554471 0.775522 0.463984
O O8 0.486247 0.927166 0.627728
O O9 0.500000 0.788087 0.250000
O O10 0.619978 0.932194 0.285295
O O11 0.250000 0.000000 0.193715
#
# Coordination Sequence:
#
# PCOD9420597 Si02
#       5
#     8   8   8   8   8
#     4   9  20  34  64 100 145 179 232 286 367 427
#     4  10  19  36  62 103 140 183 223 293 358 440
#     4  10  18  31  57  98 140 177 220 296 353 420
#     4  10  18  34  58  93 138 181 238 299 353 410
#     4   9  20  39  65  97 143 191 243 294 354 421
#
# _framework density 23.706835999999999
#
# number of rings (size 3 to 8) (size 9 to 14) (size 15 to 20)
#    1.200    1.200    2.000    1.200    0.000    1.600 
#    0.000    1.000    0.000    2.400   15.600    0.000 
#    0.000    0.000    0.000    0.000    0.000    0.000 
#
# Total GULP energy -223457.535960 kJ/mol
# GULP energy per Si atom -5586.438399 kJ/mol
# Density = 2.365288 g / cm^3
# Si number density = 23.706836 Si / 1000 Ang^3
#
#
#
# Elastic Constant Matrix: (Units=GPa)
#
#
# Indices 1 2 3 4 5 6 
#
# 1 130.1921 25.9795 21.2533 0.0000 0.0000 0.0000
# 2 25.9795 61.5623 18.8139 0.0000 0.0000 0.0000
# 3 21.2533 18.8139 125.6740 0.0000 0.0000 0.0000
# 4 0.0000 0.0000 0.0000 24.6961 0.0000 0.0000
# 5 0.0000 0.0000 0.0000 0.0000 6.8391 0.0000
# 6 0.0000 0.0000 0.0000 0.0000 0.0000 19.3767
#
#
#
# Elastic Compliance Matrix: (Units=1/GPa)
#
#
# Indices 1 2 3 4 5 6 
#
# 1 0.008493 -0.003296 -0.000943 0.000000 0.000000 0.000000
# 2 -0.003296 0.018301 -0.002182 0.000000 0.000000 0.000000
# 3 -0.000943 -0.002182 0.008443 0.000000 0.000000 0.000000
# 4 0.000000 0.000000 0.000000 0.040492 0.000000 0.000000
# 5 0.000000 0.000000 0.000000 0.000000 0.146217 0.000000
# 6 0.000000 0.000000 0.000000 0.000000 0.000000 0.051608
#
#
# Mechanical properties :
#
#
# Convention : Reuss Voigt Hill
#
# Bulk Modulus (GPa) = 44.65232 49.94687 47.29960
# Shear Modulus (GPa) = 17.01477 26.94117 21.97797
#
# Velocity S-wave (km/s) = 2.68193 3.37476 3.04809
# Velocity P-wave (km/s) = 5.33539 6.02491 5.69061
#
# Compressibility (1/GPa) = 0.02239525
#
# Stress axis : x y z
#
# Youngs Moduli (GPa) = 117.75068 54.64034 118.43764
#
# Poissons Ratio (x) = 0.18008 0.11167
# Poissons Ratio (y) = 0.38807 0.25849
# Poissons Ratio (z) = 0.11102 0.11925
#
# Static dielectric constant tensor:
#      x y z
#    x 1.857870 0.000000 0.000000 
#    y 0.000000 1.970420 0.000000 
#    z 0.000000 0.000000 1.975490 
# 
# From -- ./inp_files/9416.got.cif
#   From: 2010.05.17/outbox.cif.g08.bks.cpg/sg54_5_cif.got.tgz:9416.got - 2010.06.03 13:09:01.
