data_PCOD9420665
_publ_section_title
;
Structure prediction by ZEFSAII (Michael W. Deem and Ramdas Pophale) SiO2 
 PCOD9420665
Probable space group: P C C A
;
_chemical_formula_sum "Si O2"
_cell_formula_units_Z 48
_cell_length_a 5.047761
_cell_length_b 18.617094
_cell_length_c 27.131310
_cell_angle_alpha 90.000000
_cell_angle_beta 90.000000
_cell_angle_gamma 90.000000
_cell_volume 2549.655118
_symmetry_space_group_name_H-M "P C C A"
_symmetry_group_IT_number 54
_symmetry_cell_setting 'orthorhombic'
loop_
_space_group_symop_operation_xyz
x,y,z
1/2-x,-y,z
1/2+x,-y,1/2-z
-x,y,1/2-z
-x,-y,-z
1/2+x,y,-z
1/2-x,y,1/2+z
x,-y,1/2+z
loop_
_atom_site_type_symbol
_atom_site_label
_atom_site_fract_x
_atom_site_fract_y
_atom_site_fract_z
Si Si1 0.580702 0.715919 0.371154
Si Si2 0.000000 0.750060 0.250000
Si Si3 0.136906 0.844831 0.695574
Si Si4 0.750000 0.500000 0.216557
Si Si5 0.215580 0.657302 0.034441
Si Si6 0.750000 0.500000 0.464043
Si Si7 0.750000 0.000000 0.285187
Si Si8 0.396920 0.648429 0.827769
O O1 0.525299 0.793839 0.346977
O O2 0.707213 0.715953 0.425173
O O3 0.304939 0.673127 0.369872
O O4 0.802410 0.672423 0.339114
O O5 0.090393 0.804514 0.207739
O O6 0.188033 0.694543 0.279068
O O7 0.173895 0.928535 0.685063
O O8 0.000000 0.840630 0.750000
O O9 0.500000 0.523493 0.250000
O O10 0.642591 0.434143 0.184398
O O11 0.244246 0.578286 0.060846
O O12 0.428896 0.661305 0.990284
O O13 0.500000 0.500000 0.500000
O O14 0.500000 0.018018 0.250000
#
# Coordination Sequence:
#
# PCOD9420665 Si02
#       8
#     8   4   8   4   8   4   4   8
#     4  11  23  36  57  81 104 141 182 224 272 326
#     4  10  18  34  48  72 102 148 170 218 252 300
#     4  10  19  33  53  77 113 141 174 213 260 313
#     4  12  24  36  50  70 104 154 192 226 258 300
#     4  10  20  37  56  78 103 132 173 227 281 324
#     4   8  16  30  52  72  94 126 158 214 280 314
#     4  10  20  32  50  80 106 144 176 210 256 314
#     4  11  23  35  51  74 104 143 190 218 263 309
#
# _framework density 18.826076
#
# number of rings (size 3 to 8) (size 9 to 14) (size 15 to 20)
#    0.000    1.667    3.333    2.000    2.333    1.333 
#    0.000    1.667    0.000    0.000    0.000    1.167 
#    0.000    0.000    0.000    0.000    0.000    0.000 
#
# Total GULP energy -267391.698959 kJ/mol
# GULP energy per Si atom -5570.660395 kJ/mol
# Density = 1.878323 g / cm^3
# Si number density = 18.826076 Si / 1000 Ang^3
#
#
#
# Elastic Constant Matrix: (Units=GPa)
#
#
# Indices 1 2 3 4 5 6 
#
# 1 71.3369 -0.8680 -6.4373 0.0000 0.0000 0.0000
# 2 -0.8680 132.1486 26.4023 0.0000 0.0000 0.0000
# 3 -6.4373 26.4023 46.7894 0.0000 0.0000 0.0000
# 4 0.0000 0.0000 0.0000 14.3387 0.0000 0.0000
# 5 0.0000 0.0000 0.0000 0.0000 19.2610 0.0000
# 6 0.0000 0.0000 0.0000 0.0000 0.0000 17.1383
#
#
#
# Elastic Compliance Matrix: (Units=1/GPa)
#
#
# Indices 1 2 3 4 5 6 
#
# 1 0.014207 -0.000335 0.002144 0.000000 0.000000 0.000000
# 2 -0.000335 0.008537 -0.004863 0.000000 0.000000 0.000000
# 3 0.002144 -0.004863 0.024411 0.000000 0.000000 0.000000
# 4 0.000000 0.000000 0.000000 0.069741 0.000000 0.000000
# 5 0.000000 0.000000 0.000000 0.000000 0.051918 0.000000
# 6 0.000000 0.000000 0.000000 0.000000 0.000000 0.058349
#
#
# Mechanical properties :
#
#
# Convention : Reuss Voigt Hill
#
# Bulk Modulus (GPa) = 24.36257 32.05210 28.20734
# Shear Modulus (GPa) = 20.24659 25.55946 22.90302
#
# Velocity S-wave (km/s) = 3.28297 3.68864 3.49170
# Velocity P-wave (km/s) = 5.22872 5.93328 5.59211
#
# Compressibility (1/GPa) = 0.04104657
#
# Stress axis : x y z
#
# Youngs Moduli (GPa) = 70.38608 117.14189 40.96438
#
# Poissons Ratio (x) = 0.03924 -0.08781
# Poissons Ratio (y) = 0.02358 0.19922
# Poissons Ratio (z) = -0.15088 0.56968
#
# Static dielectric constant tensor:
#      x y z
#    x 1.748970 0.000000 0.000000 
#    y 0.000000 1.677680 0.000000 
#    z 0.000000 0.000000 1.708680 
# 
# From -- ./inp_files/27265.got.cif
#   From: 2010.05.17/outbox.cif.g08.bks.cpg/sg54_14_cif.got.tgz:27265.got - 2010.06.03 13:09:01.
