data_PCOD9420695
_publ_section_title
;
Structure prediction by ZEFSAII (Michael W. Deem and Ramdas Pophale) SiO2 
 PCOD9420695
Probable space group: P C C A
;
_chemical_formula_sum "Si O2"
_cell_formula_units_Z 48
_cell_length_a 11.057167
_cell_length_b 7.882358
_cell_length_c 26.154655
_cell_angle_alpha 90.000000
_cell_angle_beta 90.000000
_cell_angle_gamma 90.000000
_cell_volume 2279.549464
_symmetry_space_group_name_H-M "P C C A"
_symmetry_group_IT_number 54
_symmetry_cell_setting 'orthorhombic'
loop_
_space_group_symop_operation_xyz
x,y,z
1/2-x,-y,z
1/2+x,-y,1/2-z
-x,y,1/2-z
-x,-y,-z
1/2+x,y,-z
1/2-x,y,1/2+z
x,-y,1/2+z
loop_
_atom_site_type_symbol
_atom_site_label
_atom_site_fract_x
_atom_site_fract_y
_atom_site_fract_z
Si Si1 0.750000 0.500000 0.102499
Si Si2 0.878768 0.225608 0.550349
Si Si3 0.180996 0.679396 0.558176
Si Si4 0.498758 0.080134 0.809738
Si Si5 0.750000 0.000000 0.132745
Si Si6 0.502474 0.577217 0.140289
Si Si7 0.901948 0.208183 0.879594
O O1 0.653908 0.417995 0.063178
O O2 0.647992 0.577722 0.139575
O O3 0.845800 0.207010 0.491539
O O4 0.011838 0.182316 0.570229
O O5 0.791184 0.142339 0.592416
O O6 0.250000 0.500000 0.546664
O O7 0.056187 0.639415 0.586792
O O8 0.268929 0.768136 0.598733
O O9 0.500000 0.043507 0.750000
O O10 0.364963 0.047610 0.833306
O O11 0.534964 0.275577 0.820235
O O12 0.579953 0.946807 0.841337
O O13 0.450370 0.385422 0.145982
#
# Coordination Sequence:
#
# PCOD9420695 Si02
#       7
#     4   8   8   8   4   8   8
#     4  10  18  34  60  84 122 154 206 244 282 364
#     4  10  19  33  60  86 123 167 196 239 295 369
#     4  10  21  36  61  91 130 166 199 240 309 371
#     4  11  24  43  67  87 118 160 211 260 322 364
#     4  10  22  40  56  94 122 154 210 260 298 372
#     4  10  22  39  63  91 122 164 202 255 306 363
#     4   9  23  39  58  93 130 156 203 261 298 363
#
# _framework density 21.056792999999999
#
# number of rings (size 3 to 8) (size 9 to 14) (size 15 to 20)
#    0.000    2.000    2.500    0.000    2.333    6.000 
#    0.000    3.333    5.500    0.000    0.000    0.000 
#    0.000    0.000    0.000    0.000    0.000    0.000 
#
# Total GULP energy -267349.151392 kJ/mol
# GULP energy per Si atom -5569.773987 kJ/mol
# Density = 2.100887 g / cm^3
# Si number density = 21.056793 Si / 1000 Ang^3
#
#
#
# Elastic Constant Matrix: (Units=GPa)
#
#
# Indices 1 2 3 4 5 6 
#
# 1 106.6555 37.7647 61.0523 0.0000 0.0000 0.0000
# 2 37.7647 73.1819 50.3343 0.0000 0.0000 0.0000
# 3 61.0523 50.3343 108.1887 0.0000 0.0000 0.0000
# 4 0.0000 0.0000 0.0000 24.6141 0.0000 0.0000
# 5 0.0000 0.0000 0.0000 0.0000 11.0123 0.0000
# 6 0.0000 0.0000 0.0000 0.0000 0.0000 19.5160
#
#
#
# Elastic Compliance Matrix: (Units=1/GPa)
#
#
# Indices 1 2 3 4 5 6 
#
# 1 0.014196 -0.002670 -0.006769 0.000000 0.000000 0.000000
# 2 -0.002670 0.020597 -0.008076 0.000000 0.000000 0.000000
# 3 -0.006769 -0.008076 0.016820 0.000000 0.000000 0.000000
# 4 0.000000 0.000000 0.000000 0.040627 0.000000 0.000000
# 5 0.000000 0.000000 0.000000 0.000000 0.090807 0.000000
# 6 0.000000 0.000000 0.000000 0.000000 0.000000 0.051240
#
#
# Mechanical properties :
#
#
# Convention : Reuss Voigt Hill
#
# Bulk Modulus (GPa) = 60.30057 65.14763 62.72410
# Shear Modulus (GPa) = 18.19208 20.28681 19.23944
#
# Velocity S-wave (km/s) = 2.94250 3.10729 3.02601
# Velocity P-wave (km/s) = 6.34379 6.62419 6.48550
#
# Compressibility (1/GPa) = 0.01658359
#
# Stress axis : x y z
#
# Youngs Moduli (GPa) = 70.44232 48.55059 59.45296
#
# Poissons Ratio (x) = 0.12964 0.40242
# Poissons Ratio (y) = 0.18810 0.48013
# Poissons Ratio (z) = 0.47680 0.39209
#
# Static dielectric constant tensor:
#      x y z
#    x 1.739730 0.000000 0.000000 
#    y 0.000000 -1.183420 0.000000 
#    z 0.000000 0.000000 1.746880 
# 
# From -- ./inp_files/24131.got.cif
#   From: 2010.05.17/outbox.cif.g08.bks.cpg/sg54_13_cif.got.tgz:24131.got - 2010.06.03 13:09:01.
