data_PCOD9420589
_publ_section_title
;
Structure prediction by ZEFSAII (Michael W. Deem and Ramdas Pophale) SiO2 
 PCOD9420589
Probable space group: P C C A
;
_chemical_formula_sum "Si O2"
_cell_formula_units_Z 44
_cell_length_a 11.048428
_cell_length_b 7.245119
_cell_length_c 20.157698
_cell_angle_alpha 90.000000
_cell_angle_beta 90.000000
_cell_angle_gamma 90.000000
_cell_volume 1613.566792
_symmetry_space_group_name_H-M "P C C A"
_symmetry_group_IT_number 54
_symmetry_cell_setting 'orthorhombic'
loop_
_space_group_symop_operation_xyz
x,y,z
1/2-x,-y,z
1/2+x,-y,1/2-z
-x,y,1/2-z
-x,-y,-z
1/2+x,y,-z
1/2-x,y,1/2+z
x,-y,1/2+z
loop_
_atom_site_type_symbol
_atom_site_label
_atom_site_fract_x
_atom_site_fract_y
_atom_site_fract_z
Si Si1 0.852734 0.280629 0.038039
Si Si2 0.108727 0.262221 0.314447
Si Si3 0.594045 0.275204 0.033387
Si Si4 0.655742 0.157173 0.829979
Si Si5 0.500703 0.326752 0.178812
Si Si6 0.750000 0.500000 0.362568
O O1 0.829046 0.247783 0.115534
O O2 0.725736 0.205289 0.011274
O O3 0.878736 0.501499 0.028505
O O4 0.977806 0.207607 0.007994
O O5 0.179328 0.217128 0.247411
O O6 0.988633 0.137482 0.324091
O O7 0.069329 0.477329 0.309669
O O8 0.554850 0.245966 0.110814
O O9 0.669421 0.325407 0.882309
O O10 0.750000 0.000000 0.846668
O O11 0.500000 0.226860 0.250000
O O12 0.361087 0.379966 0.166332
#
# Coordination Sequence:
#
# PCOD9420589 Si02
#       6
#     8   8   8   8   8   4
#     4   9  18  32  53  76 124 161 220 269 324 378
#     4   9  18  36  52  80 124 166 201 268 334 377
#     4   9  19  30  51  84 115 170 217 268 321 394
#     4  10  20  36  56  87 124 165 208 256 323 391
#     4  10  18  31  53  85 127 161 210 269 333 388
#     4  10  20  34  58  86 128 162 200 266 320 382
#
# _framework density 27.268782000000002
#
# number of rings (size 3 to 8) (size 9 to 14) (size 15 to 20)
#    0.000    2.545    3.636    0.000    2.545    5.818 
#    3.273    0.000    0.000    0.000    0.000   11.455 
#    0.000    0.000    0.000    0.000    0.000    0.000 
#
# Total GULP energy -245231.040620 kJ/mol
# GULP energy per Si atom -5573.432741 kJ/mol
# Density = 2.720672 g / cm^3
# Si number density = 27.268782 Si / 1000 Ang^3
#
#
#
# Elastic Constant Matrix: (Units=GPa)
#
#
# Indices 1 2 3 4 5 6 
#
# 1 193.2349 12.1826 60.5562 0.0000 0.0000 0.0000
# 2 12.1826 111.0408 2.4875 0.0000 0.0000 0.0000
# 3 60.5562 2.4875 142.9759 0.0000 0.0000 0.0000
# 4 0.0000 0.0000 0.0000 19.3378 0.0000 0.0000
# 5 0.0000 0.0000 0.0000 0.0000 7.1355 0.0000
# 6 0.0000 0.0000 0.0000 0.0000 0.0000 6.5164
#
#
#
# Elastic Compliance Matrix: (Units=1/GPa)
#
#
# Indices 1 2 3 4 5 6 
#
# 1 0.006007 -0.000602 -0.002534 0.000000 0.000000 0.000000
# 2 -0.000602 0.009070 0.000097 0.000000 0.000000 0.000000
# 3 -0.002534 0.000097 0.008066 0.000000 0.000000 0.000000
# 4 0.000000 0.000000 0.000000 0.051712 0.000000 0.000000
# 5 0.000000 0.000000 0.000000 0.000000 0.140145 0.000000
# 6 0.000000 0.000000 0.000000 0.000000 0.000000 0.153459
#
#
# Mechanical properties :
#
#
# Convention : Reuss Voigt Hill
#
# Bulk Modulus (GPa) = 58.60015 66.41158 62.50586
# Shear Modulus (GPa) = 13.15014 31.39963 22.27489
#
# Velocity S-wave (km/s) = 2.19838 3.39704 2.86118
# Velocity P-wave (km/s) = 5.28964 6.30823 5.82126
#
# Compressibility (1/GPa) = 0.01706480
#
# Stress axis : x y z
#
# Youngs Moduli (GPa) = 166.47105 110.25843 123.98270
#
# Poissons Ratio (x) = 0.06641 0.31414
# Poissons Ratio (y) = 0.10026 -0.01206
# Poissons Ratio (z) = 0.42180 -0.01073
#
# Static dielectric constant tensor:
#      x y z
#    x 2.192850 0.000000 0.000000 
#    y 0.000000 2.248210 0.000000 
#    z 0.000000 0.000000 2.222540 
# 
# From -- ./inp_files/23996.got.cif
#   From: 2010.05.17/outbox.cif.g08.bks.cpg/sg54_12_cif.got.tgz:23996.got - 2010.06.03 13:09:01.
