data_PCOD9420972
_publ_section_title
;
Structure prediction by ZEFSAII (Michael W. Deem and Ramdas Pophale) SiO2 
 PCOD9420972
Probable space group: P C C A
;
_chemical_formula_sum "Si O2"
_cell_formula_units_Z 48
_cell_length_a 15.997603
_cell_length_b 8.649952
_cell_length_c 14.873113
_cell_angle_alpha 90.000000
_cell_angle_beta 90.000000
_cell_angle_gamma 90.000000
_cell_volume 2058.119038
_symmetry_space_group_name_H-M "P C C A"
_symmetry_group_IT_number 54
_symmetry_cell_setting 'orthorhombic'
loop_
_space_group_symop_operation_xyz
x,y,z
1/2-x,-y,z
1/2+x,-y,1/2-z
-x,y,1/2-z
-x,-y,-z
1/2+x,y,-z
1/2-x,y,1/2+z
x,-y,1/2+z
loop_
_atom_site_type_symbol
_atom_site_label
_atom_site_fract_x
_atom_site_fract_y
_atom_site_fract_z
Si Si1 0.282429 0.678189 0.577350
Si Si2 0.812485 0.764572 0.763165
Si Si3 0.367517 0.587311 0.408333
Si Si4 0.075327 0.017292 0.803833
Si Si5 0.030515 0.725415 0.618393
Si Si6 0.357636 0.759761 0.952668
O O1 0.250000 0.500000 0.582187
O O2 0.271516 0.739150 0.679097
O O3 0.359621 0.662347 0.508459
O O4 0.219904 0.787189 0.519540
O O5 0.816369 0.684976 0.665758
O O6 0.888573 0.689450 0.821530
O O7 0.850400 0.936351 0.752779
O O8 0.463589 0.590635 0.379501
O O9 0.341233 0.410892 0.414558
O O10 0.121734 0.119247 0.876729
O O11 0.000000 0.101125 0.750000
O O12 0.021968 0.874653 0.847771
O O13 0.063531 0.752783 0.519025
#
# Coordination Sequence:
#
# PCOD9420972 Si02
#       6
#     8   8   8   8   8   8
#     4   9  20  36  56  81 111 151 192 235 288 341
#     4   9  19  37  59  79 111 154 191 229 287 352
#     4  10  19  34  58  85 111 147 192 242 289 336
#     4   9  18  33  56  84 114 151 188 231 288 343
#     4   9  18  35  57  82 113 150 186 231 289 348
#     4  10  19  33  55  83 113 145 190 240 285 338
#
# _framework density 23.322265999999999
#
# number of rings (size 3 to 8) (size 9 to 14) (size 15 to 20)
#    0.000    2.667    0.000    2.500    0.000    3.333 
#    0.000    5.000    0.000   20.000    0.000    0.000 
#    0.000    0.000    0.000    0.000    0.000    0.000 
#
# Total GULP energy -267714.871688 kJ/mol
# GULP energy per Si atom -5577.393160 kJ/mol
# Density = 2.326918 g / cm^3
# Si number density = 23.322266 Si / 1000 Ang^3
#
#
#
# Elastic Constant Matrix: (Units=GPa)
#
#
# Indices 1 2 3 4 5 6 
#
# 1 54.5953 12.0269 18.7007 0.0000 0.0000 0.0000
# 2 12.0269 31.9821 21.7345 0.0000 0.0000 0.0000
# 3 18.7007 21.7345 103.9769 0.0000 0.0000 0.0000
# 4 0.0000 0.0000 0.0000 30.3244 0.0000 0.0000
# 5 0.0000 0.0000 0.0000 0.0000 27.6875 0.0000
# 6 0.0000 0.0000 0.0000 0.0000 0.0000 24.5940
#
#
#
# Elastic Compliance Matrix: (Units=1/GPa)
#
#
# Indices 1 2 3 4 5 6 
#
# 1 0.020479 -0.006059 -0.002417 0.000000 0.000000 0.000000
# 2 -0.006059 0.038237 -0.006903 0.000000 0.000000 0.000000
# 3 -0.002417 -0.006903 0.011495 0.000000 0.000000 0.000000
# 4 0.000000 0.000000 0.000000 0.032977 0.000000 0.000000
# 5 0.000000 0.000000 0.000000 0.000000 0.036117 0.000000
# 6 0.000000 0.000000 0.000000 0.000000 0.000000 0.040660
#
#
# Mechanical properties :
#
#
# Convention : Reuss Voigt Hill
#
# Bulk Modulus (GPa) = 25.34591 32.83094 29.08843
# Shear Modulus (GPa) = 22.33393 25.72733 24.03063
#
# Velocity S-wave (km/s) = 3.09790 3.32493 3.21342
# Velocity P-wave (km/s) = 4.86696 5.37102 5.12519
#
# Compressibility (1/GPa) = 0.03945410
#
# Stress axis : x y z
#
# Youngs Moduli (GPa) = 48.83022 26.15255 86.99315
#
# Poissons Ratio (x) = 0.15845 0.21024
# Poissons Ratio (y) = 0.29585 0.60052
# Poissons Ratio (z) = 0.11801 0.18053
#
# Static dielectric constant tensor:
#      x y z
#    x 1.931260 0.000000 0.000000 
#    y 0.000000 1.848060 0.000000 
#    z 0.000000 0.000000 1.965100 
# 
# From -- ./inp_files/14118.got.cif
#   From: 2010.05.17/outbox.cif.g08.bks.cpg/sg54_8_cif.got.tgz:14118.got - 2010.06.03 13:09:01.
