data_PCOD9420365
_publ_section_title
;
Structure prediction by ZEFSAII (Michael W. Deem and Ramdas Pophale) SiO2 
 PCOD9420365
Probable space group: P C C A
;
_chemical_formula_sum "Si O2"
_cell_formula_units_Z 60
_cell_length_a 5.388272
_cell_length_b 24.786092
_cell_length_c 23.211356
_cell_angle_alpha 90.000000
_cell_angle_beta 90.000000
_cell_angle_gamma 90.000000
_cell_volume 3099.974209
_symmetry_space_group_name_H-M "P C C A"
_symmetry_group_IT_number 54
_symmetry_cell_setting 'orthorhombic'
loop_
_space_group_symop_operation_xyz
x,y,z
1/2-x,-y,z
1/2+x,-y,1/2-z
-x,y,1/2-z
-x,-y,-z
1/2+x,y,-z
1/2-x,y,1/2+z
x,-y,1/2+z
loop_
_atom_site_type_symbol
_atom_site_label
_atom_site_fract_x
_atom_site_fract_y
_atom_site_fract_z
Si Si1 0.250000 0.500000 0.403412
Si Si2 0.487173 0.590179 0.535524
Si Si3 0.596631 0.324350 0.814600
Si Si4 0.923902 0.550049 0.815386
Si Si5 0.005210 0.196703 0.566122
Si Si6 0.001608 0.023020 0.065432
Si Si7 0.419270 0.691023 0.882476
Si Si8 0.491564 0.151567 0.935045
O O1 0.457523 0.469551 0.440101
O O2 0.356734 0.545303 0.361090
O O3 0.211337 0.596764 0.510502
O O4 0.526785 0.635924 0.583415
O O5 0.500000 0.311811 0.750000
O O6 0.661515 0.388551 0.815933
O O7 0.357349 0.312003 0.855215
O O8 0.857043 0.299531 0.836323
O O9 0.750000 0.500000 0.831263
O O10 0.000000 0.538749 0.750000
O O11 0.948553 0.259583 0.572789
O O12 0.769062 0.166746 0.593234
O O13 0.022024 0.176317 0.499894
O O14 0.267072 0.178722 0.592499
O O15 0.013297 0.087358 0.061666
O O16 0.750000 0.000000 0.092441
O O17 0.250000 0.000000 0.093551
O O18 0.000000 0.000000 0.000000
#
# Coordination Sequence:
#
# PCOD9420365 Si02
#       8
#     4   8   8   8   8   8   8   8
#     4  12  24  44  58  84 112 148 176 228 288 356
#     4  12  28  43  61  82 116 152 193 224 269 340
#     4  11  25  44  66  90 113 134 175 236 299 370
#     4  11  23  38  65  90 111 135 171 230 300 365
#     4  10  20  31  52  70 107 140 196 237 270 306
#     4  10  16  25  43  66 103 147 200 238 278 320
#     4  12  24  43  63  87 109 152 190 234 294 333
#     4  10  19  32  46  78 106 156 201 244 264 311
#
# _framework density 19.355001000000001
#
# number of rings (size 3 to 8) (size 9 to 14) (size 15 to 20)
#    0.000    1.067    2.000    7.200    5.600    0.000 
#    0.000    0.000    0.000    0.000    0.000    0.000 
#    0.000    0.000    0.000    0.000    0.000  568.000 
#
# Total GULP energy -334739.644565 kJ/mol
# GULP energy per Si atom -5578.994076 kJ/mol
# Density = 1.931095 g / cm^3
# Si number density = 19.355001 Si / 1000 Ang^3
#
#
#
# Elastic Constant Matrix: (Units=GPa)
#
#
# Indices 1 2 3 4 5 6 
#
# 1 104.9571 -6.4954 2.5193 0.0000 0.0000 0.0000
# 2 -6.4954 71.9032 11.9776 0.0000 0.0000 0.0000
# 3 2.5193 11.9776 39.4342 0.0000 0.0000 0.0000
# 4 0.0000 0.0000 0.0000 8.5201 0.0000 0.0000
# 5 0.0000 0.0000 0.0000 0.0000 60.1658 0.0000
# 6 0.0000 0.0000 0.0000 0.0000 0.0000 28.5924
#
#
#
# Elastic Compliance Matrix: (Units=1/GPa)
#
#
# Indices 1 2 3 4 5 6 
#
# 1 0.009613 0.001022 -0.000925 0.000000 0.000000 0.000000
# 2 0.001022 0.014758 -0.004548 0.000000 0.000000 0.000000
# 3 -0.000925 -0.004548 0.026799 0.000000 0.000000 0.000000
# 4 0.000000 0.000000 0.000000 0.117370 0.000000 0.000000
# 5 0.000000 0.000000 0.000000 0.000000 0.016621 0.000000
# 6 0.000000 0.000000 0.000000 0.000000 0.000000 0.034974
#
#
# Mechanical properties :
#
#
# Convention : Reuss Voigt Hill
#
# Bulk Modulus (GPa) = 23.65755 25.81084 24.73420
# Shear Modulus (GPa) = 20.56559 33.34186 26.95372
#
# Velocity S-wave (km/s) = 3.26321 4.15498 3.73580
# Velocity P-wave (km/s) = 5.14272 6.03183 5.60493
#
# Compressibility (1/GPa) = 0.04226980
#
# Stress axis : x y z
#
# Youngs Moduli (GPa) = 104.02396 67.76212 37.31473
#
# Poissons Ratio (x) = -0.06928 0.03451
# Poissons Ratio (y) = -0.10636 0.16970
# Poissons Ratio (z) = 0.09619 0.30816
#
# Static dielectric constant tensor:
#      x y z
#    x 1.796630 0.000000 0.000000 
#    y 0.000000 1.721480 0.000000 
#    z 0.000000 0.000000 1.597630 
# 
# From -- ./inp_files/19888.got.cif
#   From: 2010.05.17/outbox.cif.g08.bks.cpg/sg54_10_cif.got.tgz:19888.got - 2010.06.03 13:09:01.
