data_PCOD9420733
_publ_section_title
;
Structure prediction by ZEFSAII (Michael W. Deem and Ramdas Pophale) SiO2 
 PCOD9420733
Probable space group: P C C A
;
_chemical_formula_sum "Si O2"
_cell_formula_units_Z 44
_cell_length_a 14.343470
_cell_length_b 5.334464
_cell_length_c 26.671033
_cell_angle_alpha 90.000000
_cell_angle_beta 90.000000
_cell_angle_gamma 90.000000
_cell_volume 2040.726738
_symmetry_space_group_name_H-M "P C C A"
_symmetry_group_IT_number 54
_symmetry_cell_setting 'orthorhombic'
loop_
_space_group_symop_operation_xyz
x,y,z
1/2-x,-y,z
1/2+x,-y,1/2-z
-x,y,1/2-z
-x,-y,-z
1/2+x,y,-z
1/2-x,y,1/2+z
x,-y,1/2+z
loop_
_atom_site_type_symbol
_atom_site_label
_atom_site_fract_x
_atom_site_fract_y
_atom_site_fract_z
Si Si1 0.250000 0.000000 0.092192
Si Si2 0.903139 0.663685 0.887366
Si Si3 0.092333 0.280085 0.528828
Si Si4 0.145317 0.979469 0.828867
Si Si5 0.534488 0.526137 0.694357
Si Si6 0.567696 0.974361 0.070529
O O1 0.195293 0.207960 0.124330
O O2 0.329611 0.113447 0.056569
O O3 0.893401 0.538716 0.942291
O O4 0.948381 0.483800 0.845646
O O5 0.983587 0.867361 0.895656
O O6 0.101771 0.228436 0.470010
O O7 0.985673 0.195527 0.541228
O O8 0.081629 0.200860 0.806525
O O9 0.250000 0.000000 0.809470
O O10 0.105763 0.699036 0.820074
O O11 0.143667 0.041435 0.888675
O O12 0.500000 0.470784 0.750000
#
# Coordination Sequence:
#
# PCOD9420733 Si02
#       6
#     4   8   8   8   8   8
#     4  10  22  34  54  90 126 164 220 268 318 394
#     4  10  20  39  60  86 128 170 220 271 330 397
#     4  10  18  36  55  88 124 170 213 260 325 401
#     4  11  23  44  68 104 134 167 226 284 336 403
#     4  11  24  46  72  94 131 181 221 282 354 406
#     4   9  20  34  61  86 124 169 211 258 335 397
#
# _framework density 21.560945
#
# number of rings (size 3 to 8) (size 9 to 14) (size 15 to 20)
#    0.000    1.818    1.818    2.182    1.273    0.000 
#    1.636    5.455    0.000    0.000    0.000    0.000 
#    0.000    0.000    0.000    0.000    0.000    0.000 
#
# Total GULP energy -245293.795816 kJ/mol
# GULP energy per Si atom -5574.858996 kJ/mol
# Density = 2.151187 g / cm^3
# Si number density = 21.560945 Si / 1000 Ang^3
#
#
#
# Elastic Constant Matrix: (Units=GPa)
#
#
# Indices 1 2 3 4 5 6 
#
# 1 90.1744 18.6225 8.5978 0.0000 0.0000 0.0000
# 2 18.6225 66.1896 -16.6578 0.0000 0.0000 0.0000
# 3 8.5978 -16.6578 51.4083 0.0000 0.0000 0.0000
# 4 0.0000 0.0000 0.0000 15.7862 0.0000 0.0000
# 5 0.0000 0.0000 0.0000 0.0000 6.3117 0.0000
# 6 0.0000 0.0000 0.0000 0.0000 0.0000 34.0338
#
#
#
# Elastic Compliance Matrix: (Units=1/GPa)
#
#
# Indices 1 2 3 4 5 6 
#
# 1 0.012316 -0.004337 -0.003465 0.000000 0.000000 0.000000
# 2 -0.004337 0.017977 0.006550 0.000000 0.000000 0.000000
# 3 -0.003465 0.006550 0.022154 0.000000 0.000000 0.000000
# 4 0.000000 0.000000 0.000000 0.063346 0.000000 0.000000
# 5 0.000000 0.000000 0.000000 0.000000 0.158436 0.000000
# 6 0.000000 0.000000 0.000000 0.000000 0.000000 0.029383
#
#
# Mechanical properties :
#
#
# Convention : Reuss Voigt Hill
#
# Bulk Modulus (GPa) = 20.02276 25.43305 22.72791
# Shear Modulus (GPa) = 15.49126 24.37368 19.93247
#
# Velocity S-wave (km/s) = 2.68337 3.36587 3.04381
# Velocity P-wave (km/s) = 4.34826 5.18912 4.78719
#
# Compressibility (1/GPa) = 0.04994315
#
# Stress axis : x y z
#
# Youngs Moduli (GPa) = 81.19731 55.62701 45.13829
#
# Poissons Ratio (x) = 0.24126 0.15641
# Poissons Ratio (y) = 0.35216 -0.29567
# Poissons Ratio (z) = 0.28136 -0.36438
#
# Static dielectric constant tensor:
#      x y z
#    x 1.821220 0.000000 0.000000 
#    y 0.000000 1.875840 0.000000 
#    z 0.000000 0.000000 1.791350 
# 
# From -- ./inp_files/26381.got.cif
#   From: 2010.05.17/outbox.cif.g08.bks.cpg/sg54_14_cif.got.tgz:26381.got - 2010.06.03 13:09:01.
