data_PCOD9420770
_publ_section_title
;
Structure prediction by ZEFSAII (Michael W. Deem and Ramdas Pophale) SiO2 
 PCOD9420770
Probable space group: P C C A
;
_chemical_formula_sum "Si O2"
_cell_formula_units_Z 36
_cell_length_a 13.531415
_cell_length_b 6.049657
_cell_length_c 18.104739
_cell_angle_alpha 90.000000
_cell_angle_beta 90.000000
_cell_angle_gamma 90.000000
_cell_volume 1482.061529
_symmetry_space_group_name_H-M "P C C A"
_symmetry_group_IT_number 54
_symmetry_cell_setting 'orthorhombic'
loop_
_space_group_symop_operation_xyz
x,y,z
1/2-x,-y,z
1/2+x,-y,1/2-z
-x,y,1/2-z
-x,-y,-z
1/2+x,y,-z
1/2-x,y,1/2+z
x,-y,1/2+z
loop_
_atom_site_type_symbol
_atom_site_label
_atom_site_fract_x
_atom_site_fract_y
_atom_site_fract_z
Si Si1 0.457285 0.929506 0.824862
Si Si2 0.750000 0.000000 0.248286
Si Si3 0.635537 0.733627 0.362812
Si Si4 0.742516 0.240602 0.513819
Si Si5 0.454115 0.350909 0.062814
O O1 0.500000 0.819970 0.750000
O O2 0.460804 0.786747 0.898410
O O3 0.347142 0.983370 0.801100
O O4 0.538026 0.121555 0.843185
O O5 0.719431 0.800702 0.304168
O O6 0.682253 0.766000 0.444166
O O7 0.596677 0.485828 0.370407
O O8 0.750000 0.500000 0.544247
O O9 0.633459 0.227272 0.477928
O O10 0.750000 0.000000 0.553009
O O11 0.500000 0.500000 0.000000
#
# Coordination Sequence:
#
# PCOD9420770 Si02
#       5
#     8   4   8   8   8
#     4  10  21  41  67  99 135 180 237 298 363 441
#     4  10  20  40  70 100 136 180 238 306 368 436
#     4  10  20  41  67  93 132 181 235 289 366 442
#     4  10  18  37  66  98 133 184 237 279 353 442
#     4  11  24  41  67 105 142 188 240 306 373 451
#
# _framework density 24.290490999999999
#
# number of rings (size 3 to 8) (size 9 to 14) (size 15 to 20)
#    0.000    1.778    3.333    1.333    0.000    3.556 
#    0.000   13.333    0.000    0.000    0.000    0.000 
#    0.000    0.000    0.000    0.000    0.000    0.000 
#
# Total GULP energy -200726.092913 kJ/mol
# GULP energy per Si atom -5575.724803 kJ/mol
# Density = 2.423520 g / cm^3
# Si number density = 24.290491 Si / 1000 Ang^3
#
#
#
# Elastic Constant Matrix: (Units=GPa)
#
#
# Indices 1 2 3 4 5 6 
#
# 1 143.5269 29.2084 45.7139 0.0000 0.0000 0.0000
# 2 29.2084 115.4060 35.2241 0.0000 0.0000 0.0000
# 3 45.7139 35.2241 93.1834 0.0000 0.0000 0.0000
# 4 0.0000 0.0000 0.0000 2.1178 0.0000 0.0000
# 5 0.0000 0.0000 0.0000 0.0000 24.2121 0.0000
# 6 0.0000 0.0000 0.0000 0.0000 0.0000 35.4379
#
#
#
# Elastic Compliance Matrix: (Units=1/GPa)
#
#
# Indices 1 2 3 4 5 6 
#
# 1 0.008354 -0.000976 -0.003729 0.000000 0.000000 0.000000
# 2 -0.000976 0.009909 -0.003267 0.000000 0.000000 0.000000
# 3 -0.003729 -0.003267 0.013796 0.000000 0.000000 0.000000
# 4 0.000000 0.000000 0.000000 0.472182 0.000000 0.000000
# 5 0.000000 0.000000 0.000000 0.000000 0.041302 0.000000
# 6 0.000000 0.000000 0.000000 0.000000 0.000000 0.028218
#
#
# Mechanical properties :
#
#
# Convention : Reuss Voigt Hill
#
# Bulk Modulus (GPa) = 62.05596 63.60100 62.82848
# Shear Modulus (GPa) = 8.40227 28.48489 18.44358
#
# Velocity S-wave (km/s) = 1.86188 3.42815 2.75852
# Velocity P-wave (km/s) = 5.49773 6.47379 6.00562
#
# Compressibility (1/GPa) = 0.01611449
#
# Stress axis : x y z
#
# Youngs Moduli (GPa) = 119.70690 100.91609 72.48512
#
# Poissons Ratio (x) = 0.09850 0.27031
# Poissons Ratio (y) = 0.11684 0.23680
# Poissons Ratio (z) = 0.44641 0.32969
#
# Static dielectric constant tensor:
#      x y z
#    x 1.970940 0.000000 0.000000 
#    y 0.000000 2.125650 0.000000 
#    z 0.000000 0.000000 1.898370 
# 
# From -- ./inp_files/23873.got.cif
#   From: 2010.05.17/outbox.cif.g08.bks.cpg/sg54_12_cif.got.tgz:23873.got - 2010.06.03 13:09:01.
