data_PCOD9420699
_publ_section_title
;
Structure prediction by ZEFSAII (Michael W. Deem and Ramdas Pophale) SiO2 
 PCOD9420699
Probable space group: P C C A
;
_chemical_formula_sum "Si O2"
_cell_formula_units_Z 44
_cell_length_a 14.711969
_cell_length_b 8.230013
_cell_length_c 15.141437
_cell_angle_alpha 90.000000
_cell_angle_beta 90.000000
_cell_angle_gamma 90.000000
_cell_volume 1833.320591
_symmetry_space_group_name_H-M "P C C A"
_symmetry_group_IT_number 54
_symmetry_cell_setting 'orthorhombic'
loop_
_space_group_symop_operation_xyz
x,y,z
1/2-x,-y,z
1/2+x,-y,1/2-z
-x,y,1/2-z
-x,-y,-z
1/2+x,y,-z
1/2-x,y,1/2+z
x,-y,1/2+z
loop_
_atom_site_type_symbol
_atom_site_label
_atom_site_fract_x
_atom_site_fract_y
_atom_site_fract_z
Si Si1 0.250000 0.000000 0.093516
Si Si2 0.547474 0.164356 0.066633
Si Si3 0.570990 0.083916 0.868008
Si Si4 0.652604 0.310882 0.483429
Si Si5 0.115228 0.470543 0.854859
Si Si6 0.098358 0.543788 0.663589
O O1 0.336513 0.999445 0.159041
O O2 0.223989 0.833046 0.039224
O O3 0.450389 0.242219 0.034535
O O4 0.619274 0.292349 0.103343
O O5 0.518502 0.026156 0.137622
O O6 0.583961 0.095285 0.974859
O O7 0.579865 0.264386 0.833682
O O8 0.653884 0.390462 0.580836
O O9 0.652985 0.465424 0.417143
O O10 0.143635 0.486447 0.754124
O O11 0.005441 0.485454 0.847939
#
# Coordination Sequence:
#
# PCOD9420699 Si02
#       6
#     4   8   8   8   8   8
#     4  10  24  34  60  76 118 170 200 230 316 358
#     4   9  17  33  63  83 115 140 193 252 309 340
#     4  10  18  35  57  86 110 157 190 248 302 364
#     4  10  18  38  58  86 116 154 199 250 288 371
#     4  10  18  34  60  95 111 147 199 257 303 362
#     4  10  19  33  62  88 119 150 197 254 309 350
#
# _framework density 24.000166
#
# number of rings (size 3 to 8) (size 9 to 14) (size 15 to 20)
#    0.000    2.182    3.636    1.091    0.000    0.727 
#    0.000   11.818    8.000    0.000    0.000    0.000 
#    0.000    0.000    0.000    0.000    0.000    0.000 
#
# Total GULP energy -245122.380419 kJ/mol
# GULP energy per Si atom -5570.963191 kJ/mol
# Density = 2.394554 g / cm^3
# Si number density = 24.000166 Si / 1000 Ang^3
#
#
#
# Elastic Constant Matrix: (Units=GPa)
#
#
# Indices 1 2 3 4 5 6 
#
# 1 73.8890 -0.6816 -2.2196 0.0000 0.0000 0.0000
# 2 -0.6816 108.2939 15.5914 0.0000 0.0000 0.0000
# 3 -2.2196 15.5914 73.4992 0.0000 0.0000 0.0000
# 4 0.0000 0.0000 0.0000 10.4278 0.0000 0.0000
# 5 0.0000 0.0000 0.0000 0.0000 1.0773 0.0000
# 6 0.0000 0.0000 0.0000 0.0000 0.0000 36.7835
#
#
#
# Elastic Compliance Matrix: (Units=1/GPa)
#
#
# Indices 1 2 3 4 5 6 
#
# 1 0.013546 0.000027 0.000403 0.000000 0.000000 0.000000
# 2 0.000027 0.009525 -0.002020 0.000000 0.000000 0.000000
# 3 0.000403 -0.002020 0.014046 0.000000 0.000000 0.000000
# 4 0.000000 0.000000 0.000000 0.095898 0.000000 0.000000
# 5 0.000000 0.000000 0.000000 0.000000 0.928247 0.000000
# 6 0.000000 0.000000 0.000000 0.000000 0.000000 0.027186
#
#
# Mechanical properties :
#
#
# Convention : Reuss Voigt Hill
#
# Bulk Modulus (GPa) = 29.46461 31.22918 30.34689
# Shear Modulus (GPa) = 4.53334 25.85717 15.19525
#
# Velocity S-wave (km/s) = 1.37586 3.28590 2.51894
# Velocity P-wave (km/s) = 3.85064 5.23799 4.59695
#
# Compressibility (1/GPa) = 0.03393902
#
# Stress axis : x y z
#
# Youngs Moduli (GPa) = 73.82152 104.98591 71.19353
#
# Poissons Ratio (x) = -0.00285 -0.02871
# Poissons Ratio (y) = -0.00201 0.14379
# Poissons Ratio (z) = -0.02977 0.21204
#
# Static dielectric constant tensor:
#      x y z
#    x 2.303710 0.000000 0.000000 
#    y 0.000000 2.083540 0.000000 
#    z 0.000000 0.000000 1.956520 
# 
# From -- ./inp_files/14027.got.cif
#   From: 2010.05.17/outbox.cif.g08.bks.cpg/sg54_8_cif.got.tgz:14027.got - 2010.06.03 13:09:01.
