data_PCOD9420906
_publ_section_title
;
Structure prediction by ZEFSAII (Michael W. Deem and Ramdas Pophale) SiO2 
 PCOD9420906
Probable space group: P C C A
;
_chemical_formula_sum "Si O2"
_cell_formula_units_Z 56
_cell_length_a 14.018151
_cell_length_b 33.010359
_cell_length_c 5.123247
_cell_angle_alpha 90.000000
_cell_angle_beta 90.000000
_cell_angle_gamma 90.000000
_cell_volume 2370.752819
_symmetry_space_group_name_H-M "P C C A"
_symmetry_group_IT_number 54
_symmetry_cell_setting 'orthorhombic'
loop_
_space_group_symop_operation_xyz
x,y,z
1/2-x,-y,z
1/2+x,-y,1/2-z
-x,y,1/2-z
-x,-y,-z
1/2+x,y,-z
1/2-x,y,1/2+z
x,-y,1/2+z
loop_
_atom_site_type_symbol
_atom_site_label
_atom_site_fract_x
_atom_site_fract_y
_atom_site_fract_z
Si Si1 0.114644 0.399097 0.213069
Si Si2 0.889304 0.018687 0.189430
Si Si3 0.315936 0.187006 0.090630
Si Si4 0.142628 0.483779 0.930623
Si Si5 0.817471 0.103059 0.046608
Si Si6 0.186100 0.274249 0.506240
Si Si7 0.612218 0.357367 0.285597
O O1 0.140475 0.440788 0.071485
O O2 0.151197 0.389737 0.503552
O O3 0.000000 0.398797 0.250000
O O4 0.147730 0.364425 0.008641
O O5 0.878914 0.062493 0.058333
O O6 0.000000 0.010823 0.250000
O O7 0.848121 0.013360 0.480706
O O8 0.272763 0.186309 0.382518
O O9 0.129905 0.145718 0.513427
O O10 0.363750 0.230655 0.049015
O O11 0.250000 0.500000 0.880491
O O12 0.098260 0.514544 0.142705
O O13 0.761933 0.102599 0.320456
O O14 0.225666 0.274965 0.212394
O O15 0.127476 0.313573 0.588165
O O16 0.500000 0.364117 0.250000
#
# Coordination Sequence:
#
# PCOD9420906 Si02
#       7
#     8   8   8   8   8   8   8
#     4  10  21  38  58  78 106 144 179 212 263 322
#     4  10  21  35  50  71 106 146 179 226 286 335
#     4   8  16  30  51  74 107 135 167 216 265 317
#     4  10  21  38  53  77 106 137 171 219 267 300
#     4  10  19  32  53  79 101 138 184 229 276 320
#     4  10  19  35  55  85 110 142 182 216 266 326
#     4  10  21  38  57  82 114 144 176 220 266 316
#
# _framework density 23.621191
#
# number of rings (size 3 to 8) (size 9 to 14) (size 15 to 20)
#    0.000    2.286    0.000    2.571    0.000    2.286 
#   15.429    0.000    0.000   15.429    0.000    0.000 
#    0.000    0.000    0.000    0.000    0.000    0.000 
#
# Total GULP energy -312464.395845 kJ/mol
# GULP energy per Si atom -5579.721354 kJ/mol
# Density = 2.356743 g / cm^3
# Si number density = 23.621191 Si / 1000 Ang^3
#
#
#
# Elastic Constant Matrix: (Units=GPa)
#
#
# Indices 1 2 3 4 5 6 
#
# 1 41.5621 -16.7021 0.0096 0.0000 0.0000 0.0000
# 2 -16.7021 133.7372 45.2881 0.0000 0.0000 0.0000
# 3 0.0096 45.2881 140.4094 0.0000 0.0000 0.0000
# 4 0.0000 0.0000 0.0000 34.6070 0.0000 0.0000
# 5 0.0000 0.0000 0.0000 0.0000 13.3937 0.0000
# 6 0.0000 0.0000 0.0000 0.0000 0.0000 10.4093
#
#
#
# Elastic Compliance Matrix: (Units=1/GPa)
#
#
# Indices 1 2 3 4 5 6 
#
# 1 0.025497 0.003575 -0.001155 0.000000 0.000000 0.000000
# 2 0.003575 0.008896 -0.002869 0.000000 0.000000 0.000000
# 3 -0.001155 -0.002869 0.008048 0.000000 0.000000 0.000000
# 4 0.000000 0.000000 0.000000 0.028896 0.000000 0.000000
# 5 0.000000 0.000000 0.000000 0.000000 0.074662 0.000000
# 6 0.000000 0.000000 0.000000 0.000000 0.000000 0.096068
#
#
# Mechanical properties :
#
#
# Convention : Reuss Voigt Hill
#
# Bulk Modulus (GPa) = 24.07162 41.43331 32.75246
# Shear Modulus (GPa) = 19.46948 30.82285 25.14617
#
# Velocity S-wave (km/s) = 2.87407 3.61623 3.26630
# Velocity P-wave (km/s) = 4.60722 5.91735 5.30290
#
# Compressibility (1/GPa) = 0.04154270
#
# Stress axis : x y z
#
# Youngs Moduli (GPa) = 39.21955 112.41546 124.26017
#
# Poissons Ratio (x) = -0.40193 0.14352
# Poissons Ratio (y) = -0.14023 0.35656
# Poissons Ratio (z) = 0.04530 0.32257
#
# Static dielectric constant tensor:
#      x y z
#    x 1.941320 0.000000 0.000000 
#    y 0.000000 1.998870 0.000000 
#    z 0.000000 0.000000 1.946410 
# 
# From -- ./inp_files/768.got.cif
#   From: 2010.05.17/outbox.cif.g08.bks.cpg/sg54_1_cif.got.tgz:768.got - 2010.06.03 13:09:01.
