data_PCOD9420956
_publ_section_title
;
Structure prediction by ZEFSAII (Michael W. Deem and Ramdas Pophale) SiO2 
 PCOD9420956
Probable space group: P C C A
;
_chemical_formula_sum "Si O2"
_cell_formula_units_Z 56
_cell_length_a 16.274686
_cell_length_b 5.356446
_cell_length_c 27.924216
_cell_angle_alpha 90.000000
_cell_angle_beta 90.000000
_cell_angle_gamma 90.000000
_cell_volume 2434.278918
_symmetry_space_group_name_H-M "P C C A"
_symmetry_group_IT_number 54
_symmetry_cell_setting 'orthorhombic'
loop_
_space_group_symop_operation_xyz
x,y,z
1/2-x,-y,z
1/2+x,-y,1/2-z
-x,y,1/2-z
-x,-y,-z
1/2+x,y,-z
1/2-x,y,1/2+z
x,-y,1/2+z
loop_
_atom_site_type_symbol
_atom_site_label
_atom_site_fract_x
_atom_site_fract_y
_atom_site_fract_z
Si Si1 0.000000 0.871102 0.750000
Si Si2 0.250000 0.000000 0.825131
Si Si3 0.430194 0.601428 0.628342
Si Si4 0.836086 0.887587 0.987840
Si Si5 0.585402 0.384154 0.485957
Si Si6 0.911602 0.222329 0.674617
Si Si7 0.667639 0.397000 0.747373
Si Si8 0.839346 0.092402 0.371131
O O1 0.965806 0.024876 0.704558
O O2 0.918022 0.721268 0.765932
O O3 0.330742 0.889970 0.852201
O O4 0.206920 0.799294 0.790108
O O5 0.418156 0.620873 0.571426
O O6 0.525663 0.607551 0.643946
O O7 0.375306 0.362547 0.642149
O O8 0.394684 0.863666 0.646186
O O9 0.850807 0.600831 0.001458
O O10 0.836704 0.894156 0.929466
O O11 0.750000 0.000000 0.003720
O O12 0.899991 0.102814 0.003783
O O13 0.500000 0.500000 0.500000
O O14 0.869493 0.379439 0.716482
O O15 0.750000 0.500000 0.774557
O O16 0.750000 0.000000 0.354687
#
# Coordination Sequence:
#
# PCOD9420956 Si02
#       8
#     4   4   8   8   8   8   8   8
#     4  10  20  34  60  86 112 146 192 252 294 354
#     4   8  18  34  58  80 104 144 194 242 276 356
#     4  10  21  33  59  84 111 156 195 235 289 355
#     4   9  17  31  54  79 103 148 193 227 277 351
#     4  10  19  33  53  83 114 147 188 241 286 337
#     4  10  20  35  58  85 111 148 198 240 298 352
#     4   9  18  35  59  83 107 145 193 237 292 353
#     4   9  18  34  55  80 113 148 191 233 283 350
#
# _framework density 23.004760000000001
#
# number of rings (size 3 to 8) (size 9 to 14) (size 15 to 20)
#    0.000    2.571    0.000    1.714    4.000    3.429 
#    0.000    0.000   14.143    3.429    0.000    0.000 
#    0.000    0.000    0.000    0.000    0.000    0.000 
#
# Total GULP energy -311872.595896 kJ/mol
# GULP energy per Si atom -5569.153498 kJ/mol
# Density = 2.295240 g / cm^3
# Si number density = 23.004760 Si / 1000 Ang^3
#
#
#
# Elastic Constant Matrix: (Units=GPa)
#
#
# Indices 1 2 3 4 5 6 
#
# 1 105.5549 42.4592 -52.3620 0.0000 0.0000 0.0000
# 2 42.4592 97.6461 1.7172 0.0000 0.0000 0.0000
# 3 -52.3620 1.7172 -54.4061 0.0000 0.0000 0.0000
# 4 0.0000 0.0000 0.0000 15.5231 0.0000 0.0000
# 5 0.0000 0.0000 0.0000 0.0000 22.3586 0.0000
# 6 0.0000 0.0000 0.0000 0.0000 0.0000 51.6519
#
#
#
# Elastic Compliance Matrix: (Units=1/GPa)
#
#
# Indices 1 2 3 4 5 6 
#
# 1 0.007199 -0.003007 -0.007024 0.000000 0.000000 0.000000
# 2 -0.003007 0.011491 0.003257 0.000000 0.000000 0.000000
# 3 -0.007024 0.003257 -0.011518 0.000000 0.000000 0.000000
# 4 0.000000 0.000000 0.000000 0.064420 0.000000 0.000000
# 5 0.000000 0.000000 0.000000 0.000000 0.044725 0.000000
# 6 0.000000 0.000000 0.000000 0.000000 0.000000 0.019360
#
#
# Mechanical properties :
#
#
# Convention : Reuss Voigt Hill
#
# Bulk Modulus (GPa) = -156.85939 14.71375 -71.07282
# Shear Modulus (GPa) = 33.99024 28.37210 31.18117
#
# Velocity S-wave (km/s) = 3.84804 3.51567 3.68560
# Velocity P-wave (km/s) = 6.97069 4.78432 3.58474
#
# Compressibility (1/GPa) = -0.00637514
#
# Stress axis : x y z
#
# Youngs Moduli (GPa) = 138.90592 87.02271 -86.82166
#
# Poissons Ratio (x) = 0.26166 -0.60980
# Poissons Ratio (y) = 0.41767 0.28274
# Poissons Ratio (z) = 0.97561 -0.28340
#
# Static dielectric constant tensor:
#      x y z
#    x 1.968100 0.000000 0.000000 
#    y 0.000000 1.809280 0.000000 
#    z 0.000000 0.000000 1.451330 
# 
# From -- ./inp_files/28277.got.cif
#   From: 2010.05.17/outbox.cif.g08.bks.cpg/sg54_15_cif.got.tgz:28277.got - 2010.06.03 13:09:01.
