data_PCOD9420364
_publ_section_title
;
Structure prediction by ZEFSAII (Michael W. Deem and Ramdas Pophale) SiO2 
 PCOD9420364
Probable space group: P C C A
;
_chemical_formula_sum "Si O2"
_cell_formula_units_Z 32
_cell_length_a 4.956940
_cell_length_b 16.984567
_cell_length_c 13.504413
_cell_angle_alpha 90.000000
_cell_angle_beta 90.000000
_cell_angle_gamma 90.000000
_cell_volume 1136.956511
_symmetry_space_group_name_H-M "P C C A"
_symmetry_group_IT_number 54
_symmetry_cell_setting 'orthorhombic'
loop_
_space_group_symop_operation_xyz
x,y,z
1/2-x,-y,z
1/2+x,-y,1/2-z
-x,y,1/2-z
-x,-y,-z
1/2+x,y,-z
1/2-x,y,1/2+z
x,-y,1/2+z
loop_
_atom_site_type_symbol
_atom_site_label
_atom_site_fract_x
_atom_site_fract_y
_atom_site_fract_z
Si Si1 0.041314 0.569262 0.131182
Si Si2 0.073162 0.835767 0.865188
Si Si3 0.529577 0.660182 0.130070
Si Si4 0.412896 0.062113 0.088309
O O1 0.250000 0.500000 0.102685
O O2 0.220281 0.645139 0.102198
O O3 0.262182 0.591059 0.400992
O O4 0.000000 0.560331 0.250000
O O5 0.132785 0.746455 0.896180
O O6 0.810192 0.868484 0.923461
O O7 0.000000 0.831551 0.750000
O O8 0.323340 0.895148 0.872877
O O9 0.500000 0.655400 0.250000
O O10 0.250000 0.000000 0.157286
O O11 0.500000 0.000000 0.000000
#
# Coordination Sequence:
#
# PCOD9420364 Si02
#       4
#     8   8   8   8
#     4  10  16  25  42  70 110 161 210 246 291 356
#     4  11  23  41  65  92 123 165 216 268 322 384
#     4   9  18  30  47  75 113 155 204 257 303 354
#     4  12  25  44  65  89 122 163 205 265 335 394
#
# _framework density 28.145315
#
# number of rings (size 3 to 8) (size 9 to 14) (size 15 to 20)
#    0.000    1.500    0.000    8.250    0.000    6.000 
#    0.000    1.250    0.000    0.000    0.000    0.000 
#    0.000    0.000    0.000  283.500    0.000  106.250 
#
# Total GULP energy -178758.846514 kJ/mol
# GULP energy per Si atom -5586.213954 kJ/mol
# Density = 2.808125 g / cm^3
# Si number density = 28.145315 Si / 1000 Ang^3
#
#
#
# Elastic Constant Matrix: (Units=GPa)
#
#
# Indices 1 2 3 4 5 6 
#
# 1 277.3397 103.2276 -0.9528 0.0000 0.0000 0.0000
# 2 103.2276 197.7669 31.2229 0.0000 0.0000 0.0000
# 3 -0.9528 31.2229 113.7651 0.0000 0.0000 0.0000
# 4 0.0000 0.0000 0.0000 43.4081 0.0000 0.0000
# 5 0.0000 0.0000 0.0000 0.0000 1.0998 0.0000
# 6 0.0000 0.0000 0.0000 0.0000 0.0000 65.9733
#
#
#
# Elastic Compliance Matrix: (Units=1/GPa)
#
#
# Indices 1 2 3 4 5 6 
#
# 1 0.004531 -0.002478 0.000718 0.000000 0.000000 0.000000
# 2 -0.002478 0.006641 -0.001843 0.000000 0.000000 0.000000
# 3 0.000718 -0.001843 0.009302 0.000000 0.000000 0.000000
# 4 0.000000 0.000000 0.000000 0.023037 0.000000 0.000000
# 5 0.000000 0.000000 0.000000 0.000000 0.909272 0.000000
# 6 0.000000 0.000000 0.000000 0.000000 0.000000 0.015158
#
#
# Mechanical properties :
#
#
# Convention : Reuss Voigt Hill
#
# Bulk Modulus (GPa) = 75.37733 95.09635 85.23684
# Shear Modulus (GPa) = 5.10428 52.45451 28.77940
#
# Velocity S-wave (km/s) = 1.34814 4.32175 3.20117
# Velocity P-wave (km/s) = 5.40952 7.66579 6.63428
#
# Compressibility (1/GPa) = 0.01326659
#
# Stress axis : x y z
#
# Youngs Moduli (GPa) = 220.72430 150.57973 107.50405
#
# Poissons Ratio (x) = 0.37316 -0.07720
# Poissons Ratio (y) = 0.54699 0.19817
# Poissons Ratio (z) = -0.15850 0.27758
#
# Static dielectric constant tensor:
#      x y z
#    x 2.376500 0.000000 0.000000 
#    y 0.000000 2.195910 0.000000 
#    z 0.000000 0.000000 2.414460 
# 
# From -- ./inp_files/6837.got.cif
#   From: 2010.05.17/outbox.cif.g08.bks.cpg/sg54_4_cif.got.tgz:6837.got - 2010.06.03 13:09:01.
