data_PCOD9420485
_publ_section_title
;
Structure prediction by ZEFSAII (Michael W. Deem and Ramdas Pophale) SiO2 
 PCOD9420485
Probable space group: P C C A
;
_chemical_formula_sum "Si O2"
_cell_formula_units_Z 48
_cell_length_a 16.591376
_cell_length_b 5.048905
_cell_length_c 30.869847
_cell_angle_alpha 90.000000
_cell_angle_beta 90.000000
_cell_angle_gamma 90.000000
_cell_volume 2585.914025
_symmetry_space_group_name_H-M "P C C A"
_symmetry_group_IT_number 54
_symmetry_cell_setting 'orthorhombic'
loop_
_space_group_symop_operation_xyz
x,y,z
1/2-x,-y,z
1/2+x,-y,1/2-z
-x,y,1/2-z
-x,-y,-z
1/2+x,y,-z
1/2-x,y,1/2+z
x,-y,1/2+z
loop_
_atom_site_type_symbol
_atom_site_label
_atom_site_fract_x
_atom_site_fract_y
_atom_site_fract_z
Si Si1 0.337384 0.871560 0.776441
Si Si2 0.035212 0.784234 0.642908
Si Si3 0.948065 0.757041 0.951157
Si Si4 0.420981 0.284829 0.362483
Si Si5 0.912052 0.377871 0.264693
Si Si6 0.433532 0.256806 0.456600
O O1 0.358286 0.771430 0.824580
O O2 0.351677 0.616934 0.745930
O O3 0.250000 0.000000 0.773397
O O4 0.395452 0.113636 0.762990
O O5 0.961375 0.573338 0.641437
O O6 0.084518 0.755452 0.597813
O O7 0.084826 0.711920 0.685534
O O8 0.993905 0.073076 0.644023
O O9 0.009870 0.513512 0.954120
O O10 0.895345 0.749602 0.995224
O O11 0.004566 0.013657 0.953999
O O12 0.386228 0.251416 0.411216
O O13 0.000000 0.480569 0.250000
#
# Coordination Sequence:
#
# PCOD9420485 Si02
#       6
#     8   8   8   8   8   8
#     4  12  24  36  50  74 107 137 175 220 267 317
#     4  10  18  28  50  71  95 124 172 208 253 297
#     4   8  14  24  37  66  93 119 148 199 243 290
#     4  10  17  30  46  70  95 133 162 203 253 310
#     4  12  21  36  55  74  98 139 181 221 259 315
#     4   8  14  23  40  60  95 123 149 186 249 295
#
# _framework density 18.562103
#
# number of rings (size 3 to 8) (size 9 to 14) (size 15 to 20)
#    0.000    2.000    3.333    2.000    0.000    0.000 
#    0.000    0.000    0.000    0.000    0.000    1.167 
#    0.000   13.333    0.000    0.167    0.000    0.000 
#
# Total GULP energy -267281.271559 kJ/mol
# GULP energy per Si atom -5568.359824 kJ/mol
# Density = 1.851985 g / cm^3
# Si number density = 18.562103 Si / 1000 Ang^3
#
#
#
# Elastic Constant Matrix: (Units=GPa)
#
#
# Indices 1 2 3 4 5 6 
#
# 1 20.7910 -3.8827 16.8495 0.0000 0.0000 0.0000
# 2 -3.8827 94.5574 -7.8030 0.0000 0.0000 0.0000
# 3 16.8495 -7.8030 168.2944 0.0000 0.0000 0.0000
# 4 0.0000 0.0000 0.0000 24.8944 0.0000 0.0000
# 5 0.0000 0.0000 0.0000 0.0000 6.0045 0.0000
# 6 0.0000 0.0000 0.0000 0.0000 0.0000 10.7669
#
#
#
# Elastic Compliance Matrix: (Units=1/GPa)
#
#
# Indices 1 2 3 4 5 6 
#
# 1 0.052626 0.001733 -0.005189 0.000000 0.000000 0.000000
# 2 0.001733 0.010673 0.000321 0.000000 0.000000 0.000000
# 3 -0.005189 0.000321 0.006476 0.000000 0.000000 0.000000
# 4 0.000000 0.000000 0.000000 0.040170 0.000000 0.000000
# 5 0.000000 0.000000 0.000000 0.000000 0.166542 0.000000
# 6 0.000000 0.000000 0.000000 0.000000 0.000000 0.092877
#
#
# Mechanical properties :
#
#
# Convention : Reuss Voigt Hill
#
# Bulk Modulus (GPa) = 15.74626 32.66338 24.20482
# Shear Modulus (GPa) = 12.60072 26.89842 19.74957
#
# Velocity S-wave (km/s) = 2.60828 3.81084 3.26540
# Velocity P-wave (km/s) = 4.19193 6.08263 5.22354
#
# Compressibility (1/GPa) = 0.06350714
#
# Stress axis : x y z
#
# Youngs Moduli (GPa) = 19.00189 93.69213 154.40818
#
# Poissons Ratio (x) = -0.16235 0.80116
# Poissons Ratio (y) = -0.03293 -0.04962
# Poissons Ratio (z) = 0.09859 -0.03011
#
# Static dielectric constant tensor:
#      x y z
#    x 0.054490 0.000000 0.000000 
#    y 0.000000 1.633130 0.000000 
#    z 0.000000 0.000000 1.768220 
# 
# From -- ./inp_files/28181.got.cif
#   From: 2010.05.17/outbox.cif.g08.bks.cpg/sg54_15_cif.got.tgz:28181.got - 2010.06.03 13:09:01.
