data_PCOD9420527
_publ_section_title
;
Structure prediction by ZEFSAII (Michael W. Deem and Ramdas Pophale) SiO2 
 PCOD9420527
Probable space group: P C C A
;
_chemical_formula_sum "Si O2"
_cell_formula_units_Z 32
_cell_length_a 5.488654
_cell_length_b 8.557971
_cell_length_c 31.307314
_cell_angle_alpha 90.000000
_cell_angle_beta 90.000000
_cell_angle_gamma 90.000000
_cell_volume 1470.559068
_symmetry_space_group_name_H-M "P C C A"
_symmetry_group_IT_number 54
_symmetry_cell_setting 'orthorhombic'
loop_
_space_group_symop_operation_xyz
x,y,z
1/2-x,-y,z
1/2+x,-y,1/2-z
-x,y,1/2-z
-x,-y,-z
1/2+x,y,-z
1/2-x,y,1/2+z
x,-y,1/2+z
loop_
_atom_site_type_symbol
_atom_site_label
_atom_site_fract_x
_atom_site_fract_y
_atom_site_fract_z
Si Si1 0.750000 0.000000 0.526397
Si Si2 0.250000 0.500000 0.610001
Si Si3 0.917638 0.742296 0.085735
Si Si4 0.000000 0.104503 0.250000
Si Si5 0.445817 0.762141 0.341163
Si Si6 0.250000 0.000000 0.612870
O O1 0.759078 0.839336 0.554819
O O2 0.500000 0.000000 0.500000
O O3 0.461455 0.573763 0.580260
O O4 0.371805 0.369918 0.640600
O O5 0.802761 0.733200 0.133227
O O6 0.144228 0.860682 0.085711
O O7 0.053701 0.214819 0.290800
O O8 0.250000 0.000000 0.243959
O O9 0.540846 0.929036 0.358019
#
# Coordination Sequence:
#
# PCOD9420527 Si02
#       6
#     4   4   8   4   8   4
#     4  12  27  44  75 116 138 178 240 311 366 437
#     4  10  26  42  70 100 138 200 236 286 362 442
#     4  11  22  44  71 100 140 186 236 290 363 439
#     4  12  26  42  70 110 142 184 244 310 352 404
#     4  11  22  42  67 101 138 187 241 288 355 425
#     4  10  17  36  69  96 126 180 234 283 330 423
#
# _framework density 21.760431000000001
#
# number of rings (size 3 to 8) (size 9 to 14) (size 15 to 20)
#    0.000    1.000    3.750    3.000    7.000    0.000 
#    4.500    1.250    0.000    0.000    0.000    0.000 
#    0.000    0.000    0.000    0.000    0.000    0.000 
#
# Total GULP energy -178384.273704 kJ/mol
# GULP energy per Si atom -5574.508553 kJ/mol
# Density = 2.171090 g / cm^3
# Si number density = 21.760431 Si / 1000 Ang^3
#
#
#
# Elastic Constant Matrix: (Units=GPa)
#
#
# Indices 1 2 3 4 5 6 
#
# 1 122.7757 34.0450 44.3031 0.0000 0.0000 0.0000
# 2 34.0450 95.8293 35.5352 0.0000 0.0000 0.0000
# 3 44.3031 35.5352 113.4820 0.0000 0.0000 0.0000
# 4 0.0000 0.0000 0.0000 13.4950 0.0000 0.0000
# 5 0.0000 0.0000 0.0000 0.0000 26.0403 0.0000
# 6 0.0000 0.0000 0.0000 0.0000 0.0000 50.9965
#
#
#
# Elastic Compliance Matrix: (Units=1/GPa)
#
#
# Indices 1 2 3 4 5 6 
#
# 1 0.009933 -0.002366 -0.003137 0.000000 0.000000 0.000000
# 2 -0.002366 0.012369 -0.002950 0.000000 0.000000 0.000000
# 3 -0.003137 -0.002950 0.010960 0.000000 0.000000 0.000000
# 4 0.000000 0.000000 0.000000 0.074102 0.000000 0.000000
# 5 0.000000 0.000000 0.000000 0.000000 0.038402 0.000000
# 6 0.000000 0.000000 0.000000 0.000000 0.000000 0.019609
#
#
# Mechanical properties :
#
#
# Convention : Reuss Voigt Hill
#
# Bulk Modulus (GPa) = 61.13253 62.20594 61.66923
# Shear Modulus (GPa) = 26.63357 32.65326 29.64342
#
# Velocity S-wave (km/s) = 3.50229 3.87793 3.69489
# Velocity P-wave (km/s) = 6.67152 6.97853 6.82675
#
# Compressibility (1/GPa) = 0.01635790
#
# Stress axis : x y z
#
# Youngs Moduli (GPa) = 100.67584 80.84423 91.23797
#
# Poissons Ratio (x) = 0.19124 0.28622
# Poissons Ratio (y) = 0.23815 0.26913
# Poissons Ratio (z) = 0.31582 0.23847
#
# Static dielectric constant tensor:
#      x y z
#    x 1.878750 0.000000 0.000000 
#    y 0.000000 1.878090 0.000000 
#    z 0.000000 0.000000 1.838690 
# 
# From -- ./inp_files/26912.got.cif
#   From: 2010.05.17/outbox.cif.g08.bks.cpg/sg54_14_cif.got.tgz:26912.got - 2010.06.03 13:09:01.
