data_PCOD9420074
_publ_section_title
;
Structure prediction by ZEFSAII (Michael W. Deem and Ramdas Pophale) SiO2 
 PCOD9420074
Probable space group: P M N A
;
_chemical_formula_sum "Si O2"
_cell_formula_units_Z 32
_cell_length_a 11.157382
_cell_length_b 14.388801
_cell_length_c 8.774043
_cell_angle_alpha 90.000000
_cell_angle_beta 90.000000
_cell_angle_gamma 90.000000
_cell_volume 1408.596702
_symmetry_space_group_name_H-M "P M N A"
_symmetry_group_IT_number 53
_symmetry_cell_setting 'orthorhombic'
loop_
_space_group_symop_operation_xyz
x,y,z
1/2-x,-y,1/2+z
x,-y,-z
1/2-x,y,1/2-z
-x,-y,-z
1/2+x,y,1/2-z
-x,y,z
1/2+x,-y,1/2+z
loop_
_atom_site_type_symbol
_atom_site_label
_atom_site_fract_x
_atom_site_fract_y
_atom_site_fract_z
Si Si1 0.366683 0.732924 0.845379
Si Si2 0.870397 0.957240 0.667292
Si Si3 0.630256 0.735970 0.199435
Si Si4 0.128371 0.468199 0.826321
O O1 0.250000 0.703633 0.750000
O O2 0.500000 0.706266 0.786260
O O3 0.365055 0.845364 0.846743
O O4 0.358866 0.705070 0.023071
O O5 0.750000 0.987686 0.750000
O O6 0.000000 0.979862 0.740689
O O7 0.870443 0.000000 0.500000
O O8 0.750000 0.789204 0.250000
O O9 0.500000 0.783053 0.214445
O O10 0.628817 0.643506 0.303725
O O11 0.250000 0.501860 0.750000
O O12 0.000000 0.498327 0.757372
O O13 0.129954 0.500000 0.000000
#
# Coordination Sequence:
#
# PCOD9420074 Si02
#       4
#     8   8   8   8
#     4   9  18  33  52  74 102 136 172 212 257 303
#     4   9  18  32  49  72 103 137 174 214 255 301
#     4   9  18  33  52  75 102 131 166 207 253 304
#     4   9  18  34  55  77 101 130 165 205 251 305
#
# _framework density 22.717644
#
# number of rings (size 3 to 8) (size 9 to 14) (size 15 to 20)
#    0.000    3.000    0.000    0.000    0.000    3.000 
#    0.000    5.000    0.000   27.000    0.000    0.000 
#    0.000    0.000    0.000    0.000    0.000    0.000 
#
# Total GULP energy -178488.960332 kJ/mol
# GULP energy per Si atom -5577.780010 kJ/mol
# Density = 2.266594 g / cm^3
# Si number density = 22.717644 Si / 1000 Ang^3
#
#
#
# Elastic Constant Matrix: (Units=GPa)
#
#
# Indices 1 2 3 4 5 6 
#
# 1 300.6067 10.6879 74.7833 0.0000 0.0000 0.0000
# 2 10.6879 73.3926 -5.1627 0.0000 0.0000 0.0000
# 3 74.7833 -5.1627 54.0802 0.0000 0.0000 0.0000
# 4 0.0000 0.0000 0.0000 22.7320 0.0000 0.0000
# 5 0.0000 0.0000 0.0000 0.0000 40.2965 0.0000
# 6 0.0000 0.0000 0.0000 0.0000 0.0000 -17.0151
#
#
#
# Elastic Compliance Matrix: (Units=1/GPa)
#
#
# Indices 1 2 3 4 5 6 
#
# 1 0.005186 -0.001268 -0.007292 0.000000 0.000000 0.000000
# 2 -0.001268 0.014028 0.003093 0.000000 0.000000 0.000000
# 3 -0.007292 0.003093 0.028870 0.000000 0.000000 0.000000
# 4 0.000000 0.000000 0.000000 0.043991 0.000000 0.000000
# 5 0.000000 0.000000 0.000000 0.000000 0.024816 0.000000
# 6 0.000000 0.000000 0.000000 0.000000 0.000000 -0.058771
#
#
# Mechanical properties :
#
#
# Convention : Reuss Voigt Hill
#
# Bulk Modulus (GPa) = 26.91913 65.41075 46.16494
# Shear Modulus (GPa) = 61.39752 32.38741 46.89246
#
# Velocity S-wave (km/s) = 5.20433 3.77987 4.54821
# Velocity P-wave (km/s) = 6.92738 6.92137 6.92437
#
# Compressibility (1/GPa) = 0.03714830
#
# Stress axis : x y z
#
# Youngs Moduli (GPa) = 192.83526 71.28815 34.63815
#
# Poissons Ratio (x) = 0.09040 0.25258
# Poissons Ratio (y) = 0.24454 -0.10713
# Poissons Ratio (z) = 1.40617 -0.22047
#
# Static dielectric constant tensor:
#      x y z
#    x 1.947090 0.000000 0.000000 
#    y 0.000000 1.839030 0.000000 
#    z 0.000000 0.000000 1.753240 
# 
# From -- ./inp_files/595.got.cif
#   From: 2010.05.17/outbox.cif.g08.bks.cpg/sg53_1_cif.got.tgz:595.got - 2010.06.03 12:45:16.
