data_PCOD9420343
_publ_section_title
;
Structure prediction by ZEFSAII (Michael W. Deem and Ramdas Pophale) SiO2 
 PCOD9420343
Probable space group: P C C A
;
_chemical_formula_sum "Si O2"
_cell_formula_units_Z 40
_cell_length_a 5.485760
_cell_length_b 21.141705
_cell_length_c 13.944741
_cell_angle_alpha 90.000000
_cell_angle_beta 90.000000
_cell_angle_gamma 90.000000
_cell_volume 1617.287629
_symmetry_space_group_name_H-M "P C C A"
_symmetry_group_IT_number 54
_symmetry_cell_setting 'orthorhombic'
loop_
_space_group_symop_operation_xyz
x,y,z
1/2-x,-y,z
1/2+x,-y,1/2-z
-x,y,1/2-z
-x,-y,-z
1/2+x,y,-z
1/2-x,y,1/2+z
x,-y,1/2+z
loop_
_atom_site_type_symbol
_atom_site_label
_atom_site_fract_x
_atom_site_fract_y
_atom_site_fract_z
Si Si1 0.610387 0.178196 0.599904
Si Si2 0.267691 0.624758 0.616211
Si Si3 0.241091 0.426047 0.402335
Si Si4 0.997358 0.961774 0.634922
Si Si5 0.381011 0.229429 0.116675
O O1 0.553558 0.104510 0.582274
O O2 0.618427 0.215373 0.498343
O O3 0.367222 0.199067 0.653667
O O4 0.866552 0.196938 0.648193
O O5 0.250670 0.613670 0.501118
O O6 0.502656 0.585758 0.648267
O O7 0.342401 0.696752 0.635663
O O8 0.004645 0.598519 0.647636
O O9 0.250000 0.500000 0.427217
O O10 0.000000 0.948834 0.750000
O O11 0.750000 0.000000 0.616233
O O12 0.250000 0.000000 0.613199
#
# Coordination Sequence:
#
# PCOD9420343 Si02
#       5
#     8   8   8   8   8
#     4  10  18  32  48  67  90 114 148 184 216 270
#     4  10  16  25  36  51  80 114 149 183 215 253
#     4  10  16  22  33  51  75 112 159 190 208 239
#     4  10  21  37  54  70  89 115 146 181 224 272
#     4  10  19  30  45  67  92 121 152 182 224 272
#
# _framework density 24.732765000000001
#
# number of rings (size 3 to 8) (size 9 to 14) (size 15 to 20)
#    0.000    2.000    0.000   10.200    0.000    0.000 
#    0.000   12.000    0.000    0.000    0.000    0.000 
#    0.000    0.000    0.000    0.000    0.000  400.000 
#
# Total GULP energy -223328.402275 kJ/mol
# GULP energy per Si atom -5583.210057 kJ/mol
# Density = 2.467647 g / cm^3
# Si number density = 24.732765 Si / 1000 Ang^3
#
#
#
# Elastic Constant Matrix: (Units=GPa)
#
#
# Indices 1 2 3 4 5 6 
#
# 1 330.4192 68.3172 12.3248 0.0000 0.0000 0.0000
# 2 68.3172 140.3320 -32.3139 0.0000 0.0000 0.0000
# 3 12.3248 -32.3139 82.9222 0.0000 0.0000 0.0000
# 4 0.0000 0.0000 0.0000 -47.7237 0.0000 0.0000
# 5 0.0000 0.0000 0.0000 0.0000 -9.5330 0.0000
# 6 0.0000 0.0000 0.0000 0.0000 0.0000 55.1466
#
#
#
# Elastic Compliance Matrix: (Units=1/GPa)
#
#
# Indices 1 2 3 4 5 6 
#
# 1 0.003488 -0.001996 -0.001296 0.000000 0.000000 0.000000
# 2 -0.001996 0.008971 0.003793 0.000000 0.000000 0.000000
# 3 -0.001296 0.003793 0.013730 0.000000 0.000000 0.000000
# 4 0.000000 0.000000 0.000000 -0.020954 0.000000 0.000000
# 5 0.000000 0.000000 0.000000 0.000000 -0.104898 0.000000
# 6 0.000000 0.000000 0.000000 0.000000 0.000000 0.018133
#
#
# Mechanical properties :
#
#
# Convention : Reuss Voigt Hill
#
# Bulk Modulus (GPa) = 36.77966 72.25885 54.51925
# Shear Modulus (GPa) = -68.05780 33.26766 -17.39507
#
# Velocity S-wave (km/s) = -5.25138 3.67152 -2.65490
# Velocity P-wave (km/s) = 4.67613 6.87406 3.56275
#
# Compressibility (1/GPa) = 0.02718894
#
# Stress axis : x y z
#
# Youngs Moduli (GPa) = 286.73236 111.46832 72.83247
#
# Poissons Ratio (x) = 0.22253 0.09441
# Poissons Ratio (y) = 0.57241 -0.27623
# Poissons Ratio (z) = 0.37170 -0.42276
#
# Static dielectric constant tensor:
#      x y z
#    x 1.590980 0.000000 0.000000 
#    y 0.000000 2.041430 0.000000 
#    z 0.000000 0.000000 2.023290 
# 
# From -- ./inp_files/15795.got.cif
#   From: 2010.05.17/outbox.cif.g08.bks.cpg/sg54_8_cif.got.tgz:15795.got - 2010.06.03 13:09:01.
