data_PCOD9420166
_publ_section_title
;
Structure prediction by ZEFSAII (Michael W. Deem and Ramdas Pophale) SiO2 
 PCOD9420166
Probable space group: P M N A
;
_chemical_formula_sum "Si O2"
_cell_formula_units_Z 48
_cell_length_a 9.000000
_cell_length_b 18.000000
_cell_length_c 18.000000
_cell_angle_alpha 90.000000
_cell_angle_beta 90.000000
_cell_angle_gamma 90.000000
_cell_volume 2916.000000
_symmetry_space_group_name_H-M "P M N A"
_symmetry_group_IT_number 53
_symmetry_cell_setting 'orthorhombic'
loop_
_space_group_symop_operation_xyz
x,y,z
1/2-x,-y,1/2+z
x,-y,-z
1/2-x,y,1/2-z
-x,-y,-z
1/2+x,y,1/2-z
-x,y,z
1/2+x,-y,1/2+z
loop_
_atom_site_type_symbol
_atom_site_label
_atom_site_fract_x
_atom_site_fract_y
_atom_site_fract_z
Si Si1 0.170815 0.938148 0.434387
Si Si2 0.676632 0.948763 0.670883
Si Si3 0.823553 0.172411 0.041791
Si Si4 0.676385 0.667854 0.950236
Si Si5 0.321131 0.557926 0.669740
Si Si6 0.830344 0.433341 0.939187
O O1 0.260215 0.869949 0.469638
O O2 0.000000 0.918853 0.417699
O O3 0.169369 0.000000 0.500000
O O4 0.250523 0.978104 0.365724
O O5 0.750000 0.932931 0.750000
O O6 0.500000 0.958394 0.678328
O O7 0.702280 0.881690 0.612504
O O8 0.739756 0.249475 0.052527
O O9 0.000000 0.183928 0.035021
O O10 0.500000 0.666463 0.941677
O O11 0.752917 0.618922 0.885746
O O12 0.724617 0.629079 0.027669
O O13 0.250000 0.566492 0.750000
O O14 0.500000 0.565406 0.670875
O O15 0.286812 0.476394 0.635508
O O16 0.000000 0.405497 0.933751
O O17 0.831653 0.500000 0.000000
#
# Coordination Sequence:
#
# PCOD9420166 Si02
#       6
#     8   8   8   8   8   8
#     4   9  17  31  51  73  97 126 164 206 245 291
#     4  10  20  33  51  74 100 132 166 202 245 293
#     4  10  20  34  51  72 101 134 168 205 248 295
#     4  11  21  32  50  75 102 132 167 205 247 295
#     4  10  20  34  52  74 101 132 165 203 247 295
#     4   8  16  32  51  70  95 128 165 203 244 290
#
# _framework density 16.460905
#
# number of rings (size 3 to 8) (size 9 to 14) (size 15 to 20)
#    0.000    2.333    0.000    4.500    0.000    8.333 
#    0.000    1.667    0.000    1.000    0.000    4.667 
#    0.000    0.000    0.000    0.000    0.000    0.000 
#
# Total GULP energy -267647.466348 kJ/mol
# GULP energy per Si atom -5575.988882 kJ/mol
# Density = 1.642344 g / cm^3
# Si number density = 16.460905 Si / 1000 Ang^3
#
#
#
# Elastic Constant Matrix: (Units=GPa)
#
#
# Indices 1 2 3 4 5 6 
#
# 1 126.0156 72.4070 57.3212 0.0000 0.0000 0.0000
# 2 72.4070 73.0627 73.9588 0.0000 0.0000 0.0000
# 3 57.3212 73.9588 34.4791 0.0000 0.0000 0.0000
# 4 0.0000 0.0000 0.0000 13.4940 0.0000 0.0000
# 5 0.0000 0.0000 0.0000 0.0000 23.2233 0.0000
# 6 0.0000 0.0000 0.0000 0.0000 0.0000 26.1300
#
#
#
# Elastic Compliance Matrix: (Units=1/GPa)
#
#
# Indices 1 2 3 4 5 6 
#
# 1 0.016508 -0.009751 -0.006529 0.000000 0.000000 0.000000
# 2 -0.009751 -0.005926 0.028921 0.000000 0.000000 0.000000
# 3 -0.006529 0.028921 -0.022178 0.000000 0.000000 0.000000
# 4 0.000000 0.000000 0.000000 0.074107 0.000000 0.000000
# 5 0.000000 0.000000 0.000000 0.000000 0.043060 0.000000
# 6 0.000000 0.000000 0.000000 0.000000 0.000000 0.038270
#
#
# Mechanical properties :
#
#
# Convention : Reuss Voigt Hill
#
# Bulk Modulus (GPa) = 73.06569 71.21459 72.14014
# Shear Modulus (GPa) = 40.61006 14.56081 27.58544
#
# Velocity S-wave (km/s) = 4.97234 2.97740 4.09811
# Velocity P-wave (km/s) = 8.80053 7.42810 8.14328
#
# Compressibility (1/GPa) = 0.01368631
#
# Stress axis : x y z
#
# Youngs Moduli (GPa) = 60.57642 -168.75904 -45.08952
#
# Poissons Ratio (x) = -1.64549 -0.29440
# Poissons Ratio (y) = 0.59065 1.30403
# Poissons Ratio (z) = 0.39552 4.88065
#
# Static dielectric constant tensor:
#      x y z
#    x 1.545920 0.000000 0.000000 
#    y 0.000000 1.539980 0.000000 
#    z 0.000000 0.000000 1.549800 
# 
# From -- ./inp_files/26397.got.cif
#   From: 2010.05.17/outbox.ucp.g08.bks.cvg/sg53_14_cif.got.tgz:26397.got - 2010.06.11 16:32:34.
