data_PCOD9420034
_publ_section_title
;
Structure prediction by ZEFSAII (Michael W. Deem and Ramdas Pophale) SiO2 
 PCOD9420034
Probable space group: P M N A
;
_chemical_formula_sum "Si O2"
_cell_formula_units_Z 56
_cell_length_a 7.336082
_cell_length_b 16.933119
_cell_length_c 25.704420
_cell_angle_alpha 90.000000
_cell_angle_beta 90.000000
_cell_angle_gamma 90.000000
_cell_volume 3193.073727
_symmetry_space_group_name_H-M "P M N A"
_symmetry_group_IT_number 53
_symmetry_cell_setting 'orthorhombic'
loop_
_space_group_symop_operation_xyz
x,y,z
1/2-x,-y,1/2+z
x,-y,-z
1/2-x,y,1/2-z
-x,-y,-z
1/2+x,y,1/2-z
-x,y,z
1/2+x,-y,1/2+z
loop_
_atom_site_type_symbol
_atom_site_label
_atom_site_fract_x
_atom_site_fract_y
_atom_site_fract_z
Si Si1 0.277987 0.480532 0.416561
Si Si2 0.778060 0.625338 0.013251
Si Si3 0.722974 0.878068 0.598845
Si Si4 0.717162 0.768054 0.691299
Si Si5 0.782320 0.587978 0.808907
Si Si6 0.777398 0.804333 0.012223
Si Si7 0.215611 0.961943 0.057717
O O1 0.500000 0.481750 0.416324
O O2 0.220299 0.562995 0.442635
O O3 0.225149 0.411617 0.457350
O O4 0.215728 0.462304 0.358122
O O5 0.000000 0.626213 0.013372
O O6 0.717110 0.714924 0.021228
O O7 0.500000 0.880316 0.599286
O O8 0.786152 0.828094 0.648026
O O9 0.773566 0.832919 0.545723
O O10 0.786350 0.969030 0.595129
O O11 0.750000 0.795512 0.750000
O O12 0.500000 0.762964 0.683565
O O13 0.788173 0.678210 0.687135
O O14 0.750000 0.559101 0.750000
O O15 0.000000 0.591851 0.814363
O O16 0.000000 0.804606 0.013573
O O17 0.713998 0.872815 0.051896
O O18 0.000000 0.954838 0.068346
O O19 0.233349 0.000000 0.000000
#
# Coordination Sequence:
#
# PCOD9420034 Si02
#       7
#     8   8   8   8   8   8   8
#     4   8  13  20  29  44  66  88 110 135 166 204
#     4   8  12  17  27  44  65  87 108 134 169 205
#     4   8  12  18  28  42  63  89 108 125 157 197
#     4   9  16  24  34  48  66  88 113 137 160 190
#     4   9  16  25  36  50  68  90 115 141 167 196
#     4   8  11  15  25  42  64  86 105 127 160 199
#     4   7  10  15  23  38  60  83 104 124 150 189
#
# _framework density 17.537960999999999
#
# number of rings (size 3 to 8) (size 9 to 14) (size 15 to 20)
#    0.000    3.857    0.000    3.429    0.000    3.429 
#    0.000    0.000    0.000    0.000    0.000    3.000 
#    0.000    6.286    0.000    0.286    0.000    0.000 
#
# Total GULP energy -311799.830907 kJ/mol
# GULP energy per Si atom -5567.854123 kJ/mol
# Density = 1.749804 g / cm^3
# Si number density = 17.537961 Si / 1000 Ang^3
#
#
#
# Elastic Constant Matrix: (Units=GPa)
#
#
# Indices 1 2 3 4 5 6 
#
# 1 64.1890 5.9970 1.0771 0.0000 0.0000 0.0000
# 2 5.9970 154.1133 76.8727 0.0000 0.0000 0.0000
# 3 1.0771 76.8727 126.3161 0.0000 0.0000 0.0000
# 4 0.0000 0.0000 0.0000 14.2199 0.0000 0.0000
# 5 0.0000 0.0000 0.0000 0.0000 6.4086 0.0000
# 6 0.0000 0.0000 0.0000 0.0000 0.0000 -14.4003
#
#
#
# Elastic Compliance Matrix: (Units=1/GPa)
#
#
# Indices 1 2 3 4 5 6 
#
# 1 0.015646 -0.000779 0.000340 0.000000 0.000000 0.000000
# 2 -0.000779 0.009356 -0.005687 0.000000 0.000000 0.000000
# 3 0.000340 -0.005687 0.011375 0.000000 0.000000 0.000000
# 4 0.000000 0.000000 0.000000 0.070324 0.000000 0.000000
# 5 0.000000 0.000000 0.000000 0.000000 0.156039 0.000000
# 6 0.000000 0.000000 0.000000 0.000000 0.000000 -0.069443
#
#
# Mechanical properties :
#
#
# Convention : Reuss Voigt Hill
#
# Bulk Modulus (GPa) = 41.44896 56.94576 49.19736
# Shear Modulus (GPa) = 23.40941 18.62376 21.01659
#
# Velocity S-wave (km/s) = 3.65743 3.26223 3.46547
# Velocity P-wave (km/s) = 6.44367 6.83594 6.64270
#
# Compressibility (1/GPa) = 0.02412606
#
# Stress axis : x y z
#
# Youngs Moduli (GPa) = 63.91400 106.88601 87.91422
#
# Poissons Ratio (x) = 0.08323 -0.02993
# Poissons Ratio (y) = 0.04977 0.49997
# Poissons Ratio (z) = -0.02176 0.60786
#
# Static dielectric constant tensor:
#      x y z
#    x 1.704740 0.000000 0.000000 
#    y 0.000000 1.614900 0.000000 
#    z 0.000000 0.000000 1.576550 
# 
# From -- ./inp_files/34361.got.cif
#   From: 2010.05.17/outbox.cif.g08.bks.cpg/sg53_18_cif.got.tgz:34361.got - 2010.06.03 12:45:16.
