data_PCOD9420093
_publ_section_title
;
Structure prediction by ZEFSAII (Michael W. Deem and Ramdas Pophale) SiO2 
 PCOD9420093
Probable space group: P M N A
;
_chemical_formula_sum "Si O2"
_cell_formula_units_Z 64
_cell_length_a 9.000000
_cell_length_b 15.000000
_cell_length_c 30.000000
_cell_angle_alpha 90.000000
_cell_angle_beta 90.000000
_cell_angle_gamma 90.000000
_cell_volume 4050.000000
_symmetry_space_group_name_H-M "P M N A"
_symmetry_group_IT_number 53
_symmetry_cell_setting 'orthorhombic'
loop_
_space_group_symop_operation_xyz
x,y,z
1/2-x,-y,1/2+z
x,-y,-z
1/2-x,y,1/2-z
-x,-y,-z
1/2+x,y,1/2-z
-x,y,z
1/2+x,-y,1/2+z
loop_
_atom_site_type_symbol
_atom_site_label
_atom_site_fract_x
_atom_site_fract_y
_atom_site_fract_z
Si Si1 0.322208 0.120960 0.058481
Si Si2 0.821571 0.820957 0.459280
Si Si3 0.680002 0.539740 0.938607
Si Si4 0.179893 0.292956 0.385584
Si Si5 0.677507 0.994683 0.202728
Si Si6 0.178426 0.045027 0.890437
Si Si7 0.176457 0.207459 0.295645
Si Si8 0.320637 0.372409 0.527294
O O1 0.500000 0.107377 0.066136
O O2 0.279432 0.217864 0.078131
O O3 0.234547 0.045056 0.084812
O O4 0.297155 0.125008 0.005576
O O5 0.749860 0.875566 0.419122
O O6 0.742887 0.725359 0.463603
O O7 0.000000 0.810612 0.454366
O O8 0.500000 0.530794 0.942181
O O9 0.719562 0.607351 0.899048
O O10 0.759946 0.444542 0.937042
O O11 0.744251 0.590831 0.982028
O O12 0.236163 0.259784 0.338192
O O13 0.000000 0.290768 0.384553
O O14 0.750000 0.967762 0.250000
O O15 0.500000 0.978520 0.202553
O O16 0.701015 0.101674 0.198359
O O17 0.756636 0.953715 0.159602
O O18 0.000000 0.048636 0.890145
O O19 0.250000 0.236255 0.250000
O O20 0.000000 0.220212 0.292866
O O21 0.500000 0.373780 0.524225
#
# Coordination Sequence:
#
# PCOD9420093 Si02
#       8
#     8   8   8   8   8   8   8   8
#     4  10  19  35  52  70  98 139 180 213 247 296
#     4  11  22  37  55  71  95 138 183 216 254 306
#     4  10  18  32  53  73  95 132 174 204 241 302
#     4   9  16  30  51  73  97 131 173 210 242 289
#     4  10  19  34  54  74 100 133 171 214 257 302
#     4  12  24  35  49  75 106 137 172 212 260 309
#     4   9  17  30  48  70  98 128 163 205 249 293
#     4  11  21  33  48  73 104 129 159 211 263 297
#
# _framework density 15.802469
#
# number of rings (size 3 to 8) (size 9 to 14) (size 15 to 20)
#    0.000    1.750    2.500    4.500    0.000    3.000 
#    0.000    1.250    0.000    0.000    0.000    0.875 
#    0.000    2.000    0.000    0.000    0.000    0.000 
#
# Total GULP energy -357020.132977 kJ/mol
# GULP energy per Si atom -5578.439578 kJ/mol
# Density = 1.576650 g / cm^3
# Si number density = 15.802469 Si / 1000 Ang^3
#
#
#
# Elastic Constant Matrix: (Units=GPa)
#
#
# Indices 1 2 3 4 5 6 
#
# 1 87.4693 32.7168 48.4958 0.0000 0.0000 0.0000
# 2 32.7168 67.4845 39.2554 0.0000 0.0000 0.0000
# 3 48.4958 39.2554 120.3244 0.0000 0.0000 0.0000
# 4 0.0000 0.0000 0.0000 20.3536 0.0000 0.0000
# 5 0.0000 0.0000 0.0000 0.0000 23.5625 0.0000
# 6 0.0000 0.0000 0.0000 0.0000 0.0000 20.7921
#
#
#
# Elastic Compliance Matrix: (Units=1/GPa)
#
#
# Indices 1 2 3 4 5 6 
#
# 1 0.015948 -0.004928 -0.004820 0.000000 0.000000 0.000000
# 2 -0.004928 0.019812 -0.004477 0.000000 0.000000 0.000000
# 3 -0.004820 -0.004477 0.011714 0.000000 0.000000 0.000000
# 4 0.000000 0.000000 0.000000 0.049131 0.000000 0.000000
# 5 0.000000 0.000000 0.000000 0.000000 0.042440 0.000000
# 6 0.000000 0.000000 0.000000 0.000000 0.000000 0.048095
#
#
# Mechanical properties :
#
#
# Convention : Reuss Voigt Hill
#
# Bulk Modulus (GPa) = 52.56655 57.35714 54.96184
# Shear Modulus (GPa) = 22.52932 23.26233 22.89582
#
# Velocity S-wave (km/s) = 3.77992 3.84092 3.81054
# Velocity P-wave (km/s) = 7.23791 7.48634 7.36317
#
# Compressibility (1/GPa) = 0.01902350
#
# Stress axis : x y z
#
# Youngs Moduli (GPa) = 62.70289 50.47506 85.36590
#
# Poissons Ratio (x) = 0.24874 0.41147
# Poissons Ratio (y) = 0.30900 0.38221
# Poissons Ratio (z) = 0.30223 0.22599
#
# Static dielectric constant tensor:
#      x y z
#    x 1.522330 0.000000 0.000000 
#    y 0.000000 1.532820 0.000000 
#    z 0.000000 0.000000 1.541780 
# 
# From -- ./inp_files/38499.got.cif
#   From: 2010.05.17/outbox.ucp.g08.bks.cvg/sg53_20_cif.got.tgz:38499.got - 2010.06.11 16:32:34.
