data_PCOD9420361
_publ_section_title
;
Structure prediction by ZEFSAII (Michael W. Deem and Ramdas Pophale) SiO2 
 PCOD9420361
Probable space group: P C C A
;
_chemical_formula_sum "Si O2"
_cell_formula_units_Z 32
_cell_length_a 5.395674
_cell_length_b 18.361714
_cell_length_c 13.518469
_cell_angle_alpha 90.000000
_cell_angle_beta 90.000000
_cell_angle_gamma 90.000000
_cell_volume 1339.326403
_symmetry_space_group_name_H-M "P C C A"
_symmetry_group_IT_number 54
_symmetry_cell_setting 'orthorhombic'
loop_
_space_group_symop_operation_xyz
x,y,z
1/2-x,-y,z
1/2+x,-y,1/2-z
-x,y,1/2-z
-x,-y,-z
1/2+x,y,-z
1/2-x,y,1/2+z
x,-y,1/2+z
loop_
_atom_site_type_symbol
_atom_site_label
_atom_site_fract_x
_atom_site_fract_y
_atom_site_fract_z
Si Si1 0.122453 0.733121 0.120794
Si Si2 0.002366 0.954489 0.868081
Si Si3 0.174043 0.575288 0.067600
Si Si4 0.114711 0.206034 0.399348
O O1 0.150778 0.646977 0.134133
O O2 0.372841 0.768488 0.157092
O O3 0.873007 0.773956 0.151621
O O4 0.126156 0.748769 0.001848
O O5 0.053137 0.878018 0.921744
O O6 0.000000 0.938312 0.750000
O O7 0.250000 0.000000 0.886618
O O8 0.750000 0.000000 0.889482
O O9 0.250000 0.500000 0.121802
O O10 0.408921 0.577362 0.990623
#
# Coordination Sequence:
#
# PCOD9420361 Si02
#       4
#     8   8   8   8
#     4  10  17  30  43  70 100 123 147 182 226 277
#     4  10  21  37  52  66  85 114 156 200 237 276
#     4  10  16  25  41  63  96 133 152 175 208 261
#     4  10  18  30  48  65  91 122 147 185 236 274
#
# _framework density 23.892609
#
# number of rings (size 3 to 8) (size 9 to 14) (size 15 to 20)
#    0.000    2.000    5.000    1.500    0.000    0.000 
#    0.000   15.000    0.000    0.000    0.000    0.000 
#    0.000    6.000    0.000    0.000    0.000    0.000 
#
# Total GULP energy -178485.564408 kJ/mol
# GULP energy per Si atom -5577.673888 kJ/mol
# Density = 2.383823 g / cm^3
# Si number density = 23.892609 Si / 1000 Ang^3
#
#
#
# Elastic Constant Matrix: (Units=GPa)
#
#
# Indices 1 2 3 4 5 6 
#
# 1 262.2974 53.9089 20.3643 0.0000 0.0000 0.0000
# 2 53.9089 189.2416 -6.4294 0.0000 0.0000 0.0000
# 3 20.3643 -6.4294 65.4577 0.0000 0.0000 0.0000
# 4 0.0000 0.0000 0.0000 -37.2025 0.0000 0.0000
# 5 0.0000 0.0000 0.0000 0.0000 9.0951 0.0000
# 6 0.0000 0.0000 0.0000 0.0000 0.0000 41.7465
#
#
#
# Elastic Compliance Matrix: (Units=1/GPa)
#
#
# Indices 1 2 3 4 5 6 
#
# 1 0.004177 -0.001238 -0.001421 0.000000 0.000000 0.000000
# 2 -0.001238 0.005669 0.000942 0.000000 0.000000 0.000000
# 3 -0.001421 0.000942 0.015812 0.000000 0.000000 0.000000
# 4 0.000000 0.000000 0.000000 -0.026880 0.000000 0.000000
# 5 0.000000 0.000000 0.000000 0.000000 0.109949 0.000000
# 6 0.000000 0.000000 0.000000 0.000000 0.000000 0.023954
#
#
# Mechanical properties :
#
#
# Convention : Reuss Voigt Hill
#
# Bulk Modulus (GPa) = 44.99809 72.52049 58.75929
# Shear Modulus (GPa) = 34.83743 32.67134 33.75438
#
# Velocity S-wave (km/s) = 3.82263 3.70188 3.76274
# Velocity P-wave (km/s) = 6.19336 6.97786 6.59728
#
# Compressibility (1/GPa) = 0.02222317
#
# Stress axis : x y z
#
# Youngs Moduli (GPa) = 239.38890 176.39795 63.24426
#
# Poissons Ratio (x) = 0.21843 0.08988
# Poissons Ratio (y) = 0.29643 -0.05958
# Poissons Ratio (z) = 0.34022 -0.16618
#
# Static dielectric constant tensor:
#      x y z
#    x 1.909630 0.000000 0.000000 
#    y 0.000000 2.155440 0.000000 
#    z 0.000000 0.000000 0.294080 
# 
# From -- ./inp_files/15766.got.cif
#   From: 2010.05.17/outbox.cif.g08.bks.cpg/sg54_8_cif.got.tgz:15766.got - 2010.06.03 13:09:01.
