data_PCOD9420991
_publ_section_title
;
Structure prediction by ZEFSAII (Michael W. Deem and Ramdas Pophale) SiO2 
 PCOD9420991
Probable space group: P C C A
;
_chemical_formula_sum "Si O2"
_cell_formula_units_Z 32
_cell_length_a 5.553515
_cell_length_b 13.641101
_cell_length_c 18.276320
_cell_angle_alpha 90.000000
_cell_angle_beta 90.000000
_cell_angle_gamma 90.000000
_cell_volume 1384.541977
_symmetry_space_group_name_H-M "P C C A"
_symmetry_group_IT_number 54
_symmetry_cell_setting 'orthorhombic'
loop_
_space_group_symop_operation_xyz
x,y,z
1/2-x,-y,z
1/2+x,-y,1/2-z
-x,y,1/2-z
-x,-y,-z
1/2+x,y,-z
1/2-x,y,1/2+z
x,-y,1/2+z
loop_
_atom_site_type_symbol
_atom_site_label
_atom_site_fract_x
_atom_site_fract_y
_atom_site_fract_z
Si Si1 0.500000 0.445908 0.750000
Si Si2 0.132504 0.265238 0.156947
Si Si3 0.360190 0.803668 0.864538
Si Si4 0.876099 0.348425 0.501961
Si Si5 0.250000 0.000000 0.953399
O O1 0.250000 0.500000 0.776879
O O2 0.617141 0.375461 0.811890
O O3 0.377263 0.205614 0.172091
O O4 0.123136 0.275571 0.068257
O O5 0.877088 0.220866 0.181582
O O6 0.293662 0.904915 0.903446
O O7 0.374463 0.717994 0.925652
O O8 0.626079 0.403576 0.499500
O O9 0.500000 0.000000 0.000000
#
# Coordination Sequence:
#
# PCOD9420991 Si02
#       5
#     4   8   8   8   4
#     4  12  26  44  66  88 106 142 212 282 320 370
#     4  10  20  37  58  81 116 155 194 243 314 368
#     4  10  19  33  57  88 124 163 192 231 289 359
#     4   8  14  27  49  76 106 145 178 210 272 351
#     4  12  20  30  54  98 138 162 204 244 274 342
#
# _framework density 23.112335999999999
#
# number of rings (size 3 to 8) (size 9 to 14) (size 15 to 20)
#    0.000    2.000    0.000    7.500    0.000    0.000 
#    0.000    0.000    0.000   43.500    0.000    0.000 
#    0.000    0.000    0.000    0.000    0.000    0.000 
#
# Total GULP energy -178233.492550 kJ/mol
# GULP energy per Si atom -5569.796642 kJ/mol
# Density = 2.305973 g / cm^3
# Si number density = 23.112336 Si / 1000 Ang^3
#
#
#
# Elastic Constant Matrix: (Units=GPa)
#
#
# Indices 1 2 3 4 5 6 
#
# 1 325.9785 74.4325 35.1301 0.0000 0.0000 0.0000
# 2 74.4325 97.2957 5.3592 0.0000 0.0000 0.0000
# 3 35.1301 5.3592 59.4521 0.0000 0.0000 0.0000
# 4 0.0000 0.0000 0.0000 26.3712 0.0000 0.0000
# 5 0.0000 0.0000 0.0000 0.0000 46.2883 0.0000
# 6 0.0000 0.0000 0.0000 0.0000 0.0000 41.7847
#
#
#
# Elastic Compliance Matrix: (Units=1/GPa)
#
#
# Indices 1 2 3 4 5 6 
#
# 1 0.003956 -0.002912 -0.002075 0.000000 0.000000 0.000000
# 2 -0.002912 0.012473 0.000597 0.000000 0.000000 0.000000
# 3 -0.002075 0.000597 0.017993 0.000000 0.000000 0.000000
# 4 0.000000 0.000000 0.000000 0.037920 0.000000 0.000000
# 5 0.000000 0.000000 0.000000 0.000000 0.021604 0.000000
# 6 0.000000 0.000000 0.000000 0.000000 0.000000 0.023932
#
#
# Mechanical properties :
#
#
# Convention : Reuss Voigt Hill
#
# Bulk Modulus (GPa) = 39.00151 79.17445 59.08798
# Shear Modulus (GPa) = 36.98032 47.40914 42.19473
#
# Velocity S-wave (km/s) = 4.00437 4.53398 4.27738
# Velocity P-wave (km/s) = 6.18800 7.85749 7.07218
#
# Compressibility (1/GPa) = 0.02564003
#
# Stress axis : x y z
#
# Youngs Moduli (GPa) = 252.75997 80.17281 55.57787
#
# Poissons Ratio (x) = 0.23349 0.11534
# Poissons Ratio (y) = 0.73612 -0.03315
# Poissons Ratio (z) = 0.52454 -0.04783
#
# Static dielectric constant tensor:
#      x y z
#    x 2.005410 0.000000 0.000000 
#    y 0.000000 1.838520 0.000000 
#    z 0.000000 0.000000 2.216080 
# 
# From -- ./inp_files/19528.got.cif
#   From: 2010.05.17/outbox.cif.g08.bks.cpg/sg54_10_cif.got.tgz:19528.got - 2010.06.03 13:09:01.
