data_PCOD9420438
_publ_section_title
;
Structure prediction by ZEFSAII (Michael W. Deem and Ramdas Pophale) SiO2 
 PCOD9420438
Probable space group: P C C A
;
_chemical_formula_sum "Si O2"
_cell_formula_units_Z 32
_cell_length_a 13.635146
_cell_length_b 19.001256
_cell_length_c 5.405579
_cell_angle_alpha 90.000000
_cell_angle_beta 90.000000
_cell_angle_gamma 90.000000
_cell_volume 1400.503893
_symmetry_space_group_name_H-M "P C C A"
_symmetry_group_IT_number 54
_symmetry_cell_setting 'orthorhombic'
loop_
_space_group_symop_operation_xyz
x,y,z
1/2-x,-y,z
1/2+x,-y,1/2-z
-x,y,1/2-z
-x,-y,-z
1/2+x,y,-z
1/2-x,y,1/2+z
x,-y,1/2+z
loop_
_atom_site_type_symbol
_atom_site_label
_atom_site_fract_x
_atom_site_fract_y
_atom_site_fract_z
Si Si1 0.363642 0.472226 0.115179
Si Si2 0.437524 0.174948 0.002196
Si Si3 0.686976 0.684463 0.989495
Si Si4 0.360717 0.027987 0.886723
O O1 0.250000 0.500000 0.142427
O O2 0.405160 0.482510 0.388906
O O3 0.364315 0.391207 0.036475
O O4 0.500000 0.161759 0.250000
O O5 0.383062 0.248809 0.033181
O O6 0.500000 0.178201 0.750000
O O7 0.364896 0.109020 0.965158
O O8 0.761496 0.687219 0.757357
O O9 0.250000 0.000000 0.855690
O O10 0.404968 0.016522 0.614239
#
# Coordination Sequence:
#
# PCOD9420438 Si02
#       4
#     8   8   8   8
#     4  10  16  32  56  98 124 153 218 288 315 346
#     4  12  28  46  65  97 142 176 205 265 342 401
#     4  12  23  38  70  98 126 177 226 271 317 386
#     4  10  23  42  70  98 125 164 223 270 309 381
#
# _framework density 22.84892
#
# number of rings (size 3 to 8) (size 9 to 14) (size 15 to 20)
#    0.000    1.000    5.000    3.000    7.000    3.000 
#    0.000    0.000    0.000    4.500    0.000    0.000 
#    0.000    0.000    0.000    0.000    0.000    0.000 
#
# Total GULP energy -179036.707814 kJ/mol
# GULP energy per Si atom -5594.897119 kJ/mol
# Density = 2.279691 g / cm^3
# Si number density = 22.848920 Si / 1000 Ang^3
#
#
#
# Elastic Constant Matrix: (Units=GPa)
#
#
# Indices 1 2 3 4 5 6 
#
# 1 43.8540 24.5825 7.5895 0.0000 0.0000 0.0000
# 2 24.5825 173.8526 -5.1088 0.0000 0.0000 0.0000
# 3 7.5895 -5.1088 143.2905 0.0000 0.0000 0.0000
# 4 0.0000 0.0000 0.0000 8548.2835 0.0000 0.0000
# 5 0.0000 0.0000 0.0000 0.0000 32.6311 0.0000
# 6 0.0000 0.0000 0.0000 0.0000 0.0000 6.1529
#
#
#
# Elastic Compliance Matrix: (Units=1/GPa)
#
#
# Indices 1 2 3 4 5 6 
#
# 1 0.025066 -0.003587 -0.001456 0.000000 0.000000 0.000000
# 2 -0.003587 0.006271 0.000414 0.000000 0.000000 0.000000
# 3 -0.001456 0.000414 0.007071 0.000000 0.000000 0.000000
# 4 0.000000 0.000000 0.000000 0.000117 0.000000 0.000000
# 5 0.000000 0.000000 0.000000 0.000000 0.030646 0.000000
# 6 0.000000 0.000000 0.000000 0.000000 0.000000 0.162524
#
#
# Mechanical properties :
#
#
# Convention : Reuss Voigt Hill
#
# Bulk Modulus (GPa) = 34.30566 46.12483 40.21525
# Shear Modulus (GPa) = 19.94665 1739.67578 879.81121
#
# Velocity S-wave (km/s) = 2.95783 27.62309 19.64413
# Velocity P-wave (km/s) = 5.16834 32.21196 23.06862
#
# Compressibility (1/GPa) = 0.02914971
#
# Stress axis : x y z
#
# Youngs Moduli (GPa) = 39.89538 159.45525 141.42937
#
# Poissons Ratio (x) = 0.57197 0.20585
# Poissons Ratio (y) = 0.14311 -0.05849
# Poissons Ratio (z) = 0.05807 -0.06595
#
# Static dielectric constant tensor:
#      x y z
#    x 2.143110 0.000000 0.000000 
#    y 0.000000 1.800000 0.000000 
#    z 0.000000 0.000000 1.909170 
# 
# From -- ./inp_files/390.got.cif
#   From: 2010.05.17/outbox.cif.g08.bks.cpg/sg54_1_cif.got.tgz:390.got - 2010.06.03 13:09:01.
