data_PCOD9420553
_publ_section_title
;
Structure prediction by ZEFSAII (Michael W. Deem and Ramdas Pophale) SiO2 
 PCOD9420553
Probable space group: P C C A
;
_chemical_formula_sum "Si O2"
_cell_formula_units_Z 44
_cell_length_a 11.913786
_cell_length_b 5.824028
_cell_length_c 27.226238
_cell_angle_alpha 90.000000
_cell_angle_beta 90.000000
_cell_angle_gamma 90.000000
_cell_volume 1889.125828
_symmetry_space_group_name_H-M "P C C A"
_symmetry_group_IT_number 54
_symmetry_cell_setting 'orthorhombic'
loop_
_space_group_symop_operation_xyz
x,y,z
1/2-x,-y,z
1/2+x,-y,1/2-z
-x,y,1/2-z
-x,-y,-z
1/2+x,y,-z
1/2-x,y,1/2+z
x,-y,1/2+z
loop_
_atom_site_type_symbol
_atom_site_label
_atom_site_fract_x
_atom_site_fract_y
_atom_site_fract_z
Si Si1 0.599633 0.760265 0.554462
Si Si2 0.137845 0.599476 0.593152
Si Si3 0.980356 0.259296 0.656088
Si Si4 0.354960 0.867465 0.187857
Si Si5 0.500000 0.468560 0.750000
Si Si6 0.570322 0.258232 0.526438
O O1 0.608998 0.777713 0.613124
O O2 0.631882 0.497948 0.539138
O O3 0.473468 0.748841 0.529523
O O4 0.631178 0.017615 0.536451
O O5 0.250000 0.500000 0.567914
O O6 0.068828 0.417912 0.626261
O O7 0.184360 0.764929 0.635884
O O8 0.045658 0.726407 0.559033
O O9 0.946768 0.384921 0.705881
O O10 0.042160 0.031199 0.673411
O O11 0.403791 0.681259 0.224698
O O12 0.250000 0.000000 0.210167
#
# Coordination Sequence:
#
# PCOD9420553 Si02
#       6
#     8   8   8   8   4   8
#     4   9  17  30  50  73 107 142 179 227 280 347
#     4  10  18  29  49  81 110 141 181 242 306 356
#     4  10  19  34  50  77 113 143 194 243 293 356
#     4  11  20  35  56  81 115 150 194 254 316 357
#     4  10  24  34  52  84 112 154 206 254 296 368
#     4   9  17  29  47  78 107 139 177 220 284 355
#
# _framework density 23.291198000000001
#
# number of rings (size 3 to 8) (size 9 to 14) (size 15 to 20)
#    0.000    2.182    3.636    0.545    0.000    0.000 
#    0.000    0.000    0.000    0.000    9.455    0.000 
#    0.000    0.000    0.000    0.000    0.000    0.000 
#
# Total GULP energy -245125.159960 kJ/mol
# GULP energy per Si atom -5571.026363 kJ/mol
# Density = 2.323819 g / cm^3
# Si number density = 23.291198 Si / 1000 Ang^3
#
#
#
# Elastic Constant Matrix: (Units=GPa)
#
#
# Indices 1 2 3 4 5 6 
#
# 1 71.8398 8.6136 17.6130 0.0000 0.0000 0.0000
# 2 8.6136 154.3709 41.8194 0.0000 0.0000 0.0000
# 3 17.6130 41.8194 160.8811 0.0000 0.0000 0.0000
# 4 0.0000 0.0000 0.0000 -14.7789 0.0000 0.0000
# 5 0.0000 0.0000 0.0000 0.0000 5.5912 0.0000
# 6 0.0000 0.0000 0.0000 0.0000 0.0000 -6.5149
#
#
#
# Elastic Compliance Matrix: (Units=1/GPa)
#
#
# Indices 1 2 3 4 5 6 
#
# 1 0.014327 -0.000403 -0.001464 0.000000 0.000000 0.000000
# 2 -0.000403 0.006980 -0.001770 0.000000 0.000000 0.000000
# 3 -0.001464 -0.001770 0.006836 0.000000 0.000000 0.000000
# 4 0.000000 0.000000 0.000000 -0.067664 0.000000 0.000000
# 5 0.000000 0.000000 0.000000 0.000000 0.178853 0.000000
# 6 0.000000 0.000000 0.000000 0.000000 0.000000 -0.153494
#
#
# Mechanical properties :
#
#
# Convention : Reuss Voigt Hill
#
# Bulk Modulus (GPa) = 47.91720 58.13155 53.02437
# Shear Modulus (GPa) = 73069.69598 18.12920 36543.91259
#
# Velocity S-wave (km/s) = 177.31425 2.79296 125.39566
# Velocity P-wave (km/s) = 204.79520 5.95093 144.87320
#
# Compressibility (1/GPa) = 0.02086933
#
# Stress axis : x y z
#
# Youngs Moduli (GPa) = 69.79810 143.26748 146.28039
#
# Poissons Ratio (x) = 0.05772 0.21412
# Poissons Ratio (y) = 0.02812 0.25895
# Poissons Ratio (z) = 0.10217 0.25362
#
# Static dielectric constant tensor:
#      x y z
#    x 1.848580 0.000000 0.000000 
#    y 0.000000 1.979980 0.000000 
#    z 0.000000 0.000000 1.899590 
# 
# From -- ./inp_files/24563.got.cif
#   From: 2010.05.17/outbox.cif.g08.bks.cpg/sg54_13_cif.got.tgz:24563.got - 2010.06.03 13:09:01.
