data_PCOD9420207
_publ_section_title
;
Structure prediction by ZEFSAII (Michael W. Deem and Ramdas Pophale) SiO2 
 PCOD9420207
Probable space group: P M N A
;
_chemical_formula_sum "Si O2"
_cell_formula_units_Z 48
_cell_length_a 9.000000
_cell_length_b 30.000000
_cell_length_c 9.000000
_cell_angle_alpha 90.000000
_cell_angle_beta 90.000000
_cell_angle_gamma 90.000000
_cell_volume 2430.000000
_symmetry_space_group_name_H-M "P M N A"
_symmetry_group_IT_number 53
_symmetry_cell_setting 'orthorhombic'
loop_
_space_group_symop_operation_xyz
x,y,z
1/2-x,-y,1/2+z
x,-y,-z
1/2-x,y,1/2-z
-x,-y,-z
1/2+x,y,1/2-z
-x,y,z
1/2+x,-y,1/2+z
loop_
_atom_site_type_symbol
_atom_site_label
_atom_site_fract_x
_atom_site_fract_y
_atom_site_fract_z
Si Si1 0.828803 0.128401 0.094171
Si Si2 0.322835 0.286941 0.088635
Si Si3 0.679471 0.627158 0.587182
Si Si4 0.672513 0.543401 0.402990
Si Si5 0.321878 0.789717 0.406903
Si Si6 0.674188 0.959743 0.406912
O O1 0.750000 0.132428 0.250000
O O2 0.000000 0.139019 0.123224
O O3 0.778641 0.162093 0.967643
O O4 0.816399 0.080755 0.020188
O O5 0.250000 0.288281 0.250000
O O6 0.500000 0.288485 0.093706
O O7 0.251373 0.329804 0.011049
O O8 0.257328 0.243649 0.016545
O O9 0.750000 0.622178 0.750000
O O10 0.500000 0.630617 0.597908
O O11 0.728680 0.585092 0.493980
O O12 0.689209 0.500000 0.500000
O O13 0.750000 0.536947 0.250000
O O14 0.500000 0.551614 0.375675
O O15 0.250000 0.781835 0.250000
O O16 0.500000 0.784534 0.403501
O O17 0.750000 0.951430 0.250000
O O18 0.500000 0.969120 0.377107
O O19 0.742823 0.000000 0.500000
#
# Coordination Sequence:
#
# PCOD9420207 Si02
#       6
#     8   8   8   8   8   8
#     4  10  22  38  58  84 113 147 188 233 280 335
#     4  11  22  38  60  85 114 149 189 232 281 335
#     4  10  20  36  58  84 114 147 187 231 277 331
#     4  10  22  38  57  83 113 146 185 228 274 328
#     4  11  23  39  58  83 114 148 189 234 284 338
#     4  10  21  37  57  84 116 149 188 231 277 331
#
# _framework density 19.753086
#
# number of rings (size 3 to 8) (size 9 to 14) (size 15 to 20)
#    0.000    1.667    0.000    5.500    0.000    6.000 
#    0.000    1.667    0.000    0.000    0.000    0.000 
#    0.000    0.000    0.000    0.000    0.000    0.000 
#
# Total GULP energy -267506.677452 kJ/mol
# GULP energy per Si atom -5573.055780 kJ/mol
# Density = 1.970813 g / cm^3
# Si number density = 19.753086 Si / 1000 Ang^3
#
#
#
# Elastic Constant Matrix: (Units=GPa)
#
#
# Indices 1 2 3 4 5 6 
#
# 1 46.5307 14.7920 15.0477 0.0000 0.0000 0.0000
# 2 14.7920 62.9608 -51.2373 0.0000 0.0000 0.0000
# 3 15.0477 -51.2373 24.1734 0.0000 0.0000 0.0000
# 4 0.0000 0.0000 0.0000 -28.2515 0.0000 0.0000
# 5 0.0000 0.0000 0.0000 0.0000 40.1878 0.0000
# 6 0.0000 0.0000 0.0000 0.0000 0.0000 22.9837
#
#
#
# Elastic Compliance Matrix: (Units=1/GPa)
#
#
# Indices 1 2 3 4 5 6 
#
# 1 0.011776 0.012046 0.018201 0.000000 0.000000 0.000000
# 2 0.012046 -0.009589 -0.027822 0.000000 0.000000 0.000000
# 3 0.018201 -0.027822 -0.028933 0.000000 0.000000 0.000000
# 4 0.000000 0.000000 0.000000 -0.035396 0.000000 0.000000
# 5 0.000000 0.000000 0.000000 0.000000 0.024883 0.000000
# 6 0.000000 0.000000 0.000000 0.000000 0.000000 0.043509
#
#
# Mechanical properties :
#
#
# Convention : Reuss Voigt Hill
#
# Bulk Modulus (GPa) = -45.67017 10.09663 -17.78677
# Shear Modulus (GPa) = -847.61881 17.32149 -415.14866
#
# Velocity S-wave (km/s) = -20.73737 2.96446 -14.51293
# Velocity P-wave (km/s) = 24.42449 4.10365 17.02521
#
# Compressibility (1/GPa) = -0.02189613
#
# Stress axis : x y z
#
# Youngs Moduli (GPa) = 84.92055 -104.29080 -34.56228
#
# Poissons Ratio (x) = 1.25625 0.62908
# Poissons Ratio (y) = -1.02292 -0.96159
# Poissons Ratio (z) = -1.54567 -2.90158
#
# Static dielectric constant tensor:
#      x y z
#    x 1.663830 0.000000 0.000000 
#    y 0.000000 1.867430 0.000000 
#    z 0.000000 0.000000 1.586200 
# 
# From -- ./inp_files/6634.got.cif
#   From: 2010.05.17/outbox.ucp.g08.bks.cvg/sg53_4_cif.got.tgz:6634.got - 2010.06.11 16:32:34.
