data_PCOD9420139
_publ_section_title
;
Structure prediction by ZEFSAII (Michael W. Deem and Ramdas Pophale) SiO2 
 PCOD9420139
Probable space group: P M N A
;
_chemical_formula_sum "Si O2"
_cell_formula_units_Z 48
_cell_length_a 9.000000
_cell_length_b 9.000000
_cell_length_c 30.000000
_cell_angle_alpha 90.000000
_cell_angle_beta 90.000000
_cell_angle_gamma 90.000000
_cell_volume 2430.000000
_symmetry_space_group_name_H-M "P M N A"
_symmetry_group_IT_number 53
_symmetry_cell_setting 'orthorhombic'
loop_
_space_group_symop_operation_xyz
x,y,z
1/2-x,-y,1/2+z
x,-y,-z
1/2-x,y,1/2-z
-x,-y,-z
1/2+x,y,1/2-z
-x,y,z
1/2+x,-y,1/2+z
loop_
_atom_site_type_symbol
_atom_site_label
_atom_site_fract_x
_atom_site_fract_y
_atom_site_fract_z
Si Si1 0.830713 0.184062 0.545041
Si Si2 0.330429 0.530604 0.103984
Si Si3 0.176438 0.446609 0.296932
Si Si4 0.823787 0.089649 0.297142
Si Si5 0.671791 0.034333 0.390159
Si Si6 0.327384 0.301809 0.455566
O O1 0.836736 0.304469 0.584874
O O2 0.762082 0.244190 0.498754
O O3 0.000000 0.135711 0.536443
O O4 0.732694 0.059121 0.568158
O O5 0.500000 0.468574 0.104244
O O6 0.274286 0.514726 0.155087
O O7 0.238156 0.450902 0.065115
O O8 0.250000 0.496484 0.250000
O O9 0.200875 0.268463 0.300215
O O10 0.000000 0.473776 0.293165
O O11 0.750000 0.041062 0.250000
O O12 0.757851 0.023784 0.343170
O O13 0.000000 0.062433 0.295308
O O14 0.500000 0.998098 0.381823
O O15 0.682905 0.197349 0.411743
O O16 0.500000 0.313765 0.468223
#
# Coordination Sequence:
#
# PCOD9420139 Si02
#       6
#     8   8   8   8   8   8
#     4  11  24  39  58  82 115 155 193 235 288 345
#     4  10  21  39  59  84 115 150 190 233 282 342
#     4   9  18  33  56  84 113 142 180 229 277 329
#     4  10  19  34  59  87 115 147 186 234 284 335
#     4  11  23  39  58  84 117 151 192 238 284 338
#     4  11  23  38  59  85 113 148 193 241 286 337
#
# _framework density 19.753086
#
# number of rings (size 3 to 8) (size 9 to 14) (size 15 to 20)
#    0.000    1.667    1.667    3.000    0.000    8.667 
#    0.000    0.833    0.000    2.000    0.000    0.000 
#    0.000    0.000    0.000    0.000    0.000    0.000 
#
# Total GULP energy -267662.664989 kJ/mol
# GULP energy per Si atom -5576.305521 kJ/mol
# Density = 1.970813 g / cm^3
# Si number density = 19.753086 Si / 1000 Ang^3
#
#
#
# Elastic Constant Matrix: (Units=GPa)
#
#
# Indices 1 2 3 4 5 6 
#
# 1 47.4118 1.6803 35.9412 0.0000 0.0000 0.0000
# 2 1.6803 19.2024 -5.2243 0.0000 0.0000 0.0000
# 3 35.9412 -5.2243 150.1893 0.0000 0.0000 0.0000
# 4 0.0000 0.0000 0.0000 1.4016 0.0000 0.0000
# 5 0.0000 0.0000 0.0000 0.0000 41.7814 0.0000
# 6 0.0000 0.0000 0.0000 0.0000 0.0000 11.3748
#
#
#
# Elastic Compliance Matrix: (Units=1/GPa)
#
#
# Indices 1 2 3 4 5 6 
#
# 1 0.026069 -0.004017 -0.006378 0.000000 0.000000 0.000000
# 2 -0.004017 0.053193 0.002811 0.000000 0.000000 0.000000
# 3 -0.006378 0.002811 0.008282 0.000000 0.000000 0.000000
# 4 0.000000 0.000000 0.000000 0.713449 0.000000 0.000000
# 5 0.000000 0.000000 0.000000 0.000000 0.023934 0.000000
# 6 0.000000 0.000000 0.000000 0.000000 0.000000 0.087914
#
#
# Mechanical properties :
#
#
# Convention : Reuss Voigt Hill
#
# Bulk Modulus (GPa) = 13.81629 31.28867 22.55248
# Shear Modulus (GPa) = 5.25136 23.20531 14.22834
#
# Velocity S-wave (km/s) = 1.63226 3.43121 2.68677
# Velocity P-wave (km/s) = 3.24993 5.61888 4.58988
#
# Compressibility (1/GPa) = 0.07237831
#
# Stress axis : x y z
#
# Youngs Moduli (GPa) = 38.35932 18.79941 120.73774
#
# Poissons Ratio (x) = 0.07551 0.77010
# Poissons Ratio (y) = 0.15407 -0.33945
# Poissons Ratio (z) = 0.24467 -0.05285
#
# Static dielectric constant tensor:
#      x y z
#    x 1.703910 0.000000 0.000000 
#    y 0.000000 1.751110 0.000000 
#    z 0.000000 0.000000 1.645690 
# 
# From -- ./inp_files/37687.got.cif
#   From: 2010.05.17/outbox.ucp.g08.bks.cvg/sg53_19_cif.got.tgz:37687.got - 2010.06.11 16:32:34.
