data_PCOD9420286
_publ_section_title
;
Structure prediction by ZEFSAII (Michael W. Deem and Ramdas Pophale) SiO2 
 PCOD9420286
Probable space group: P M N A
;
_chemical_formula_sum "Si O2"
_cell_formula_units_Z 64
_cell_length_a 9.000000
_cell_length_b 12.000000
_cell_length_c 30.000000
_cell_angle_alpha 90.000000
_cell_angle_beta 90.000000
_cell_angle_gamma 90.000000
_cell_volume 3240.000000
_symmetry_space_group_name_H-M "P M N A"
_symmetry_group_IT_number 53
_symmetry_cell_setting 'orthorhombic'
loop_
_space_group_symop_operation_xyz
x,y,z
1/2-x,-y,1/2+z
x,-y,-z
1/2-x,y,1/2-z
-x,-y,-z
1/2+x,y,1/2-z
-x,y,z
1/2+x,-y,1/2+z
loop_
_atom_site_type_symbol
_atom_site_label
_atom_site_fract_x
_atom_site_fract_y
_atom_site_fract_z
Si Si1 0.675726 0.244659 0.701921
Si Si2 0.173678 0.343427 0.382003
Si Si3 0.677079 0.398166 0.870637
Si Si4 0.675647 0.008647 0.929796
Si Si5 0.171333 0.794405 0.958170
Si Si6 0.827425 0.246711 0.942976
Si Si7 0.324235 0.997536 0.663309
Si Si8 0.173927 0.797239 0.707916
O O1 0.750000 0.243058 0.750000
O O2 0.500000 0.261280 0.705920
O O3 0.746606 0.339547 0.671337
O O4 0.699564 0.124327 0.678726
O O5 0.213954 0.472068 0.375480
O O6 0.272833 0.282442 0.418444
O O7 0.187201 0.278900 0.335548
O O8 0.000000 0.336804 0.395974
O O9 0.500000 0.387315 0.866646
O O10 0.734827 0.331173 0.913443
O O11 0.500000 0.024712 0.933427
O O12 0.730227 0.906117 0.959731
O O13 0.763203 0.122700 0.937563
O O14 0.724504 0.974463 0.879954
O O15 0.000000 0.828574 0.951781
O O16 0.181605 0.729506 0.004638
O O17 0.000000 0.247748 0.928727
O O18 0.500000 0.982108 0.654297
O O19 0.266427 0.909850 0.699306
O O20 0.250000 0.739514 0.750000
O O21 0.000000 0.820842 0.715406
#
# Coordination Sequence:
#
# PCOD9420286 Si02
#       8
#     8   8   8   8   8   8   8   8
#     4  11  24  41  64  93 128 165 206 258 309 372
#     4  10  24  44  64  90 124 163 212 262 311 368
#     4  11  24  43  66  91 123 165 212 263 314 368
#     4  12  23  37  63  95 128 165 203 251 311 374
#     4  11  24  41  65  93 126 166 207 255 311 371
#     4  11  24  42  63  93 128 164 209 257 308 373
#     4  11  22  38  63  94 128 163 202 251 308 371
#     4  11  23  40  63  92 126 164 206 256 308 369
#
# _framework density 19.753086
#
# number of rings (size 3 to 8) (size 9 to 14) (size 15 to 20)
#    0.000    1.000    2.500    4.125    0.000    8.500 
#    0.000    3.750    0.000    0.000    0.000    0.000 
#    0.000    0.000    0.000    0.000    0.000    0.000 
#
# Total GULP energy -357924.654093 kJ/mol
# GULP energy per Si atom -5592.572720 kJ/mol
# Density = 1.970813 g / cm^3
# Si number density = 19.753086 Si / 1000 Ang^3
#
#
#
# Elastic Constant Matrix: (Units=GPa)
#
#
# Indices 1 2 3 4 5 6 
#
# 1 47.3691 27.1079 9.4844 0.0000 0.0000 0.0000
# 2 27.1079 76.3288 4.8203 0.0000 0.0000 0.0000
# 3 9.4844 4.8203 61.0780 0.0000 0.0000 0.0000
# 4 0.0000 0.0000 0.0000 -5.4064 0.0000 0.0000
# 5 0.0000 0.0000 0.0000 0.0000 33.2706 0.0000
# 6 0.0000 0.0000 0.0000 0.0000 0.0000 18.3462
#
#
#
# Elastic Compliance Matrix: (Units=1/GPa)
#
#
# Indices 1 2 3 4 5 6 
#
# 1 0.027212 -0.009445 -0.003480 0.000000 0.000000 0.000000
# 2 -0.009445 0.016445 0.000169 0.000000 0.000000 0.000000
# 3 -0.003480 0.000169 0.016900 0.000000 0.000000 0.000000
# 4 0.000000 0.000000 0.000000 -0.184965 0.000000 0.000000
# 5 0.000000 0.000000 0.000000 0.000000 0.030057 0.000000
# 6 0.000000 0.000000 0.000000 0.000000 0.000000 0.054507
#
#
# Mechanical properties :
#
#
# Convention : Reuss Voigt Hill
#
# Bulk Modulus (GPa) = 28.53506 29.73346 29.13426
# Shear Modulus (GPa) = -1886.67213 18.79962 -933.93625
#
# Velocity S-wave (km/s) = -30.93867 3.08836 -21.76767
# Velocity P-wave (km/s) = 35.52170 5.27281 24.83937
#
# Compressibility (1/GPa) = 0.03504461
#
# Stress axis : x y z
#
# Youngs Moduli (GPa) = 36.74782 60.80960 59.17297
#
# Poissons Ratio (x) = 0.57432 0.20594
# Poissons Ratio (y) = 0.34707 -0.00999
# Poissons Ratio (z) = 0.12789 -0.01026
#
# Static dielectric constant tensor:
#      x y z
#    x 1.660550 0.000000 0.000000 
#    y 0.000000 1.659980 0.000000 
#    z 0.000000 0.000000 1.768950 
# 
# From -- ./inp_files/38164.got.cif
#   From: 2010.05.17/outbox.ucp.g08.bks.cvg/sg53_20_cif.got.tgz:38164.got - 2010.06.11 16:32:34.
