data_PCOD9420208
_publ_section_title
;
Structure prediction by ZEFSAII (Michael W. Deem and Ramdas Pophale) SiO2 
 PCOD9420208
Probable space group: P M N A
;
_chemical_formula_sum "Si O2"
_cell_formula_units_Z 64
_cell_length_a 9.000000
_cell_length_b 24.000000
_cell_length_c 15.000000
_cell_angle_alpha 90.000000
_cell_angle_beta 90.000000
_cell_angle_gamma 90.000000
_cell_volume 3240.000000
_symmetry_space_group_name_H-M "P M N A"
_symmetry_group_IT_number 53
_symmetry_cell_setting 'orthorhombic'
loop_
_space_group_symop_operation_xyz
x,y,z
1/2-x,-y,1/2+z
x,-y,-z
1/2-x,y,1/2-z
-x,-y,-z
1/2+x,y,1/2-z
-x,y,z
1/2+x,-y,1/2+z
loop_
_atom_site_type_symbol
_atom_site_label
_atom_site_fract_x
_atom_site_fract_y
_atom_site_fract_z
Si Si1 0.178970 0.373845 0.541358
Si Si2 0.671676 0.985276 0.604660
Si Si3 0.678925 0.606429 0.842610
Si Si4 0.178435 0.723624 0.151930
Si Si5 0.678351 0.814944 0.021606
Si Si6 0.177319 0.476822 0.658532
Si Si7 0.178429 0.143062 0.153743
Si Si8 0.326330 0.906714 0.163235
O O1 0.219253 0.365842 0.437301
O O2 0.268038 0.333987 0.607284
O O3 0.208603 0.436735 0.575393
O O4 0.000000 0.364306 0.549686
O O5 0.500000 0.994431 0.631499
O O6 0.709754 0.921716 0.627582
O O7 0.682233 0.000000 0.500000
O O8 0.773785 0.030177 0.652401
O O9 0.750000 0.627293 0.750000
O O10 0.500000 0.609059 0.834856
O O11 0.723233 0.541147 0.852540
O O12 0.250000 0.729558 0.250000
O O13 0.245268 0.769226 0.084081
O O14 0.000000 0.727338 0.157608
O O15 0.500000 0.806453 0.017045
O O16 0.708911 0.872768 0.073938
O O17 0.748928 0.819764 0.923956
O O18 0.250000 0.455332 0.750000
O O19 0.000000 0.476782 0.670241
O O20 0.250000 0.154134 0.250000
O O21 0.000000 0.149979 0.155713
O O22 0.250000 0.880955 0.250000
O O23 0.500000 0.904029 0.177189
#
# Coordination Sequence:
#
# PCOD9420208 Si02
#       8
#     8   8   8   8   8   8   8   8
#     4  10  20  36  58  84 117 157 200 246 296 351
#     4  10  20  36  58  86 121 160 196 236 285 343
#     4   9  18  33  54  82 118 159 200 243 291 345
#     4  12  26  44  66  91 119 151 191 241 298 357
#     4  11  24  43  65  89 116 151 196 246 299 352
#     4   9  17  30  51  81 117 157 198 240 291 350
#     4  11  23  40  63  90 123 161 201 245 294 349
#     4  11  23  36  57  86 117 152 191 236 287 347
#
# _framework density 19.753086
#
# number of rings (size 3 to 8) (size 9 to 14) (size 15 to 20)
#    0.000    1.625    1.250    3.750    0.000    8.250 
#    0.000    0.625    0.000    5.250    0.000    0.000 
#    0.000    0.000    0.000    0.000    0.000    0.000 
#
# Total GULP energy -357506.082784 kJ/mol
# GULP energy per Si atom -5586.032544 kJ/mol
# Density = 1.970813 g / cm^3
# Si number density = 19.753086 Si / 1000 Ang^3
#
#
#
# Elastic Constant Matrix: (Units=GPa)
#
#
# Indices 1 2 3 4 5 6 
#
# 1 61.9494 30.6028 65.8336 0.0000 0.0000 0.0000
# 2 30.6028 44.5842 31.0484 0.0000 0.0000 0.0000
# 3 65.8336 31.0484 173.6142 0.0000 0.0000 0.0000
# 4 0.0000 0.0000 0.0000 32.6409 0.0000 0.0000
# 5 0.0000 0.0000 0.0000 0.0000 37.0208 0.0000
# 6 0.0000 0.0000 0.0000 0.0000 0.0000 17.1469
#
#
#
# Elastic Compliance Matrix: (Units=1/GPa)
#
#
# Indices 1 2 3 4 5 6 
#
# 1 0.035840 -0.017289 -0.010498 0.000000 0.000000 0.000000
# 2 -0.017289 0.033961 0.000483 0.000000 0.000000 0.000000
# 3 -0.010498 0.000483 0.009654 0.000000 0.000000 0.000000
# 4 0.000000 0.000000 0.000000 0.030636 0.000000 0.000000
# 5 0.000000 0.000000 0.000000 0.000000 0.027012 0.000000
# 6 0.000000 0.000000 0.000000 0.000000 0.000000 0.058320
#
#
# Mechanical properties :
#
#
# Convention : Reuss Voigt Hill
#
# Bulk Modulus (GPa) = 40.24973 59.45747 49.85360
# Shear Modulus (GPa) = 19.35625 27.53925 23.44775
#
# Velocity S-wave (km/s) = 3.13375 3.73792 3.44909
# Velocity P-wave (km/s) = 5.78917 6.98534 6.41520
#
# Compressibility (1/GPa) = 0.02484489
#
# Stress axis : x y z
#
# Youngs Moduli (GPa) = 27.90216 29.44562 103.57931
#
# Poissons Ratio (x) = 0.50910 1.08740
# Poissons Ratio (y) = 0.48241 -0.04999
# Poissons Ratio (z) = 0.29292 -0.01421
#
# Static dielectric constant tensor:
#      x y z
#    x 1.659790 0.000000 0.000000 
#    y 0.000000 1.724610 0.000000 
#    z 0.000000 0.000000 1.701440 
# 
# From -- ./inp_files/21012.got.cif
#   From: 2010.05.17/outbox.ucp.g08.bks.cvg/sg53_11_cif.got.tgz:21012.got - 2010.06.11 16:32:34.
