data_PCOD9420787
_publ_section_title
;
Structure prediction by ZEFSAII (Michael W. Deem and Ramdas Pophale) SiO2 
 PCOD9420787
Probable space group: P C C A
;
_chemical_formula_sum "Si O2"
_cell_formula_units_Z 36
_cell_length_a 13.248823
_cell_length_b 7.600753
_cell_length_c 15.777995
_cell_angle_alpha 90.000000
_cell_angle_beta 90.000000
_cell_angle_gamma 90.000000
_cell_volume 1588.860366
_symmetry_space_group_name_H-M "P C C A"
_symmetry_group_IT_number 54
_symmetry_cell_setting 'orthorhombic'
loop_
_space_group_symop_operation_xyz
x,y,z
1/2-x,-y,z
1/2+x,-y,1/2-z
-x,y,1/2-z
-x,-y,-z
1/2+x,y,-z
1/2-x,y,1/2+z
x,-y,1/2+z
loop_
_atom_site_type_symbol
_atom_site_label
_atom_site_fract_x
_atom_site_fract_y
_atom_site_fract_z
Si Si1 0.333440 0.364906 0.172823
Si Si2 0.000000 0.624099 0.750000
Si Si3 0.521483 0.834067 0.940354
Si Si4 0.321433 0.721588 0.862145
Si Si5 0.613181 0.676130 0.093588
O O1 0.250000 0.500000 0.134758
O O2 0.425060 0.494481 0.199185
O O3 0.380323 0.206931 0.117623
O O4 0.294502 0.289056 0.262677
O O5 0.943404 0.734771 0.678828
O O6 0.422804 0.824964 0.882063
O O7 0.541539 0.689500 0.013467
O O8 0.500000 0.000000 0.000000
O O9 0.354787 0.524511 0.888955
O O10 0.220963 0.773805 0.913239
#
# Coordination Sequence:
#
# PCOD9420787 Si02
#       5
#     8   4   8   8   8
#     4  11  20  39  73 103 131 186 246 298 346 425
#     4  10  18  38  66 102 124 172 246 300 346 392
#     4  12  26  40  64 103 153 183 216 292 385 438
#     4  10  20  43  70  98 131 180 247 304 338 416
#     4  10  21  39  68 100 127 177 244 298 341 410
#
# _framework density 22.657751999999999
#
# number of rings (size 3 to 8) (size 9 to 14) (size 15 to 20)
#    0.000    1.333    8.889    0.667    3.111    0.889 
#    4.000    0.000    0.000    0.000    0.000    0.000 
#    0.000    0.000    0.000    0.000    0.000    0.000 
#
# Total GULP energy -200628.442248 kJ/mol
# GULP energy per Si atom -5573.012285 kJ/mol
# Density = 2.260618 g / cm^3
# Si number density = 22.657752 Si / 1000 Ang^3
#
#
#
# Elastic Constant Matrix: (Units=GPa)
#
#
# Indices 1 2 3 4 5 6 
#
# 1 99.7928 13.3368 1.3160 0.0000 0.0000 0.0000
# 2 13.3368 48.2811 9.4501 0.0000 0.0000 0.0000
# 3 1.3160 9.4501 60.2137 0.0000 0.0000 0.0000
# 4 0.0000 0.0000 0.0000 27.4061 0.0000 0.0000
# 5 0.0000 0.0000 0.0000 0.0000 30.7841 0.0000
# 6 0.0000 0.0000 0.0000 0.0000 0.0000 15.3552
#
#
#
# Elastic Compliance Matrix: (Units=1/GPa)
#
#
# Indices 1 2 3 4 5 6 
#
# 1 0.010408 -0.002920 0.000231 0.000000 0.000000 0.000000
# 2 -0.002920 0.022188 -0.003418 0.000000 0.000000 0.000000
# 3 0.000231 -0.003418 0.017139 0.000000 0.000000 0.000000
# 4 0.000000 0.000000 0.000000 0.036488 0.000000 0.000000
# 5 0.000000 0.000000 0.000000 0.000000 0.032484 0.000000
# 6 0.000000 0.000000 0.000000 0.000000 0.000000 0.065125
#
#
# Mechanical properties :
#
#
# Convention : Reuss Voigt Hill
#
# Bulk Modulus (GPa) = 26.65300 28.49926 27.57613
# Shear Modulus (GPa) = 23.97462 26.98804 25.48133
#
# Velocity S-wave (km/s) = 3.25640 3.45500 3.35717
# Velocity P-wave (km/s) = 5.09193 5.34055 5.21772
#
# Compressibility (1/GPa) = 0.03751922
#
# Stress axis : x y z
#
# Youngs Moduli (GPa) = 96.08004 45.06982 58.34653
#
# Poissons Ratio (x) = 0.13161 -0.01347
# Poissons Ratio (y) = 0.28057 0.19945
# Poissons Ratio (z) = -0.02218 0.15407
#
# Static dielectric constant tensor:
#      x y z
#    x 1.987180 0.000000 0.000000 
#    y 0.000000 1.897420 0.000000 
#    z 0.000000 0.000000 1.871200 
# 
# From -- ./inp_files/13097.got.cif
#   From: 2010.05.17/outbox.cif.g08.bks.cpg/sg54_7_cif.got.tgz:13097.got - 2010.06.03 13:09:01.
