data_PCOD9420137
_publ_section_title
;
Structure prediction by ZEFSAII (Michael W. Deem and Ramdas Pophale) SiO2 
 PCOD9420137
Probable space group: P M N A
;
_chemical_formula_sum "Si O2"
_cell_formula_units_Z 48
_cell_length_a 9.000000
_cell_length_b 9.000000
_cell_length_c 30.000000
_cell_angle_alpha 90.000000
_cell_angle_beta 90.000000
_cell_angle_gamma 90.000000
_cell_volume 2430.000000
_symmetry_space_group_name_H-M "P M N A"
_symmetry_group_IT_number 53
_symmetry_cell_setting 'orthorhombic'
loop_
_space_group_symop_operation_xyz
x,y,z
1/2-x,-y,1/2+z
x,-y,-z
1/2-x,y,1/2-z
-x,-y,-z
1/2+x,y,1/2-z
-x,y,z
1/2+x,-y,1/2+z
loop_
_atom_site_type_symbol
_atom_site_label
_atom_site_fract_x
_atom_site_fract_y
_atom_site_fract_z
Si Si1 0.179275 0.789559 0.953256
Si Si2 0.328573 0.445625 0.384490
Si Si3 0.828343 0.728389 0.055359
Si Si4 0.822666 0.580067 0.297006
Si Si5 0.677899 0.935081 0.203079
Si Si6 0.175744 0.026221 0.603272
O O1 0.236753 0.693546 0.911167
O O2 0.000000 0.785906 0.951951
O O3 0.241407 0.946823 0.937929
O O4 0.219358 0.741340 0.003541
O O5 0.500000 0.417591 0.370957
O O6 0.334221 0.563649 0.425010
O O7 0.242955 0.500061 0.340731
O O8 0.717588 0.806487 0.090013
O O9 0.000000 0.786302 0.058428
O O10 0.750000 0.530094 0.250000
O O11 0.791694 0.757653 0.300487
O O12 0.000000 0.560228 0.295172
O O13 0.750000 0.987072 0.250000
O O14 0.500000 0.954481 0.206327
O O15 0.725887 0.001850 0.154754
O O16 0.000000 0.000160 0.601386
#
# Coordination Sequence:
#
# PCOD9420137 Si02
#       6
#     8   8   8   8   8   8
#     4  10  22  38  55  80 113 148 187 227 271 327
#     4  10  20  36  58  83 111 145 185 230 277 323
#     4  10  20  36  59  82 107 145 190 232 272 320
#     4  10  19  34  56  83 112 141 180 228 274 326
#     4   9  19  34  54  80 108 137 176 224 270 320
#     4  11  22  37  55  82 115 146 182 227 277 328
#
# _framework density 19.753086
#
# number of rings (size 3 to 8) (size 9 to 14) (size 15 to 20)
#    0.000    2.000    1.667    2.000    0.000    7.333 
#    0.000    0.833    0.000    5.000    0.000    0.000 
#    0.000    0.000    0.000    0.000    0.000    0.000 
#
# Total GULP energy -267364.976495 kJ/mol
# GULP energy per Si atom -5570.103677 kJ/mol
# Density = 1.970813 g / cm^3
# Si number density = 19.753086 Si / 1000 Ang^3
#
#
#
# Elastic Constant Matrix: (Units=GPa)
#
#
# Indices 1 2 3 4 5 6 
#
# 1 15.3711 -6.2520 34.2358 0.0000 0.0000 0.0000
# 2 -6.2520 6.0549 -4.9770 0.0000 0.0000 0.0000
# 3 34.2358 -4.9770 156.1160 0.0000 0.0000 0.0000
# 4 0.0000 0.0000 0.0000 19.9104 0.0000 0.0000
# 5 0.0000 0.0000 0.0000 0.0000 34.4165 0.0000
# 6 0.0000 0.0000 0.0000 0.0000 0.0000 4.3795
#
#
#
# Elastic Compliance Matrix: (Units=1/GPa)
#
#
# Indices 1 2 3 4 5 6 
#
# 1 0.298808 0.261524 -0.057190 0.000000 0.000000 0.000000
# 2 0.261524 0.398492 -0.044647 0.000000 0.000000 0.000000
# 3 -0.057190 -0.044647 0.017524 0.000000 0.000000 0.000000
# 4 0.000000 0.000000 0.000000 0.050225 0.000000 0.000000
# 5 0.000000 0.000000 0.000000 0.000000 0.029056 0.000000
# 6 0.000000 0.000000 0.000000 0.000000 0.000000 0.228337
#
#
# Mechanical properties :
#
#
# Convention : Reuss Voigt Hill
#
# Bulk Modulus (GPa) = 0.96693 24.83950 12.90322
# Shear Modulus (GPa) = 4.77190 22.04362 13.40776
#
# Velocity S-wave (km/s) = 1.55596 3.34422 2.60814
# Velocity P-wave (km/s) = 1.92837 5.24538 3.95175
#
# Compressibility (1/GPa) = 1.03419633
#
# Stress axis : x y z
#
# Youngs Moduli (GPa) = 3.34663 2.50946 57.06542
#
# Poissons Ratio (x) = -0.65629 3.26358
# Poissons Ratio (y) = -0.87523 2.54782
# Poissons Ratio (z) = 0.19139 0.11204
#
# Static dielectric constant tensor:
#      x y z
#    x 1.682980 0.000000 0.000000 
#    y 0.000000 1.742490 0.000000 
#    z 0.000000 0.000000 1.663410 
# 
# From -- ./inp_files/33894.got.cif
#   From: 2010.05.17/outbox.ucp.g08.bks.cvg/sg53_17_cif.got.tgz:33894.got - 2010.06.11 16:32:34.
