data_PCOD9420736
_publ_section_title
;
Structure prediction by ZEFSAII (Michael W. Deem and Ramdas Pophale) SiO2 
 PCOD9420736
Probable space group: P C C A
;
_chemical_formula_sum "Si O2"
_cell_formula_units_Z 64
_cell_length_a 15.287281
_cell_length_b 13.051981
_cell_length_c 18.077122
_cell_angle_alpha 90.000000
_cell_angle_beta 90.000000
_cell_angle_gamma 90.000000
_cell_volume 3606.915520
_symmetry_space_group_name_H-M "P C C A"
_symmetry_group_IT_number 54
_symmetry_cell_setting 'orthorhombic'
loop_
_space_group_symop_operation_xyz
x,y,z
1/2-x,-y,z
1/2+x,-y,1/2-z
-x,y,1/2-z
-x,-y,-z
1/2+x,y,-z
1/2-x,y,1/2+z
x,-y,1/2+z
loop_
_atom_site_type_symbol
_atom_site_label
_atom_site_fract_x
_atom_site_fract_y
_atom_site_fract_z
Si Si1 0.449280 0.300726 0.966344
Si Si2 0.162452 0.044345 0.576310
Si Si3 0.433900 0.362903 0.134933
Si Si4 0.585491 0.867156 0.526831
Si Si5 0.513980 0.138835 0.333088
Si Si6 0.263624 0.766662 0.484878
Si Si7 0.261431 0.380639 0.622331
Si Si8 0.044813 0.404027 0.172779
O O1 0.498340 0.355913 0.899360
O O2 0.440151 0.361404 0.044785
O O3 0.508579 0.202123 0.990079
O O4 0.348284 0.278686 0.943436
O O5 0.106039 0.099608 0.637408
O O6 0.194923 0.131050 0.520026
O O7 0.250000 0.000000 0.611144
O O8 0.112793 0.956002 0.530256
O O9 0.486363 0.262809 0.160799
O O10 0.331729 0.350240 0.158130
O O11 0.463032 0.472748 0.164377
O O12 0.550741 0.906436 0.605260
O O13 0.671141 0.800524 0.547860
O O14 0.500000 0.106542 0.250000
O O15 0.235060 0.689199 0.549846
O O16 0.250000 0.500000 0.601539
O O17 0.351893 0.374436 0.667566
O O18 0.000000 0.372598 0.250000
#
# Coordination Sequence:
#
# PCOD9420736 Si02
#       8
#     8   8   8   8   8   8   8   8
#     4  10  19  34  60  83 110 148 195 233 272 335
#     4  10  20  36  63  81 106 147 190 231 280 346
#     4   9  19  37  60  77 109 155 200 227 262 344
#     4  10  20  36  62  82 109 145 191 240 273 335
#     4  11  21  37  58  86 113 147 183 235 291 339
#     4  10  18  36  57  87 106 147 199 230 274 327
#     4   9  17  32  57  78 108 150 190 228 275 338
#     4  11  21  34  54  85 122 152 179 233 297 335
#
# _framework density 17.743690999999998
#
# number of rings (size 3 to 8) (size 9 to 14) (size 15 to 20)
#    0.000    2.000    5.000    1.125    0.000    0.000 
#    2.250    2.500    2.750    0.000    0.000    0.000 
#    0.000    0.000    0.000    0.000    0.000    0.000 
#
# Total GULP energy -356292.707067 kJ/mol
# GULP energy per Si atom -5567.073548 kJ/mol
# Density = 1.770331 g / cm^3
# Si number density = 17.743691 Si / 1000 Ang^3
#
#
#
# Elastic Constant Matrix: (Units=GPa)
#
#
# Indices 1 2 3 4 5 6 
#
# 1 87.6715 15.4163 30.3356 0.0000 0.0000 0.0000
# 2 15.4163 37.9749 9.3610 0.0000 0.0000 0.0000
# 3 30.3356 9.3610 71.1117 0.0000 0.0000 0.0000
# 4 0.0000 0.0000 0.0000 14.2740 0.0000 0.0000
# 5 0.0000 0.0000 0.0000 0.0000 -6.0671 0.0000
# 6 0.0000 0.0000 0.0000 0.0000 0.0000 32.0329
#
#
#
# Elastic Compliance Matrix: (Units=1/GPa)
#
#
# Indices 1 2 3 4 5 6 
#
# 1 0.014049 -0.004368 -0.005418 0.000000 0.000000 0.000000
# 2 -0.004368 0.028574 -0.001898 0.000000 0.000000 0.000000
# 3 -0.005418 -0.001898 0.016624 0.000000 0.000000 0.000000
# 4 0.000000 0.000000 0.000000 0.070058 0.000000 0.000000
# 5 0.000000 0.000000 0.000000 0.000000 -0.164822 0.000000
# 6 0.000000 0.000000 0.000000 0.000000 0.000000 0.031218
#
#
# Mechanical properties :
#
#
# Convention : Reuss Voigt Hill
#
# Bulk Modulus (GPa) = 27.87184 34.10934 30.99059
# Shear Modulus (GPa) = 161.14451 17.49095 89.31773
#
# Velocity S-wave (km/s) = 9.54018 3.14308 7.10261
# Velocity P-wave (km/s) = 11.70878 5.69535 9.20686
#
# Compressibility (1/GPa) = 0.03587851
#
# Stress axis : x y z
#
# Youngs Moduli (GPa) = 71.17928 34.99660 60.15533
#
# Poissons Ratio (x) = 0.15286 0.32594
# Poissons Ratio (y) = 0.31089 0.11419
# Poissons Ratio (z) = 0.38567 0.06643
#
# Static dielectric constant tensor:
#      x y z
#    x 1.675910 0.000000 0.000000 
#    y 0.000000 1.634530 0.000000 
#    z 0.000000 0.000000 1.650940 
# 
# From -- ./inp_files/18276.got.cif
#   From: 2010.05.17/outbox.cif.g08.bks.cpg/sg54_10_cif.got.tgz:18276.got - 2010.06.03 13:09:01.
