data_PCOD9420472
_publ_section_title
;
Structure prediction by ZEFSAII (Michael W. Deem and Ramdas Pophale) SiO2 
 PCOD9420472
Probable space group: P C C A
;
_chemical_formula_sum "Si O2"
_cell_formula_units_Z 56
_cell_length_a 22.704773
_cell_length_b 14.161046
_cell_length_c 8.867962
_cell_angle_alpha 90.000000
_cell_angle_beta 90.000000
_cell_angle_gamma 90.000000
_cell_volume 2851.256716
_symmetry_space_group_name_H-M "P C C A"
_symmetry_group_IT_number 54
_symmetry_cell_setting 'orthorhombic'
loop_
_space_group_symop_operation_xyz
x,y,z
1/2-x,-y,z
1/2+x,-y,1/2-z
-x,y,1/2-z
-x,-y,-z
1/2+x,y,-z
1/2-x,y,1/2+z
x,-y,1/2+z
loop_
_atom_site_type_symbol
_atom_site_label
_atom_site_fract_x
_atom_site_fract_y
_atom_site_fract_z
Si Si1 0.041834 0.958476 0.870500
Si Si2 0.165847 0.162568 0.101178
Si Si3 0.381661 0.954910 0.628119
Si Si4 0.653905 0.490233 0.600654
Si Si5 0.362832 0.368017 0.640127
Si Si6 0.783293 0.172161 0.732548
Si Si7 0.780221 0.620482 0.340727
O O1 0.072760 0.039416 0.768134
O O2 0.000000 0.905422 0.750000
O O3 0.092096 0.910936 0.973953
O O4 0.000000 0.000000 0.000000
O O5 0.201258 0.173043 0.943802
O O6 0.130898 0.065185 0.095933
O O7 0.127115 0.256864 0.123169
O O8 0.214680 0.156203 0.232874
O O9 0.322822 0.905398 0.684433
O O10 0.617568 0.420081 0.707818
O O11 0.619103 0.565247 0.498231
O O12 0.692129 0.423303 0.491187
O O13 0.694691 0.555248 0.707430
O O14 0.290525 0.375957 0.645597
O O15 0.799133 0.273533 0.803322
#
# Coordination Sequence:
#
# PCOD9420472 Si02
#       7
#     8   8   8   8   8   8   8
#     4   9  20  38  60  82  96 124 168 220 273 322
#     4  11  24  35  48  74 109 148 188 216 242 301
#     4  11  21  38  59  74 107 142 169 208 267 308
#     4  10  17  28  44  62  86 134 182 229 266 285
#     4  10  18  28  44  64  94 131 184 226 254 289
#     4  11  24  35  48  74 109 148 188 215 243 299
#     4  10  18  28  44  64  94 131 184 225 254 289
#
# _framework density 19.640461999999999
#
# number of rings (size 3 to 8) (size 9 to 14) (size 15 to 20)
#    0.000    1.714    2.857    3.857    8.000    1.143 
#    0.000    0.000    0.000    0.000    0.000    0.000 
#    0.000    0.000    0.000  324.000    0.000   36.000 
#
# Total GULP energy -312310.863286 kJ/mol
# GULP energy per Si atom -5576.979702 kJ/mol
# Density = 1.959576 g / cm^3
# Si number density = 19.640462 Si / 1000 Ang^3
#
#
#
# Elastic Constant Matrix: (Units=GPa)
#
#
# Indices 1 2 3 4 5 6 
#
# 1 21.0298 11.7836 12.1753 0.0000 0.0000 0.0000
# 2 11.7836 115.0679 29.3685 0.0000 0.0000 0.0000
# 3 12.1753 29.3685 115.7251 0.0000 0.0000 0.0000
# 4 0.0000 0.0000 0.0000 21.8458 0.0000 0.0000
# 5 0.0000 0.0000 0.0000 0.0000 24.6830 0.0000
# 6 0.0000 0.0000 0.0000 0.0000 0.0000 -0.8411
#
#
#
# Elastic Compliance Matrix: (Units=1/GPa)
#
#
# Indices 1 2 3 4 5 6 
#
# 1 0.052503 -0.004242 -0.004447 0.000000 0.000000 0.000000
# 2 -0.004242 0.009635 -0.001999 0.000000 0.000000 0.000000
# 3 -0.004447 -0.001999 0.009616 0.000000 0.000000 0.000000
# 4 0.000000 0.000000 0.000000 0.045775 0.000000 0.000000
# 5 0.000000 0.000000 0.000000 0.000000 0.040514 0.000000
# 6 0.000000 0.000000 0.000000 0.000000 0.000000 -1.188987
#
#
# Mechanical properties :
#
#
# Convention : Reuss Voigt Hill
#
# Bulk Modulus (GPa) = 19.84959 39.83085 29.84022
# Shear Modulus (GPa) = -5.03639 22.37057 8.66709
#
# Velocity S-wave (km/s) = -1.60308 3.37857 2.10296
# Velocity P-wave (km/s) = 2.58881 5.96185 4.59596
#
# Compressibility (1/GPa) = 0.05037888
#
# Stress axis : x y z
#
# Youngs Moduli (GPa) = 19.04648 103.78762 103.98953
#
# Poissons Ratio (x) = 0.44022 0.46248
# Poissons Ratio (y) = 0.08079 0.20787
# Poissons Ratio (z) = 0.08471 0.20746
#
# Static dielectric constant tensor:
#      x y z
#    x 1.706380 0.000000 0.000000 
#    y 0.000000 1.722330 0.000000 
#    z 0.000000 0.000000 1.761110 
# 
# From -- ./inp_files/4797.got.cif
#   From: 2010.05.17/outbox.cif.g08.bks.cpg/sg54_3_cif.got.tgz:4797.got - 2010.06.03 13:09:01.
