data_PCOD9420222
_publ_section_title
;
Structure prediction by ZEFSAII (Michael W. Deem and Ramdas Pophale) SiO2 
 PCOD9420222
Probable space group: P M N A
;
_chemical_formula_sum "Si O2"
_cell_formula_units_Z 56
_cell_length_a 9.000000
_cell_length_b 15.000000
_cell_length_c 21.000000
_cell_angle_alpha 90.000000
_cell_angle_beta 90.000000
_cell_angle_gamma 90.000000
_cell_volume 2835.000000
_symmetry_space_group_name_H-M "P M N A"
_symmetry_group_IT_number 53
_symmetry_cell_setting 'orthorhombic'
loop_
_space_group_symop_operation_xyz
x,y,z
1/2-x,-y,1/2+z
x,-y,-z
1/2-x,y,1/2-z
-x,-y,-z
1/2+x,y,1/2-z
-x,y,z
1/2+x,-y,1/2+z
loop_
_atom_site_type_symbol
_atom_site_label
_atom_site_fract_x
_atom_site_fract_y
_atom_site_fract_z
Si Si1 0.333925 0.996579 0.688710
Si Si2 0.324761 0.237322 0.569694
Si Si3 0.322653 0.627432 0.320635
Si Si4 0.176955 0.682308 0.933748
Si Si5 0.335208 0.783619 0.688213
Si Si6 0.176148 0.503375 0.575150
Si Si7 0.675794 0.948754 0.061567
O O1 0.250000 0.033667 0.750000
O O2 0.500000 0.033059 0.684450
O O3 0.341698 0.889902 0.695126
O O4 0.245324 0.014130 0.625360
O O5 0.500000 0.214111 0.565443
O O6 0.299410 0.281752 0.638489
O O7 0.292824 0.298810 0.508057
O O8 0.222706 0.153057 0.559352
O O9 0.250000 0.626007 0.250000
O O10 0.500000 0.613670 0.314268
O O11 0.256037 0.557155 0.371851
O O12 0.211307 0.761883 0.884163
O O13 0.278271 0.603412 0.908316
O O14 0.000000 0.661385 0.930701
O O15 0.250000 0.748510 0.750000
O O16 0.500000 0.746092 0.693717
O O17 0.223660 0.500000 0.500000
O O18 0.000000 0.486063 0.577156
O O19 0.500000 0.959040 0.063514
O O20 0.735526 0.000000 0.000000
#
# Coordination Sequence:
#
# PCOD9420222 Si02
#       7
#     8   8   8   8   8   8   8
#     4  10  20  37  60  83 114 154 198 246 300 361
#     4  10  22  40  63  88 116 158 205 252 307 363
#     4  11  24  43  67  93 124 161 205 255 309 367
#     4  10  20  37  61  87 117 155 201 244 295 357
#     4   9  19  34  55  83 115 151 191 241 294 351
#     4  11  23  39  62  91 123 159 201 247 300 358
#     4  11  24  39  58  88 124 160 203 254 306 360
#
# _framework density 19.753086
#
# number of rings (size 3 to 8) (size 9 to 14) (size 15 to 20)
#    0.000    1.714    1.429    2.571    0.000    6.857 
#    0.000    2.857    0.000    0.000    0.000    0.000 
#    0.000    0.000    0.000    0.000    0.000    0.000 
#
# Total GULP energy -312005.155408 kJ/mol
# GULP energy per Si atom -5571.520632 kJ/mol
# Density = 1.970813 g / cm^3
# Si number density = 19.753086 Si / 1000 Ang^3
#
#
#
# Elastic Constant Matrix: (Units=GPa)
#
#
# Indices 1 2 3 4 5 6 
#
# 1 63.2180 49.5831 85.3755 0.0000 0.0000 0.0000
# 2 49.5831 16.0351 26.8179 0.0000 0.0000 0.0000
# 3 85.3755 26.8179 121.3919 0.0000 0.0000 0.0000
# 4 0.0000 0.0000 0.0000 33.5629 0.0000 0.0000
# 5 0.0000 0.0000 0.0000 0.0000 38.0269 0.0000
# 6 0.0000 0.0000 0.0000 0.0000 0.0000 23.2964
#
#
#
# Elastic Compliance Matrix: (Units=1/GPa)
#
#
# Indices 1 2 3 4 5 6 
#
# 1 -0.011089 0.033695 0.000355 0.000000 0.000000 0.000000
# 2 0.033695 -0.003480 -0.022929 0.000000 0.000000 0.000000
# 3 0.000355 -0.022929 0.013054 0.000000 0.000000 0.000000
# 4 0.000000 0.000000 0.000000 0.029795 0.000000 0.000000
# 5 0.000000 0.000000 0.000000 0.000000 0.026297 0.000000
# 6 0.000000 0.000000 0.000000 0.000000 0.000000 0.042925
#
#
# Mechanical properties :
#
#
# Convention : Reuss Voigt Hill
#
# Bulk Modulus (GPa) = 48.24704 58.24422 53.24563
# Shear Modulus (GPa) = 60.85054 21.56846 41.20950
#
# Velocity S-wave (km/s) = 5.55630 3.30798 4.57248
# Velocity P-wave (km/s) = 8.10194 6.64383 7.40884
#
# Compressibility (1/GPa) = 0.02072666
#
# Stress axis : x y z
#
# Youngs Moduli (GPa) = -90.17948 -287.35089 76.60676
#
# Poissons Ratio (x) = 9.68238 -0.02719
# Poissons Ratio (y) = 3.03863 1.75654
# Poissons Ratio (z) = 0.03201 -6.58874
#
# Static dielectric constant tensor:
#      x y z
#    x 1.689250 0.000000 0.000000 
#    y 0.000000 1.785650 0.000000 
#    z 0.000000 0.000000 1.682390 
# 
# From -- ./inp_files/30726.got.cif
#   From: 2010.05.17/outbox.ucp.g08.bks.cvg/sg53_16_cif.got.tgz:30726.got - 2010.06.11 16:32:34.
