data_PCOD9420593
_publ_section_title
;
Structure prediction by ZEFSAII (Michael W. Deem and Ramdas Pophale) SiO2 
 PCOD9420593
Probable space group: P C C A
;
_chemical_formula_sum "Si O2"
_cell_formula_units_Z 44
_cell_length_a 32.898448
_cell_length_b 6.253493
_cell_length_c 8.061620
_cell_angle_alpha 90.000000
_cell_angle_beta 90.000000
_cell_angle_gamma 90.000000
_cell_volume 1658.518810
_symmetry_space_group_name_H-M "P C C A"
_symmetry_group_IT_number 54
_symmetry_cell_setting 'orthorhombic'
loop_
_space_group_symop_operation_xyz
x,y,z
1/2-x,-y,z
1/2+x,-y,1/2-z
-x,y,1/2-z
-x,-y,-z
1/2+x,y,-z
1/2-x,y,1/2+z
x,-y,1/2+z
loop_
_atom_site_type_symbol
_atom_site_label
_atom_site_fract_x
_atom_site_fract_y
_atom_site_fract_z
Si Si1 0.000000 0.880624 0.250000
Si Si2 0.119539 0.560403 0.799369
Si Si3 0.215792 0.207197 0.874623
Si Si4 0.629981 0.160087 0.024272
Si Si5 0.442309 0.825444 0.473373
Si Si6 0.200080 0.687039 0.989500
O O1 0.028321 0.034892 0.358627
O O2 0.030834 0.757576 0.130113
O O3 0.124524 0.666524 0.621116
O O4 0.122727 0.304914 0.811730
O O5 0.156225 0.669441 0.902671
O O6 0.076966 0.629376 0.876610
O O7 0.205435 0.246573 0.681297
O O8 0.176891 0.086339 0.959083
O O9 0.211077 0.433404 0.973512
O O10 0.265006 0.183644 0.887372
O O11 0.595846 0.984136 0.993608
#
# Coordination Sequence:
#
# PCOD9420593 Si02
#       6
#     4   8   8   8   8   8
#     4  10  24  46  70  90 120 166 200 258 326 380
#     4  11  23  39  65  96 127 166 210 254 306 368
#     4  10  18  31  54  85 126 167 207 252 298 356
#     4  11  23  39  65  96 127 166 210 254 306 368
#     4  11  24  46  69  90 128 160 205 258 318 379
#     4  10  18  31  54  85 126 167 207 252 298 356
#
# _framework density 26.529698
#
# number of rings (size 3 to 8) (size 9 to 14) (size 15 to 20)
#    0.000    1.455    1.818    7.636    5.091    0.000 
#    0.000    6.364    0.000    4.364    0.000    0.000 
#    0.000    0.000    0.000    0.000    0.000    0.000 
#
# Total GULP energy -246263.482973 kJ/mol
# GULP energy per Si atom -5596.897340 kJ/mol
# Density = 2.646931 g / cm^3
# Si number density = 26.529698 Si / 1000 Ang^3
#
#
#
# Elastic Constant Matrix: (Units=GPa)
#
#
# Indices 1 2 3 4 5 6 
#
# 1 162.9364 30.3553 46.7961 0.0000 0.0000 0.0000
# 2 30.3553 26.8680 -0.3940 0.0000 0.0000 0.0000
# 3 46.7961 -0.3940 128.8561 0.0000 0.0000 0.0000
# 4 0.0000 0.0000 0.0000 -918.3091 0.0000 0.0000
# 5 0.0000 0.0000 0.0000 0.0000 49.2625 0.0000
# 6 0.0000 0.0000 0.0000 0.0000 0.0000 43.4331
#
#
#
# Elastic Compliance Matrix: (Units=1/GPa)
#
#
# Indices 1 2 3 4 5 6 
#
# 1 0.008983 -0.010197 -0.003294 0.000000 0.000000 0.000000
# 2 -0.010197 0.048796 0.003853 0.000000 0.000000 0.000000
# 3 -0.003294 0.003853 0.008968 0.000000 0.000000 0.000000
# 4 0.000000 0.000000 0.000000 -0.001089 0.000000 0.000000
# 5 0.000000 0.000000 0.000000 0.000000 0.020299 0.000000
# 6 0.000000 0.000000 0.000000 0.000000 0.000000 0.023024
#
#
# Mechanical properties :
#
#
# Convention : Reuss Voigt Hill
#
# Bulk Modulus (GPa) = 21.06541 52.46392 36.76467
# Shear Modulus (GPa) = 34.70237 -148.99584 -57.14674
#
# Velocity S-wave (km/s) = 3.62063 -7.50225 -4.64623
# Velocity P-wave (km/s) = 5.04343 7.43146 3.85943
#
# Compressibility (1/GPa) = 0.04747119
#
# Stress axis : x y z
#
# Youngs Moduli (GPa) = 111.32085 20.49340 111.50173
#
# Poissons Ratio (x) = 0.20898 0.36723
# Poissons Ratio (y) = 1.13517 -0.42956
# Poissons Ratio (z) = 0.36664 -0.07895
#
# Static dielectric constant tensor:
#      x y z
#    x 2.078310 0.000000 0.000000 
#    y 0.000000 2.400630 0.000000 
#    z 0.000000 0.000000 2.090310 
# 
# From -- ./inp_files/5781.got.cif
#   From: 2010.05.17/outbox.cif.g08.bks.cpg/sg54_3_cif.got.tgz:5781.got - 2010.06.03 13:09:01.
