data_PCOD9420986
_publ_section_title
;
Structure prediction by ZEFSAII (Michael W. Deem and Ramdas Pophale) SiO2 
 PCOD9420986
Probable space group: P C C A
;
_chemical_formula_sum "Si O2"
_cell_formula_units_Z 40
_cell_length_a 9.953047
_cell_length_b 10.672077
_cell_length_c 20.760591
_cell_angle_alpha 90.000000
_cell_angle_beta 90.000000
_cell_angle_gamma 90.000000
_cell_volume 2205.183415
_symmetry_space_group_name_H-M "P C C A"
_symmetry_group_IT_number 54
_symmetry_cell_setting 'orthorhombic'
loop_
_space_group_symop_operation_xyz
x,y,z
1/2-x,-y,z
1/2+x,-y,1/2-z
-x,y,1/2-z
-x,-y,-z
1/2+x,y,-z
1/2-x,y,1/2+z
x,-y,1/2+z
loop_
_atom_site_type_symbol
_atom_site_label
_atom_site_fract_x
_atom_site_fract_y
_atom_site_fract_z
Si Si1 0.500000 0.373436 0.750000
Si Si2 0.250000 0.500000 0.821928
Si Si3 0.383925 0.944342 0.792391
Si Si4 0.373964 0.091961 0.511941
Si Si5 0.718045 0.251603 0.102059
Si Si6 0.490518 0.183660 0.636395
O O1 0.373436 0.450121 0.778113
O O2 0.453244 0.283619 0.691126
O O3 0.302318 0.611651 0.868025
O O4 0.500000 0.883339 0.750000
O O5 0.329312 0.847869 0.844380
O O6 0.250000 0.000000 0.758247
O O7 0.458338 0.059577 0.827178
O O8 0.357143 0.206832 0.462123
O O9 0.381347 0.145865 0.583955
O O10 0.250000 0.000000 0.501370
O O11 0.500000 0.000000 0.500000
O O12 0.879320 0.234482 0.097264
#
# Coordination Sequence:
#
# PCOD9420986 Si02
#       6
#     4   4   8   8   8   8
#     4  10  22  46  62  86 126 162 216 260 304 370
#     4  10  24  44  64  82 124 180 206 252 306 372
#     4  10  19  33  56  89 120 152 194 252 318 365
#     4  12  21  39  64  95 124 156 204 258 325 381
#     4  10  21  40  60  84 128 163 199 252 313 367
#     4  10  20  39  61  88 124 160 191 264 325 357
#
# _framework density 18.13908
#
# number of rings (size 3 to 8) (size 9 to 14) (size 15 to 20)
#    0.000    1.600    5.000    0.600    1.400    0.800 
#    3.600    5.000    0.000    0.000    0.000    0.000 
#    0.000    0.000    0.000    0.000    0.000    0.000 
#
# Total GULP energy -223043.239151 kJ/mol
# GULP energy per Si atom -5576.080979 kJ/mol
# Density = 1.809779 g / cm^3
# Si number density = 18.139080 Si / 1000 Ang^3
#
#
#
# Elastic Constant Matrix: (Units=GPa)
#
#
# Indices 1 2 3 4 5 6 
#
# 1 72.8553 33.1900 35.0367 0.0000 0.0000 0.0000
# 2 33.1900 112.7052 41.7504 0.0000 0.0000 0.0000
# 3 35.0367 41.7504 83.0446 0.0000 0.0000 0.0000
# 4 0.0000 0.0000 0.0000 30.0248 0.0000 0.0000
# 5 0.0000 0.0000 0.0000 0.0000 31.0825 0.0000
# 6 0.0000 0.0000 0.0000 0.0000 0.0000 21.8668
#
#
#
# Elastic Compliance Matrix: (Units=1/GPa)
#
#
# Indices 1 2 3 4 5 6 
#
# 1 0.018041 -0.003064 -0.006071 0.000000 0.000000 0.000000
# 2 -0.003064 0.011424 -0.004451 0.000000 0.000000 0.000000
# 3 -0.006071 -0.004451 0.016841 0.000000 0.000000 0.000000
# 4 0.000000 0.000000 0.000000 0.033306 0.000000 0.000000
# 5 0.000000 0.000000 0.000000 0.000000 0.032172 0.000000
# 6 0.000000 0.000000 0.000000 0.000000 0.000000 0.045732
#
#
# Mechanical properties :
#
#
# Convention : Reuss Voigt Hill
#
# Bulk Modulus (GPa) = 52.26234 54.28434 53.27334
# Shear Modulus (GPa) = 26.16910 27.17001 26.66956
#
# Velocity S-wave (km/s) = 3.80240 3.87443 3.83858
# Velocity P-wave (km/s) = 6.93918 7.07154 7.00567
#
# Compressibility (1/GPa) = 0.01913424
#
# Stress axis : x y z
#
# Youngs Moduli (GPa) = 55.42823 87.53798 59.37983
#
# Poissons Ratio (x) = 0.26820 0.36052
# Poissons Ratio (y) = 0.16982 0.26427
# Poissons Ratio (z) = 0.33652 0.38959
#
# Static dielectric constant tensor:
#      x y z
#    x 1.656770 0.000000 0.000000 
#    y 0.000000 1.620480 0.000000 
#    z 0.000000 0.000000 1.635530 
# 
# From -- ./inp_files/20344.got.cif
#   From: 2010.05.17/outbox.cif.g08.bks.cpg/sg54_11_cif.got.tgz:20344.got - 2010.06.03 13:09:01.
