data_PCOD9420331
_publ_section_title
;
Structure prediction by ZEFSAII (Michael W. Deem and Ramdas Pophale) SiO2 
 PCOD9420331
Probable space group: P C C A
;
_chemical_formula_sum "Si O2"
_cell_formula_units_Z 48
_cell_length_a 5.455294
_cell_length_b 27.849014
_cell_length_c 13.942324
_cell_angle_alpha 90.000000
_cell_angle_beta 90.000000
_cell_angle_gamma 90.000000
_cell_volume 2118.181425
_symmetry_space_group_name_H-M "P C C A"
_symmetry_group_IT_number 54
_symmetry_cell_setting 'orthorhombic'
loop_
_space_group_symop_operation_xyz
x,y,z
1/2-x,-y,z
1/2+x,-y,1/2-z
-x,y,1/2-z
-x,-y,-z
1/2+x,y,-z
1/2-x,y,1/2+z
x,-y,1/2+z
loop_
_atom_site_type_symbol
_atom_site_label
_atom_site_fract_x
_atom_site_fract_y
_atom_site_fract_z
Si Si1 0.737723 0.198089 0.438233
Si Si2 0.750259 0.057252 0.139277
Si Si3 0.748732 0.901983 0.855486
Si Si4 0.150341 0.655576 0.884370
Si Si5 0.849468 0.307203 0.892628
Si Si6 0.772175 0.447406 0.562104
O O1 0.487970 0.193162 0.500371
O O2 0.741529 0.155358 0.361265
O O3 0.727289 0.251819 0.397511
O O4 0.497657 0.077338 0.098948
O O5 0.749450 0.076782 0.248534
O O6 0.001452 0.078473 0.099735
O O7 0.750000 0.000000 0.137815
O O8 0.379981 0.686893 0.849498
O O9 0.231669 0.600384 0.876952
O O10 0.877293 0.664394 0.846473
O O11 0.125751 0.671432 0.998020
O O12 0.750000 0.500000 0.109411
O O13 0.541260 0.445255 0.487277
#
# Coordination Sequence:
#
# PCOD9420331 Si02
#       6
#     8   8   8   8   8   8
#     4  12  21  32  45  68 103 126 147 177 224 267
#     4  10  19  38  62  75  86 111 154 194 220 255
#     4  10  20  32  54  79  93 116 148 189 223 257
#     4  10  14  25  36  48  68 106 150 178 204 245
#     4  10  16  25  38  51  72 114 146 168 198 241
#     4  10  16  20  29  45  64  87 129 192 229 235
#
# _framework density 22.66095
#
# number of rings (size 3 to 8) (size 9 to 14) (size 15 to 20)
#    0.000    1.667    6.667    3.500    0.000    0.000 
#    0.000    0.000    0.000   17.000    0.000    0.000 
#    0.000    0.000    0.000    0.000    0.000    0.000 
#
# Total GULP energy -267932.607374 kJ/mol
# GULP energy per Si atom -5581.929320 kJ/mol
# Density = 2.260937 g / cm^3
# Si number density = 22.660950 Si / 1000 Ang^3
#
#
#
# Elastic Constant Matrix: (Units=GPa)
#
#
# Indices 1 2 3 4 5 6 
#
# 1 195.1595 5.9211 8.8902 0.0000 0.0000 0.0000
# 2 5.9211 176.1258 -6.8184 0.0000 0.0000 0.0000
# 3 8.8902 -6.8184 51.4159 0.0000 0.0000 0.0000
# 4 0.0000 0.0000 0.0000 6.0954 0.0000 0.0000
# 5 0.0000 0.0000 0.0000 0.0000 -10.9882 0.0000
# 6 0.0000 0.0000 0.0000 0.0000 0.0000 39.9051
#
#
#
# Elastic Compliance Matrix: (Units=1/GPa)
#
#
# Indices 1 2 3 4 5 6 
#
# 1 0.005172 -0.000210 -0.000922 0.000000 0.000000 0.000000
# 2 -0.000210 0.005716 0.000794 0.000000 0.000000 0.000000
# 3 -0.000922 0.000794 0.019714 0.000000 0.000000 0.000000
# 4 0.000000 0.000000 0.000000 0.164058 0.000000 0.000000
# 5 0.000000 0.000000 0.000000 0.000000 -0.091007 0.000000
# 6 0.000000 0.000000 0.000000 0.000000 0.000000 0.025059
#
#
# Mechanical properties :
#
#
# Convention : Reuss Voigt Hill
#
# Bulk Modulus (GPa) = 33.41479 48.74302 41.07890
# Shear Modulus (GPa) = 35.87759 34.64969 35.26364
#
# Velocity S-wave (km/s) = 3.98330 3.91455 3.94908
# Velocity P-wave (km/s) = 5.99443 6.47981 6.24184
#
# Compressibility (1/GPa) = 0.02992686
#
# Stress axis : x y z
#
# Youngs Moduli (GPa) = 193.33465 174.96127 50.72539
#
# Poissons Ratio (x) = 0.03667 0.04678
# Poissons Ratio (y) = 0.04052 -0.04029
# Poissons Ratio (z) = 0.17828 -0.13895
#
# Static dielectric constant tensor:
#      x y z
#    x 1.887670 0.000000 0.000000 
#    y 0.000000 1.767020 0.000000 
#    z 0.000000 0.000000 1.854920 
# 
# From -- ./inp_files/19856.got.cif
#   From: 2010.05.17/outbox.cif.g08.bks.cpg/sg54_10_cif.got.tgz:19856.got - 2010.06.03 13:09:01.
