data_PCOD9420116
_publ_section_title
;
Structure prediction by ZEFSAII (Michael W. Deem and Ramdas Pophale) SiO2 
 PCOD9420116
Probable space group: P M N A
;
_chemical_formula_sum "Si O2"
_cell_formula_units_Z 64
_cell_length_a 9.000000
_cell_length_b 24.000000
_cell_length_c 15.000000
_cell_angle_alpha 90.000000
_cell_angle_beta 90.000000
_cell_angle_gamma 90.000000
_cell_volume 3240.000000
_symmetry_space_group_name_H-M "P M N A"
_symmetry_group_IT_number 53
_symmetry_cell_setting 'orthorhombic'
loop_
_space_group_symop_operation_xyz
x,y,z
1/2-x,-y,1/2+z
x,-y,-z
1/2-x,y,1/2-z
-x,-y,-z
1/2+x,y,1/2-z
-x,y,z
1/2+x,-y,1/2+z
loop_
_atom_site_type_symbol
_atom_site_label
_atom_site_fract_x
_atom_site_fract_y
_atom_site_fract_z
Si Si1 0.171154 0.797411 0.841503
Si Si2 0.822122 0.581712 0.845499
Si Si3 0.676829 0.634310 0.011802
Si Si4 0.178482 0.759567 0.474805
Si Si5 0.671751 0.128874 0.899583
Si Si6 0.671239 0.020759 0.666411
Si Si7 0.321475 0.537885 0.154998
Si Si8 0.169000 0.909942 0.933617
O O1 0.250000 0.781711 0.750000
O O2 0.173539 0.864764 0.854625
O O3 0.000000 0.779784 0.839737
O O4 0.248083 0.772623 0.929687
O O5 0.750000 0.596304 0.750000
O O6 0.754210 0.520900 0.869776
O O7 0.000000 0.578930 0.838575
O O8 0.769168 0.623073 0.922582
O O9 0.500000 0.632233 0.990859
O O10 0.709992 0.695790 0.049325
O O11 0.707191 0.585592 0.082637
O O12 0.226248 0.807136 0.403918
O O13 0.000000 0.765983 0.483615
O O14 0.500000 0.127281 0.874311
O O15 0.759221 0.081083 0.848751
O O16 0.701641 0.108688 0.000563
O O17 0.750000 0.993796 0.750000
O O18 0.500000 0.028125 0.684677
O O19 0.686703 0.974039 0.591235
O O20 0.250000 0.553514 0.250000
O O21 0.500000 0.530235 0.163103
O O22 0.000000 0.903818 0.973385
#
# Coordination Sequence:
#
# PCOD9420116 Si02
#       8
#     8   8   8   8   8   8   8   8
#     4  10  19  32  51  75 104 137 173 215 264 317
#     4  11  22  36  57  86 120 153 184 221 267 323
#     4  10  21  38  59  82 111 148 188 230 274 319
#     4   9  20  38  56  74 101 139 181 220 259 310
#     4  10  20  35  55  76 100 133 171 210 256 310
#     4  11  22  35  52  75 103 132 165 210 261 313
#     4  10  20  36  59  85 114 147 183 226 275 325
#     4   9  19  34  52  75 102 132 167 208 257 314
#
# _framework density 19.753086
#
# number of rings (size 3 to 8) (size 9 to 14) (size 15 to 20)
#    0.000    2.000    0.000    4.500    0.000    7.000 
#    0.000    0.625    0.000    1.500    0.000    0.000 
#    0.000    0.000    0.000    0.000    0.000    0.000 
#
# Total GULP energy -356926.394727 kJ/mol
# GULP energy per Si atom -5576.974918 kJ/mol
# Density = 1.970813 g / cm^3
# Si number density = 19.753086 Si / 1000 Ang^3
#
#
#
# Elastic Constant Matrix: (Units=GPa)
#
#
# Indices 1 2 3 4 5 6 
#
# 1 47.3812 29.2082 2.0912 0.0000 0.0000 0.0000
# 2 29.2082 73.4253 4.8047 0.0000 0.0000 0.0000
# 3 2.0912 4.8047 4.1604 0.0000 0.0000 0.0000
# 4 0.0000 0.0000 0.0000 13.8719 0.0000 0.0000
# 5 0.0000 0.0000 0.0000 0.0000 21.0863 0.0000
# 6 0.0000 0.0000 0.0000 0.0000 0.0000 24.2773
#
#
#
# Elastic Compliance Matrix: (Units=1/GPa)
#
#
# Indices 1 2 3 4 5 6 
#
# 1 0.027969 -0.011040 -0.001308 0.000000 0.000000 0.000000
# 2 -0.011040 0.019091 -0.016498 0.000000 0.000000 0.000000
# 3 -0.001308 -0.016498 0.260074 0.000000 0.000000 0.000000
# 4 0.000000 0.000000 0.000000 0.072088 0.000000 0.000000
# 5 0.000000 0.000000 0.000000 0.000000 0.047424 0.000000
# 6 0.000000 0.000000 0.000000 0.000000 0.000000 0.041191
#
#
# Mechanical properties :
#
#
# Convention : Reuss Voigt Hill
#
# Bulk Modulus (GPa) = 4.00898 21.90836 12.95867
# Shear Modulus (GPa) = 8.21455 17.77130 12.99292
#
# Velocity S-wave (km/s) = 2.04148 3.00271 2.56748
# Velocity P-wave (km/s) = 2.75514 4.81008 3.91967
#
# Compressibility (1/GPa) = 0.24944000
#
# Stress axis : x y z
#
# Youngs Moduli (GPa) = 35.75397 52.38180 3.84506
#
# Poissons Ratio (x) = 0.57831 0.00503
# Poissons Ratio (y) = 0.39473 0.06344
# Poissons Ratio (z) = 0.04678 0.86419
#
# Static dielectric constant tensor:
#      x y z
#    x 1.673730 0.000000 0.000000 
#    y 0.000000 1.724410 0.000000 
#    z 0.000000 0.000000 1.708140 
# 
# From -- ./inp_files/20934.got.cif
#   From: 2010.05.17/outbox.ucp.g08.bks.cvg/sg53_11_cif.got.tgz:20934.got - 2010.06.11 16:32:34.
