data_PCOD9420285
_publ_section_title
;
Structure prediction by ZEFSAII (Michael W. Deem and Ramdas Pophale) SiO2 
 PCOD9420285
Probable space group: P M N A
;
_chemical_formula_sum "Si O2"
_cell_formula_units_Z 64
_cell_length_a 18.000000
_cell_length_b 12.000000
_cell_length_c 15.000000
_cell_angle_alpha 90.000000
_cell_angle_beta 90.000000
_cell_angle_gamma 90.000000
_cell_volume 3240.000000
_symmetry_space_group_name_H-M "P M N A"
_symmetry_group_IT_number 53
_symmetry_cell_setting 'orthorhombic'
loop_
_space_group_symop_operation_xyz
x,y,z
1/2-x,-y,1/2+z
x,-y,-z
1/2-x,y,1/2-z
-x,-y,-z
1/2+x,y,1/2-z
-x,y,z
1/2+x,-y,1/2+z
loop_
_atom_site_type_symbol
_atom_site_label
_atom_site_fract_x
_atom_site_fract_y
_atom_site_fract_z
Si Si1 0.909687 0.378945 0.043821
Si Si2 0.912923 0.502354 0.598892
Si Si3 0.414664 0.113579 0.212037
Si Si4 0.664730 0.899485 0.279199
Si Si5 0.913148 0.756247 0.372960
Si Si6 0.844516 0.866084 0.013362
Si Si7 0.326146 0.873513 0.969493
Si Si8 0.913706 0.363614 0.237570
O O1 0.879659 0.395895 0.144182
O O2 0.000000 0.373721 0.042488
O O3 0.890163 0.500000 0.000000
O O4 0.884964 0.252086 0.013533
O O5 0.879164 0.500000 0.500000
O O6 0.910650 0.376948 0.635121
O O7 0.880191 0.585378 0.672349
O O8 0.000000 0.537083 0.586383
O O9 0.500000 0.084892 0.188096
O O10 0.365075 0.134125 0.125309
O O11 0.415403 0.230769 0.261393
O O12 0.378153 0.016164 0.269116
O O13 0.750000 0.913915 0.250000
O O14 0.623703 0.815954 0.211503
O O15 0.663053 0.859067 0.380029
O O16 0.866945 0.794154 0.459653
O O17 0.000000 0.788480 0.382549
O O18 0.762576 0.859028 0.969305
O O19 0.870336 0.000000 0.000000
O O20 0.339557 0.000000 0.000000
O O21 0.000000 0.403138 0.236624
#
# Coordination Sequence:
#
# PCOD9420285 Si02
#       8
#     8   8   8   8   8   8   8   8
#     4  10  23  43  67  93 126 172 226 283 327 374
#     4   9  18  34  58  90 127 162 198 255 330 390
#     4  11  22  37  65  98 127 162 217 273 327 395
#     4  12  23  40  60  88 130 167 206 266 330 391
#     4  11  22  36  62  94 124 164 214 260 318 392
#     4  11  24  43  65  89 128 176 220 263 334 402
#     4  11  21  39  60  90 131 170 203 264 334 397
#     4   9  19  37  59  89 127 160 201 265 327 379
#
# _framework density 19.753086
#
# number of rings (size 3 to 8) (size 9 to 14) (size 15 to 20)
#    0.000    1.500    2.500    3.000    1.750    3.750 
#    0.000    1.875    0.000    0.750    0.000    0.000 
#    0.000    0.000    0.000    0.000    0.000    0.000 
#
# Total GULP energy -356718.213199 kJ/mol
# GULP energy per Si atom -5573.722081 kJ/mol
# Density = 1.970813 g / cm^3
# Si number density = 19.753086 Si / 1000 Ang^3
#
#
#
# Elastic Constant Matrix: (Units=GPa)
#
#
# Indices 1 2 3 4 5 6 
#
# 1 57.3662 31.2915 22.2662 0.0000 0.0000 0.0000
# 2 31.2915 104.5379 44.4185 0.0000 0.0000 0.0000
# 3 22.2662 44.4185 119.5035 0.0000 0.0000 0.0000
# 4 0.0000 0.0000 0.0000 -4.2410 0.0000 0.0000
# 5 0.0000 0.0000 0.0000 0.0000 2.8744 0.0000
# 6 0.0000 0.0000 0.0000 0.0000 0.0000 14.4994
#
#
#
# Elastic Compliance Matrix: (Units=1/GPa)
#
#
# Indices 1 2 3 4 5 6 
#
# 1 0.021186 -0.005539 -0.001889 0.000000 0.000000 0.000000
# 2 -0.005539 0.012808 -0.003729 0.000000 0.000000 0.000000
# 3 -0.001889 -0.003729 0.010106 0.000000 0.000000 0.000000
# 4 0.000000 0.000000 0.000000 -0.235794 0.000000 0.000000
# 5 0.000000 0.000000 0.000000 0.000000 0.347893 0.000000
# 6 0.000000 0.000000 0.000000 0.000000 0.000000 0.068968
#
#
# Mechanical properties :
#
#
# Convention : Reuss Voigt Hill
#
# Bulk Modulus (GPa) = 45.89809 53.04000 49.46904
# Shear Modulus (GPa) = 19.62757 14.85532 17.24145
#
# Velocity S-wave (km/s) = 3.15563 2.74533 2.95761
# Velocity P-wave (km/s) = 6.04679 6.07938 6.06311
#
# Compressibility (1/GPa) = 0.02178740
#
# Stress axis : x y z
#
# Youngs Moduli (GPa) = 47.20002 78.07434 98.95348
#
# Poissons Ratio (x) = 0.43248 0.18688
# Poissons Ratio (y) = 0.26145 0.36896
# Poissons Ratio (z) = 0.08914 0.29111
#
# Static dielectric constant tensor:
#      x y z
#    x 1.681990 0.000000 0.000000 
#    y 0.000000 1.690180 0.000000 
#    z 0.000000 0.000000 1.717420 
# 
# From -- ./inp_files/23916.got.cif
#   From: 2010.05.17/outbox.ucp.g08.bks.cvg/sg53_12_cif.got.tgz:23916.got - 2010.06.11 16:32:34.
