data_PCOD9420411
_publ_section_title
;
Structure prediction by ZEFSAII (Michael W. Deem and Ramdas Pophale) SiO2 
 PCOD9420411
Probable space group: P C C A
;
_chemical_formula_sum "Si O2"
_cell_formula_units_Z 56
_cell_length_a 16.439039
_cell_length_b 25.182921
_cell_length_c 5.495419
_cell_angle_alpha 90.000000
_cell_angle_beta 90.000000
_cell_angle_gamma 90.000000
_cell_volume 2275.010156
_symmetry_space_group_name_H-M "P C C A"
_symmetry_group_IT_number 54
_symmetry_cell_setting 'orthorhombic'
loop_
_space_group_symop_operation_xyz
x,y,z
1/2-x,-y,z
1/2+x,-y,1/2-z
-x,y,1/2-z
-x,-y,-z
1/2+x,y,-z
1/2-x,y,1/2+z
x,-y,1/2+z
loop_
_atom_site_type_symbol
_atom_site_label
_atom_site_fract_x
_atom_site_fract_y
_atom_site_fract_z
Si Si1 0.041241 0.579817 0.500388
Si Si2 0.949908 0.143515 0.000885
Si Si3 0.213574 0.316485 0.574791
Si Si4 0.222838 0.560890 0.360345
Si Si5 0.716710 0.191573 0.424569
Si Si6 0.405949 0.978424 0.496548
Si Si7 0.475739 0.698437 0.499821
O O1 0.135036 0.565255 0.485115
O O2 0.000000 0.560922 0.750000
O O3 0.028843 0.643887 0.501200
O O4 0.000000 0.561147 0.250000
O O5 0.877600 0.185624 0.986132
O O6 0.910181 0.084838 0.009714
O O7 0.000000 0.145505 0.750000
O O8 0.000000 0.149092 0.250000
O O9 0.266796 0.336443 0.346638
O O10 0.237228 0.253837 0.594864
O O11 0.118546 0.317537 0.508571
O O12 0.250000 0.500000 0.321773
O O13 0.282956 0.580345 0.578412
O O14 0.764217 0.168339 0.657811
O O15 0.500000 0.000000 0.500000
O O16 0.368649 0.001039 0.248454
O O17 0.500000 0.726520 0.250000
O O18 0.500000 0.726777 0.750000
#
# Coordination Sequence:
#
# PCOD9420411 Si02
#       7
#     8   8   8   8   8   8   8
#     4  10  21  40  60  88 123 156 193 251 307 332
#     4  12  21  33  59  90 106 145 202 242 285 335
#     4  10  21  40  63  84 113 159 199 227 283 367
#     4  10  21  40  62  88 118 161 208 242 284 357
#     4  10  23  41  57  81 122 157 182 233 299 354
#     4  10  16  30  49  78 107 141 178 245 283 331
#     4  10  21  38  60  90 122 152 187 246 303 337
#
# _framework density 24.615276999999999
#
# number of rings (size 3 to 8) (size 9 to 14) (size 15 to 20)
#    0.000    1.714    2.857    2.571    0.000    1.143 
#    0.000   25.714    0.000    2.571    0.000    0.000 
#    0.000    0.000    0.000    0.000    0.000    0.000 
#
# Total GULP energy -313310.933654 kJ/mol
# GULP energy per Si atom -5594.838101 kJ/mol
# Density = 2.455925 g / cm^3
# Si number density = 24.615277 Si / 1000 Ang^3
#
#
#
# Elastic Constant Matrix: (Units=GPa)
#
#
# Indices 1 2 3 4 5 6 
#
# 1 91.1429 -23.9161 57.7148 0.0000 0.0000 0.0000
# 2 -23.9161 52.2556 28.8619 0.0000 0.0000 0.0000
# 3 57.7148 28.8619 281.2053 0.0000 0.0000 0.0000
# 4 0.0000 0.0000 0.0000 -54.6136 0.0000 0.0000
# 5 0.0000 0.0000 0.0000 0.0000 39.6592 0.0000
# 6 0.0000 0.0000 0.0000 0.0000 0.0000 -8.1997
#
#
#
# Elastic Compliance Matrix: (Units=1/GPa)
#
#
# Indices 1 2 3 4 5 6 
#
# 1 0.016331 0.009886 -0.004366 0.000000 0.000000 0.000000
# 2 0.009886 0.026271 -0.004725 0.000000 0.000000 0.000000
# 3 -0.004366 -0.004725 0.004937 0.000000 0.000000 0.000000
# 4 0.000000 0.000000 0.000000 -0.018310 0.000000 0.000000
# 5 0.000000 0.000000 0.000000 0.000000 0.025215 0.000000
# 6 0.000000 0.000000 0.000000 0.000000 0.000000 -0.121956
#
#
# Mechanical properties :
#
#
# Convention : Reuss Voigt Hill
#
# Bulk Modulus (GPa) = 20.35522 61.10278 40.72900
# Shear Modulus (GPa) = -94.83209 19.49874 -37.66668
#
# Velocity S-wave (km/s) = -6.21364 2.81755 -3.91604
# Velocity P-wave (km/s) = 6.57205 5.95498 1.96596
#
# Compressibility (1/GPa) = 0.04912744
#
# Stress axis : x y z
#
# Youngs Moduli (GPa) = 61.23395 38.06460 202.54073
#
# Poissons Ratio (x) = -0.37630 0.88437
# Poissons Ratio (y) = -0.60535 0.95708
# Poissons Ratio (z) = 0.26737 0.17987
#
# Static dielectric constant tensor:
#      x y z
#    x 1.885580 0.000000 0.000000 
#    y 0.000000 2.081200 0.000000 
#    z 0.000000 0.000000 2.046290 
# 
# From -- ./inp_files/732.got.cif
#   From: 2010.05.17/outbox.cif.g08.bks.cpg/sg54_1_cif.got.tgz:732.got - 2010.06.03 13:09:01.
