data_PCOD9420233
_publ_section_title
;
Structure prediction by ZEFSAII (Michael W. Deem and Ramdas Pophale) SiO2 
 PCOD9420233
Probable space group: P M N A
;
_chemical_formula_sum "Si O2"
_cell_formula_units_Z 48
_cell_length_a 9.000000
_cell_length_b 12.000000
_cell_length_c 24.000000
_cell_angle_alpha 90.000000
_cell_angle_beta 90.000000
_cell_angle_gamma 90.000000
_cell_volume 2592.000000
_symmetry_space_group_name_H-M "P M N A"
_symmetry_group_IT_number 53
_symmetry_cell_setting 'orthorhombic'
loop_
_space_group_symop_operation_xyz
x,y,z
1/2-x,-y,1/2+z
x,-y,-z
1/2-x,y,1/2-z
-x,-y,-z
1/2+x,y,1/2-z
-x,y,z
1/2+x,-y,1/2+z
loop_
_atom_site_type_symbol
_atom_site_label
_atom_site_fract_x
_atom_site_fract_y
_atom_site_fract_z
Si Si1 0.675602 0.373757 0.305201
Si Si2 0.676449 0.204155 0.620257
Si Si3 0.177899 0.616095 0.307056
Si Si4 0.174276 0.007566 0.690545
Si Si5 0.674086 0.131230 0.991305
Si Si6 0.170105 0.785885 0.615634
O O1 0.750000 0.320337 0.250000
O O2 0.500000 0.388004 0.297192
O O3 0.757461 0.491788 0.311566
O O4 0.714456 0.298877 0.357845
O O5 0.500000 0.215640 0.626174
O O6 0.761442 0.312953 0.641857
O O7 0.722993 0.177133 0.557254
O O8 0.738420 0.105060 0.659028
O O9 0.250000 0.663757 0.250000
O O10 0.000000 0.616498 0.303450
O O11 0.250000 0.985890 0.750000
O O12 0.180448 0.900038 0.650630
O O13 0.000000 0.037425 0.697782
O O14 0.500000 0.143461 0.974735
O O15 0.695127 0.189438 0.050835
O O16 0.700876 0.000000 0.000000
O O17 0.000000 0.743979 0.622635
#
# Coordination Sequence:
#
# PCOD9420233 Si02
#       6
#     8   8   8   8   8   8
#     4  11  22  38  61  89 122 155 195 241 294 351
#     4  12  24  38  58  87 120 154 196 243 294 350
#     4  11  22  40  64  88 118 155 197 242 296 353
#     4  11  22  37  56  84 118 154 193 241 294 350
#     4  10  20  40  63  85 115 158 201 242 292 350
#     4  10  21  38  61  86 117 154 197 241 291 349
#
# _framework density 18.518519000000001
#
# number of rings (size 3 to 8) (size 9 to 14) (size 15 to 20)
#    0.000    1.167    1.667    7.000    0.000    3.667 
#    0.000    0.833    0.000    5.000    0.000    0.000 
#    0.000    0.000    0.000    0.000    0.000    0.000 
#
# Total GULP energy -268315.170121 kJ/mol
# GULP energy per Si atom -5589.899378 kJ/mol
# Density = 1.847637 g / cm^3
# Si number density = 18.518519 Si / 1000 Ang^3
#
#
#
# Elastic Constant Matrix: (Units=GPa)
#
#
# Indices 1 2 3 4 5 6 
#
# 1 172.6442 43.3791 51.5968 0.0000 0.0000 0.0000
# 2 43.3791 47.9531 22.2755 0.0000 0.0000 0.0000
# 3 51.5968 22.2755 72.2068 0.0000 0.0000 0.0000
# 4 0.0000 0.0000 0.0000 10.7468 0.0000 0.0000
# 5 0.0000 0.0000 0.0000 0.0000 33.6165 0.0000
# 6 0.0000 0.0000 0.0000 0.0000 0.0000 22.7233
#
#
#
# Elastic Compliance Matrix: (Units=1/GPa)
#
#
# Indices 1 2 3 4 5 6 
#
# 1 0.008517 -0.005693 -0.004329 0.000000 0.000000 0.000000
# 2 -0.005693 0.028148 -0.004615 0.000000 0.000000 0.000000
# 3 -0.004329 -0.004615 0.018367 0.000000 0.000000 0.000000
# 4 0.000000 0.000000 0.000000 0.093051 0.000000 0.000000
# 5 0.000000 0.000000 0.000000 0.000000 0.029747 0.000000
# 6 0.000000 0.000000 0.000000 0.000000 0.000000 0.044008
#
#
# Mechanical properties :
#
#
# Convention : Reuss Voigt Hill
#
# Bulk Modulus (GPa) = 38.82711 58.58968 48.70839
# Shear Modulus (GPa) = 19.25315 25.12083 22.18699
#
# Velocity S-wave (km/s) = 3.22789 3.68710 3.46511
# Velocity P-wave (km/s) = 5.90800 7.05928 6.50914
#
# Compressibility (1/GPa) = 0.02575520
#
# Stress axis : x y z
#
# Youngs Moduli (GPa) = 117.41727 35.52683 54.44666
#
# Poissons Ratio (x) = 0.20226 0.23572
# Poissons Ratio (y) = 0.66847 0.25129
# Poissons Ratio (z) = 0.50835 0.16397
#
# Static dielectric constant tensor:
#      x y z
#    x 1.619390 0.000000 0.000000 
#    y 0.000000 1.655200 0.000000 
#    z 0.000000 0.000000 1.675330 
# 
# From -- ./inp_files/33901.got.cif
#   From: 2010.05.17/outbox.ucp.g08.bks.cvg/sg53_17_cif.got.tgz:33901.got - 2010.06.11 16:32:34.
