data_PCOD9420583
_publ_section_title
;
Structure prediction by ZEFSAII (Michael W. Deem and Ramdas Pophale) SiO2 
 PCOD9420583
Probable space group: P C C A
;
_chemical_formula_sum "Si O2"
_cell_formula_units_Z 44
_cell_length_a 21.148144
_cell_length_b 11.224291
_cell_length_c 9.845180
_cell_angle_alpha 90.000000
_cell_angle_beta 90.000000
_cell_angle_gamma 90.000000
_cell_volume 2336.979148
_symmetry_space_group_name_H-M "P C C A"
_symmetry_group_IT_number 54
_symmetry_cell_setting 'orthorhombic'
loop_
_space_group_symop_operation_xyz
x,y,z
1/2-x,-y,z
1/2+x,-y,1/2-z
-x,y,1/2-z
-x,-y,-z
1/2+x,y,-z
1/2-x,y,1/2+z
x,-y,1/2+z
loop_
_atom_site_type_symbol
_atom_site_label
_atom_site_fract_x
_atom_site_fract_y
_atom_site_fract_z
Si Si1 0.281454 0.130198 0.710885
Si Si2 0.506772 0.856038 0.604345
Si Si3 0.939316 0.640390 0.505191
Si Si4 0.500000 0.501484 0.250000
Si Si5 0.816321 0.210654 0.007720
Si Si6 0.605090 0.026768 0.948331
O O1 0.238044 0.198154 0.603210
O O2 0.286037 0.207691 0.844810
O O3 0.250000 0.000000 0.739197
O O4 0.350855 0.102077 0.650681
O O5 0.500000 0.796920 0.750000
O O6 0.481752 0.761139 0.496362
O O7 0.458989 0.968713 0.612098
O O8 0.577488 0.895113 0.570778
O O9 0.960284 0.567379 0.369463
O O10 0.867444 0.685593 0.490609
O O11 0.953564 0.575592 0.648447
O O12 0.854108 0.084873 0.997369
#
# Coordination Sequence:
#
# PCOD9420583 Si02
#       6
#     8   8   8   4   8   8
#     4  10  19  34  54  82 123 163 190 220 265 336
#     4  10  18  31  51  89 120 153 188 232 288 341
#     4  10  22  39  64  85 108 142 191 246 307 351
#     4  10  22  44  62  86 106 138 188 258 320 346
#     4  10  21  36  55  87 116 157 196 222 277 345
#     4   9  19  30  51  84 128 158 186 227 268 344
#
# _framework density 18.827725000000001
#
# number of rings (size 3 to 8) (size 9 to 14) (size 15 to 20)
#    0.000    2.182    0.909    2.727    2.545    2.909 
#    3.273    0.000    0.000    3.273    0.000    0.000 
#    0.000    0.000    0.000    0.000    0.000    0.000 
#
# Total GULP energy -245131.015221 kJ/mol
# GULP energy per Si atom -5571.159437 kJ/mol
# Density = 1.878487 g / cm^3
# Si number density = 18.827725 Si / 1000 Ang^3
#
#
#
# Elastic Constant Matrix: (Units=GPa)
#
#
# Indices 1 2 3 4 5 6 
#
# 1 89.1954 26.2369 56.1091 0.0000 0.0000 0.0000
# 2 26.2369 48.6535 41.7237 0.0000 0.0000 0.0000
# 3 56.1091 41.7237 135.3546 0.0000 0.0000 0.0000
# 4 0.0000 0.0000 0.0000 11.2442 0.0000 0.0000
# 5 0.0000 0.0000 0.0000 0.0000 21.4021 0.0000
# 6 0.0000 0.0000 0.0000 0.0000 0.0000 8.9339
#
#
#
# Elastic Compliance Matrix: (Units=1/GPa)
#
#
# Indices 1 2 3 4 5 6 
#
# 1 0.015698 -0.003921 -0.005299 0.000000 0.000000 0.000000
# 2 -0.003921 0.028919 -0.007289 0.000000 0.000000 0.000000
# 3 -0.005299 -0.007289 0.011831 0.000000 0.000000 0.000000
# 4 0.000000 0.000000 0.000000 0.088935 0.000000 0.000000
# 5 0.000000 0.000000 0.000000 0.000000 0.046724 0.000000
# 6 0.000000 0.000000 0.000000 0.000000 0.000000 0.111933
#
#
# Mechanical properties :
#
#
# Convention : Reuss Voigt Hill
#
# Bulk Modulus (GPa) = 42.67945 57.92698 50.30321
# Shear Modulus (GPa) = 14.49829 18.25829 16.37829
#
# Velocity S-wave (km/s) = 2.77799 3.11747 2.95261
# Velocity P-wave (km/s) = 5.74519 6.61754 6.19673
#
# Compressibility (1/GPa) = 0.02343048
#
# Stress axis : x y z
#
# Youngs Moduli (GPa) = 63.70272 34.57959 84.52200
#
# Poissons Ratio (x) = 0.13560 0.44784
# Poissons Ratio (y) = 0.24980 0.61606
# Poissons Ratio (z) = 0.33753 0.25204
#
# Static dielectric constant tensor:
#      x y z
#    x 1.647730 0.000000 0.000000 
#    y 0.000000 1.691100 0.000000 
#    z 0.000000 0.000000 1.707840 
# 
# From -- ./inp_files/5102.got.cif
#   From: 2010.05.17/outbox.cif.g08.bks.cpg/sg54_3_cif.got.tgz:5102.got - 2010.06.03 13:09:01.
