data_PCOD9420051
_publ_section_title
;
Structure prediction by ZEFSAII (Michael W. Deem and Ramdas Pophale) SiO2 
 PCOD9420051
Probable space group: P M N A
;
_chemical_formula_sum "Si O2"
_cell_formula_units_Z 40
_cell_length_a 16.930712
_cell_length_b 14.219071
_cell_length_c 7.269667
_cell_angle_alpha 90.000000
_cell_angle_beta 90.000000
_cell_angle_gamma 90.000000
_cell_volume 1750.092335
_symmetry_space_group_name_H-M "P M N A"
_symmetry_group_IT_number 53
_symmetry_cell_setting 'orthorhombic'
loop_
_space_group_symop_operation_xyz
x,y,z
1/2-x,-y,1/2+z
x,-y,-z
1/2-x,y,1/2-z
-x,-y,-z
1/2+x,y,1/2-z
-x,y,z
1/2+x,-y,1/2+z
loop_
_atom_site_type_symbol
_atom_site_label
_atom_site_fract_x
_atom_site_fract_y
_atom_site_fract_z
Si Si1 0.094903 0.300812 0.305284
Si Si2 0.344032 0.894919 0.782782
Si Si3 0.345032 0.098310 0.778321
Si Si4 0.843254 0.699982 0.276562
Si Si5 0.592093 0.497817 0.776070
O O1 0.118890 0.202372 0.215000
O O2 0.133250 0.300054 0.508160
O O3 0.122166 0.399357 0.215595
O O4 0.000000 0.305096 0.324497
O O5 0.250000 0.889210 0.750000
O O6 0.373240 0.996229 0.709866
O O7 0.358460 0.899062 0.002210
O O8 0.250000 0.096608 0.750000
O O9 0.375233 0.198877 0.705005
O O10 0.750000 0.703299 0.250000
O O11 0.871106 0.598759 0.206030
O O12 0.500000 0.492401 0.731033
O O13 0.598753 0.500000 0.000000
#
# Coordination Sequence:
#
# PCOD9420051 Si02
#       5
#     8   8   8   8   8
#     4   9  17  29  43  63  92 119 144 183 233 272
#     4   9  16  27  44  66  87 115 153 188 221 263
#     4   8  15  27  41  62  92 119 141 179 234 274
#     4   9  15  24  40  61  85 113 147 182 215 262
#     4   8  14  25  39  55  81 114 141 173 223 270
#
# _framework density 22.855937999999998
#
# number of rings (size 3 to 8) (size 9 to 14) (size 15 to 20)
#    0.000    3.400    0.000    1.800    0.000    0.800 
#    0.000    9.000    0.000    0.000    0.000   46.200 
#    0.000   57.600    0.000    0.000    0.000    0.000 
#
# Total GULP energy -222773.003317 kJ/mol
# GULP energy per Si atom -5569.325083 kJ/mol
# Density = 2.280392 g / cm^3
# Si number density = 22.855938 Si / 1000 Ang^3
#
#
#
# Elastic Constant Matrix: (Units=GPa)
#
#
# Indices 1 2 3 4 5 6 
#
# 1 33.7682 56.2162 4.5501 0.0000 0.0000 0.0000
# 2 56.2162 353.0885 21.6454 0.0000 0.0000 0.0000
# 3 4.5501 21.6454 103.4048 0.0000 0.0000 0.0000
# 4 0.0000 0.0000 0.0000 -14.6388 0.0000 0.0000
# 5 0.0000 0.0000 0.0000 0.0000 7.0443 0.0000
# 6 0.0000 0.0000 0.0000 0.0000 0.0000 36.7232
#
#
#
# Elastic Compliance Matrix: (Units=1/GPa)
#
#
# Indices 1 2 3 4 5 6 
#
# 1 0.040313 -0.006392 -0.000436 0.000000 0.000000 0.000000
# 2 -0.006392 0.003882 -0.000531 0.000000 0.000000 0.000000
# 3 -0.000436 -0.000531 0.009801 0.000000 0.000000 0.000000
# 4 0.000000 0.000000 0.000000 -0.068312 0.000000 0.000000
# 5 0.000000 0.000000 0.000000 0.000000 0.141959 0.000000
# 6 0.000000 0.000000 0.000000 0.000000 0.000000 0.027231
#
#
# Mechanical properties :
#
#
# Convention : Reuss Voigt Hill
#
# Bulk Modulus (GPa) = 25.45923 72.78720 49.12322
# Shear Modulus (GPa) = 27.36953 33.01573 30.19263
#
# Velocity S-wave (km/s) = 3.46422 3.80480 3.63850
# Velocity P-wave (km/s) = 5.21193 7.15662 6.26025
#
# Compressibility (1/GPa) = 0.03927848
#
# Stress axis : x y z
#
# Youngs Moduli (GPa) = 24.80592 257.57570 102.02875
#
# Poissons Ratio (x) = 1.64632 0.04448
# Poissons Ratio (y) = 0.15855 0.05422
# Poissons Ratio (z) = 0.01081 0.13688
#
# Static dielectric constant tensor:
#      x y z
#    x 1.767160 0.000000 0.000000 
#    y 0.000000 1.984660 0.000000 
#    z 0.000000 0.000000 1.823530 
# 
# From -- ./inp_files/8386.got.cif
#   From: 2010.05.17/outbox.cif.g08.bks.cpg/sg53_5_cif.got.tgz:8386.got - 2010.06.03 12:45:16.
