data_PCOD9420610
_publ_section_title
;
Structure prediction by ZEFSAII (Michael W. Deem and Ramdas Pophale) SiO2 
 PCOD9420610
Probable space group: P C C A
;
_chemical_formula_sum "Si O2"
_cell_formula_units_Z 44
_cell_length_a 21.405561
_cell_length_b 5.574303
_cell_length_c 14.259119
_cell_angle_alpha 90.000000
_cell_angle_beta 90.000000
_cell_angle_gamma 90.000000
_cell_volume 1701.413520
_symmetry_space_group_name_H-M "P C C A"
_symmetry_group_IT_number 54
_symmetry_cell_setting 'orthorhombic'
loop_
_space_group_symop_operation_xyz
x,y,z
1/2-x,-y,z
1/2+x,-y,1/2-z
-x,y,1/2-z
-x,-y,-z
1/2+x,y,-z
1/2-x,y,1/2+z
x,-y,1/2+z
loop_
_atom_site_type_symbol
_atom_site_label
_atom_site_fract_x
_atom_site_fract_y
_atom_site_fract_z
Si Si1 0.500000 0.171672 0.750000
Si Si2 0.735023 0.246646 0.430384
Si Si3 0.397189 0.455697 0.809095
Si Si4 0.021133 0.212941 0.914297
Si Si5 0.895822 0.843668 0.514047
Si Si6 0.282892 0.749512 0.854900
O O1 0.432365 0.303085 0.730315
O O2 0.490632 0.001173 0.840395
O O3 0.750000 0.500000 0.384605
O O4 0.661761 0.221695 0.449634
O O5 0.775151 0.244914 0.529557
O O6 0.750000 0.000000 0.379089
O O7 0.459620 0.561719 0.855369
O O8 0.373315 0.266039 0.886617
O O9 0.350422 0.682980 0.808636
O O10 0.080992 0.117695 0.973261
O O11 0.959721 0.263190 0.973472
O O12 0.250000 0.500000 0.829212
O O13 0.250000 0.000000 0.827344
#
# Coordination Sequence:
#
# PCOD9420610 Si02
#       6
#     4   8   8   8   8   8
#     4  10  24  38  56  88 120 180 214 262 322 388
#     4  10  18  32  53  89 125 155 188 248 317 369
#     4  11  20  37  59  89 130 159 215 267 328 388
#     4  10  21  37  58  86 124 162 208 263 326 381
#     4  10  20  34  58  94 121 154 207 267 326 389
#     4  10  19  32  57  91 127 156 199 264 315 370
#
# _framework density 25.860851
#
# number of rings (size 3 to 8) (size 9 to 14) (size 15 to 20)
#    0.000    1.818    3.636    3.273    2.545    0.000 
#    0.000    0.000    0.000    0.000    9.455    0.000 
#    0.000    0.000    0.000    0.000    0.000    0.000 
#
# Total GULP energy -245221.031972 kJ/mol
# GULP energy per Si atom -5573.205272 kJ/mol
# Density = 2.580199 g / cm^3
# Si number density = 25.860851 Si / 1000 Ang^3
#
#
#
# Elastic Constant Matrix: (Units=GPa)
#
#
# Indices 1 2 3 4 5 6 
#
# 1 139.4841 43.6526 12.5562 0.0000 0.0000 0.0000
# 2 43.6526 139.7058 9.1185 0.0000 0.0000 0.0000
# 3 12.5562 9.1185 58.9589 0.0000 0.0000 0.0000
# 4 0.0000 0.0000 0.0000 8.6749 0.0000 0.0000
# 5 0.0000 0.0000 0.0000 0.0000 8.8064 0.0000
# 6 0.0000 0.0000 0.0000 0.0000 0.0000 45.6616
#
#
#
# Elastic Compliance Matrix: (Units=1/GPa)
#
#
# Indices 1 2 3 4 5 6 
#
# 1 0.008050 -0.002428 -0.001339 0.000000 0.000000 0.000000
# 2 -0.002428 0.007963 -0.000715 0.000000 0.000000 0.000000
# 3 -0.001339 -0.000715 0.017357 0.000000 0.000000 0.000000
# 4 0.000000 0.000000 0.000000 0.115275 0.000000 0.000000
# 5 0.000000 0.000000 0.000000 0.000000 0.113554 0.000000
# 6 0.000000 0.000000 0.000000 0.000000 0.000000 0.021900
#
#
# Mechanical properties :
#
#
# Convention : Reuss Voigt Hill
#
# Bulk Modulus (GPa) = 40.97177 52.08926 46.53052
# Shear Modulus (GPa) = 16.60046 30.81667 23.70856
#
# Velocity S-wave (km/s) = 2.53635 3.45575 3.03111
# Velocity P-wave (km/s) = 4.94520 6.00906 5.50290
#
# Compressibility (1/GPa) = 0.02440705
#
# Stress axis : x y z
#
# Youngs Moduli (GPa) = 124.22987 125.57874 57.61501
#
# Poissons Ratio (x) = 0.30488 0.07714
# Poissons Ratio (y) = 0.30161 0.04117
# Poissons Ratio (z) = 0.16632 0.08973
#
# Static dielectric constant tensor:
#      x y z
#    x 2.198120 0.000000 0.000000 
#    y 0.000000 2.080300 0.000000 
#    z 0.000000 0.000000 2.069230 
# 
# From -- ./inp_files/22024.got.cif
#   From: 2010.05.17/outbox.cif.g08.bks.cpg/sg54_12_cif.got.tgz:22024.got - 2010.06.03 13:09:01.
