data_PCOD9420161
_publ_section_title
;
Structure prediction by ZEFSAII (Michael W. Deem and Ramdas Pophale) SiO2 
 PCOD9420161
Probable space group: P M N A
;
_chemical_formula_sum "Si O2"
_cell_formula_units_Z 48
_cell_length_a 18.000000
_cell_length_b 9.000000
_cell_length_c 15.000000
_cell_angle_alpha 90.000000
_cell_angle_beta 90.000000
_cell_angle_gamma 90.000000
_cell_volume 2430.000000
_symmetry_space_group_name_H-M "P M N A"
_symmetry_group_IT_number 53
_symmetry_cell_setting 'orthorhombic'
loop_
_space_group_symop_operation_xyz
x,y,z
1/2-x,-y,1/2+z
x,-y,-z
1/2-x,y,1/2-z
-x,-y,-z
1/2+x,y,1/2-z
-x,y,z
1/2+x,-y,1/2+z
loop_
_atom_site_type_symbol
_atom_site_label
_atom_site_fract_x
_atom_site_fract_y
_atom_site_fract_z
Si Si1 0.163602 0.944731 0.227499
Si Si2 0.590571 0.577203 0.907429
Si Si3 0.910572 0.073791 0.405604
Si Si4 0.589327 0.724316 0.404013
Si Si5 0.412894 0.169694 0.396664
Si Si6 0.086231 0.531179 0.789564
O O1 0.250000 0.923924 0.250000
O O2 0.124943 0.998020 0.318820
O O3 0.146181 0.059596 0.147122
O O4 0.122984 0.805426 0.182528
O O5 0.500000 0.565596 0.906509
O O6 0.608656 0.751895 0.908819
O O7 0.618501 0.516658 0.810692
O O8 0.615524 0.500000 0.000000
O O9 0.000000 0.061380 0.397309
O O10 0.889013 0.000000 0.500000
O O11 0.500000 0.737614 0.404887
O O12 0.609504 0.781245 0.503081
O O13 0.612712 0.557984 0.377139
O O14 0.500000 0.113602 0.400509
O O15 0.413719 0.301336 0.324365
O O16 0.000000 0.486452 0.778866
#
# Coordination Sequence:
#
# PCOD9420161 Si02
#       6
#     8   8   8   8   8   8
#     4  12  25  39  56  82 120 162 196 236 285 348
#     4   9  17  30  53  86 118 147 181 233 293 344
#     4  10  21  37  59  85 114 149 195 243 286 338
#     4  10  21  36  63  94 117 148 192 245 297 349
#     4  10  19  38  65  91 117 149 194 243 295 349
#     4   9  17  32  59  92 121 142 182 247 304 350
#
# _framework density 19.753086
#
# number of rings (size 3 to 8) (size 9 to 14) (size 15 to 20)
#    0.000    2.000    1.667    2.500    2.333    4.667 
#    0.000    0.833    0.000    0.000    0.000    0.000 
#    0.000    0.000    0.000    0.000    0.000    0.000 
#
# Total GULP energy -267204.081035 kJ/mol
# GULP energy per Si atom -5566.751688 kJ/mol
# Density = 1.970813 g / cm^3
# Si number density = 19.753086 Si / 1000 Ang^3
#
#
#
# Elastic Constant Matrix: (Units=GPa)
#
#
# Indices 1 2 3 4 5 6 
#
# 1 7.7824 -8.3962 11.4062 0.0000 0.0000 0.0000
# 2 -8.3962 16.8443 8.2309 0.0000 0.0000 0.0000
# 3 11.4062 8.2309 143.5850 0.0000 0.0000 0.0000
# 4 0.0000 0.0000 0.0000 35.5157 0.0000 0.0000
# 5 0.0000 0.0000 0.0000 0.0000 18.8248 0.0000
# 6 0.0000 0.0000 0.0000 0.0000 0.0000 39.5545
#
#
#
# Elastic Compliance Matrix: (Units=1/GPa)
#
#
# Indices 1 2 3 4 5 6 
#
# 1 0.533683 0.294999 -0.059306 0.000000 0.000000 0.000000
# 2 0.294999 0.224142 -0.036283 0.000000 0.000000 0.000000
# 3 -0.059306 -0.036283 0.013756 0.000000 0.000000 0.000000
# 4 0.000000 0.000000 0.000000 0.028157 0.000000 0.000000
# 5 0.000000 0.000000 0.000000 0.000000 0.053121 0.000000
# 6 0.000000 0.000000 0.000000 0.000000 0.000000 0.025282
#
#
# Mechanical properties :
#
#
# Convention : Reuss Voigt Hill
#
# Bulk Modulus (GPa) = 0.85441 21.18816 11.02128
# Shear Modulus (GPa) = 5.75074 29.24372 17.49723
#
# Velocity S-wave (km/s) = 1.70811 3.85185 2.97946
# Velocity P-wave (km/s) = 2.07934 5.52559 4.17467
#
# Compressibility (1/GPa) = 1.17040067
#
# Stress axis : x y z
#
# Youngs Moduli (GPa) = 1.87377 4.46146 72.69766
#
# Poissons Ratio (x) = -1.31613 4.31139
# Poissons Ratio (y) = -0.55276 2.63770
# Poissons Ratio (z) = 0.11113 0.16188
#
# Static dielectric constant tensor:
#      x y z
#    x 1.677060 0.000000 0.000000 
#    y 0.000000 1.954240 0.000000 
#    z 0.000000 0.000000 1.712350 
# 
# From -- ./inp_files/23683.got.cif
#   From: 2010.05.17/outbox.ucp.g08.bks.cvg/sg53_12_cif.got.tgz:23683.got - 2010.06.11 16:32:34.
