data_PCOD9420550
_publ_section_title
;
Structure prediction by ZEFSAII (Michael W. Deem and Ramdas Pophale) SiO2 
 PCOD9420550
Probable space group: P C C A
;
_chemical_formula_sum "Si O2"
_cell_formula_units_Z 48
_cell_length_a 24.553844
_cell_length_b 5.036529
_cell_length_c 21.260586
_cell_angle_alpha 90.000000
_cell_angle_beta 90.000000
_cell_angle_gamma 90.000000
_cell_volume 2629.214761
_symmetry_space_group_name_H-M "P C C A"
_symmetry_group_IT_number 54
_symmetry_cell_setting 'orthorhombic'
loop_
_space_group_symop_operation_xyz
x,y,z
1/2-x,-y,z
1/2+x,-y,1/2-z
-x,y,1/2-z
-x,-y,-z
1/2+x,y,-z
1/2-x,y,1/2+z
x,-y,1/2+z
loop_
_atom_site_type_symbol
_atom_site_label
_atom_site_fract_x
_atom_site_fract_y
_atom_site_fract_z
Si Si1 0.563358 0.542394 0.988800
Si Si2 0.190140 0.920309 0.075305
Si Si3 0.187998 0.548705 0.248873
Si Si4 0.188212 0.048662 0.334074
Si Si5 0.634039 0.579430 0.376854
Si Si6 0.625533 0.042569 0.040928
O O1 0.582734 0.826485 0.014558
O O2 0.599583 0.326959 0.026337
O O3 0.500000 0.500000 0.000000
O O4 0.579736 0.496745 0.915392
O O5 0.177553 0.613965 0.088136
O O6 0.250000 0.000000 0.095110
O O7 0.148459 0.112958 0.112391
O O8 0.178121 0.992661 0.003198
O O9 0.250000 0.500000 0.223814
O O10 0.183015 0.343310 0.306483
O O11 0.143612 0.489451 0.195599
O O12 0.182762 0.843278 0.276155
O O13 0.144477 0.994683 0.388024
O O14 0.250000 0.000000 0.358029
#
# Coordination Sequence:
#
# PCOD9420550 Si02
#       6
#     8   8   8   8   8   8
#     4  10  21  37  57  76  97 130 172 224 269 296
#     4  10  18  29  48  74 103 128 158 205 254 304
#     4  10  19  31  49  73 105 140 167 195 238 302
#     4  10  20  33  51  76 108 142 168 195 240 305
#     4  10  20  32  50  75 101 134 171 207 252 301
#     4  10  20  34  53  76 100 130 168 208 255 306
#
# _framework density 18.256401
#
# number of rings (size 3 to 8) (size 9 to 14) (size 15 to 20)
#    0.000    2.000    0.000    4.500    0.000    1.333 
#    0.000    5.000    0.000    6.000    0.000    0.000 
#    0.000    0.000    0.000    0.000    0.000    0.000 
#
# Total GULP energy -267753.711807 kJ/mol
# GULP energy per Si atom -5578.202329 kJ/mol
# Density = 1.821485 g / cm^3
# Si number density = 18.256401 Si / 1000 Ang^3
#
#
#
# Elastic Constant Matrix: (Units=GPa)
#
#
# Indices 1 2 3 4 5 6 
#
# 1 34.4805 -10.2796 12.2112 0.0000 0.0000 0.0000
# 2 -10.2796 54.6619 -14.3205 0.0000 0.0000 0.0000
# 3 12.2112 -14.3205 52.9721 0.0000 0.0000 0.0000
# 4 0.0000 0.0000 0.0000 14.5322 0.0000 0.0000
# 5 0.0000 0.0000 0.0000 0.0000 13.9681 0.0000
# 6 0.0000 0.0000 0.0000 0.0000 0.0000 13.3102
#
#
#
# Elastic Compliance Matrix: (Units=1/GPa)
#
#
# Indices 1 2 3 4 5 6 
#
# 1 0.032566 0.004474 -0.006298 0.000000 0.000000 0.000000
# 2 0.004474 0.020303 0.004457 0.000000 0.000000 0.000000
# 3 -0.006298 0.004457 0.021535 0.000000 0.000000 0.000000
# 4 0.000000 0.000000 0.000000 0.068813 0.000000 0.000000
# 5 0.000000 0.000000 0.000000 0.000000 0.071592 0.000000
# 6 0.000000 0.000000 0.000000 0.000000 0.000000 0.075130
#
#
# Mechanical properties :
#
#
# Convention : Reuss Voigt Hill
#
# Bulk Modulus (GPa) = 12.55133 13.03741 12.79437
# Shear Modulus (GPa) = 16.06538 18.66232 17.36385
#
# Velocity S-wave (km/s) = 2.96967 3.20071 3.08735
# Velocity P-wave (km/s) = 4.31840 4.56247 4.44211
#
# Compressibility (1/GPa) = 0.07967282
#
# Stress axis : x y z
#
# Youngs Moduli (GPa) = 30.70672 49.25264 46.43693
#
# Poissons Ratio (x) = -0.22038 0.29244
# Poissons Ratio (y) = -0.13740 -0.20699
# Poissons Ratio (z) = 0.19338 -0.21954
#
# Static dielectric constant tensor:
#      x y z
#    x 1.609070 0.000000 0.000000 
#    y 0.000000 1.618160 0.000000 
#    z 0.000000 0.000000 1.645760 
# 
# From -- ./inp_files/19042.got.cif
#   From: 2010.05.17/outbox.cif.g08.bks.cpg/sg54_10_cif.got.tgz:19042.got - 2010.06.03 13:09:01.
