data_PCOD9420791
_publ_section_title
;
Structure prediction by ZEFSAII (Michael W. Deem and Ramdas Pophale) SiO2 
 PCOD9420791
Probable space group: P C C A
;
_chemical_formula_sum "Si O2"
_cell_formula_units_Z 60
_cell_length_a 17.998366
_cell_length_b 10.148344
_cell_length_c 15.505992
_cell_angle_alpha 90.000000
_cell_angle_beta 90.000000
_cell_angle_gamma 90.000000
_cell_volume 2832.225409
_symmetry_space_group_name_H-M "P C C A"
_symmetry_group_IT_number 54
_symmetry_cell_setting 'orthorhombic'
loop_
_space_group_symop_operation_xyz
x,y,z
1/2-x,-y,z
1/2+x,-y,1/2-z
-x,y,1/2-z
-x,-y,-z
1/2+x,y,-z
1/2-x,y,1/2+z
x,-y,1/2+z
loop_
_atom_site_type_symbol
_atom_site_label
_atom_site_fract_x
_atom_site_fract_y
_atom_site_fract_z
Si Si1 0.996542 0.396025 0.422622
Si Si2 0.871885 0.784280 0.540531
Si Si3 0.456268 0.070481 0.114724
Si Si4 0.865005 0.054017 0.606585
Si Si5 0.127573 0.816352 0.572849
Si Si6 0.376869 0.253844 0.250240
Si Si7 0.731349 0.346593 0.396886
Si Si8 0.000000 0.453978 0.750000
O O1 0.075305 0.321517 0.413541
O O2 0.974539 0.461583 0.331973
O O3 0.000000 0.500000 0.500000
O O4 0.934618 0.290608 0.448326
O O5 0.925857 0.862116 0.472781
O O6 0.812071 0.710806 0.480571
O O7 0.842021 0.900509 0.602645
O O8 0.544463 0.054995 0.112798
O O9 0.429056 0.164347 0.189949
O O10 0.413966 0.931784 0.124584
O O11 0.843977 0.116441 0.514893
O O12 0.840952 0.154633 0.681024
O O13 0.195454 0.741505 0.615908
O O14 0.319438 0.323944 0.186635
O O15 0.432606 0.364359 0.286231
O O16 0.750000 0.500000 0.408937
#
# Coordination Sequence:
#
# PCOD9420791 Si02
#       8
#     8   8   8   8   8   8   8   4
#     4  12  22  38  64  95 130 172 229 273 321 400
#     4  10  21  38  65  96 128 172 223 276 328 389
#     4  10  18  38  67  97 131 162 218 282 333 392
#     4  11  19  39  68 100 129 163 226 291 331 396
#     4  11  22  40  67  94 130 174 216 273 342 394
#     4  11  23  40  65  95 134 172 214 280 346 396
#     4  11  25  46  64  93 139 187 223 267 338 422
#     4  12  24  36  62  98 124 172 230 272 334 412
#
# _framework density 21.184754999999999
#
# number of rings (size 3 to 8) (size 9 to 14) (size 15 to 20)
#    0.000    1.067    4.000    4.800    0.000    5.867 
#    0.000    6.000    0.000    0.000    0.000    0.000 
#    0.000    0.000    0.000    0.000    0.000    0.000 
#
# Total GULP energy -335398.196761 kJ/mol
# GULP energy per Si atom -5589.969946 kJ/mol
# Density = 2.113654 g / cm^3
# Si number density = 21.184755 Si / 1000 Ang^3
#
#
#
# Elastic Constant Matrix: (Units=GPa)
#
#
# Indices 1 2 3 4 5 6 
#
# 1 77.9079 35.5812 -8.5077 0.0000 0.0000 0.0000
# 2 35.5812 132.5155 23.7285 0.0000 0.0000 0.0000
# 3 -8.5077 23.7285 45.4801 0.0000 0.0000 0.0000
# 4 0.0000 0.0000 0.0000 24.0112 0.0000 0.0000
# 5 0.0000 0.0000 0.0000 0.0000 19.9185 0.0000
# 6 0.0000 0.0000 0.0000 0.0000 0.0000 29.9909
#
#
#
# Elastic Compliance Matrix: (Units=1/GPa)
#
#
# Indices 1 2 3 4 5 6 
#
# 1 0.015877 -0.005289 0.005729 0.000000 0.000000 0.000000
# 2 -0.005289 0.010086 -0.006251 0.000000 0.000000 0.000000
# 3 0.005729 -0.006251 0.026321 0.000000 0.000000 0.000000
# 4 0.000000 0.000000 0.000000 0.041647 0.000000 0.000000
# 5 0.000000 0.000000 0.000000 0.000000 0.050205 0.000000
# 6 0.000000 0.000000 0.000000 0.000000 0.000000 0.033343
#
#
# Mechanical properties :
#
#
# Convention : Reuss Voigt Hill
#
# Bulk Modulus (GPa) = 24.59321 39.72307 32.15814
# Shear Modulus (GPa) = 24.67249 28.45754 26.56501
#
# Velocity S-wave (km/s) = 3.41638 3.66909 3.54498
# Velocity P-wave (km/s) = 5.21501 6.06144 5.65409
#
# Compressibility (1/GPa) = 0.04066163
#
# Stress axis : x y z
#
# Youngs Moduli (GPa) = 62.98481 99.14915 37.99241
#
# Poissons Ratio (x) = 0.52440 -0.21767
# Poissons Ratio (y) = 0.33312 0.23751
# Poissons Ratio (z) = -0.36087 0.61983
#
# Static dielectric constant tensor:
#      x y z
#    x 1.800790 0.000000 0.000000 
#    y 0.000000 1.804890 0.000000 
#    z 0.000000 0.000000 1.770440 
# 
# From -- ./inp_files/18673.got.cif
#   From: 2010.05.17/outbox.cif.g08.bks.cpg/sg54_10_cif.got.tgz:18673.got - 2010.06.03 13:09:01.
