data_PCOD9420324
_publ_section_title
;
Structure prediction by ZEFSAII (Michael W. Deem and Ramdas Pophale) SiO2 
 PCOD9420324
Probable space group: P C C A
;
_chemical_formula_sum "Si O2"
_cell_formula_units_Z 40
_cell_length_a 5.355364
_cell_length_b 24.071367
_cell_length_c 14.476561
_cell_angle_alpha 90.000000
_cell_angle_beta 90.000000
_cell_angle_gamma 90.000000
_cell_volume 1866.186974
_symmetry_space_group_name_H-M "P C C A"
_symmetry_group_IT_number 54
_symmetry_cell_setting 'orthorhombic'
loop_
_space_group_symop_operation_xyz
x,y,z
1/2-x,-y,z
1/2+x,-y,1/2-z
-x,y,1/2-z
-x,-y,-z
1/2+x,y,-z
1/2-x,y,1/2+z
x,-y,1/2+z
loop_
_atom_site_type_symbol
_atom_site_label
_atom_site_fract_x
_atom_site_fract_y
_atom_site_fract_z
Si Si1 0.502369 0.531608 0.138926
Si Si2 0.760050 0.065217 0.904932
Si Si3 0.169183 0.232241 0.436629
Si Si4 0.265823 0.888114 0.386125
Si Si5 0.483514 0.654013 0.441050
O O1 0.250000 0.500000 0.107906
O O2 0.500000 0.529968 0.250000
O O3 0.527511 0.595263 0.108934
O O4 0.750000 0.500000 0.106391
O O5 0.508124 0.079955 0.853008
O O6 0.005379 0.086806 0.854264
O O7 0.750000 0.000000 0.925669
O O8 0.756779 0.098153 0.002805
O O9 0.434559 0.230336 0.491388
O O10 0.185237 0.177134 0.375464
O O11 0.103598 0.290494 0.386341
O O12 0.767488 0.656142 0.479521
#
# Coordination Sequence:
#
# PCOD9420324 Si02
#       5
#     8   8   8   8   8
#     4  10  21  37  55  74  99 129 157 189 239 295
#     4  10  16  20  29  45  65  96 142 184 209 253
#     4  10  16  27  38  54  79 109 143 181 223 264
#     4  10  14  22  31  42  65  99 133 178 215 256
#     4  10  21  32  50  75  98 123 159 202 233 281
#
# _framework density 21.434078
#
# number of rings (size 3 to 8) (size 9 to 14) (size 15 to 20)
#    0.000    2.000    4.000    4.200    0.000    2.400 
#    0.000    0.000    0.000    0.000    0.000    0.000 
#    0.000    0.000    0.000    0.000    0.000    6.000 
#
# Total GULP energy -222875.493393 kJ/mol
# GULP energy per Si atom -5571.887335 kJ/mol
# Density = 2.138529 g / cm^3
# Si number density = 21.434078 Si / 1000 Ang^3
#
#
#
# Elastic Constant Matrix: (Units=GPa)
#
#
# Indices 1 2 3 4 5 6 
#
# 1 213.6424 51.5425 4.6411 0.0000 0.0000 0.0000
# 2 51.5425 202.8755 3.7973 0.0000 0.0000 0.0000
# 3 4.6411 3.7973 46.5927 0.0000 0.0000 0.0000
# 4 0.0000 0.0000 0.0000 -26.0794 0.0000 0.0000
# 5 0.0000 0.0000 0.0000 0.0000 -17.4532 0.0000
# 6 0.0000 0.0000 0.0000 0.0000 0.0000 41.1572
#
#
#
# Elastic Compliance Matrix: (Units=1/GPa)
#
#
# Indices 1 2 3 4 5 6 
#
# 1 0.004994 -0.001261 -0.000395 0.000000 0.000000 0.000000
# 2 -0.001261 0.005255 -0.000303 0.000000 0.000000 0.000000
# 3 -0.000395 -0.000303 0.021527 0.000000 0.000000 0.000000
# 4 0.000000 0.000000 0.000000 -0.038344 0.000000 0.000000
# 5 0.000000 0.000000 0.000000 0.000000 -0.057296 0.000000
# 6 0.000000 0.000000 0.000000 0.000000 0.000000 0.024297
#
#
# Mechanical properties :
#
#
# Convention : Reuss Voigt Hill
#
# Bulk Modulus (GPa) = 35.89603 64.78583 50.34093
# Shear Modulus (GPa) = -189.64586 26.40023 -81.62281
#
# Velocity S-wave (km/s) = -9.41651 3.51336 -6.17766
# Velocity P-wave (km/s) = 10.07195 6.83736 5.22947
#
# Compressibility (1/GPa) = 0.02785824
#
# Stress axis : x y z
#
# Youngs Moduli (GPa) = 200.25692 190.28630 46.45427
#
# Poissons Ratio (x) = 0.24001 0.01833
# Poissons Ratio (y) = 0.25258 0.01406
# Poissons Ratio (z) = 0.07903 0.05759
#
# Static dielectric constant tensor:
#      x y z
#    x 1.789130 0.000000 0.000000 
#    y 0.000000 1.913740 0.000000 
#    z 0.000000 0.000000 0.864300 
# 
# From -- ./inp_files/19737.got.cif
#   From: 2010.05.17/outbox.cif.g08.bks.cpg/sg54_10_cif.got.tgz:19737.got - 2010.06.03 13:09:01.
