data_PCOD9420028
_publ_section_title
;
Structure prediction by ZEFSAII (Michael W. Deem and Ramdas Pophale) SiO2 
 PCOD9420028
Probable space group: P M N A
;
_chemical_formula_sum "Si O2"
_cell_formula_units_Z 18
_cell_length_a 28.983686
_cell_length_b 4.981269
_cell_length_c 5.355381
_cell_angle_alpha 90.000000
_cell_angle_beta 90.000000
_cell_angle_gamma 90.000000
_cell_volume 773.186005
_symmetry_space_group_name_H-M "P M N A"
_symmetry_group_IT_number 53
_symmetry_cell_setting 'orthorhombic'
loop_
_space_group_symop_operation_xyz
x,y,z
1/2-x,-y,1/2+z
x,-y,-z
1/2-x,y,1/2-z
-x,-y,-z
1/2+x,y,1/2-z
-x,y,z
1/2+x,-y,1/2+z
loop_
_atom_site_type_symbol
_atom_site_label
_atom_site_fract_x
_atom_site_fract_y
_atom_site_fract_z
Si Si1 0.000000 0.500000 0.500000
Si Si2 0.221407 0.500000 0.500000
Si Si3 0.158182 0.000000 0.500000
Si Si4 0.578250 0.237635 0.667749
O O1 0.959405 0.681011 0.368687
O O2 0.250000 0.425337 0.750000
O O3 0.190081 0.247221 0.420496
O O4 0.124360 0.120819 0.709342
O O5 0.587459 0.500000 0.500000
O O6 0.558280 0.000000 0.500000
#
# Coordination Sequence:
#
# PCOD9420028 Si02
#       4
#     2   4   4   8
#     4  12  26  50  68 122 148 210 264 310 394 454
#     4  12  29  52  84 119 158 207 262 338 403 490
#     4  12  28  51  76 116 152 202 266 315 406 470
#     4  12  27  47  78 109 158 204 258 325 383 474
#
# _framework density 23.280297000000001
#
# number of rings (size 3 to 8) (size 9 to 14) (size 15 to 20)
#    0.000    0.000    0.000    9.333    9.333    6.222 
#    0.000    0.000    0.000    0.000    0.000    0.000 
#    0.000    0.000    0.000    0.000    0.000    0.000 
#
# Total GULP energy -100392.789472 kJ/mol
# GULP energy per Si atom -5577.377193 kJ/mol
# Density = 2.322731 g / cm^3
# Si number density = 23.280297 Si / 1000 Ang^3
#
#
#
# Elastic Constant Matrix: (Units=GPa)
#
#
# Indices 1 2 3 4 5 6 
#
# 1 141.9645 67.4798 50.8061 0.0000 0.0000 0.0000
# 2 67.4798 200.0810 60.1953 0.0000 0.0000 0.0000
# 3 50.8061 60.1953 91.3530 0.0000 0.0000 0.0000
# 4 0.0000 0.0000 0.0000 69.7243 0.0000 0.0000
# 5 0.0000 0.0000 0.0000 0.0000 37.5626 0.0000
# 6 0.0000 0.0000 0.0000 0.0000 0.0000 32.4852
#
#
#
# Elastic Compliance Matrix: (Units=1/GPa)
#
#
# Indices 1 2 3 4 5 6 
#
# 1 0.009390 -0.001990 -0.003911 0.000000 0.000000 0.000000
# 2 -0.001990 0.006656 -0.003279 0.000000 0.000000 0.000000
# 3 -0.003911 -0.003279 0.015282 0.000000 0.000000 0.000000
# 4 0.000000 0.000000 0.000000 0.014342 0.000000 0.000000
# 5 0.000000 0.000000 0.000000 0.000000 0.026622 0.000000
# 6 0.000000 0.000000 0.000000 0.000000 0.000000 0.030783
#
#
# Mechanical properties :
#
#
# Convention : Reuss Voigt Hill
#
# Bulk Modulus (GPa) = 77.11310 87.81789 82.46549
# Shear Modulus (GPa) = 39.75939 44.94891 42.35415
#
# Velocity S-wave (km/s) = 4.13710 4.39882 4.26997
# Velocity P-wave (km/s) = 7.48442 7.97517 7.73369
#
# Compressibility (1/GPa) = 0.01296797
#
# Stress axis : x y z
#
# Youngs Moduli (GPa) = 106.50148 150.24895 65.43694
#
# Poissons Ratio (x) = 0.29903 0.25590
# Poissons Ratio (y) = 0.21196 0.21455
# Poissons Ratio (z) = 0.41648 0.49263
#
# Static dielectric constant tensor:
#      x y z
#    x 1.827050 0.000000 0.000000 
#    y 0.000000 1.838410 0.000000 
#    z 0.000000 0.000000 1.913070 
# 
# From -- ./inp_files/3999.got.cif
#   From: 2010.05.17/outbox.cif.g08.bks.cpg/sg53_2_cif.got.tgz:3999.got - 2010.06.03 12:45:16.
