data_PCOD9420559
_publ_section_title
;
Structure prediction by ZEFSAII (Michael W. Deem and Ramdas Pophale) SiO2 
 PCOD9420559
Probable space group: P C C A
;
_chemical_formula_sum "Si O2"
_cell_formula_units_Z 64
_cell_length_a 15.882449
_cell_length_b 9.489290
_cell_length_c 25.796604
_cell_angle_alpha 90.000000
_cell_angle_beta 90.000000
_cell_angle_gamma 90.000000
_cell_volume 3887.887821
_symmetry_space_group_name_H-M "P C C A"
_symmetry_group_IT_number 54
_symmetry_cell_setting 'orthorhombic'
loop_
_space_group_symop_operation_xyz
x,y,z
1/2-x,-y,z
1/2+x,-y,1/2-z
-x,y,1/2-z
-x,-y,-z
1/2+x,y,-z
1/2-x,y,1/2+z
x,-y,1/2+z
loop_
_atom_site_type_symbol
_atom_site_label
_atom_site_fract_x
_atom_site_fract_y
_atom_site_fract_z
Si Si1 0.333428 0.088366 0.660144
Si Si2 0.967342 0.658119 0.495579
Si Si3 0.454164 0.163972 0.404032
Si Si4 0.820495 0.115831 0.522429
Si Si5 0.719410 0.340724 0.457235
Si Si6 0.220682 0.337096 0.666566
Si Si7 0.942576 0.826977 0.301018
Si Si8 0.050122 0.111971 0.063117
O O1 0.293807 0.228813 0.685534
O O2 0.385981 0.136530 0.610221
O O3 0.250000 0.000000 0.644299
O O4 0.392857 0.977515 0.691209
O O5 0.868163 0.668948 0.487570
O O6 0.000000 0.500000 0.500000
O O7 0.005090 0.726296 0.443731
O O8 0.001885 0.750733 0.543170
O O9 0.357321 0.162855 0.422172
O O10 0.490712 0.193537 0.347733
O O11 0.488383 0.008809 0.417644
O O12 0.784496 0.242246 0.487570
O O13 0.895930 0.057067 0.486068
O O14 0.750000 0.000000 0.528606
O O15 0.750000 0.500000 0.459312
O O16 0.709906 0.307661 0.395754
O O17 0.250000 0.500000 0.673022
O O18 0.132530 0.289164 0.693007
O O19 0.000000 0.823174 0.250000
#
# Coordination Sequence:
#
# PCOD9420559 Si02
#       8
#     8   8   8   8   8   8   8   8
#     4   9  18  33  56  82 106 134 182 236 278 321
#     4  11  21  31  47  75 114 146 175 213 266 334
#     4  10  20  34  49  76 105 141 184 217 269 328
#     4  11  19  28  48  73 108 144 172 208 263 329
#     4  11  20  31  47  76 110 144 176 214 265 323
#     4  10  20  34  58  86 109 135 181 233 285 331
#     4  10  21  39  60  78 107 147 191 239 283 318
#     4  10  18  30  47  72 106 141 173 217 263 321
#
# _framework density 16.461380999999999
#
# number of rings (size 3 to 8) (size 9 to 14) (size 15 to 20)
#    0.000    1.750    2.500    4.875    3.500    0.000 
#    0.000    2.500    0.000    2.250    0.000    0.000 
#    0.000    0.000    0.000    0.000    0.000    0.000 
#
# Total GULP energy -356591.879690 kJ/mol
# GULP energy per Si atom -5571.748120 kJ/mol
# Density = 1.642391 g / cm^3
# Si number density = 16.461381 Si / 1000 Ang^3
#
#
#
# Elastic Constant Matrix: (Units=GPa)
#
#
# Indices 1 2 3 4 5 6 
#
# 1 87.0177 33.7186 46.4005 0.0000 0.0000 0.0000
# 2 33.7186 102.1123 42.9338 0.0000 0.0000 0.0000
# 3 46.4005 42.9338 84.4183 0.0000 0.0000 0.0000
# 4 0.0000 0.0000 0.0000 -62.8941 0.0000 0.0000
# 5 0.0000 0.0000 0.0000 0.0000 32.0847 0.0000
# 6 0.0000 0.0000 0.0000 0.0000 0.0000 22.1531
#
#
#
# Elastic Compliance Matrix: (Units=1/GPa)
#
#
# Indices 1 2 3 4 5 6 
#
# 1 0.016601 -0.002093 -0.008060 0.000000 0.000000 0.000000
# 2 -0.002093 0.012721 -0.005319 0.000000 0.000000 0.000000
# 3 -0.008060 -0.005319 0.018981 0.000000 0.000000 0.000000
# 4 0.000000 0.000000 0.000000 -0.015900 0.000000 0.000000
# 5 0.000000 0.000000 0.000000 0.000000 0.031168 0.000000
# 6 0.000000 0.000000 0.000000 0.000000 0.000000 0.045140
#
#
# Mechanical properties :
#
#
# Convention : Reuss Voigt Hill
#
# Bulk Modulus (GPa) = 57.60932 57.73933 57.67433
# Shear Modulus (GPa) = 34.37799 8.30177 21.33988
#
# Velocity S-wave (km/s) = 4.57486 2.24814 3.60441
# Velocity P-wave (km/s) = 7.93590 6.47230 7.24117
#
# Compressibility (1/GPa) = 0.01735830
#
# Stress axis : x y z
#
# Youngs Moduli (GPa) = 60.23798 78.61197 52.68314
#
# Poissons Ratio (x) = 0.16452 0.42464
# Poissons Ratio (y) = 0.12606 0.28024
# Poissons Ratio (z) = 0.48554 0.41816
#
# Static dielectric constant tensor:
#      x y z
#    x 1.606830 0.000000 0.000000 
#    y 0.000000 1.563710 0.000000 
#    z 0.000000 0.000000 1.543200 
# 
# From -- ./inp_files/24497.got.cif
#   From: 2010.05.17/outbox.cif.g08.bks.cpg/sg54_13_cif.got.tgz:24497.got - 2010.06.03 13:09:01.
