data_PCOD9420790
_publ_section_title
;
Structure prediction by ZEFSAII (Michael W. Deem and Ramdas Pophale) SiO2 
 PCOD9420790
Probable space group: P C C A
;
_chemical_formula_sum "Si O2"
_cell_formula_units_Z 40
_cell_length_a 9.639188
_cell_length_b 7.413355
_cell_length_c 29.741957
_cell_angle_alpha 90.000000
_cell_angle_beta 90.000000
_cell_angle_gamma 90.000000
_cell_volume 2125.322254
_symmetry_space_group_name_H-M "P C C A"
_symmetry_group_IT_number 54
_symmetry_cell_setting 'orthorhombic'
loop_
_space_group_symop_operation_xyz
x,y,z
1/2-x,-y,z
1/2+x,-y,1/2-z
-x,y,1/2-z
-x,-y,-z
1/2+x,y,-z
1/2-x,y,1/2+z
x,-y,1/2+z
loop_
_atom_site_type_symbol
_atom_site_label
_atom_site_fract_x
_atom_site_fract_y
_atom_site_fract_z
Si Si1 0.248644 0.297278 0.424504
Si Si2 0.031135 0.996181 0.447435
Si Si3 0.911579 0.998835 0.351682
Si Si4 0.630777 0.296649 0.676076
Si Si5 0.577033 0.707217 0.703154
O O1 0.250000 0.500000 0.442316
O O2 0.387313 0.187627 0.435185
O O3 0.209777 0.305901 0.371918
O O4 0.130012 0.168965 0.443101
O O5 0.923119 0.013899 0.406191
O O6 0.000000 0.000000 0.500000
O O7 0.002789 0.161164 0.330004
O O8 0.750000 0.000000 0.338884
O O9 0.992529 0.822064 0.333729
O O10 0.580945 0.494715 0.690555
O O11 0.760460 0.235900 0.706887
O O12 0.500000 0.733137 0.750000
#
# Coordination Sequence:
#
# PCOD9420790 Si02
#       5
#     8   8   8   8   8
#     4  10  18  38  67  86 118 173 212 256 326 386
#     4  10  22  37  62  92 126 164 217 268 320 384
#     4  11  24  39  62  93 132 169 206 263 329 380
#     4  10  21  43  66  88 126 169 213 259 321 389
#     4  11  23  40  67  93 120 165 218 265 316 386
#
# _framework density 18.820675999999999
#
# number of rings (size 3 to 8) (size 9 to 14) (size 15 to 20)
#    0.000    1.600    4.000    0.600    2.800    7.200 
#    0.000    0.000    0.000    0.000    0.000    0.000 
#    0.000    0.000    0.000    0.000    0.000    0.000 
#
# Total GULP energy -222888.699471 kJ/mol
# GULP energy per Si atom -5572.217487 kJ/mol
# Density = 1.877784 g / cm^3
# Si number density = 18.820676 Si / 1000 Ang^3
#
#
#
# Elastic Constant Matrix: (Units=GPa)
#
#
# Indices 1 2 3 4 5 6 
#
# 1 139.9917 59.0660 24.2370 0.0000 0.0000 0.0000
# 2 59.0660 119.7991 15.1104 0.0000 0.0000 0.0000
# 3 24.2370 15.1104 80.4327 0.0000 0.0000 0.0000
# 4 0.0000 0.0000 0.0000 23.9392 0.0000 0.0000
# 5 0.0000 0.0000 0.0000 0.0000 6.1328 0.0000
# 6 0.0000 0.0000 0.0000 0.0000 0.0000 20.0290
#
#
#
# Elastic Compliance Matrix: (Units=1/GPa)
#
#
# Indices 1 2 3 4 5 6 
#
# 1 0.009321 -0.004344 -0.001993 0.000000 0.000000 0.000000
# 2 -0.004344 0.010575 -0.000677 0.000000 0.000000 0.000000
# 3 -0.001993 -0.000677 0.013160 0.000000 0.000000 0.000000
# 4 0.000000 0.000000 0.000000 0.041773 0.000000 0.000000
# 5 0.000000 0.000000 0.000000 0.000000 0.163058 0.000000
# 6 0.000000 0.000000 0.000000 0.000000 0.000000 0.049928
#
#
# Mechanical properties :
#
#
# Convention : Reuss Voigt Hill
#
# Bulk Modulus (GPa) = 52.55591 59.67226 56.11408
# Shear Modulus (GPa) = 16.22393 26.14085 21.18239
#
# Velocity S-wave (km/s) = 2.93921 3.73090 3.35846
# Velocity P-wave (km/s) = 6.28521 7.09464 6.70216
#
# Compressibility (1/GPa) = 0.01902736
#
# Stress axis : x y z
#
# Youngs Moduli (GPa) = 107.28103 94.56472 75.98508
#
# Poissons Ratio (x) = 0.41083 0.15141
# Poissons Ratio (y) = 0.46608 0.05148
# Poissons Ratio (z) = 0.21377 0.06407
#
# Static dielectric constant tensor:
#      x y z
#    x 1.679680 0.000000 0.000000 
#    y 0.000000 1.661790 0.000000 
#    z 0.000000 0.000000 1.732330 
# 
# From -- ./inp_files/23247.got.cif
#   From: 2010.05.17/outbox.cif.g08.bks.cpg/sg54_12_cif.got.tgz:23247.got - 2010.06.03 13:09:01.
