data_PCOD9420702
_publ_section_title
;
Structure prediction by ZEFSAII (Michael W. Deem and Ramdas Pophale) SiO2 
 PCOD9420702
Probable space group: P C C A
;
_chemical_formula_sum "Si O2"
_cell_formula_units_Z 48
_cell_length_a 16.237484
_cell_length_b 8.798043
_cell_length_c 16.998995
_cell_angle_alpha 90.000000
_cell_angle_beta 90.000000
_cell_angle_gamma 90.000000
_cell_volume 2428.443829
_symmetry_space_group_name_H-M "P C C A"
_symmetry_group_IT_number 54
_symmetry_cell_setting 'orthorhombic'
loop_
_space_group_symop_operation_xyz
x,y,z
1/2-x,-y,z
1/2+x,-y,1/2-z
-x,y,1/2-z
-x,-y,-z
1/2+x,y,-z
1/2-x,y,1/2+z
x,-y,1/2+z
loop_
_atom_site_type_symbol
_atom_site_label
_atom_site_fract_x
_atom_site_fract_y
_atom_site_fract_z
Si Si1 0.135996 0.701755 0.656106
Si Si2 0.348169 0.336172 0.936957
Si Si3 0.519859 0.171544 0.977457
Si Si4 0.500000 0.468493 0.750000
Si Si5 0.247898 0.686876 0.285258
Si Si6 0.250000 0.500000 0.057086
Si Si7 0.090791 0.654404 0.374311
O O1 0.083318 0.803336 0.595482
O O2 0.075030 0.636799 0.723036
O O3 0.214433 0.759795 0.706595
O O4 0.173498 0.561430 0.607086
O O5 0.434184 0.257087 0.956678
O O6 0.304412 0.270144 0.859939
O O7 0.364822 0.512207 0.915913
O O8 0.283667 0.355633 0.007656
O O9 0.558600 0.242784 0.056127
O O10 0.500000 0.000000 0.000000
O O11 0.520411 0.575154 0.676748
O O12 0.250000 0.500000 0.275479
O O13 0.155628 0.724975 0.312632
#
# Coordination Sequence:
#
# PCOD9420702 Si02
#       7
#     8   8   8   4   8   4   8
#     4  12  20  35  61  98 122 164 212 269 328 376
#     4  11  19  37  63  92 120 160 212 274 317 371
#     4  12  26  41  60  92 141 179 209 247 324 413
#     4  12  20  34  68  96 126 152 222 284 320 362
#     4  10  18  34  61  97 122 144 213 284 329 356
#     4  12  20  32  66  98 122 152 222 280 318 364
#     4  11  20  39  62  97 121 160 214 283 319 362
#
# _framework density 19.765744999999999
#
# number of rings (size 3 to 8) (size 9 to 14) (size 15 to 20)
#    0.000    0.667   10.000    1.500    0.000    0.000 
#    0.000    5.833    0.000    4.000    0.000    0.000 
#    0.000    0.000    0.000    0.000    0.000    0.000 
#
# Total GULP energy -267748.756051 kJ/mol
# GULP energy per Si atom -5578.099084 kJ/mol
# Density = 1.972076 g / cm^3
# Si number density = 19.765745 Si / 1000 Ang^3
#
#
#
# Elastic Constant Matrix: (Units=GPa)
#
#
# Indices 1 2 3 4 5 6 
#
# 1 67.8536 8.8807 5.1100 0.0000 0.0000 0.0000
# 2 8.8807 39.3052 10.0106 0.0000 0.0000 0.0000
# 3 5.1100 10.0106 68.7243 0.0000 0.0000 0.0000
# 4 0.0000 0.0000 0.0000 2.5344 0.0000 0.0000
# 5 0.0000 0.0000 0.0000 0.0000 58.9437 0.0000
# 6 0.0000 0.0000 0.0000 0.0000 0.0000 7.3908
#
#
#
# Elastic Compliance Matrix: (Units=1/GPa)
#
#
# Indices 1 2 3 4 5 6 
#
# 1 0.015215 -0.003271 -0.000655 0.000000 0.000000 0.000000
# 2 -0.003271 0.027125 -0.003708 0.000000 0.000000 0.000000
# 3 -0.000655 -0.003708 0.015140 0.000000 0.000000 0.000000
# 4 0.000000 0.000000 0.000000 0.394566 0.000000 0.000000
# 5 0.000000 0.000000 0.000000 0.000000 0.016965 0.000000
# 6 0.000000 0.000000 0.000000 0.000000 0.000000 0.135303
#
#
# Mechanical properties :
#
#
# Convention : Reuss Voigt Hill
#
# Bulk Modulus (GPa) = 23.68963 24.87621 24.28292
# Shear Modulus (GPa) = 7.89076 23.89926 15.89501
#
# Velocity S-wave (km/s) = 2.00020 3.48102 2.83886
# Velocity P-wave (km/s) = 4.16481 5.36372 4.80183
#
# Compressibility (1/GPa) = 0.04221257
#
# Stress axis : x y z
#
# Youngs Moduli (GPa) = 65.72451 36.86589 66.05157
#
# Poissons Ratio (x) = 0.12059 0.04326
# Poissons Ratio (y) = 0.21498 0.24491
# Poissons Ratio (z) = 0.04304 0.13670
#
# Static dielectric constant tensor:
#      x y z
#    x 1.725390 0.000000 0.000000 
#    y 0.000000 1.667010 0.000000 
#    z 0.000000 0.000000 1.852130 
# 
# From -- ./inp_files/18097.got.cif
#   From: 2010.05.17/outbox.cif.g08.bks.cpg/sg54_10_cif.got.tgz:18097.got - 2010.06.03 13:09:01.
