data_PCOD9420220
_publ_section_title
;
Structure prediction by ZEFSAII (Michael W. Deem and Ramdas Pophale) SiO2 
 PCOD9420220
Probable space group: P M N A
;
_chemical_formula_sum "Si O2"
_cell_formula_units_Z 64
_cell_length_a 15.000000
_cell_length_b 9.000000
_cell_length_c 24.000000
_cell_angle_alpha 90.000000
_cell_angle_beta 90.000000
_cell_angle_gamma 90.000000
_cell_volume 3240.000000
_symmetry_space_group_name_H-M "P M N A"
_symmetry_group_IT_number 53
_symmetry_cell_setting 'orthorhombic'
loop_
_space_group_symop_operation_xyz
x,y,z
1/2-x,-y,1/2+z
x,-y,-z
1/2-x,y,1/2-z
-x,-y,-z
1/2+x,y,1/2-z
-x,y,z
1/2+x,-y,1/2+z
loop_
_atom_site_type_symbol
_atom_site_label
_atom_site_fract_x
_atom_site_fract_y
_atom_site_fract_z
Si Si1 0.602777 0.670094 0.394854
Si Si2 0.726881 0.814481 0.059214
Si Si3 0.730018 0.827938 0.937630
Si Si4 0.403692 0.830898 0.844727
Si Si5 0.600482 0.688604 0.608766
Si Si6 0.848103 0.307499 0.234178
Si Si7 0.392494 0.647722 0.270787
Si Si8 0.104480 0.184299 0.660409
O O1 0.500000 0.709505 0.407268
O O2 0.676232 0.743001 0.433452
O O3 0.608569 0.490474 0.395010
O O4 0.625679 0.716506 0.331217
O O5 0.662799 0.761750 0.108623
O O6 0.732935 0.993206 0.064237
O O7 0.691862 0.782279 0.997409
O O8 0.671840 0.772296 0.885809
O O9 0.828014 0.764404 0.930181
O O10 0.500000 0.813698 0.872450
O O11 0.404533 0.751789 0.785506
O O12 0.388934 0.006236 0.835669
O O13 0.500000 0.728815 0.594314
O O14 0.619999 0.736239 0.672744
O O15 0.750000 0.252865 0.250000
O O16 0.850656 0.485656 0.233851
O O17 0.500000 0.626525 0.269491
O O18 0.365295 0.745224 0.218438
O O19 0.000000 0.220575 0.652236
#
# Coordination Sequence:
#
# PCOD9420220 Si02
#       8
#     8   8   8   8   8   8   8   8
#     4   9  20  37  56  80 108 144 179 216 269 325
#     4  10  22  37  57  76 110 140 183 233 266 315
#     4  10  22  39  53  81 105 143 187 224 272 315
#     4  10  20  37  57  80 112 144 178 221 267 321
#     4  10  21  38  57  79 111 143 178 220 267 324
#     4  11  20  33  56  85 112 140 176 216 268 326
#     4   9  19  35  54  82 113 140 176 215 265 330
#     4   9  20  36  56  82 110 143 179 219 270 321
#
# _framework density 19.753086
#
# number of rings (size 3 to 8) (size 9 to 14) (size 15 to 20)
#    0.000    2.250    1.250    1.875    3.500    3.000 
#    0.000    6.250    0.000    0.000    0.000    4.375 
#    0.000    0.000    0.000    0.000    0.000    0.000 
#
# Total GULP energy -356979.570768 kJ/mol
# GULP energy per Si atom -5577.805793 kJ/mol
# Density = 1.970813 g / cm^3
# Si number density = 19.753086 Si / 1000 Ang^3
#
#
#
# Elastic Constant Matrix: (Units=GPa)
#
#
# Indices 1 2 3 4 5 6 
#
# 1 38.9102 4.9850 9.7870 0.0000 0.0000 0.0000
# 2 4.9850 -7.3030 7.7566 0.0000 0.0000 0.0000
# 3 9.7870 7.7566 65.7970 0.0000 0.0000 0.0000
# 4 0.0000 0.0000 0.0000 26.5152 0.0000 0.0000
# 5 0.0000 0.0000 0.0000 0.0000 -38.6449 0.0000
# 6 0.0000 0.0000 0.0000 0.0000 0.0000 22.4936
#
#
#
# Elastic Compliance Matrix: (Units=1/GPa)
#
#
# Indices 1 2 3 4 5 6 
#
# 1 0.025484 0.011881 -0.005191 0.000000 0.000000 0.000000
# 2 0.011881 -0.116154 0.011926 0.000000 0.000000 0.000000
# 3 -0.005191 0.011926 0.014565 0.000000 0.000000 0.000000
# 4 0.000000 0.000000 0.000000 0.037714 0.000000 0.000000
# 5 0.000000 0.000000 0.000000 0.000000 -0.025877 0.000000
# 6 0.000000 0.000000 0.000000 0.000000 0.000000 0.044457
#
#
# Mechanical properties :
#
#
# Convention : Reuss Voigt Hill
#
# Bulk Modulus (GPa) = -25.72453 15.82905 -4.94774
# Shear Modulus (GPa) = -71.42813 7.06450 -32.18181
#
# Velocity S-wave (km/s) = -6.01988 1.89319 -4.04072
# Velocity P-wave (km/s) = 7.83390 3.57907 4.92749
#
# Compressibility (1/GPa) = -0.03887340
#
# Stress axis : x y z
#
# Youngs Moduli (GPa) = 39.24072 -8.60929 68.65990
#
# Poissons Ratio (x) = 0.10229 0.35643
# Poissons Ratio (y) = -0.46624 -0.81882
# Poissons Ratio (z) = 0.20371 0.10267
#
# Static dielectric constant tensor:
#      x y z
#    x 1.713940 0.000000 0.000000 
#    y 0.000000 1.658290 0.000000 
#    z 0.000000 0.000000 1.699110 
# 
# From -- ./inp_files/35315.got.cif
#   From: 2010.05.17/outbox.ucp.g08.bks.cvg/sg53_18_cif.got.tgz:35315.got - 2010.06.11 16:32:34.
