data_PCOD9420136
_publ_section_title
;
Structure prediction by ZEFSAII (Michael W. Deem and Ramdas Pophale) SiO2 
 PCOD9420136
Probable space group: P M N A
;
_chemical_formula_sum "Si O2"
_cell_formula_units_Z 64
_cell_length_a 9.000000
_cell_length_b 12.000000
_cell_length_c 30.000000
_cell_angle_alpha 90.000000
_cell_angle_beta 90.000000
_cell_angle_gamma 90.000000
_cell_volume 3240.000000
_symmetry_space_group_name_H-M "P M N A"
_symmetry_group_IT_number 53
_symmetry_cell_setting 'orthorhombic'
loop_
_space_group_symop_operation_xyz
x,y,z
1/2-x,-y,1/2+z
x,-y,-z
1/2-x,y,1/2-z
-x,-y,-z
1/2+x,y,1/2-z
-x,y,z
1/2+x,-y,1/2+z
loop_
_atom_site_type_symbol
_atom_site_label
_atom_site_fract_x
_atom_site_fract_y
_atom_site_fract_z
Si Si1 0.321406 0.856455 0.873070
Si Si2 0.828803 0.247138 0.793617
Si Si3 0.828847 0.617349 0.519022
Si Si4 0.823271 0.243867 0.952443
Si Si5 0.178112 0.390147 0.873040
Si Si6 0.670762 0.614465 0.874191
Si Si7 0.178370 0.016050 0.551310
Si Si8 0.672056 0.980633 0.705220
O O1 0.500000 0.847489 0.874393
O O2 0.264342 0.733977 0.861913
O O3 0.266388 0.939100 0.835823
O O4 0.274474 0.910801 0.919560
O O5 0.750000 0.289923 0.750000
O O6 0.766002 0.299734 0.838034
O O7 0.000000 0.278933 0.791036
O O8 0.821768 0.114328 0.794693
O O9 0.770686 0.500000 0.500000
O O10 0.738015 0.721051 0.500274
O O11 0.828556 0.614220 0.572023
O O12 0.000000 0.629940 0.503965
O O13 0.772873 0.345722 0.920981
O O14 0.755278 0.130082 0.934228
O O15 0.000000 0.235319 0.952437
O O16 0.237045 0.509238 0.859554
O O17 0.000000 0.391814 0.874457
O O18 0.500000 0.604058 0.859287
O O19 0.000000 0.027727 0.554868
O O20 0.217242 0.000000 0.500000
O O21 0.750000 0.939269 0.750000
O O22 0.500000 0.947133 0.702619
#
# Coordination Sequence:
#
# PCOD9420136 Si02
#       8
#     8   8   8   8   8   8   8   8
#     4  10  21  37  57  82 113 149 191 238 286 334
#     4   9  19  36  57  82 110 138 169 214 268 324
#     4  10  19  34  55  77 106 146 191 232 272 321
#     4  11  22  34  53  81 112 142 180 230 280 331
#     4  10  21  36  53  78 112 143 174 216 269 323
#     4  10  21  37  56  79 108 145 190 233 269 319
#     4  10  21  38  58  79 110 151 193 236 282 336
#     4  10  20  37  62  88 115 144 182 229 282 342
#
# _framework density 19.753086
#
# number of rings (size 3 to 8) (size 9 to 14) (size 15 to 20)
#    0.000    2.000    1.250    2.250    0.000    6.500 
#    0.000    1.875    0.000    1.500    0.000    0.000 
#    0.000    0.000    0.000    0.000    0.000    0.000 
#
# Total GULP energy -356702.921069 kJ/mol
# GULP energy per Si atom -5573.483142 kJ/mol
# Density = 1.970813 g / cm^3
# Si number density = 19.753086 Si / 1000 Ang^3
#
#
#
# Elastic Constant Matrix: (Units=GPa)
#
#
# Indices 1 2 3 4 5 6 
#
# 1 -16.7487 28.0026 6.6259 0.0000 0.0000 0.0000
# 2 28.0026 26.1581 2.0413 0.0000 0.0000 0.0000
# 3 6.6259 2.0413 46.6891 0.0000 0.0000 0.0000
# 4 0.0000 0.0000 0.0000 11.9810 0.0000 0.0000
# 5 0.0000 0.0000 0.0000 0.0000 6.2863 0.0000
# 6 0.0000 0.0000 0.0000 0.0000 0.0000 -96.8138
#
#
#
# Elastic Compliance Matrix: (Units=1/GPa)
#
#
# Indices 1 2 3 4 5 6 
#
# 1 -0.021209 0.022547 0.002024 0.000000 0.000000 0.000000
# 2 0.022547 0.014391 -0.003829 0.000000 0.000000 0.000000
# 3 0.002024 -0.003829 0.021298 0.000000 0.000000 0.000000
# 4 0.000000 0.000000 0.000000 0.083465 0.000000 0.000000
# 5 0.000000 0.000000 0.000000 0.000000 0.159076 0.000000
# 6 0.000000 0.000000 0.000000 0.000000 0.000000 -0.010329
#
#
# Mechanical properties :
#
#
# Convention : Reuss Voigt Hill
#
# Bulk Modulus (GPa) = 17.86850 14.38201 16.12526
# Shear Modulus (GPa) = 22.33502 -14.41404 3.96049
#
# Velocity S-wave (km/s) = 3.36625 -2.70425 1.41752
# Velocity P-wave (km/s) = 4.91675 1.56649 3.29549
#
# Compressibility (1/GPa) = 0.05596439
#
# Stress axis : x y z
#
# Youngs Moduli (GPa) = -47.14966 69.48589 46.95184
#
# Poissons Ratio (x) = -1.56667 -0.09504
# Poissons Ratio (y) = 1.06307 0.17977
# Poissons Ratio (z) = 0.09544 0.26606
#
# Static dielectric constant tensor:
#      x y z
#    x 1.713250 0.000000 0.000000 
#    y 0.000000 1.720830 0.000000 
#    z 0.000000 0.000000 1.725500 
# 
# From -- ./inp_files/38182.got.cif
#   From: 2010.05.17/outbox.ucp.g08.bks.cvg/sg53_20_cif.got.tgz:38182.got - 2010.06.11 16:32:34.
