data_PCOD9420708
_publ_section_title
;
Structure prediction by ZEFSAII (Michael W. Deem and Ramdas Pophale) SiO2 
 PCOD9420708
Probable space group: P C C A
;
_chemical_formula_sum "Si O2"
_cell_formula_units_Z 48
_cell_length_a 17.436327
_cell_length_b 7.704947
_cell_length_c 14.832587
_cell_angle_alpha 90.000000
_cell_angle_beta 90.000000
_cell_angle_gamma 90.000000
_cell_volume 1992.698368
_symmetry_space_group_name_H-M "P C C A"
_symmetry_group_IT_number 54
_symmetry_cell_setting 'orthorhombic'
loop_
_space_group_symop_operation_xyz
x,y,z
1/2-x,-y,z
1/2+x,-y,1/2-z
-x,y,1/2-z
-x,-y,-z
1/2+x,y,-z
1/2-x,y,1/2+z
x,-y,1/2+z
loop_
_atom_site_type_symbol
_atom_site_label
_atom_site_fract_x
_atom_site_fract_y
_atom_site_fract_z
Si Si1 0.477906 0.327623 0.449768
Si Si2 0.416373 0.851135 0.122276
Si Si3 0.139737 0.273370 0.808648
Si Si4 0.853735 0.218109 0.890697
Si Si5 0.728203 0.205038 0.560602
Si Si6 0.907591 0.132392 0.182782
O O1 0.500000 0.500000 0.500000
O O2 0.423428 0.228826 0.522308
O O3 0.432982 0.358107 0.356976
O O4 0.559294 0.243466 0.426146
O O5 0.506354 0.889017 0.145248
O O6 0.397953 0.769878 0.221064
O O7 0.356262 0.008722 0.116793
O O8 0.154534 0.312422 0.704758
O O9 0.210273 0.296788 0.876155
O O10 0.120244 0.066419 0.805979
O O11 0.788248 0.271240 0.960558
O O12 0.646493 0.218559 0.609936
O O13 0.750000 0.000000 0.557657
#
# Coordination Sequence:
#
# PCOD9420708 Si02
#       6
#     8   8   8   8   8   8
#     4  12  24  40  61  92 124 167 213 258 309 373
#     4  10  18  34  64  91 120 158 210 258 307 362
#     4  10  22  38  60  90 127 157 200 258 316 373
#     4  11  21  40  67  88 123 165 203 260 314 371
#     4  10  20  34  60  97 127 157 200 259 322 372
#     4   9  17  33  60  95 121 152 203 261 307 361
#
# _framework density 24.087941000000001
#
# number of rings (size 3 to 8) (size 9 to 14) (size 15 to 20)
#    0.000    1.667    3.333    3.000    0.000    4.667 
#    6.000    0.833    0.000    2.000    0.000    0.000 
#    0.000    0.000    0.000    0.000    0.000    0.000 
#
# Total GULP energy -267987.853076 kJ/mol
# GULP energy per Si atom -5583.080272 kJ/mol
# Density = 2.403312 g / cm^3
# Si number density = 24.087941 Si / 1000 Ang^3
#
#
#
# Elastic Constant Matrix: (Units=GPa)
#
#
# Indices 1 2 3 4 5 6 
#
# 1 66.8573 -5.3491 54.7703 0.0000 0.0000 0.0000
# 2 -5.3491 15.8985 12.4045 0.0000 0.0000 0.0000
# 3 54.7703 12.4045 209.2299 0.0000 0.0000 0.0000
# 4 0.0000 0.0000 0.0000 -1.3386 0.0000 0.0000
# 5 0.0000 0.0000 0.0000 0.0000 36.9605 0.0000
# 6 0.0000 0.0000 0.0000 0.0000 0.0000 -2.6234
#
#
#
# Elastic Compliance Matrix: (Units=1/GPa)
#
#
# Indices 1 2 3 4 5 6 
#
# 1 0.020988 0.011898 -0.006199 0.000000 0.000000 0.000000
# 2 0.011898 0.072695 -0.007424 0.000000 0.000000 0.000000
# 3 -0.006199 -0.007424 0.006842 0.000000 0.000000 0.000000
# 4 0.000000 0.000000 0.000000 -0.747045 0.000000 0.000000
# 5 0.000000 0.000000 0.000000 0.000000 0.027056 0.000000
# 6 0.000000 0.000000 0.000000 0.000000 0.000000 -0.381180
#
#
# Mechanical properties :
#
#
# Convention : Reuss Voigt Hill
#
# Bulk Modulus (GPa) = 10.30139 46.18188 28.24164
# Shear Modulus (GPa) = -5.18224 21.94370 8.38073
#
# Velocity S-wave (km/s) = -1.46835 3.02152 1.86729
# Velocity P-wave (km/s) = 1.18791 5.60238 4.04955
#
# Compressibility (1/GPa) = 0.09707430
#
# Stress axis : x y z
#
# Youngs Moduli (GPa) = 47.64674 13.75608 146.14709
#
# Poissons Ratio (x) = -0.16367 0.90602
# Poissons Ratio (y) = -0.56692 1.08506
# Poissons Ratio (z) = 0.29538 0.10213
#
# Static dielectric constant tensor:
#      x y z
#    x 1.995250 0.000000 0.000000 
#    y 0.000000 2.924940 0.000000 
#    z 0.000000 0.000000 2.016850 
# 
# From -- ./inp_files/14089.got.cif
#   From: 2010.05.17/outbox.cif.g08.bks.cpg/sg54_8_cif.got.tgz:14089.got - 2010.06.03 13:09:01.
