data_PCOD9420190
_publ_section_title
;
Structure prediction by ZEFSAII (Michael W. Deem and Ramdas Pophale) SiO2 
 PCOD9420190
Probable space group: P M N A
;
_chemical_formula_sum "Si O2"
_cell_formula_units_Z 40
_cell_length_a 9.000000
_cell_length_b 27.000000
_cell_length_c 9.000000
_cell_angle_alpha 90.000000
_cell_angle_beta 90.000000
_cell_angle_gamma 90.000000
_cell_volume 2187.000000
_symmetry_space_group_name_H-M "P M N A"
_symmetry_group_IT_number 53
_symmetry_cell_setting 'orthorhombic'
loop_
_space_group_symop_operation_xyz
x,y,z
1/2-x,-y,1/2+z
x,-y,-z
1/2-x,y,1/2-z
-x,-y,-z
1/2+x,y,1/2-z
-x,y,z
1/2+x,-y,1/2+z
loop_
_atom_site_type_symbol
_atom_site_label
_atom_site_fract_x
_atom_site_fract_y
_atom_site_fract_z
Si Si1 0.177755 0.949254 0.587624
Si Si2 0.178576 0.251674 0.911287
Si Si3 0.321028 0.848792 0.586199
Si Si4 0.320747 0.350675 0.411797
Si Si5 0.679084 0.450271 0.588211
O O1 0.250000 0.954402 0.750000
O O2 0.252429 0.899623 0.520947
O O3 0.000000 0.942118 0.598556
O O4 0.206084 0.000000 0.500000
O O5 0.250000 0.252953 0.750000
O O6 0.000000 0.253208 0.898031
O O7 0.216779 0.200424 0.994141
O O8 0.224587 0.300366 0.003620
O O9 0.250000 0.843734 0.750000
O O10 0.500000 0.853011 0.596555
O O11 0.250000 0.351765 0.250000
O O12 0.500000 0.350419 0.399437
O O13 0.277717 0.400177 0.501536
O O14 0.723053 0.500000 0.500000
O O15 0.750000 0.450490 0.750000
O O16 0.500000 0.450426 0.600950
#
# Coordination Sequence:
#
# PCOD9420190 Si02
#       5
#     8   8   8   8   8
#     4  10  21  36  55  79 106 138 175 214 260 312
#     4  10  22  37  54  79 108 139 176 218 264 315
#     4  10  20  35  55  78 104 136 175 216 260 312
#     4  10  21  37  56  80 109 141 180 222 266 318
#     4  10  21  36  55  81 111 143 182 225 268 318
#
# _framework density 18.289895000000001
#
# number of rings (size 3 to 8) (size 9 to 14) (size 15 to 20)
#    0.000    2.000    0.000    4.200    0.000    6.000 
#    0.000    4.000    0.000    0.000    0.000    0.000 
#    0.000    0.000    0.000    0.000    0.000    0.000 
#
# Total GULP energy -223368.847056 kJ/mol
# GULP energy per Si atom -5584.221176 kJ/mol
# Density = 1.824827 g / cm^3
# Si number density = 18.289895 Si / 1000 Ang^3
#
#
#
# Elastic Constant Matrix: (Units=GPa)
#
#
# Indices 1 2 3 4 5 6 
#
# 1 43.0354 63.9498 46.6507 0.0000 0.0000 0.0000
# 2 63.9498 231.4370 116.3146 0.0000 0.0000 0.0000
# 3 46.6507 116.3146 143.4944 0.0000 0.0000 0.0000
# 4 0.0000 0.0000 0.0000 39.0842 0.0000 0.0000
# 5 0.0000 0.0000 0.0000 0.0000 34.7289 0.0000
# 6 0.0000 0.0000 0.0000 0.0000 0.0000 0.9755
#
#
#
# Elastic Compliance Matrix: (Units=1/GPa)
#
#
# Indices 1 2 3 4 5 6 
#
# 1 0.043689 -0.008325 -0.007455 0.000000 0.000000 0.000000
# 2 -0.008325 0.008877 -0.004489 0.000000 0.000000 0.000000
# 3 -0.007455 -0.004489 0.013032 0.000000 0.000000 0.000000
# 4 0.000000 0.000000 0.000000 0.025586 0.000000 0.000000
# 5 0.000000 0.000000 0.000000 0.000000 0.028794 0.000000
# 6 0.000000 0.000000 0.000000 0.000000 0.000000 1.025123
#
#
# Mechanical properties :
#
#
# Convention : Reuss Voigt Hill
#
# Bulk Modulus (GPa) = 39.90625 96.86634 68.38630
# Shear Modulus (GPa) = 4.18762 27.69450 15.94106
#
# Velocity S-wave (km/s) = 1.51478 3.89549 2.95545
# Velocity P-wave (km/s) = 4.99255 8.56211 7.00840
#
# Compressibility (1/GPa) = 0.02505873
#
# Stress axis : x y z
#
# Youngs Moduli (GPa) = 22.88883 112.64450 76.73579
#
# Poissons Ratio (x) = 0.93779 0.57209
# Poissons Ratio (y) = 0.19055 0.34450
# Poissons Ratio (z) = 0.17064 0.50571
#
# Static dielectric constant tensor:
#      x y z
#    x 1.609820 0.000000 0.000000 
#    y 0.000000 1.643840 0.000000 
#    z 0.000000 0.000000 1.590700 
# 
# From -- ./inp_files/6260.got.cif
#   From: 2010.05.17/outbox.ucp.g08.bks.cvg/sg53_4_cif.got.tgz:6260.got - 2010.06.11 16:32:34.
