data_PCOD9420273
_publ_section_title
;
Structure prediction by ZEFSAII (Michael W. Deem and Ramdas Pophale) SiO2 
 PCOD9420273
Probable space group: P M N A
;
_chemical_formula_sum "Si O2"
_cell_formula_units_Z 64
_cell_length_a 9.000000
_cell_length_b 12.000000
_cell_length_c 30.000000
_cell_angle_alpha 90.000000
_cell_angle_beta 90.000000
_cell_angle_gamma 90.000000
_cell_volume 3240.000000
_symmetry_space_group_name_H-M "P M N A"
_symmetry_group_IT_number 53
_symmetry_cell_setting 'orthorhombic'
loop_
_space_group_symop_operation_xyz
x,y,z
1/2-x,-y,1/2+z
x,-y,-z
1/2-x,y,1/2-z
-x,-y,-z
1/2+x,y,1/2-z
-x,y,z
1/2+x,-y,1/2+z
loop_
_atom_site_type_symbol
_atom_site_label
_atom_site_fract_x
_atom_site_fract_y
_atom_site_fract_z
Si Si1 0.670504 0.484710 0.584660
Si Si2 0.319932 0.082922 0.622115
Si Si3 0.321728 0.825448 0.621124
Si Si4 0.828405 0.240000 0.956778
Si Si5 0.671718 0.464398 0.822521
Si Si6 0.673860 0.285642 0.205284
Si Si7 0.825070 0.315739 0.456895
Si Si8 0.821978 0.763279 0.204064
O O1 0.500000 0.517377 0.594377
O O2 0.669789 0.356786 0.569714
O O3 0.771635 0.493361 0.628123
O O4 0.738185 0.567447 0.548207
O O5 0.500000 0.086122 0.623211
O O6 0.278166 0.143234 0.576345
O O7 0.270315 0.158338 0.663534
O O8 0.276193 0.954760 0.623950
O O9 0.500000 0.819013 0.615603
O O10 0.268396 0.763168 0.665104
O O11 0.238993 0.763185 0.581409
O O12 0.000000 0.219402 0.971558
O O13 0.719042 0.257875 0.997318
O O14 0.500000 0.428467 0.822960
O O15 0.681844 0.579954 0.796230
O O16 0.770239 0.363285 0.804707
O O17 0.750000 0.244109 0.250000
O O18 0.500000 0.255500 0.201704
O O19 0.000000 0.333694 0.452362
O O20 0.750000 0.801682 0.250000
O O21 0.000000 0.765960 0.206614
#
# Coordination Sequence:
#
# PCOD9420273 Si02
#       8
#     8   8   8   8   8   8   8   8
#     4  11  21  37  65  93 122 161 201 246 303 366
#     4   9  21  42  65  89 118 157 208 260 306 358
#     4  11  23  42  67  89 117 161 210 257 307 361
#     4  10  21  41  65  91 121 159 204 249 303 367
#     4  11  22  37  61  93 128 161 197 246 305 364
#     4  11  24  41  62  91 126 161 201 251 303 362
#     4  12  25  40  59  91 130 162 200 251 304 364
#     4  11  22  40  63  92 126 161 203 251 302 363
#
# _framework density 19.753086
#
# number of rings (size 3 to 8) (size 9 to 14) (size 15 to 20)
#    0.000    1.250    2.500    3.750    0.000    6.000 
#    0.000    7.500    0.000    0.000    0.000    0.000 
#    0.000    0.000    0.000    0.000    0.000    0.000 
#
# Total GULP energy -357651.787776 kJ/mol
# GULP energy per Si atom -5588.309184 kJ/mol
# Density = 1.970813 g / cm^3
# Si number density = 19.753086 Si / 1000 Ang^3
#
#
#
# Elastic Constant Matrix: (Units=GPa)
#
#
# Indices 1 2 3 4 5 6 
#
# 1 57.1903 3.0352 -1.2743 0.0000 0.0000 0.0000
# 2 3.0352 48.0435 -18.4429 0.0000 0.0000 0.0000
# 3 -1.2743 -18.4429 44.7276 0.0000 0.0000 0.0000
# 4 0.0000 0.0000 0.0000 -68.7724 0.0000 0.0000
# 5 0.0000 0.0000 0.0000 0.0000 30.4218 0.0000
# 6 0.0000 0.0000 0.0000 0.0000 0.0000 -34.1790
#
#
#
# Elastic Compliance Matrix: (Units=1/GPa)
#
#
# Indices 1 2 3 4 5 6 
#
# 1 0.017544 -0.001089 0.000051 0.000000 0.000000 0.000000
# 2 -0.001089 0.024796 0.010193 0.000000 0.000000 0.000000
# 3 0.000051 0.010193 0.026562 0.000000 0.000000 0.000000
# 4 0.000000 0.000000 0.000000 -0.014541 0.000000 0.000000
# 5 0.000000 0.000000 0.000000 0.000000 0.032871 0.000000
# 6 0.000000 0.000000 0.000000 0.000000 0.000000 -0.029258
#
#
# Mechanical properties :
#
#
# Convention : Reuss Voigt Hill
#
# Bulk Modulus (GPa) = 11.46607 12.95526 12.21067
# Shear Modulus (GPa) = 72.74211 -3.39636 34.67288
#
# Velocity S-wave (km/s) = 6.07500 -1.31268 4.19419
# Velocity P-wave (km/s) = 7.41787 2.06769 5.44519
#
# Compressibility (1/GPa) = 0.08721384
#
# Stress axis : x y z
#
# Youngs Moduli (GPa) = 56.99824 40.32858 37.64750
#
# Poissons Ratio (x) = 0.04391 -0.00191
# Poissons Ratio (y) = 0.06206 -0.38376
# Poissons Ratio (z) = -0.00290 -0.41109
#
# Static dielectric constant tensor:
#      x y z
#    x 1.657520 0.000000 0.000000 
#    y 0.000000 1.680750 0.000000 
#    z 0.000000 0.000000 1.761720 
# 
# From -- ./inp_files/38281.got.cif
#   From: 2010.05.17/outbox.ucp.g08.bks.cvg/sg53_20_cif.got.tgz:38281.got - 2010.06.11 16:32:34.
