data_PCOD9420607
_publ_section_title
;
Structure prediction by ZEFSAII (Michael W. Deem and Ramdas Pophale) SiO2 
 PCOD9420607
Probable space group: P C C A
;
_chemical_formula_sum "Si O2"
_cell_formula_units_Z 24
_cell_length_a 5.447644
_cell_length_b 7.130490
_cell_length_c 24.543534
_cell_angle_alpha 90.000000
_cell_angle_beta 90.000000
_cell_angle_gamma 90.000000
_cell_volume 953.378142
_symmetry_space_group_name_H-M "P C C A"
_symmetry_group_IT_number 54
_symmetry_cell_setting 'orthorhombic'
loop_
_space_group_symop_operation_xyz
x,y,z
1/2-x,-y,z
1/2+x,-y,1/2-z
-x,y,1/2-z
-x,-y,-z
1/2+x,y,-z
1/2-x,y,1/2+z
x,-y,1/2+z
loop_
_atom_site_type_symbol
_atom_site_label
_atom_site_fract_x
_atom_site_fract_y
_atom_site_fract_z
Si Si1 0.315609 0.217240 0.980379
Si Si2 0.006432 0.726564 0.858617
Si Si3 0.998565 0.695497 0.314203
O O1 0.440528 0.232662 0.921415
O O2 0.250000 0.000000 0.993812
O O3 0.535605 0.297462 0.018689
O O4 0.247787 0.795534 0.827646
O O5 0.746879 0.793569 0.835512
O O6 0.001820 0.503538 0.845749
O O7 0.000000 0.656800 0.250000
#
# Coordination Sequence:
#
# PCOD9420607 Si02
#       3
#     8   8   8
#     4  10  21  37  54  73 101 139 180 220 260 304
#     4  10  18  32  53  77 102 137 174 208 258 319
#     4  10  19  33  53  80 109 136 166 208 267 326
#
# _framework density 25.173641
#
# number of rings (size 3 to 8) (size 9 to 14) (size 15 to 20)
#    0.000    2.000    0.000    7.000    0.000    0.000 
#    0.000   20.000    0.000    6.000    0.000    0.000 
#    0.000    0.000    0.000    0.000    0.000    0.000 
#
# Total GULP energy -134012.618673 kJ/mol
# GULP energy per Si atom -5583.859111 kJ/mol
# Density = 2.511634 g / cm^3
# Si number density = 25.173641 Si / 1000 Ang^3
#
#
#
# Elastic Constant Matrix: (Units=GPa)
#
#
# Indices 1 2 3 4 5 6 
#
# 1 323.1892 26.0402 65.3921 0.0000 0.0000 0.0000
# 2 26.0402 111.5682 -0.5853 0.0000 0.0000 0.0000
# 3 65.3921 -0.5853 128.7128 0.0000 0.0000 0.0000
# 4 0.0000 0.0000 0.0000 1034.6413 0.0000 0.0000
# 5 0.0000 0.0000 0.0000 0.0000 56.1812 0.0000
# 6 0.0000 0.0000 0.0000 0.0000 0.0000 -24.9122
#
#
#
# Elastic Compliance Matrix: (Units=1/GPa)
#
#
# Indices 1 2 3 4 5 6 
#
# 1 0.003524 -0.000832 -0.001794 0.000000 0.000000 0.000000
# 2 -0.000832 0.009160 0.000464 0.000000 0.000000 0.000000
# 3 -0.001794 0.000464 0.008683 0.000000 0.000000 0.000000
# 4 0.000000 0.000000 0.000000 0.000967 0.000000 0.000000
# 5 0.000000 0.000000 0.000000 0.000000 0.017800 0.000000
# 6 0.000000 0.000000 0.000000 0.000000 0.000000 -0.040141
#
#
# Mechanical properties :
#
#
# Convention : Reuss Voigt Hill
#
# Bulk Modulus (GPa) = 58.67475 82.79601 70.73538
# Shear Modulus (GPa) = 500.15632 244.69027 372.42329
#
# Velocity S-wave (km/s) = 14.11077 9.86975 12.17633
# Velocity P-wave (km/s) = 16.99540 12.76104 15.02810
#
# Compressibility (1/GPa) = 0.01704311
#
# Stress axis : x y z
#
# Youngs Moduli (GPa) = 283.74941 109.17326 115.16873
#
# Poissons Ratio (x) = 0.09083 0.20664
# Poissons Ratio (y) = 0.23607 -0.05348
# Poissons Ratio (z) = 0.50912 -0.05069
#
# Static dielectric constant tensor:
#      x y z
#    x 2.108000 0.000000 0.000000 
#    y 0.000000 1.984540 0.000000 
#    z 0.000000 0.000000 1.946030 
# 
# From -- ./inp_files/22535.got.cif
#   From: 2010.05.17/outbox.cif.g08.bks.cpg/sg54_12_cif.got.tgz:22535.got - 2010.06.03 13:09:01.
