data_PCOD9420386
_publ_section_title
;
Structure prediction by ZEFSAII (Michael W. Deem and Ramdas Pophale) SiO2 
 PCOD9420386
Probable space group: P C C A
;
_chemical_formula_sum "Si O2"
_cell_formula_units_Z 64
_cell_length_a 26.445118
_cell_length_b 25.611198
_cell_length_c 5.302242
_cell_angle_alpha 90.000000
_cell_angle_beta 90.000000
_cell_angle_gamma 90.000000
_cell_volume 3591.161599
_symmetry_space_group_name_H-M "P C C A"
_symmetry_group_IT_number 54
_symmetry_cell_setting 'orthorhombic'
loop_
_space_group_symop_operation_xyz
x,y,z
1/2-x,-y,z
1/2+x,-y,1/2-z
-x,y,1/2-z
-x,-y,-z
1/2+x,y,-z
1/2-x,y,1/2+z
x,-y,1/2+z
loop_
_atom_site_type_symbol
_atom_site_label
_atom_site_fract_x
_atom_site_fract_y
_atom_site_fract_z
Si Si1 0.783536 0.643772 0.233563
Si Si2 0.192196 0.522974 0.271654
Si Si3 0.107006 0.966954 0.725833
Si Si4 0.927319 0.854560 0.673597
Si Si5 0.186956 0.811227 0.812506
Si Si6 0.778478 0.926286 0.703157
Si Si7 0.948248 0.795611 0.175037
Si Si8 0.164464 0.750661 0.312354
O O1 0.755561 0.649199 0.501695
O O2 0.804865 0.585089 0.219120
O O3 0.824120 0.689579 0.204344
O O4 0.250000 0.500000 0.266802
O O5 0.167825 0.498367 0.518135
O O6 0.072888 0.915773 0.768801
O O7 0.165636 0.948116 0.744713
O O8 0.098682 0.992728 0.454081
O O9 0.869309 0.835587 0.685079
O O10 0.944265 0.839823 0.392574
O O11 0.952094 0.821994 0.901071
O O12 0.220579 0.862907 0.796714
O O13 0.188572 0.774870 0.566175
O O14 0.189845 0.778621 0.070306
O O15 0.758781 0.942255 0.428436
O O16 0.895550 0.763841 0.186825
O O17 0.000000 0.766089 0.250000
#
# Coordination Sequence:
#
# PCOD9420386 Si02
#       8
#     8   8   8   8   8   8   8   8
#     4  12  21  30  46  71 102 142 172 207 250 282
#     4  10  16  30  46  61  90 135 180 216 237 273
#     4  11  22  36  53  71  97 128 155 201 259 289
#     4   9  19  35  55  76  93 123 162 186 234 313
#     4   9  19  35  47  63  96 130 157 200 243 289
#     4  11  22  33  49  68  91 128 172 204 235 293
#     4  10  19  36  60  78  98 127 160 202 248 302
#     4  10  21  33  48  76 104 125 166 208 248 303
#
# _framework density 17.821532000000001
#
# number of rings (size 3 to 8) (size 9 to 14) (size 15 to 20)
#    0.000    1.750    2.500    3.375    0.000    8.500 
#    0.000    0.000    0.000    7.500    0.000    0.000 
#    0.000    1.000    0.000    0.000    0.000    2.250 
#
# Total GULP energy -357310.597271 kJ/mol
# GULP energy per Si atom -5582.978082 kJ/mol
# Density = 1.778097 g / cm^3
# Si number density = 17.821532 Si / 1000 Ang^3
#
#
#
# Elastic Constant Matrix: (Units=GPa)
#
#
# Indices 1 2 3 4 5 6 
#
# 1 46.7109 15.4426 4.0840 0.0000 0.0000 0.0000
# 2 15.4426 110.2651 6.3799 0.0000 0.0000 0.0000
# 3 4.0840 6.3799 102.3841 0.0000 0.0000 0.0000
# 4 0.0000 0.0000 0.0000 10.5180 0.0000 0.0000
# 5 0.0000 0.0000 0.0000 0.0000 6.4343 0.0000
# 6 0.0000 0.0000 0.0000 0.0000 0.0000 3.5929
#
#
#
# Elastic Compliance Matrix: (Units=1/GPa)
#
#
# Indices 1 2 3 4 5 6 
#
# 1 0.022498 -0.003110 -0.000704 0.000000 0.000000 0.000000
# 2 -0.003110 0.009532 -0.000470 0.000000 0.000000 0.000000
# 3 -0.000704 -0.000470 0.009824 0.000000 0.000000 0.000000
# 4 0.000000 0.000000 0.000000 0.095075 0.000000 0.000000
# 5 0.000000 0.000000 0.000000 0.000000 0.155417 0.000000
# 6 0.000000 0.000000 0.000000 0.000000 0.000000 0.278325
#
#
# Mechanical properties :
#
#
# Convention : Reuss Voigt Hill
#
# Bulk Modulus (GPa) = 30.04173 34.57478 32.30825
# Shear Modulus (GPa) = 8.46977 19.67261 14.07119
#
# Velocity S-wave (km/s) = 2.18240 3.32605 2.81296
# Velocity P-wave (km/s) = 4.82121 5.84747 5.35896
#
# Compressibility (1/GPa) = 0.03328703
#
# Stress axis : x y z
#
# Youngs Moduli (GPa) = 44.44838 104.91187 101.78643
#
# Poissons Ratio (x) = 0.32629 0.07162
# Poissons Ratio (y) = 0.13824 0.04783
# Poissons Ratio (z) = 0.03127 0.04930
#
# Static dielectric constant tensor:
#      x y z
#    x 1.623360 0.000000 0.000000 
#    y 0.000000 1.593070 0.000000 
#    z 0.000000 0.000000 1.610430 
# 
# From -- ./inp_files/2023.got.cif
#   From: 2010.05.17/outbox.cif.g08.bks.cpg/sg54_2_cif.got.tgz:2023.got - 2010.06.03 13:09:01.
