data_PCOD9420188
_publ_section_title
;
Structure prediction by ZEFSAII (Michael W. Deem and Ramdas Pophale) SiO2 
 PCOD9420188
Probable space group: P M N A
;
_chemical_formula_sum "Si O2"
_cell_formula_units_Z 48
_cell_length_a 9.000000
_cell_length_b 30.000000
_cell_length_c 9.000000
_cell_angle_alpha 90.000000
_cell_angle_beta 90.000000
_cell_angle_gamma 90.000000
_cell_volume 2430.000000
_symmetry_space_group_name_H-M "P M N A"
_symmetry_group_IT_number 53
_symmetry_cell_setting 'orthorhombic'
loop_
_space_group_symop_operation_xyz
x,y,z
1/2-x,-y,1/2+z
x,-y,-z
1/2-x,y,1/2-z
-x,-y,-z
1/2+x,y,1/2-z
-x,y,z
1/2+x,-y,1/2+z
loop_
_atom_site_type_symbol
_atom_site_label
_atom_site_fract_x
_atom_site_fract_y
_atom_site_fract_z
Si Si1 0.677607 0.813578 0.903350
Si Si2 0.824446 0.107719 0.596836
Si Si3 0.678096 0.542151 0.410756
Si Si4 0.836535 0.959378 0.889737
Si Si5 0.323501 0.362728 0.591149
Si Si6 0.677062 0.288813 0.096940
O O1 0.750000 0.829837 0.750000
O O2 0.500000 0.816216 0.885271
O O3 0.720663 0.762526 0.925993
O O4 0.717931 0.842758 0.045162
O O5 0.750000 0.095059 0.750000
O O6 0.763322 0.077456 0.466055
O O7 0.000000 0.103664 0.610478
O O8 0.733434 0.500000 0.500000
O O9 0.750000 0.540791 0.250000
O O10 0.500000 0.539292 0.394076
O O11 0.707745 0.589878 0.487430
O O12 0.750000 0.977131 0.750000
O O13 0.000000 0.941699 0.852022
O O14 0.851663 0.000000 0.000000
O O15 0.250000 0.368228 0.750000
O O16 0.500000 0.356452 0.599303
O O17 0.244922 0.320611 0.523256
O O18 0.750000 0.303474 0.250000
O O19 0.500000 0.291461 0.102832
#
# Coordination Sequence:
#
# PCOD9420188 Si02
#       6
#     8   8   8   8   8   8
#     4   9  20  37  57  81 109 143 182 225 272 324
#     4  11  23  39  59  85 116 149 188 231 276 326
#     4   9  19  35  53  75 103 135 173 216 263 317
#     4  11  24  41  62  88 118 152 189 230 277 328
#     4  10  20  35  54  77 106 140 178 220 268 321
#     4  10  20  36  56  80 110 143 181 223 270 322
#
# _framework density 19.753086
#
# number of rings (size 3 to 8) (size 9 to 14) (size 15 to 20)
#    0.000    2.000    0.000    3.000    0.000    8.333 
#    0.000    3.333    0.000    0.000    0.000    0.000 
#    0.000    0.000    0.000    0.000    0.000    0.000 
#
# Total GULP energy -267466.466474 kJ/mol
# GULP energy per Si atom -5572.218052 kJ/mol
# Density = 1.970813 g / cm^3
# Si number density = 19.753086 Si / 1000 Ang^3
#
#
#
# Elastic Constant Matrix: (Units=GPa)
#
#
# Indices 1 2 3 4 5 6 
#
# 1 40.9301 31.4020 34.1218 0.0000 0.0000 0.0000
# 2 31.4020 46.0242 41.3408 0.0000 0.0000 0.0000
# 3 34.1218 41.3408 57.3232 0.0000 0.0000 0.0000
# 4 0.0000 0.0000 0.0000 31.6000 0.0000 0.0000
# 5 0.0000 0.0000 0.0000 0.0000 17.1160 0.0000
# 6 0.0000 0.0000 0.0000 0.0000 0.0000 21.1489
#
#
#
# Elastic Compliance Matrix: (Units=1/GPa)
#
#
# Indices 1 2 3 4 5 6 
#
# 1 0.056269 -0.023583 -0.016486 0.000000 0.000000 0.000000
# 2 -0.023583 0.071576 -0.037581 0.000000 0.000000 0.000000
# 3 -0.016486 -0.037581 0.054362 0.000000 0.000000 0.000000
# 4 0.000000 0.000000 0.000000 0.031646 0.000000 0.000000
# 5 0.000000 0.000000 0.000000 0.000000 0.058425 0.000000
# 6 0.000000 0.000000 0.000000 0.000000 0.000000 0.047284
#
#
# Mechanical properties :
#
#
# Convention : Reuss Voigt Hill
#
# Bulk Modulus (GPa) = 37.16877 39.77854 38.47365
# Shear Modulus (GPa) = 10.33416 16.46715 13.40066
#
# Velocity S-wave (km/s) = 2.28977 2.89043 2.60745
# Velocity P-wave (km/s) = 5.08412 5.59652 5.34646
#
# Compressibility (1/GPa) = 0.02690431
#
# Stress axis : x y z
#
# Youngs Moduli (GPa) = 17.77164 13.97123 18.39526
#
# Poissons Ratio (x) = 0.32949 0.30327
# Poissons Ratio (y) = 0.41912 0.69132
# Poissons Ratio (z) = 0.29299 0.52506
#
# Static dielectric constant tensor:
#      x y z
#    x 1.669180 0.000000 0.000000 
#    y 0.000000 1.739820 0.000000 
#    z 0.000000 0.000000 1.632330 
# 
# From -- ./inp_files/6581.got.cif
#   From: 2010.05.17/outbox.ucp.g08.bks.cvg/sg53_4_cif.got.tgz:6581.got - 2010.06.11 16:32:34.
