data_PCOD9420582
_publ_section_title
;
Structure prediction by ZEFSAII (Michael W. Deem and Ramdas Pophale) SiO2 
 PCOD9420582
Probable space group: P C C A
;
_chemical_formula_sum "Si O2"
_cell_formula_units_Z 24
_cell_length_a 5.157222
_cell_length_b 7.084907
_cell_length_c 24.554851
_cell_angle_alpha 90.000000
_cell_angle_beta 90.000000
_cell_angle_gamma 90.000000
_cell_volume 897.195907
_symmetry_space_group_name_H-M "P C C A"
_symmetry_group_IT_number 54
_symmetry_cell_setting 'orthorhombic'
loop_
_space_group_symop_operation_xyz
x,y,z
1/2-x,-y,z
1/2+x,-y,1/2-z
-x,y,1/2-z
-x,-y,-z
1/2+x,y,-z
1/2-x,y,1/2+z
x,-y,1/2+z
loop_
_atom_site_type_symbol
_atom_site_label
_atom_site_fract_x
_atom_site_fract_y
_atom_site_fract_z
Si Si1 0.017036 0.712182 0.523416
Si Si2 0.284746 0.226986 0.643798
Si Si3 0.701597 0.226449 0.200692
O O1 0.738775 0.800274 0.513912
O O2 0.000000 0.500000 0.500000
O O3 0.107582 0.721294 0.585167
O O4 0.503616 0.292078 0.688010
O O5 0.988074 0.290593 0.651741
O O6 0.250000 0.000000 0.648331
O O7 0.500000 0.270472 0.250000
O O8 0.750000 0.000000 0.204043
#
# Coordination Sequence:
#
# PCOD9420582 Si02
#       3
#     8   8   8
#     4  10  21  37  55  77 104 147 194 235 286 339
#     4  10  20  32  52  83 114 144 185 233 278 333
#     4  10  18  31  51  80 117 150 177 218 280 346
#
# _framework density 26.750008999999999
#
# number of rings (size 3 to 8) (size 9 to 14) (size 15 to 20)
#    0.000    2.000    0.000    6.000    0.000    1.333 
#    0.000    0.000    0.000    0.000    0.000   93.333 
#    0.000    0.000    0.000    0.000    0.000    1.333 
#
# Total GULP energy -133971.109577 kJ/mol
# GULP energy per Si atom -5582.129566 kJ/mol
# Density = 2.668912 g / cm^3
# Si number density = 26.750009 Si / 1000 Ang^3
#
#
#
# Elastic Constant Matrix: (Units=GPa)
#
#
# Indices 1 2 3 4 5 6 
#
# 1 225.3603 20.7338 49.4213 0.0000 0.0000 0.0000
# 2 20.7338 135.2466 7.2397 0.0000 0.0000 0.0000
# 3 49.4213 7.2397 147.6845 0.0000 0.0000 0.0000
# 4 0.0000 0.0000 0.0000 18.3551 0.0000 0.0000
# 5 0.0000 0.0000 0.0000 0.0000 52.8046 0.0000
# 6 0.0000 0.0000 0.0000 0.0000 0.0000 -22.7205
#
#
#
# Elastic Compliance Matrix: (Units=1/GPa)
#
#
# Indices 1 2 3 4 5 6 
#
# 1 0.004846 -0.000658 -0.001590 0.000000 0.000000 0.000000
# 2 -0.000658 0.007503 -0.000148 0.000000 0.000000 0.000000
# 3 -0.001590 -0.000148 0.007310 0.000000 0.000000 0.000000
# 4 0.000000 0.000000 0.000000 0.054481 0.000000 0.000000
# 5 0.000000 0.000000 0.000000 0.000000 0.018938 0.000000
# 6 0.000000 0.000000 0.000000 0.000000 0.000000 -0.044013
#
#
# Mechanical properties :
#
#
# Convention : Reuss Voigt Hill
#
# Bulk Modulus (GPa) = 67.25269 73.67564 70.46416
# Shear Modulus (GPa) = 85.01751 38.41429 61.71590
#
# Velocity S-wave (km/s) = 5.64369 3.79363 4.80848
# Velocity P-wave (km/s) = 8.22582 6.84039 7.56489
#
# Compressibility (1/GPa) = 0.01486929
#
# Stress axis : x y z
#
# Youngs Moduli (GPa) = 206.33625 133.28608 136.79209
#
# Poissons Ratio (x) = 0.08769 0.21744
# Poissons Ratio (y) = 0.13575 0.02019
# Poissons Ratio (z) = 0.32799 0.01968
#
# Static dielectric constant tensor:
#      x y z
#    x 2.139880 0.000000 0.000000 
#    y 0.000000 2.057220 0.000000 
#    z 0.000000 0.000000 2.143420 
# 
# From -- ./inp_files/22536.got.cif
#   From: 2010.05.17/outbox.cif.g08.bks.cpg/sg54_12_cif.got.tgz:22536.got - 2010.06.03 13:09:01.
