data_PCOD9420092
_publ_section_title
;
Structure prediction by ZEFSAII (Michael W. Deem and Ramdas Pophale) SiO2 
 PCOD9420092
Probable space group: P M N A
;
_chemical_formula_sum "Si O2"
_cell_formula_units_Z 64
_cell_length_a 9.000000
_cell_length_b 24.000000
_cell_length_c 15.000000
_cell_angle_alpha 90.000000
_cell_angle_beta 90.000000
_cell_angle_gamma 90.000000
_cell_volume 3240.000000
_symmetry_space_group_name_H-M "P M N A"
_symmetry_group_IT_number 53
_symmetry_cell_setting 'orthorhombic'
loop_
_space_group_symop_operation_xyz
x,y,z
1/2-x,-y,1/2+z
x,-y,-z
1/2-x,y,1/2-z
-x,-y,-z
1/2+x,y,1/2-z
-x,y,z
1/2+x,-y,1/2+z
loop_
_atom_site_type_symbol
_atom_site_label
_atom_site_fract_x
_atom_site_fract_y
_atom_site_fract_z
Si Si1 0.676432 0.813123 0.024186
Si Si2 0.678107 0.367152 0.347113
Si Si3 0.179166 0.481504 0.349611
Si Si4 0.677443 0.133418 0.158031
Si Si5 0.172676 0.007722 0.393486
Si Si6 0.677797 0.593424 0.347904
Si Si7 0.675389 0.103677 0.660121
Si Si8 0.674394 0.698764 0.476191
O O1 0.500000 0.820342 0.034739
O O2 0.716725 0.825478 0.921801
O O3 0.758967 0.859804 0.080848
O O4 0.727707 0.751594 0.048991
O O5 0.750000 0.355354 0.250000
O O6 0.500000 0.375565 0.336977
O O7 0.754085 0.423683 0.384422
O O8 0.703125 0.320636 0.422158
O O9 0.250000 0.482788 0.250000
O O10 0.242991 0.538718 0.389288
O O11 0.000000 0.481032 0.348401
O O12 0.750000 0.149753 0.250000
O O13 0.500000 0.133152 0.166606
O O14 0.720447 0.069932 0.132440
O O15 0.000000 0.999555 0.365663
O O16 0.177076 0.000000 0.500000
O O17 0.273987 0.960053 0.352496
O O18 0.750000 0.602937 0.250000
O O19 0.500000 0.583429 0.338600
O O20 0.699957 0.646604 0.410801
O O21 0.750000 0.125302 0.750000
O O22 0.500000 0.107765 0.664222
O O23 0.500000 0.713691 0.469431
#
# Coordination Sequence:
#
# PCOD9420092 Si02
#       8
#     8   8   8   8   8   8   8   8
#     4  11  24  44  64  85 117 158 202 251 304 350
#     4  10  20  37  59  84 117 154 194 240 294 351
#     4  10  18  31  54  85 118 150 189 234 288 348
#     4  10  22  39  62  90 121 159 197 241 296 352
#     4  10  19  38  64  91 129 162 194 242 298 355
#     4  10  20  37  59  84 116 151 189 233 290 349
#     4  12  25  41  64  93 124 159 203 246 298 358
#     4  10  24  42  60  84 115 154 198 245 295 353
#
# _framework density 19.753086
#
# number of rings (size 3 to 8) (size 9 to 14) (size 15 to 20)
#    0.000    1.625    1.250    5.250    0.000    6.250 
#    0.000    6.250    0.000    0.000    0.000    0.000 
#    0.000    0.000    0.000    0.000    0.000    0.000 
#
# Total GULP energy -357571.080634 kJ/mol
# GULP energy per Si atom -5587.048135 kJ/mol
# Density = 1.970813 g / cm^3
# Si number density = 19.753086 Si / 1000 Ang^3
#
#
#
# Elastic Constant Matrix: (Units=GPa)
#
#
# Indices 1 2 3 4 5 6 
#
# 1 94.9496 32.2833 20.1749 0.0000 0.0000 0.0000
# 2 32.2833 50.7199 -6.2028 0.0000 0.0000 0.0000
# 3 20.1749 -6.2028 56.5311 0.0000 0.0000 0.0000
# 4 0.0000 0.0000 0.0000 -11.1800 0.0000 0.0000
# 5 0.0000 0.0000 0.0000 0.0000 -2.4391 0.0000
# 6 0.0000 0.0000 0.0000 0.0000 0.0000 58.5604
#
#
#
# Elastic Compliance Matrix: (Units=1/GPa)
#
#
# Indices 1 2 3 4 5 6 
#
# 1 0.015633 -0.010777 -0.006762 0.000000 0.000000 0.000000
# 2 -0.010777 0.027414 0.006854 0.000000 0.000000 0.000000
# 3 -0.006762 0.006854 0.020855 0.000000 0.000000 0.000000
# 4 0.000000 0.000000 0.000000 -0.089446 0.000000 0.000000
# 5 0.000000 0.000000 0.000000 0.000000 -0.409992 0.000000
# 6 0.000000 0.000000 0.000000 0.000000 0.000000 0.017076
#
#
# Mechanical properties :
#
#
# Convention : Reuss Voigt Hill
#
# Bulk Modulus (GPa) = 23.51163 32.74573 28.12868
# Shear Modulus (GPa) = -13.05779 19.38462 3.16342
#
# Velocity S-wave (km/s) = -2.57388 3.13604 1.26687
# Velocity P-wave (km/s) = 1.75939 5.45220 4.05105
#
# Compressibility (1/GPa) = 0.04253215
#
# Stress axis : x y z
#
# Youngs Moduli (GPa) = 63.96739 36.47747 47.95117
#
# Poissons Ratio (x) = 0.39313 0.32423
# Poissons Ratio (y) = 0.68940 -0.32867
# Poissons Ratio (z) = 0.43252 -0.25002
#
# Static dielectric constant tensor:
#      x y z
#    x 1.653710 0.000000 0.000000 
#    y 0.000000 1.694550 0.000000 
#    z 0.000000 0.000000 1.630780 
# 
# From -- ./inp_files/20842.got.cif
#   From: 2010.05.17/outbox.ucp.g08.bks.cvg/sg53_11_cif.got.tgz:20842.got - 2010.06.11 16:32:34.
