data_PCOD9420109
_publ_section_title
;
Structure prediction by ZEFSAII (Michael W. Deem and Ramdas Pophale) SiO2 
 PCOD9420109
Probable space group: P M N A
;
_chemical_formula_sum "Si O2"
_cell_formula_units_Z 64
_cell_length_a 9.000000
_cell_length_b 21.000000
_cell_length_c 21.000000
_cell_angle_alpha 90.000000
_cell_angle_beta 90.000000
_cell_angle_gamma 90.000000
_cell_volume 3969.000000
_symmetry_space_group_name_H-M "P M N A"
_symmetry_group_IT_number 53
_symmetry_cell_setting 'orthorhombic'
loop_
_space_group_symop_operation_xyz
x,y,z
1/2-x,-y,1/2+z
x,-y,-z
1/2-x,y,1/2-z
-x,-y,-z
1/2+x,y,1/2-z
-x,y,z
1/2+x,-y,1/2+z
loop_
_atom_site_type_symbol
_atom_site_label
_atom_site_fract_x
_atom_site_fract_y
_atom_site_fract_z
Si Si1 0.319941 0.175514 0.521154
Si Si2 0.321015 0.818650 0.880234
Si Si3 0.818776 0.540606 0.062771
Si Si4 0.178882 0.319053 0.974804
Si Si5 0.678484 0.686311 0.625740
Si Si6 0.179641 0.451685 0.181675
Si Si7 0.820466 0.043611 0.561980
Si Si8 0.321438 0.045940 0.181819
O O1 0.500000 0.172790 0.519672
O O2 0.254942 0.172867 0.449403
O O3 0.275516 0.247022 0.546025
O O4 0.255531 0.113077 0.556451
O O5 0.500000 0.816067 0.887094
O O6 0.260419 0.751250 0.853640
O O7 0.283221 0.881652 0.839604
O O8 0.767939 0.614698 0.057415
O O9 0.774791 0.501411 0.126022
O O10 0.000000 0.541702 0.062184
O O11 0.774219 0.500000 0.000000
O O12 0.000000 0.319782 0.968642
O O13 0.211670 0.323273 0.050444
O O14 0.500000 0.695247 0.631470
O O15 0.719775 0.620898 0.661220
O O16 0.250000 0.466473 0.250000
O O17 0.000000 0.453817 0.185616
O O18 0.000000 0.051961 0.561366
O O19 0.783135 0.000000 0.500000
O O20 0.779411 0.003299 0.625207
O O21 0.250000 0.031286 0.250000
O O22 0.500000 0.043165 0.187211
#
# Coordination Sequence:
#
# PCOD9420109 Si02
#       8
#     8   8   8   8   8   8   8   8
#     4  10  19  30  50  81 107 128 163 215 257 295
#     4  10  19  33  50  71 102 140 171 200 249 306
#     4   9  14  26  51  75  93 125 170 210 247 288
#     4   8  14  26  46  74 101 120 157 212 253 284
#     4   9  17  30  47  71  99 129 167 210 246 289
#     4  10  20  32  49  72 101 134 168 208 254 303
#     4  10  19  36  56  74 102 136 170 207 253 307
#     4  10  22  37  53  73 100 135 170 209 250 296
#
# _framework density 16.124969
#
# number of rings (size 3 to 8) (size 9 to 14) (size 15 to 20)
#    0.000    2.500    2.500    1.500    0.000    2.750 
#    0.000    2.500    0.000    4.875    0.000    3.500 
#    0.000    0.000    0.000    0.000    0.000    0.000 
#
# Total GULP energy -356614.619289 kJ/mol
# GULP energy per Si atom -5572.103426 kJ/mol
# Density = 1.608827 g / cm^3
# Si number density = 16.124969 Si / 1000 Ang^3
#
#
#
# Elastic Constant Matrix: (Units=GPa)
#
#
# Indices 1 2 3 4 5 6 
#
# 1 26.4146 31.3548 23.8662 0.0000 0.0000 0.0000
# 2 31.3548 170.6517 77.5143 0.0000 0.0000 0.0000
# 3 23.8662 77.5143 110.3686 0.0000 0.0000 0.0000
# 4 0.0000 0.0000 0.0000 26.3835 0.0000 0.0000
# 5 0.0000 0.0000 0.0000 0.0000 25.4510 0.0000
# 6 0.0000 0.0000 0.0000 0.0000 0.0000 21.3601
#
#
#
# Elastic Compliance Matrix: (Units=1/GPa)
#
#
# Indices 1 2 3 4 5 6 
#
# 1 0.051490 -0.006466 -0.006593 0.000000 0.000000 0.000000
# 2 -0.006466 0.009417 -0.005216 0.000000 0.000000 0.000000
# 3 -0.006593 -0.005216 0.014149 0.000000 0.000000 0.000000
# 4 0.000000 0.000000 0.000000 0.037902 0.000000 0.000000
# 5 0.000000 0.000000 0.000000 0.000000 0.039291 0.000000
# 6 0.000000 0.000000 0.000000 0.000000 0.000000 0.046816
#
#
# Mechanical properties :
#
#
# Convention : Reuss Voigt Hill
#
# Bulk Modulus (GPa) = 25.96917 63.65616 44.81266
# Shear Modulus (GPa) = 20.12471 26.28557 23.20514
#
# Velocity S-wave (km/s) = 3.53660 4.04185 3.79764
# Velocity P-wave (km/s) = 5.72858 7.83227 6.86153
#
# Compressibility (1/GPa) = 0.03850720
#
# Stress axis : x y z
#
# Youngs Moduli (GPa) = 19.42123 106.19192 70.67516
#
# Poissons Ratio (x) = 0.68661 0.46597
# Poissons Ratio (y) = 0.12557 0.36861
# Poissons Ratio (z) = 0.12805 0.55385
#
# Static dielectric constant tensor:
#      x y z
#    x 1.540860 0.000000 0.000000 
#    y 0.000000 1.564120 0.000000 
#    z 0.000000 0.000000 1.526580 
# 
# From -- ./inp_files/31327.got.cif
#   From: 2010.05.17/outbox.ucp.g08.bks.cvg/sg53_16_cif.got.tgz:31327.got - 2010.06.11 16:32:34.
