data_PCOD9420647
_publ_section_title
;
Structure prediction by ZEFSAII (Michael W. Deem and Ramdas Pophale) SiO2 
 PCOD9420647
Probable space group: P C C A
;
_chemical_formula_sum "Si O2"
_cell_formula_units_Z 48
_cell_length_a 15.910157
_cell_length_b 8.554377
_cell_length_c 18.626993
_cell_angle_alpha 90.000000
_cell_angle_beta 90.000000
_cell_angle_gamma 90.000000
_cell_volume 2535.161336
_symmetry_space_group_name_H-M "P C C A"
_symmetry_group_IT_number 54
_symmetry_cell_setting 'orthorhombic'
loop_
_space_group_symop_operation_xyz
x,y,z
1/2-x,-y,z
1/2+x,-y,1/2-z
-x,y,1/2-z
-x,-y,-z
1/2+x,y,-z
1/2-x,y,1/2+z
x,-y,1/2+z
loop_
_atom_site_type_symbol
_atom_site_label
_atom_site_fract_x
_atom_site_fract_y
_atom_site_fract_z
Si Si1 0.916204 0.201370 0.967513
Si Si2 0.920535 0.785509 0.298897
Si Si3 0.742451 0.684093 0.711996
Si Si4 0.252418 0.189332 0.448560
Si Si5 0.164343 0.897617 0.681843
Si Si6 0.588301 0.179342 0.961669
O O1 0.924060 0.254561 0.884150
O O2 0.916045 0.010945 0.965686
O O3 0.828812 0.245965 0.006140
O O4 0.997917 0.244177 0.014853
O O5 0.840834 0.715225 0.258423
O O6 0.000000 0.746044 0.250000
O O7 0.903209 0.971930 0.297095
O O8 0.750000 0.500000 0.708251
O O9 0.744091 0.752353 0.632313
O O10 0.812435 0.781799 0.754771
O O11 0.339594 0.236898 0.485152
O O12 0.250000 0.000000 0.448775
O O13 0.126106 0.797583 0.617163
O O14 0.250000 0.000000 0.661547
#
# Coordination Sequence:
#
# PCOD9420647 Si02
#       6
#     8   8   8   8   8   8
#     4   9  18  30  53  86 109 132 176 230 280 328
#     4  10  19  36  61  86 110 140 184 233 279 328
#     4  11  23  37  53  77 113 155 189 223 274 332
#     4  10  18  33  55  78 106 140 183 230 273 321
#     4   9  18  34  56  81 106 140 185 227 274 331
#     4   9  16  30  54  82 108 133 170 231 287 324
#
# _framework density 18.933705
#
# number of rings (size 3 to 8) (size 9 to 14) (size 15 to 20)
#    0.000    2.333    0.000    6.000    0.000    5.333 
#    0.000    5.833    0.000    3.000    0.000    0.000 
#    0.000    0.000    0.000    0.000    0.000    0.000 
#
# Total GULP energy -267501.556270 kJ/mol
# GULP energy per Si atom -5572.949089 kJ/mol
# Density = 1.889061 g / cm^3
# Si number density = 18.933705 Si / 1000 Ang^3
#
#
#
# Elastic Constant Matrix: (Units=GPa)
#
#
# Indices 1 2 3 4 5 6 
#
# 1 84.0443 3.2304 55.7828 0.0000 0.0000 0.0000
# 2 3.2304 14.5233 13.6261 0.0000 0.0000 0.0000
# 3 55.7828 13.6261 139.2292 0.0000 0.0000 0.0000
# 4 0.0000 0.0000 0.0000 5.9935 0.0000 0.0000
# 5 0.0000 0.0000 0.0000 0.0000 28.5508 0.0000
# 6 0.0000 0.0000 0.0000 0.0000 0.0000 1.7807
#
#
#
# Elastic Compliance Matrix: (Units=1/GPa)
#
#
# Indices 1 2 3 4 5 6 
#
# 1 0.016308 0.002756 -0.006804 0.000000 0.000000 0.000000
# 2 0.002756 0.076282 -0.008570 0.000000 0.000000 0.000000
# 3 -0.006804 -0.008570 0.010747 0.000000 0.000000 0.000000
# 4 0.000000 0.000000 0.000000 0.166847 0.000000 0.000000
# 5 0.000000 0.000000 0.000000 0.000000 0.035025 0.000000
# 6 0.000000 0.000000 0.000000 0.000000 0.000000 0.561571
#
#
# Mechanical properties :
#
#
# Convention : Reuss Voigt Hill
#
# Bulk Modulus (GPa) = 12.80365 42.56393 27.68379
# Shear Modulus (GPa) = 5.44632 18.27551 11.86092
#
# Velocity S-wave (km/s) = 1.69787 3.11020 2.50560
# Velocity P-wave (km/s) = 3.25895 5.95206 4.79832
#
# Compressibility (1/GPa) = 0.07810270
#
# Stress axis : x y z
#
# Youngs Moduli (GPa) = 61.31800 13.10919 93.04858
#
# Poissons Ratio (x) = -0.03613 0.63308
# Poissons Ratio (y) = -0.16899 0.79741
# Poissons Ratio (z) = 0.41719 0.11234
#
# Static dielectric constant tensor:
#      x y z
#    x 1.478150 0.000000 0.000000 
#    y 0.000000 1.650060 0.000000 
#    z 0.000000 0.000000 1.667570 
# 
# From -- ./inp_files/18032.got.cif
#   From: 2010.05.17/outbox.cif.g08.bks.cpg/sg54_10_cif.got.tgz:18032.got - 2010.06.03 13:09:01.
