data_PCOD9420580
_publ_section_title
;
Structure prediction by ZEFSAII (Michael W. Deem and Ramdas Pophale) SiO2 
 PCOD9420580
Probable space group: P C C A
;
_chemical_formula_sum "Si O2"
_cell_formula_units_Z 28
_cell_length_a 5.021550
_cell_length_b 16.512572
_cell_length_c 13.759736
_cell_angle_alpha 90.000000
_cell_angle_beta 90.000000
_cell_angle_gamma 90.000000
_cell_volume 1140.939503
_symmetry_space_group_name_H-M "P C C A"
_symmetry_group_IT_number 54
_symmetry_cell_setting 'orthorhombic'
loop_
_space_group_symop_operation_xyz
x,y,z
1/2-x,-y,z
1/2+x,-y,1/2-z
-x,y,1/2-z
-x,-y,-z
1/2+x,y,-z
1/2-x,y,1/2+z
x,-y,1/2+z
loop_
_atom_site_type_symbol
_atom_site_label
_atom_site_fract_x
_atom_site_fract_y
_atom_site_fract_z
Si Si1 0.947219 0.160593 0.363086
Si Si2 0.778226 0.325995 0.932074
Si Si3 0.560594 0.076177 0.133640
Si Si4 0.750000 0.500000 0.927893
O O1 0.808937 0.247252 0.372979
O O2 0.736978 0.094433 0.403205
O O3 0.000000 0.143672 0.250000
O O4 0.248860 0.150667 0.399558
O O5 0.746279 0.412346 0.877039
O O6 0.573242 0.324653 0.023393
O O7 0.500000 0.072537 0.250000
O O8 0.750000 0.000000 0.111728
O O9 0.500000 0.500000 0.000000
#
# Coordination Sequence:
#
# PCOD9420580 Si02
#       4
#     8   8   8   4
#     4  10  20  32  52  79 105 131 169 219 263 301
#     4  10  19  34  55  77 104 139 177 212 254 310
#     4  10  18  31  51  75 101 133 174 215 252 301
#     4   8  16  30  52  76  96 130 176 208 234 296
#
# _framework density 24.541179
#
# number of rings (size 3 to 8) (size 9 to 14) (size 15 to 20)
#    0.000    2.286    0.000    5.143    0.000    0.000 
#    0.000    0.000    0.000   32.571    0.000    0.000 
#    0.000    0.000    0.000    0.000    0.000    0.000 
#
# Total GULP energy -156112.993200 kJ/mol
# GULP energy per Si atom -5575.464043 kJ/mol
# Density = 2.448532 g / cm^3
# Si number density = 24.541179 Si / 1000 Ang^3
#
#
#
# Elastic Constant Matrix: (Units=GPa)
#
#
# Indices 1 2 3 4 5 6 
#
# 1 141.9327 61.0436 -0.3802 0.0000 0.0000 0.0000
# 2 61.0436 193.6056 2.5698 0.0000 0.0000 0.0000
# 3 -0.3802 2.5698 63.8665 0.0000 0.0000 0.0000
# 4 0.0000 0.0000 0.0000 -37.1956 0.0000 0.0000
# 5 0.0000 0.0000 0.0000 0.0000 1.8895 0.0000
# 6 0.0000 0.0000 0.0000 0.0000 0.0000 33.0295
#
#
#
# Elastic Compliance Matrix: (Units=1/GPa)
#
#
# Indices 1 2 3 4 5 6 
#
# 1 0.008152 -0.002572 0.000152 0.000000 0.000000 0.000000
# 2 -0.002572 0.005980 -0.000256 0.000000 0.000000 0.000000
# 3 0.000152 -0.000256 0.015669 0.000000 0.000000 0.000000
# 4 0.000000 0.000000 0.000000 -0.026885 0.000000 0.000000
# 5 0.000000 0.000000 0.000000 0.000000 0.529230 0.000000
# 6 0.000000 0.000000 0.000000 0.000000 0.000000 0.030276
#
#
# Mechanical properties :
#
#
# Convention : Reuss Voigt Hill
#
# Bulk Modulus (GPa) = 40.90280 58.43014 49.66647
# Shear Modulus (GPa) = 8.68170 21.95613 15.31892
#
# Velocity S-wave (km/s) = 1.88289 2.99434 2.50114
# Velocity P-wave (km/s) = 4.62928 5.98460 5.35003
#
# Compressibility (1/GPa) = 0.02444820
#
# Stress axis : x y z
#
# Youngs Moduli (GPa) = 122.66353 167.23449 63.82086
#
# Poissons Ratio (x) = 0.43020 -0.00970
# Poissons Ratio (y) = 0.31555 0.01633
# Poissons Ratio (z) = -0.01865 0.04280
#
# Static dielectric constant tensor:
#      x y z
#    x 1.929500 0.000000 0.000000 
#    y 0.000000 2.092980 0.000000 
#    z 0.000000 0.000000 1.951500 
# 
# From -- ./inp_files/15637.got.cif
#   From: 2010.05.17/outbox.cif.g08.bks.cpg/sg54_8_cif.got.tgz:15637.got - 2010.06.03 13:09:01.
