data_PCOD9420404
_publ_section_title
;
Structure prediction by ZEFSAII (Michael W. Deem and Ramdas Pophale) SiO2 
 PCOD9420404
Probable space group: P C C A
;
_chemical_formula_sum "Si O2"
_cell_formula_units_Z 56
_cell_length_a 32.796924
_cell_length_b 13.992067
_cell_length_c 5.486423
_cell_angle_alpha 90.000000
_cell_angle_beta 90.000000
_cell_angle_gamma 90.000000
_cell_volume 2517.701728
_symmetry_space_group_name_H-M "P C C A"
_symmetry_group_IT_number 54
_symmetry_cell_setting 'orthorhombic'
loop_
_space_group_symop_operation_xyz
x,y,z
1/2-x,-y,z
1/2+x,-y,1/2-z
-x,y,1/2-z
-x,-y,-z
1/2+x,y,-z
1/2-x,y,1/2+z
x,-y,1/2+z
loop_
_atom_site_type_symbol
_atom_site_label
_atom_site_fract_x
_atom_site_fract_y
_atom_site_fract_z
Si Si1 0.453591 0.031636 0.302461
Si Si2 0.274859 0.737847 0.529009
Si Si3 0.084462 0.495040 0.629391
Si Si4 0.476341 0.758692 0.991297
Si Si5 0.111948 0.697370 0.606779
Si Si6 0.139217 0.306498 0.608016
Si Si7 0.203212 0.960252 0.035361
O O1 0.500000 0.994113 0.250000
O O2 0.459686 0.139126 0.394506
O O3 0.434587 0.976013 0.532527
O O4 0.246529 0.726267 0.767076
O O5 0.313969 0.670290 0.558014
O O6 0.292620 0.846162 0.538083
O O7 0.060321 0.496177 0.378786
O O8 0.117477 0.582204 0.629850
O O9 0.109354 0.396790 0.633039
O O10 0.500000 0.720539 0.750000
O O11 0.500000 0.767283 0.250000
O O12 0.435860 0.702358 0.057078
O O13 0.135245 0.740255 0.374739
O O14 0.123468 0.744679 0.863070
O O15 0.250000 0.000000 0.034030
O O16 0.184271 0.000677 0.284643
#
# Coordination Sequence:
#
# PCOD9420404 Si02
#       7
#     8   8   8   8   8   8   8
#     4   9  16  28  47  74 105 141 180 214 267 330
#     4  12  21  33  56  86 114 137 188 247 269 307
#     4   8  16  33  58  74  94 140 190 213 253 348
#     4  11  21  33  56  88 113 138 188 245 277 317
#     4  10  20  38  59  78 111 151 185 219 284 352
#     4  10  21  36  58  82 107 149 190 219 277 347
#     4  10  16  30  49  75 106 146 181 217 263 340
#
# _framework density 22.242505999999999
#
# number of rings (size 3 to 8) (size 9 to 14) (size 15 to 20)
#    0.000    2.000    2.857    3.857    0.000    0.000 
#    0.000    0.000    0.000   51.429    0.000    0.000 
#    0.000    0.000    0.000    0.000    0.000    0.000 
#
# Total GULP energy -311879.364673 kJ/mol
# GULP energy per Si atom -5569.274369 kJ/mol
# Density = 2.219188 g / cm^3
# Si number density = 22.242506 Si / 1000 Ang^3
#
#
#
# Elastic Constant Matrix: (Units=GPa)
#
#
# Indices 1 2 3 4 5 6 
#
# 1 34.1920 10.6151 8.9752 0.0000 0.0000 0.0000
# 2 10.6151 20.7818 13.9786 0.0000 0.0000 0.0000
# 3 8.9752 13.9786 224.3678 0.0000 0.0000 0.0000
# 4 0.0000 0.0000 0.0000 4.6443 0.0000 0.0000
# 5 0.0000 0.0000 0.0000 0.0000 24.2059 0.0000
# 6 0.0000 0.0000 0.0000 0.0000 0.0000 8.8948
#
#
#
# Elastic Compliance Matrix: (Units=1/GPa)
#
#
# Indices 1 2 3 4 5 6 
#
# 1 0.034778 -0.017564 -0.000297 0.000000 0.000000 0.000000
# 2 -0.017564 0.059095 -0.002979 0.000000 0.000000 0.000000
# 3 -0.000297 -0.002979 0.004654 0.000000 0.000000 0.000000
# 4 0.000000 0.000000 0.000000 0.215316 0.000000 0.000000
# 5 0.000000 0.000000 0.000000 0.000000 0.041312 0.000000
# 6 0.000000 0.000000 0.000000 0.000000 0.000000 0.112425
#
#
# Mechanical properties :
#
#
# Convention : Reuss Voigt Hill
#
# Bulk Modulus (GPa) = 17.59139 38.49770 28.04454
# Shear Modulus (GPa) = 9.46595 23.93385 16.69990
#
# Velocity S-wave (km/s) = 2.06520 3.28386 2.74306
# Velocity P-wave (km/s) = 3.68955 5.63241 4.76114
#
# Compressibility (1/GPa) = 0.05684600
#
# Stress axis : x y z
#
# Youngs Moduli (GPa) = 28.75421 16.92204 214.84822
#
# Poissons Ratio (x) = 0.29722 0.06379
# Poissons Ratio (y) = 0.50505 0.64005
# Poissons Ratio (z) = 0.00854 0.05041
#
# Static dielectric constant tensor:
#      x y z
#    x 1.785010 0.000000 0.000000 
#    y 0.000000 1.882890 0.000000 
#    z 0.000000 0.000000 2.050010 
# 
# From -- ./inp_files/2156.got.cif
#   From: 2010.05.17/outbox.cif.g08.bks.cpg/sg54_2_cif.got.tgz:2156.got - 2010.06.03 13:09:01.
