data_PCOD9420430
_publ_section_title
;
Structure prediction by ZEFSAII (Michael W. Deem and Ramdas Pophale) SiO2 
 PCOD9420430
Probable space group: P C C A
;
_chemical_formula_sum "Si O2"
_cell_formula_units_Z 60
_cell_length_a 27.590165
_cell_length_b 21.757306
_cell_length_c 5.380039
_cell_angle_alpha 90.000000
_cell_angle_beta 90.000000
_cell_angle_gamma 90.000000
_cell_volume 3229.571035
_symmetry_space_group_name_H-M "P C C A"
_symmetry_group_IT_number 54
_symmetry_cell_setting 'orthorhombic'
loop_
_space_group_symop_operation_xyz
x,y,z
1/2-x,-y,z
1/2+x,-y,1/2-z
-x,y,1/2-z
-x,-y,-z
1/2+x,y,-z
1/2-x,y,1/2+z
x,-y,1/2+z
loop_
_atom_site_type_symbol
_atom_site_label
_atom_site_fract_x
_atom_site_fract_y
_atom_site_fract_z
Si Si1 0.570989 0.335339 0.118274
Si Si2 0.882577 0.288697 0.139348
Si Si3 0.444359 0.476259 0.282241
Si Si4 0.553986 0.172747 0.630709
Si Si5 0.694387 0.524780 0.990526
Si Si6 0.000000 0.761027 0.250000
Si Si7 0.781176 0.334960 0.063295
Si Si8 0.441129 0.966969 0.261563
O O1 0.592774 0.314900 0.386197
O O2 0.555101 0.405305 0.142587
O O3 0.526366 0.288133 0.069583
O O4 0.606547 0.329091 0.884192
O O5 0.906414 0.222989 0.203769
O O6 0.825712 0.288521 0.087761
O O7 0.500000 0.498586 0.250000
O O8 0.422443 0.514564 0.509538
O O9 0.500000 0.179119 0.750000
O O10 0.541000 0.193087 0.350091
O O11 0.570513 0.103787 0.679322
O O12 0.750000 0.500000 0.960807
O O13 0.673029 0.514201 0.717659
O O14 0.696796 0.595938 0.061733
O O15 0.746910 0.328947 0.303134
O O16 0.500000 0.970135 0.250000
O O17 0.424516 0.008781 0.493155
#
# Coordination Sequence:
#
# PCOD9420430 Si02
#       8
#     8   8   8   8   8   4   8   8
#     4  11  21  39  53  78 107 134 192 227 270 342
#     4  11  25  37  57  87 107 144 189 225 273 346
#     4  10  20  34  54  71  94 139 183 230 285 320
#     4  10  20  35  56  80 119 153 187 223 268 313
#     4  10  16  31  55  79  92 128 164 205 280 356
#     4  10  20  32  56  76 104 162 180 224 276 312
#     4  12  22  39  60  78 108 139 174 232 289 336
#     4   9  19  30  49  78 113 152 189 219 255 308
#
# _framework density 18.578320999999999
#
# number of rings (size 3 to 8) (size 9 to 14) (size 15 to 20)
#    0.000    1.600    4.667    1.600    4.667    0.000 
#    0.000    4.000    0.000    0.000    0.000    0.000 
#    0.000    3.200    0.000    0.000    0.000    0.000 
#
# Total GULP energy -334690.575468 kJ/mol
# GULP energy per Si atom -5578.176258 kJ/mol
# Density = 1.853604 g / cm^3
# Si number density = 18.578321 Si / 1000 Ang^3
#
#
#
# Elastic Constant Matrix: (Units=GPa)
#
#
# Indices 1 2 3 4 5 6 
#
# 1 47.4737 18.5831 14.8717 0.0000 0.0000 0.0000
# 2 18.5831 106.1756 30.9112 0.0000 0.0000 0.0000
# 3 14.8717 30.9112 124.0593 0.0000 0.0000 0.0000
# 4 0.0000 0.0000 0.0000 18.1303 0.0000 0.0000
# 5 0.0000 0.0000 0.0000 0.0000 24.8429 0.0000
# 6 0.0000 0.0000 0.0000 0.0000 0.0000 11.1761
#
#
#
# Elastic Compliance Matrix: (Units=1/GPa)
#
#
# Indices 1 2 3 4 5 6 
#
# 1 0.023019 -0.003478 -0.001893 0.000000 0.000000 0.000000
# 2 -0.003478 0.010680 -0.002244 0.000000 0.000000 0.000000
# 3 -0.001893 -0.002244 0.008847 0.000000 0.000000 0.000000
# 4 0.000000 0.000000 0.000000 0.055156 0.000000 0.000000
# 5 0.000000 0.000000 0.000000 0.000000 0.040253 0.000000
# 6 0.000000 0.000000 0.000000 0.000000 0.000000 0.089476
#
#
# Mechanical properties :
#
#
# Convention : Reuss Voigt Hill
#
# Bulk Modulus (GPa) = 36.60845 45.16006 40.88425
# Shear Modulus (GPa) = 19.85968 25.05270 22.45619
#
# Velocity S-wave (km/s) = 3.27306 3.67616 3.48045
# Velocity P-wave (km/s) = 5.83366 6.50996 6.18107
#
# Compressibility (1/GPa) = 0.02731610
#
# Stress axis : x y z
#
# Youngs Moduli (GPa) = 43.44318 93.62925 113.03567
#
# Poissons Ratio (x) = 0.32561 0.21396
# Poissons Ratio (y) = 0.15108 0.25369
# Poissons Ratio (z) = 0.08223 0.21013
#
# Static dielectric constant tensor:
#      x y z
#    x 2.214040 0.000000 0.000000 
#    y 0.000000 1.614750 0.000000 
#    z 0.000000 0.000000 1.776320 
# 
# From -- ./inp_files/2229.got.cif
#   From: 2010.05.17/outbox.cif.g08.bks.cpg/sg54_2_cif.got.tgz:2229.got - 2010.06.03 13:09:01.
