data_PCOD9420817
_publ_section_title
;
Structure prediction by ZEFSAII (Michael W. Deem and Ramdas Pophale) SiO2 
 PCOD9420817
Probable space group: P C C A
;
_chemical_formula_sum "Si O2"
_cell_formula_units_Z 48
_cell_length_a 14.385737
_cell_length_b 8.649632
_cell_length_c 12.746733
_cell_angle_alpha 90.000000
_cell_angle_beta 90.000000
_cell_angle_gamma 90.000000
_cell_volume 1586.092954
_symmetry_space_group_name_H-M "P C C A"
_symmetry_group_IT_number 54
_symmetry_cell_setting 'orthorhombic'
loop_
_space_group_symop_operation_xyz
x,y,z
1/2-x,-y,z
1/2+x,-y,1/2-z
-x,y,1/2-z
-x,-y,-z
1/2+x,y,-z
1/2-x,y,1/2+z
x,-y,1/2+z
loop_
_atom_site_type_symbol
_atom_site_label
_atom_site_fract_x
_atom_site_fract_y
_atom_site_fract_z
Si Si1 0.885561 0.911834 0.739518
Si Si2 0.343300 0.728840 0.013118
Si Si3 0.888919 0.752174 0.234674
Si Si4 0.363976 0.400920 0.011057
Si Si5 0.888974 0.577477 0.739645
Si Si6 0.603244 0.935704 0.995992
O O1 0.000000 0.911215 0.750000
O O2 0.853731 0.082005 0.775169
O O3 0.862328 0.911712 0.615277
O O4 0.853170 0.743771 0.779491
O O5 0.366904 0.748237 0.889293
O O6 0.399602 0.571564 0.048766
O O7 0.241678 0.657353 0.024872
O O8 0.347255 0.908986 0.048277
O O9 0.850786 0.588540 0.277160
O O10 0.000000 0.751771 0.250000
O O11 0.371786 0.418863 0.885096
O O12 0.412535 0.240178 0.044728
O O13 0.000000 0.576740 0.750000
O O14 0.500000 0.000000 0.000000
#
# Coordination Sequence:
#
# PCOD9420817 Si02
#       6
#     8   8   8   8   8   8
#     4   8  14  25  40  59  84 112 141 174 215 265
#     4   9  17  29  45  66  92 123 160 200 240 283
#     4   8  13  22  38  61  87 114 145 185 229 269
#     4   9  17  29  45  66  92 123 160 200 240 283
#     4   8  13  22  38  61  87 114 145 185 229 269
#     4  10  19  29  44  69  95 118 151 196 240 279
#
# _framework density 30.263041999999999
#
# number of rings (size 3 to 8) (size 9 to 14) (size 15 to 20)
#    0.000    3.333    0.000    0.500    0.000    0.667 
#    0.000    0.000    0.000    0.000    0.000   74.667 
#    0.000   90.667    0.000    0.000    0.000    0.000 
#
# Total GULP energy -268472.142800 kJ/mol
# GULP energy per Si atom -5593.169642 kJ/mol
# Density = 3.019416 g / cm^3
# Si number density = 30.263042 Si / 1000 Ang^3
#
#
#
# Elastic Constant Matrix: (Units=GPa)
#
#
# Indices 1 2 3 4 5 6 
#
# 1 106.3926 41.1035 21.6258 0.0000 0.0000 0.0000
# 2 41.1035 493.8257 101.6307 0.0000 0.0000 0.0000
# 3 21.6258 101.6307 92.6164 0.0000 0.0000 0.0000
# 4 0.0000 0.0000 0.0000 89.7298 0.0000 0.0000
# 5 0.0000 0.0000 0.0000 0.0000 36.4137 0.0000
# 6 0.0000 0.0000 0.0000 0.0000 0.0000 43.8941
#
#
#
# Elastic Compliance Matrix: (Units=1/GPa)
#
#
# Indices 1 2 3 4 5 6 
#
# 1 0.009945 -0.000452 -0.001826 0.000000 0.000000 0.000000
# 2 -0.000452 0.002636 -0.002787 0.000000 0.000000 0.000000
# 3 -0.001826 -0.002787 0.014282 0.000000 0.000000 0.000000
# 4 0.000000 0.000000 0.000000 0.011145 0.000000 0.000000
# 5 0.000000 0.000000 0.000000 0.000000 0.027462 0.000000
# 6 0.000000 0.000000 0.000000 0.000000 0.000000 0.022782
#
#
# Mechanical properties :
#
#
# Convention : Reuss Voigt Hill
#
# Bulk Modulus (GPa) = 59.76385 113.50609 86.63497
# Shear Modulus (GPa) = 48.09506 69.23917 58.66712
#
# Velocity S-wave (km/s) = 3.99084 4.78840 4.40770
# Velocity P-wave (km/s) = 6.40522 8.25589 7.38872
#
# Compressibility (1/GPa) = 0.01673252
#
# Stress axis : x y z
#
# Youngs Moduli (GPa) = 100.55354 379.32523 70.01696
#
# Poissons Ratio (x) = 0.17143 0.12787
# Poissons Ratio (y) = 0.04544 0.19516
# Poissons Ratio (z) = 0.18363 1.05730
#
# Static dielectric constant tensor:
#      x y z
#    x 2.391030 0.000000 0.000000 
#    y 0.000000 1.989740 0.000000 
#    z 0.000000 0.000000 2.639330 
# 
# From -- ./inp_files/21446.got.cif
#   From: 2010.05.17/outbox.cif.g08.bks.cpg/sg54_11_cif.got.tgz:21446.got - 2010.06.03 13:09:01.
