data_PCOD9420387
_publ_section_title
;
Structure prediction by ZEFSAII (Michael W. Deem and Ramdas Pophale) SiO2 
 PCOD9420387
Probable space group: P C C A
;
_chemical_formula_sum "Si O2"
_cell_formula_units_Z 60
_cell_length_a 19.881258
_cell_length_b 27.080228
_cell_length_c 5.446373
_cell_angle_alpha 90.000000
_cell_angle_beta 90.000000
_cell_angle_gamma 90.000000
_cell_volume 2932.267311
_symmetry_space_group_name_H-M "P C C A"
_symmetry_group_IT_number 54
_symmetry_cell_setting 'orthorhombic'
loop_
_space_group_symop_operation_xyz
x,y,z
1/2-x,-y,z
1/2+x,-y,1/2-z
-x,y,1/2-z
-x,-y,-z
1/2+x,y,-z
1/2-x,y,1/2+z
x,-y,1/2+z
loop_
_atom_site_type_symbol
_atom_site_label
_atom_site_fract_x
_atom_site_fract_y
_atom_site_fract_z
Si Si1 0.355613 0.272813 0.038902
Si Si2 0.641665 0.766141 0.461607
Si Si3 0.149017 0.467850 0.722609
Si Si4 0.785777 0.635506 0.289209
Si Si5 0.500000 0.467759 0.250000
Si Si6 0.793555 0.134872 0.361223
Si Si7 0.327117 0.979269 0.115754
Si Si8 0.996431 0.295350 0.499827
O O1 0.325749 0.261634 0.772329
O O2 0.327970 0.241684 0.267089
O O3 0.345754 0.329095 0.122181
O O4 0.435312 0.263256 0.007069
O O5 0.649685 0.823170 0.392460
O O6 0.568558 0.739917 0.490528
O O7 0.156674 0.500906 0.475399
O O8 0.198773 0.422200 0.701998
O O9 0.073781 0.444251 0.738736
O O10 0.732120 0.646416 0.506226
O O11 0.500000 0.500000 0.500000
O O12 0.743861 0.140150 0.597736
O O13 0.822489 0.079561 0.373196
O O14 0.250000 0.000000 0.111374
O O15 0.358430 0.001549 0.362647
O O16 0.000000 0.325137 0.750000
O O17 0.000000 0.325714 0.250000
#
# Coordination Sequence:
#
# PCOD9420387 Si02
#       8
#     8   8   8   8   4   8   8   8
#     4  10  21  40  57  76 112 151 184 231 288 328
#     4  10  21  35  55  81 108 138 196 240 280 335
#     4  10  21  40  64  89 120 151 192 242 288 330
#     4  12  26  40  60  88 121 157 195 224 286 362
#     4   8  16  34  60  84 114 144 180 240 288 314
#     4  12  21  30  48  78 109 152 189 221 289 345
#     4  10  16  30  46  63 102 151 182 229 270 326
#     4   8  16  34  57  74 100 132 180 238 276 319
#
# _framework density 20.461980000000001
#
# number of rings (size 3 to 8) (size 9 to 14) (size 15 to 20)
#    0.000    1.867    2.667    2.400    0.000    4.800 
#    3.600    0.000   14.667    0.000    0.000    0.000 
#    0.000   28.800    0.000    0.000    0.000    0.000 
#
# Total GULP energy -334013.226364 kJ/mol
# GULP energy per Si atom -5566.887106 kJ/mol
# Density = 2.041541 g / cm^3
# Si number density = 20.461980 Si / 1000 Ang^3
#
#
#
# Elastic Constant Matrix: (Units=GPa)
#
#
# Indices 1 2 3 4 5 6 
#
# 1 54.5374 14.2887 12.9177 0.0000 0.0000 0.0000
# 2 14.2887 97.7645 31.9785 0.0000 0.0000 0.0000
# 3 12.9177 31.9785 209.2544 0.0000 0.0000 0.0000
# 4 0.0000 0.0000 0.0000 26.8984 0.0000 0.0000
# 5 0.0000 0.0000 0.0000 0.0000 13.2977 0.0000
# 6 0.0000 0.0000 0.0000 0.0000 0.0000 7.5722
#
#
#
# Elastic Compliance Matrix: (Units=1/GPa)
#
#
# Indices 1 2 3 4 5 6 
#
# 1 0.019191 -0.002545 -0.000796 0.000000 0.000000 0.000000
# 2 -0.002545 0.011104 -0.001540 0.000000 0.000000 0.000000
# 3 -0.000796 -0.001540 0.005063 0.000000 0.000000 0.000000
# 4 0.000000 0.000000 0.000000 0.037177 0.000000 0.000000
# 5 0.000000 0.000000 0.000000 0.000000 0.075201 0.000000
# 6 0.000000 0.000000 0.000000 0.000000 0.000000 0.132062
#
#
# Mechanical properties :
#
#
# Convention : Reuss Voigt Hill
#
# Bulk Modulus (GPa) = 39.06525 53.32513 46.19519
# Shear Modulus (GPa) = 16.77335 29.71175 23.24255
#
# Velocity S-wave (km/s) = 2.86620 3.81471 3.37395
# Velocity P-wave (km/s) = 5.48512 6.74684 6.14843
#
# Compressibility (1/GPa) = 0.02559819
#
# Stress axis : x y z
#
# Youngs Moduli (GPa) = 52.10721 90.05555 197.49852
#
# Poissons Ratio (x) = 0.22915 0.15718
# Poissons Ratio (y) = 0.13259 0.30413
# Poissons Ratio (z) = 0.04147 0.13868
#
# Static dielectric constant tensor:
#      x y z
#    x 1.773910 0.000000 0.000000 
#    y 0.000000 1.686790 0.000000 
#    z 0.000000 0.000000 1.863970 
# 
# From -- ./inp_files/1448.got.cif
#   From: 2010.05.17/outbox.cif.g08.bks.cpg/sg54_1_cif.got.tgz:1448.got - 2010.06.03 13:09:01.
