data_PCOD9420626
_publ_section_title
;
Structure prediction by ZEFSAII (Michael W. Deem and Ramdas Pophale) SiO2 
 PCOD9420626
Probable space group: P C C A
;
_chemical_formula_sum "Si O2"
_cell_formula_units_Z 64
_cell_length_a 8.625515
_cell_length_b 21.149021
_cell_length_c 18.069773
_cell_angle_alpha 90.000000
_cell_angle_beta 90.000000
_cell_angle_gamma 90.000000
_cell_volume 3296.309636
_symmetry_space_group_name_H-M "P C C A"
_symmetry_group_IT_number 54
_symmetry_cell_setting 'orthorhombic'
loop_
_space_group_symop_operation_xyz
x,y,z
1/2-x,-y,z
1/2+x,-y,1/2-z
-x,y,1/2-z
-x,-y,-z
1/2+x,y,-z
1/2-x,y,1/2+z
x,-y,1/2+z
loop_
_atom_site_type_symbol
_atom_site_label
_atom_site_fract_x
_atom_site_fract_y
_atom_site_fract_z
Si Si1 0.364066 0.047620 0.473031
Si Si2 0.883495 0.862154 0.450505
Si Si3 0.229568 0.427143 0.458949
Si Si4 0.469784 0.247276 0.935034
Si Si5 0.796356 0.753991 0.346428
Si Si6 0.853544 0.437096 0.197228
Si Si7 0.669291 0.703287 0.209743
Si Si8 0.466306 0.348345 0.064226
O O1 0.460442 0.100470 0.432991
O O2 0.256024 0.088139 0.530803
O O3 0.250000 0.000000 0.431374
O O4 0.500000 0.000000 0.500000
O O5 0.914211 0.816911 0.523169
O O6 0.860857 0.817473 0.380881
O O7 0.250000 0.500000 0.477970
O O8 0.108596 0.426992 0.390064
O O9 0.385375 0.393695 0.428597
O O10 0.169990 0.390643 0.529962
O O11 0.630294 0.246408 0.889723
O O12 0.347229 0.273665 0.874703
O O13 0.497949 0.296897 0.000331
O O14 0.770218 0.749743 0.259410
O O15 0.900746 0.693692 0.369324
O O16 0.750000 0.500000 0.201706
O O17 0.777582 0.369504 0.217487
O O18 0.000000 0.445545 0.250000
O O19 0.500000 0.703303 0.250000
#
# Coordination Sequence:
#
# PCOD9420626 Si02
#       8
#     8   8   8   8   8   8   8   8
#     4   9  18  32  54  87 122 155 187 234 278 332
#     4  10  18  32  56  87 120 150 200 235 293 337
#     4  11  23  38  57  82 109 148 198 252 308 376
#     4  10  18  33  57  80 118 158 189 247 300 363
#     4  10  20  33  57  85 115 155 192 250 297 356
#     4  10  22  40  60  79 110 153 204 255 308 378
#     4   9  19  35  54  80 110 154 200 233 307 363
#     4  11  21  37  57  82 115 147 192 251 316 361
#
# _framework density 19.415651
#
# number of rings (size 3 to 8) (size 9 to 14) (size 15 to 20)
#    0.000    2.000    3.750    0.375    0.000    2.000 
#    0.000    1.250    0.000    0.000    0.000   13.125 
#    0.000    0.000    0.000    0.000    0.000    0.000 
#
# Total GULP energy -356383.535557 kJ/mol
# GULP energy per Si atom -5568.492743 kJ/mol
# Density = 1.937146 g / cm^3
# Si number density = 19.415651 Si / 1000 Ang^3
#
#
#
# Elastic Constant Matrix: (Units=GPa)
#
#
# Indices 1 2 3 4 5 6 
#
# 1 69.3116 43.0746 10.4097 0.0000 0.0000 0.0000
# 2 43.0746 122.4727 26.2582 0.0000 0.0000 0.0000
# 3 10.4097 26.2582 51.2723 0.0000 0.0000 0.0000
# 4 0.0000 0.0000 0.0000 -2.1211 0.0000 0.0000
# 5 0.0000 0.0000 0.0000 0.0000 16.9029 0.0000
# 6 0.0000 0.0000 0.0000 0.0000 0.0000 37.3119
#
#
#
# Elastic Compliance Matrix: (Units=1/GPa)
#
#
# Indices 1 2 3 4 5 6 
#
# 1 0.018473 -0.006395 -0.000475 0.000000 0.000000 0.000000
# 2 -0.006395 0.011386 -0.004533 0.000000 0.000000 0.000000
# 3 -0.000475 -0.004533 0.021922 0.000000 0.000000 0.000000
# 4 0.000000 0.000000 0.000000 -0.471452 0.000000 0.000000
# 5 0.000000 0.000000 0.000000 0.000000 0.059161 0.000000
# 6 0.000000 0.000000 0.000000 0.000000 0.000000 0.026801
#
#
# Mechanical properties :
#
#
# Convention : Reuss Voigt Hill
#
# Bulk Modulus (GPa) = 34.51341 44.72685 39.62013
# Shear Modulus (GPa) = -16.59789 21.30634 2.35422
#
# Velocity S-wave (km/s) = -2.92699 3.31627 1.10235
# Velocity P-wave (km/s) = 2.52817 6.14410 4.69796
#
# Compressibility (1/GPa) = 0.02897425
#
# Stress axis : x y z
#
# Youngs Moduli (GPa) = 54.13170 87.82559 45.61705
#
# Poissons Ratio (x) = 0.56167 0.02169
# Poissons Ratio (y) = 0.34619 0.20677
# Poissons Ratio (z) = 0.02573 0.39810
#
# Static dielectric constant tensor:
#      x y z
#    x 1.788690 0.000000 0.000000 
#    y 0.000000 1.700490 0.000000 
#    z 0.000000 0.000000 1.671260 
# 
# From -- ./inp_files/16880.got.cif
#   From: 2010.05.17/outbox.cif.g08.bks.cpg/sg54_9_cif.got.tgz:16880.got - 2010.06.03 13:09:01.
