data_PCOD9420663
_publ_section_title
;
Structure prediction by ZEFSAII (Michael W. Deem and Ramdas Pophale) SiO2 
 PCOD9420663
Probable space group: P C C A
;
_chemical_formula_sum "Si O2"
_cell_formula_units_Z 40
_cell_length_a 10.913049
_cell_length_b 8.404980
_cell_length_c 22.800001
_cell_angle_alpha 90.000000
_cell_angle_beta 90.000000
_cell_angle_gamma 90.000000
_cell_volume 2091.306347
_symmetry_space_group_name_H-M "P C C A"
_symmetry_group_IT_number 54
_symmetry_cell_setting 'orthorhombic'
loop_
_space_group_symop_operation_xyz
x,y,z
1/2-x,-y,z
1/2+x,-y,1/2-z
-x,y,1/2-z
-x,-y,-z
1/2+x,y,-z
1/2-x,y,1/2+z
x,-y,1/2+z
loop_
_atom_site_type_symbol
_atom_site_label
_atom_site_fract_x
_atom_site_fract_y
_atom_site_fract_z
Si Si1 0.498018 0.374124 0.094519
Si Si2 0.864803 0.308364 0.234758
Si Si3 0.884630 0.663301 0.281155
Si Si4 0.857345 0.629580 0.521005
Si Si5 0.245008 0.814951 0.381255
O O1 0.414712 0.384466 0.152236
O O2 0.553681 0.536712 0.066901
O O3 0.610367 0.262098 0.114105
O O4 0.422223 0.315691 0.038245
O O5 0.874924 0.498121 0.244902
O O6 0.747688 0.254891 0.273872
O O7 0.822522 0.272420 0.169126
O O8 0.000000 0.243018 0.250000
O O9 0.000000 0.750266 0.250000
O O10 0.750000 0.500000 0.507920
O O11 0.803109 0.776582 0.556005
O O12 0.250000 0.000000 0.368002
#
# Coordination Sequence:
#
# PCOD9420663 Si02
#       5
#     8   8   8   8   8
#     4  10  20  38  63  91 115 155 204 259 304 353
#     4  10  21  35  57  89 116 156 196 248 306 353
#     4  10  18  33  63  88 115 148 198 256 307 350
#     4   9  20  36  62  93 118 147 206 256 302 355
#     4  11  23  41  60  84 128 167 198 245 307 372
#
# _framework density 19.126801
#
# number of rings (size 3 to 8) (size 9 to 14) (size 15 to 20)
#    0.000    2.000    2.000    2.400    8.400    0.800 
#    7.200    0.000    0.000    0.000    0.000    0.000 
#    0.000    0.000    0.000    0.000    0.000    0.000 
#
# Total GULP energy -222856.088233 kJ/mol
# GULP energy per Si atom -5571.402206 kJ/mol
# Density = 1.908327 g / cm^3
# Si number density = 19.126801 Si / 1000 Ang^3
#
#
#
# Elastic Constant Matrix: (Units=GPa)
#
#
# Indices 1 2 3 4 5 6 
#
# 1 152.3435 10.3819 69.9094 0.0000 0.0000 0.0000
# 2 10.3819 34.0717 39.6432 0.0000 0.0000 0.0000
# 3 69.9094 39.6432 145.1606 0.0000 0.0000 0.0000
# 4 0.0000 0.0000 0.0000 4.7545 0.0000 0.0000
# 5 0.0000 0.0000 0.0000 0.0000 35.7290 0.0000
# 6 0.0000 0.0000 0.0000 0.0000 0.0000 4.9010
#
#
#
# Elastic Compliance Matrix: (Units=1/GPa)
#
#
# Indices 1 2 3 4 5 6 
#
# 1 0.008665 0.003247 -0.005060 0.000000 0.000000 0.000000
# 2 0.003247 0.044236 -0.013645 0.000000 0.000000 0.000000
# 3 -0.005060 -0.013645 0.013052 0.000000 0.000000 0.000000
# 4 0.000000 0.000000 0.000000 0.210325 0.000000 0.000000
# 5 0.000000 0.000000 0.000000 0.000000 0.027988 0.000000
# 6 0.000000 0.000000 0.000000 0.000000 0.000000 0.204040
#
#
# Mechanical properties :
#
#
# Convention : Reuss Voigt Hill
#
# Bulk Modulus (GPa) = 28.54033 63.49387 46.01710
# Shear Modulus (GPa) = 9.07604 23.18633 16.13119
#
# Velocity S-wave (km/s) = 2.18071 3.48551 2.90725
# Velocity P-wave (km/s) = 4.61462 7.03325 5.94817
#
# Compressibility (1/GPa) = 0.03503813
#
# Stress axis : x y z
#
# Youngs Moduli (GPa) = 115.41128 22.60591 76.61704
#
# Poissons Ratio (x) = -0.07340 0.38765
# Poissons Ratio (y) = -0.37471 1.04540
# Poissons Ratio (z) = 0.58393 0.30845
#
# Static dielectric constant tensor:
#      x y z
#    x 1.802460 0.000000 0.000000 
#    y 0.000000 1.634230 0.000000 
#    z 0.000000 0.000000 1.664000 
# 
# From -- ./inp_files/21014.got.cif
#   From: 2010.05.17/outbox.cif.g08.bks.cpg/sg54_11_cif.got.tgz:21014.got - 2010.06.03 13:09:01.
