data_PCOD9420010
_publ_section_title
;
Structure prediction by ZEFSAII (Michael W. Deem and Ramdas Pophale) SiO2 
 PCOD9420010
Probable space group: P M N A
;
_chemical_formula_sum "Si O2"
_cell_formula_units_Z 22
_cell_length_a 15.356308
_cell_length_b 11.933352
_cell_length_c 4.881230
_cell_angle_alpha 90.000000
_cell_angle_beta 90.000000
_cell_angle_gamma 90.000000
_cell_volume 894.496277
_symmetry_space_group_name_H-M "P M N A"
_symmetry_group_IT_number 53
_symmetry_cell_setting 'orthorhombic'
loop_
_space_group_symop_operation_xyz
x,y,z
1/2-x,-y,1/2+z
x,-y,-z
1/2-x,y,1/2-z
-x,-y,-z
1/2+x,y,1/2-z
-x,y,z
1/2+x,-y,1/2+z
loop_
_atom_site_type_symbol
_atom_site_label
_atom_site_fract_x
_atom_site_fract_y
_atom_site_fract_z
Si Si1 0.603893 0.786458 0.280400
Si Si2 0.152547 0.355149 0.272775
Si Si3 0.689785 0.000000 0.000000
Si Si4 0.000000 0.500000 0.000000
O O1 0.500000 0.785447 0.310746
O O2 0.645184 0.752680 0.569432
O O3 0.634328 0.901919 0.143272
O O4 0.632582 0.688440 0.075320
O O5 0.250000 0.401058 0.250000
O O6 0.076556 0.436314 0.177658
O O7 0.750000 0.041531 0.250000
#
# Coordination Sequence:
#
# PCOD9420010 Si02
#       4
#     8   8   4   2
#     4  12  24  48  73 109 150 195 245 305 370 444
#     4  12  27  48  77 109 151 197 247 311 376 442
#     4  12  25  42  71 110 150 198 248 295 366 457
#     4  12  28  54  76 114 148 194 264 310 380 442
#
# _framework density 24.594850000000001
#
# number of rings (size 3 to 8) (size 9 to 14) (size 15 to 20)
#    0.000    0.000    3.636    7.091    0.000    5.818 
#    0.000    5.455    0.000    0.000    0.000    0.000 
#    0.000    0.000    0.000    0.000    0.000    0.000 
#
# Total GULP energy -122931.500995 kJ/mol
# GULP energy per Si atom -5587.795500 kJ/mol
# Density = 2.453887 g / cm^3
# Si number density = 24.594850 Si / 1000 Ang^3
#
#
#
# Elastic Constant Matrix: (Units=GPa)
#
#
# Indices 1 2 3 4 5 6 
#
# 1 247.4747 43.2424 29.0995 0.0000 0.0000 0.0000
# 2 43.2424 58.9946 9.2785 0.0000 0.0000 0.0000
# 3 29.0995 9.2785 109.2996 0.0000 0.0000 0.0000
# 4 0.0000 0.0000 0.0000 50.5976 0.0000 0.0000
# 5 0.0000 0.0000 0.0000 0.0000 -11.7929 0.0000
# 6 0.0000 0.0000 0.0000 0.0000 0.0000 177.0624
#
#
#
# Elastic Compliance Matrix: (Units=1/GPa)
#
#
# Indices 1 2 3 4 5 6 
#
# 1 0.004736 -0.003317 -0.000979 0.000000 0.000000 0.000000
# 2 -0.003317 0.019504 -0.000773 0.000000 0.000000 0.000000
# 3 -0.000979 -0.000773 0.009475 0.000000 0.000000 0.000000
# 4 0.000000 0.000000 0.000000 0.019764 0.000000 0.000000
# 5 0.000000 0.000000 0.000000 0.000000 -0.084797 0.000000
# 6 0.000000 0.000000 0.000000 0.000000 0.000000 0.005648
#
#
# Mechanical properties :
#
#
# Convention : Reuss Voigt Hill
#
# Bulk Modulus (GPa) = 42.41431 64.33441 53.37436
# Shear Modulus (GPa) = -651.53742 65.45000 -293.04371
#
# Velocity S-wave (km/s) = -16.29365 5.16421 -10.92735
# Velocity P-wave (km/s) = 18.34925 7.85959 11.72437
#
# Compressibility (1/GPa) = 0.02357695
#
# Stress axis : x y z
#
# Youngs Moduli (GPa) = 211.16768 51.27256 105.53602
#
# Poissons Ratio (x) = 0.17008 0.10334
# Poissons Ratio (y) = 0.70047 0.08153
# Poissons Ratio (z) = 0.20677 0.03961
#
# Static dielectric constant tensor:
#      x y z
#    x 1.878380 0.000000 0.000000 
#    y 0.000000 2.027340 0.000000 
#    z 0.000000 0.000000 1.865120 
# 
# From -- ./inp_files/1030.got.cif
#   From: 2010.05.17/outbox.cif.g08.bks.cpg/sg53_1_cif.got.tgz:1030.got - 2010.06.03 12:45:16.
