data_PCOD9420249
_publ_section_title
;
Structure prediction by ZEFSAII (Michael W. Deem and Ramdas Pophale) SiO2 
 PCOD9420249
Probable space group: P M N A
;
_chemical_formula_sum "Si O2"
_cell_formula_units_Z 56
_cell_length_a 24.000000
_cell_length_b 6.000000
_cell_length_c 21.000000
_cell_angle_alpha 90.000000
_cell_angle_beta 90.000000
_cell_angle_gamma 90.000000
_cell_volume 3024.000000
_symmetry_space_group_name_H-M "P M N A"
_symmetry_group_IT_number 53
_symmetry_cell_setting 'orthorhombic'
loop_
_space_group_symop_operation_xyz
x,y,z
1/2-x,-y,1/2+z
x,-y,-z
1/2-x,y,1/2-z
-x,-y,-z
1/2+x,y,1/2-z
-x,y,z
1/2+x,-y,1/2+z
loop_
_atom_site_type_symbol
_atom_site_label
_atom_site_fract_x
_atom_site_fract_y
_atom_site_fract_z
Si Si1 0.767317 0.316435 0.163011
Si Si2 0.829587 0.654628 0.332787
Si Si3 0.735886 0.071349 0.930136
Si Si4 0.660017 0.384613 0.568462
Si Si5 0.858788 0.956853 0.762011
Si Si6 0.434664 0.269287 0.657806
Si Si7 0.434456 0.574336 0.784836
O O1 0.717498 0.475432 0.186679
O O2 0.809314 0.463098 0.120699
O O3 0.807779 0.184182 0.210329
O O4 0.738714 0.137298 0.116785
O O5 0.806283 0.752152 0.398736
O O6 0.892305 0.557935 0.331484
O O7 0.832365 0.849922 0.280792
O O8 0.798470 0.172728 0.934574
O O9 0.718157 0.000000 0.000000
O O10 0.659865 0.500000 0.500000
O O11 0.597972 0.345558 0.594852
O O12 0.903249 0.809173 0.723340
O O13 0.896451 0.066990 0.817018
O O14 0.500000 0.216481 0.648560
O O15 0.431751 0.450356 0.715608
O O16 0.500000 0.586454 0.802198
#
# Coordination Sequence:
#
# PCOD9420249 Si02
#       7
#     8   8   8   8   8   8   8
#     4  11  22  38  57  87 122 155 196 248 304 355
#     4  10  25  37  57  95 117 150 199 250 298 365
#     4  11  22  39  61  84 119 162 194 244 306 363
#     4  11  21  37  58  83 118 161 210 249 294 347
#     4  11  21  39  60  85 121 158 198 245 308 361
#     4  10  21  37  57  86 119 161 212 251 287 342
#     4  10  21  39  60  83 120 159 194 244 300 359
#
# _framework density 18.518519000000001
#
# number of rings (size 3 to 8) (size 9 to 14) (size 15 to 20)
#    0.000    1.429    4.286    1.286    0.000    4.286 
#    0.000    0.000    0.000    1.714    0.000    4.000 
#    0.000    0.000    0.000    0.000    0.000    0.000 
#
# Total GULP energy -312634.207482 kJ/mol
# GULP energy per Si atom -5582.753705 kJ/mol
# Density = 1.847637 g / cm^3
# Si number density = 18.518519 Si / 1000 Ang^3
#
#
#
# Elastic Constant Matrix: (Units=GPa)
#
#
# Indices 1 2 3 4 5 6 
#
# 1 175.1876 62.2571 67.3872 0.0000 0.0000 0.0000
# 2 62.2571 96.8234 44.1267 0.0000 0.0000 0.0000
# 3 67.3872 44.1267 76.1070 0.0000 0.0000 0.0000
# 4 0.0000 0.0000 0.0000 29.5058 0.0000 0.0000
# 5 0.0000 0.0000 0.0000 0.0000 18.0641 0.0000
# 6 0.0000 0.0000 0.0000 0.0000 0.0000 22.2502
#
#
#
# Elastic Compliance Matrix: (Units=1/GPa)
#
#
# Indices 1 2 3 4 5 6 
#
# 1 0.009261 -0.003014 -0.006453 0.000000 0.000000 0.000000
# 2 -0.003014 0.015018 -0.006039 0.000000 0.000000 0.000000
# 3 -0.006453 -0.006039 0.022354 0.000000 0.000000 0.000000
# 4 0.000000 0.000000 0.000000 0.033892 0.000000 0.000000
# 5 0.000000 0.000000 0.000000 0.000000 0.055358 0.000000
# 6 0.000000 0.000000 0.000000 0.000000 0.000000 0.044943
#
#
# Mechanical properties :
#
#
# Convention : Reuss Voigt Hill
#
# Bulk Modulus (GPa) = 64.01016 77.29554 70.65285
# Shear Modulus (GPa) = 23.03662 25.58717 24.31190
#
# Velocity S-wave (km/s) = 3.53083 3.72117 3.62725
# Velocity P-wave (km/s) = 7.15981 7.76485 7.46846
#
# Compressibility (1/GPa) = 0.01562252
#
# Stress axis : x y z
#
# Youngs Moduli (GPa) = 107.97479 66.58518 44.73487
#
# Poissons Ratio (x) = 0.20071 0.28866
# Poissons Ratio (y) = 0.32547 0.27014
# Poissons Ratio (z) = 0.69672 0.40208
#
# Static dielectric constant tensor:
#      x y z
#    x 1.602090 0.000000 0.000000 
#    y 0.000000 1.717030 0.000000 
#    z 0.000000 0.000000 1.667640 
# 
# From -- ./inp_files/33179.got.cif
#   From: 2010.05.17/outbox.ucp.g08.bks.cvg/sg53_17_cif.got.tgz:33179.got - 2010.06.11 16:32:34.
