data_PCOD9420415
_publ_section_title
;
Structure prediction by ZEFSAII (Michael W. Deem and Ramdas Pophale) SiO2 
 PCOD9420415
Probable space group: P C C A
;
_chemical_formula_sum "Si O2"
_cell_formula_units_Z 24
_cell_length_a 5.350441
_cell_length_b 11.544438
_cell_length_c 16.878043
_cell_angle_alpha 90.000000
_cell_angle_beta 90.000000
_cell_angle_gamma 90.000000
_cell_volume 1042.520165
_symmetry_space_group_name_H-M "P C C A"
_symmetry_group_IT_number 54
_symmetry_cell_setting 'orthorhombic'
loop_
_space_group_symop_operation_xyz
x,y,z
1/2-x,-y,z
1/2+x,-y,1/2-z
-x,y,1/2-z
-x,-y,-z
1/2+x,y,-z
1/2-x,y,1/2+z
x,-y,1/2+z
loop_
_atom_site_type_symbol
_atom_site_label
_atom_site_fract_x
_atom_site_fract_y
_atom_site_fract_z
Si Si1 0.924701 0.679717 0.547539
Si Si2 0.504722 0.050331 0.589522
Si Si3 0.245446 0.631547 0.781581
O O1 0.707848 0.653953 0.482041
O O2 0.953404 0.814175 0.573638
O O3 0.807275 0.623055 0.625699
O O4 0.750000 0.000000 0.630852
O O5 0.500000 0.000000 0.500000
O O6 0.250000 0.000000 0.626041
O O7 0.250000 0.500000 0.747047
O O8 0.500000 0.686360 0.750000
O O9 0.000000 0.694498 0.750000
#
# Coordination Sequence:
#
# PCOD9420415 Si02
#       3
#     8   8   8
#     4  12  21  33  61  94 112 146 204 253 285 344
#     4  10  16  30  49  81 118 149 174 226 287 354
#     4  10  23  43  60  79 119 166 195 237 313 373
#
# _framework density 23.021139000000002
#
# number of rings (size 3 to 8) (size 9 to 14) (size 15 to 20)
#    0.000    1.333    6.667    2.000    0.000    1.333 
#    0.000    0.000    0.000    4.000    0.000    0.000 
#    0.000    0.000    0.000    0.000    0.000    0.000 
#
# Total GULP energy -133613.493869 kJ/mol
# GULP energy per Si atom -5567.228911 kJ/mol
# Density = 2.296874 g / cm^3
# Si number density = 23.021139 Si / 1000 Ang^3
#
#
#
# Elastic Constant Matrix: (Units=GPa)
#
#
# Indices 1 2 3 4 5 6 
#
# 1 258.0648 14.5295 23.8178 0.0000 0.0000 0.0000
# 2 14.5295 53.6750 2.7126 0.0000 0.0000 0.0000
# 3 23.8178 2.7126 55.3881 0.0000 0.0000 0.0000
# 4 0.0000 0.0000 0.0000 -524.6495 0.0000 0.0000
# 5 0.0000 0.0000 0.0000 0.0000 18.6435 0.0000
# 6 0.0000 0.0000 0.0000 0.0000 0.0000 -240.4181
#
#
#
# Elastic Compliance Matrix: (Units=1/GPa)
#
#
# Indices 1 2 3 4 5 6 
#
# 1 0.004090 -0.001021 -0.001709 0.000000 0.000000 0.000000
# 2 -0.001021 0.018932 -0.000488 0.000000 0.000000 0.000000
# 3 -0.001709 -0.000488 0.018813 0.000000 0.000000 0.000000
# 4 0.000000 0.000000 0.000000 -0.001906 0.000000 0.000000
# 5 0.000000 0.000000 0.000000 0.000000 0.053638 0.000000
# 6 0.000000 0.000000 0.000000 0.000000 0.000000 -0.004159
#
#
# Mechanical properties :
#
#
# Convention : Reuss Voigt Hill
#
# Bulk Modulus (GPa) = 28.24916 49.91639 39.08278
# Shear Modulus (GPa) = 46.44983 -127.54694 -40.54856
#
# Velocity S-wave (km/s) = 4.49676 -7.45148 -4.20141
# Velocity P-wave (km/s) = 6.26568 7.23207 2.55383
#
# Compressibility (1/GPa) = 0.03539928
#
# Stress axis : x y z
#
# Youngs Moduli (GPa) = 244.48760 52.82156 53.15422
#
# Poissons Ratio (x) = 0.05392 0.09083
# Poissons Ratio (y) = 0.24958 0.02595
# Poissons Ratio (z) = 0.41779 0.02579
#
# Static dielectric constant tensor:
#      x y z
#    x 0.489980 0.000000 0.000000 
#    y 0.000000 1.576850 0.000000 
#    z 0.000000 0.000000 1.962620 
# 
# From -- ./inp_files/10681.got.cif
#   From: 2010.05.17/outbox.cif.g08.bks.cpg/sg54_6_cif.got.tgz:10681.got - 2010.06.03 13:09:01.
