data_PCOD9420819
_publ_section_title
;
Structure prediction by ZEFSAII (Michael W. Deem and Ramdas Pophale) SiO2 
 PCOD9420819
Probable space group: P C C A
;
_chemical_formula_sum "Si O2"
_cell_formula_units_Z 52
_cell_length_a 5.266829
_cell_length_b 18.546363
_cell_length_c 26.664179
_cell_angle_alpha 90.000000
_cell_angle_beta 90.000000
_cell_angle_gamma 90.000000
_cell_volume 2604.570937
_symmetry_space_group_name_H-M "P C C A"
_symmetry_group_IT_number 54
_symmetry_cell_setting 'orthorhombic'
loop_
_space_group_symop_operation_xyz
x,y,z
1/2-x,-y,z
1/2+x,-y,1/2-z
-x,y,1/2-z
-x,-y,-z
1/2+x,y,-z
1/2-x,y,1/2+z
x,-y,1/2+z
loop_
_atom_site_type_symbol
_atom_site_label
_atom_site_fract_x
_atom_site_fract_y
_atom_site_fract_z
Si Si1 0.402261 0.735031 0.136739
Si Si2 0.169877 0.657472 0.534663
Si Si3 0.593740 0.265618 0.194996
Si Si4 0.504508 0.080823 0.977833
Si Si5 0.406547 0.908522 0.138395
Si Si6 0.094058 0.910233 0.304827
Si Si7 0.250000 0.500000 0.034671
O O1 0.402525 0.710624 0.079463
O O2 0.637176 0.710263 0.171817
O O3 0.408829 0.821646 0.139092
O O4 0.131976 0.711976 0.158455
O O5 0.435287 0.664931 0.504488
O O6 0.210103 0.577621 0.560009
O O7 0.500000 0.288979 0.250000
O O8 0.603257 0.177709 0.196930
O O9 0.525413 0.072572 0.918492
O O10 0.249389 0.117607 0.997536
O O11 0.500000 0.000000 0.000000
O O12 0.625356 0.932001 0.177285
O O13 0.123834 0.929960 0.155054
O O14 0.000000 0.933798 0.250000
O O15 0.500000 0.500000 0.000000
#
# Coordination Sequence:
#
# PCOD9420819 Si02
#       7
#     8   8   8   8   8   8   4
#     4  10  19  29  46  73  99 127 159 194 245 289
#     4  10  19  31  46  67  97 129 160 200 241 287
#     4   9  17  30  46  67  99 131 159 193 235 292
#     4  10  21  36  52  71  92 127 168 197 229 276
#     4  10  19  31  49  74 101 125 158 199 235 289
#     4   9  17  30  49  74 101 127 153 190 245 295
#     4   8  16  30  46  62  86 124 166 198 232 276
#
# _framework density 19.964901000000001
#
# number of rings (size 3 to 8) (size 9 to 14) (size 15 to 20)
#    0.000    2.462    0.000    2.769    0.000    4.923 
#    0.000    0.000    0.000    0.000    0.000   45.231 
#    0.000    0.000    0.000    0.000    0.000    0.000 
#
# Total GULP energy -290013.362710 kJ/mol
# GULP energy per Si atom -5577.180052 kJ/mol
# Density = 1.991946 g / cm^3
# Si number density = 19.964901 Si / 1000 Ang^3
#
#
#
# Elastic Constant Matrix: (Units=GPa)
#
#
# Indices 1 2 3 4 5 6 
#
# 1 152.9437 16.6086 34.6736 0.0000 0.0000 0.0000
# 2 16.6086 27.9379 -0.0515 0.0000 0.0000 0.0000
# 3 34.6736 -0.0515 95.9595 0.0000 0.0000 0.0000
# 4 0.0000 0.0000 0.0000 0.7765 0.0000 0.0000
# 5 0.0000 0.0000 0.0000 0.0000 33.8360 0.0000
# 6 0.0000 0.0000 0.0000 0.0000 0.0000 13.5102
#
#
#
# Elastic Compliance Matrix: (Units=1/GPa)
#
#
# Indices 1 2 3 4 5 6 
#
# 1 0.007662 -0.004560 -0.002771 0.000000 0.000000 0.000000
# 2 -0.004560 0.038507 0.001668 0.000000 0.000000 0.000000
# 3 -0.002771 0.001668 0.011423 0.000000 0.000000 0.000000
# 4 0.000000 0.000000 0.000000 1.287891 0.000000 0.000000
# 5 0.000000 0.000000 0.000000 0.000000 0.029554 0.000000
# 6 0.000000 0.000000 0.000000 0.000000 0.000000 0.074018
#
#
# Mechanical properties :
#
#
# Convention : Reuss Voigt Hill
#
# Bulk Modulus (GPa) = 21.61345 42.14473 31.87909
# Shear Modulus (GPa) = 3.38799 24.66523 14.02661
#
# Velocity S-wave (km/s) = 1.30409 3.51868 2.65347
# Velocity P-wave (km/s) = 3.62171 6.13705 5.03886
#
# Compressibility (1/GPa) = 0.04626749
#
# Stress axis : x y z
#
# Youngs Moduli (GPa) = 130.51925 25.96898 87.54130
#
# Poissons Ratio (x) = 0.11841 0.24257
# Poissons Ratio (y) = 0.59515 -0.14605
# Poissons Ratio (z) = 0.36166 -0.04332
#
# Static dielectric constant tensor:
#      x y z
#    x 1.628090 0.000000 0.000000 
#    y 0.000000 1.770810 0.000000 
#    z 0.000000 0.000000 1.690180 
# 
# From -- ./inp_files/19823.got.cif
#   From: 2010.05.17/outbox.cif.g08.bks.cpg/sg54_10_cif.got.tgz:19823.got - 2010.06.03 13:09:01.
