data_PCOD9420457
_publ_section_title
;
Structure prediction by ZEFSAII (Michael W. Deem and Ramdas Pophale) SiO2 
 PCOD9420457
Probable space group: P C C A
;
_chemical_formula_sum "Si O2"
_cell_formula_units_Z 36
_cell_length_a 17.958306
_cell_length_b 18.009371
_cell_length_c 5.484581
_cell_angle_alpha 90.000000
_cell_angle_beta 90.000000
_cell_angle_gamma 90.000000
_cell_volume 1773.811095
_symmetry_space_group_name_H-M "P C C A"
_symmetry_group_IT_number 54
_symmetry_cell_setting 'orthorhombic'
loop_
_space_group_symop_operation_xyz
x,y,z
1/2-x,-y,z
1/2+x,-y,1/2-z
-x,y,1/2-z
-x,-y,-z
1/2+x,y,-z
1/2-x,y,1/2+z
x,-y,1/2+z
loop_
_atom_site_type_symbol
_atom_site_label
_atom_site_fract_x
_atom_site_fract_y
_atom_site_fract_z
Si Si1 0.500000 0.430695 0.250000
Si Si2 0.835182 0.030895 0.041959
Si Si3 0.202272 0.796410 0.965734
Si Si4 0.358621 0.473331 0.790173
Si Si5 0.422642 0.323702 0.868336
O O1 0.563159 0.485019 0.148155
O O2 0.545367 0.374337 0.417342
O O3 0.828200 0.119329 0.038401
O O4 0.750000 0.000000 0.043462
O O5 0.869831 0.000755 0.292947
O O6 0.252856 0.786648 0.720921
O O7 0.133704 0.739712 0.946882
O O8 0.323983 0.517227 0.560864
O O9 0.375133 0.387277 0.723883
O O10 0.500000 0.295464 0.750000
#
# Coordination Sequence:
#
# PCOD9420457 Si02
#       5
#     4   8   8   8   8
#     4  10  18  36  60  90 104 162 214 252 266 364
#     4  10  16  35  63  84 105 153 216 233 265 364
#     4  12  25  39  60  95 127 157 190 256 315 358
#     4  10  17  32  58  85 102 149 215 248 265 339
#     4  11  22  37  61  91 124 153 207 257 301 349
#
# _framework density 20.295283000000001
#
# number of rings (size 3 to 8) (size 9 to 14) (size 15 to 20)
#    0.000    1.333    7.778    1.333    3.111    0.000 
#    0.000    0.000    0.000   17.333    0.000    0.000 
#    0.000    0.000    0.000    0.000    0.000    0.000 
#
# Total GULP energy -200466.818408 kJ/mol
# GULP energy per Si atom -5568.522734 kJ/mol
# Density = 2.024909 g / cm^3
# Si number density = 20.295283 Si / 1000 Ang^3
#
#
#
# Elastic Constant Matrix: (Units=GPa)
#
#
# Indices 1 2 3 4 5 6 
#
# 1 77.4399 49.3437 24.1128 0.0000 0.0000 0.0000
# 2 49.3437 131.2485 20.4777 0.0000 0.0000 0.0000
# 3 24.1128 20.4777 147.1519 0.0000 0.0000 0.0000
# 4 0.0000 0.0000 0.0000 22.7817 0.0000 0.0000
# 5 0.0000 0.0000 0.0000 0.0000 -9.0718 0.0000
# 6 0.0000 0.0000 0.0000 0.0000 0.0000 27.4522
#
#
#
# Elastic Compliance Matrix: (Units=1/GPa)
#
#
# Indices 1 2 3 4 5 6 
#
# 1 0.017539 -0.006282 -0.002000 0.000000 0.000000 0.000000
# 2 -0.006282 0.010038 -0.000368 0.000000 0.000000 0.000000
# 3 -0.002000 -0.000368 0.007175 0.000000 0.000000 0.000000
# 4 0.000000 0.000000 0.000000 0.043895 0.000000 0.000000
# 5 0.000000 0.000000 0.000000 0.000000 -0.110231 0.000000
# 6 0.000000 0.000000 0.000000 0.000000 0.000000 0.036427
#
#
# Mechanical properties :
#
#
# Convention : Reuss Voigt Hill
#
# Bulk Modulus (GPa) = 57.29631 60.41207 58.85419
# Shear Modulus (GPa) = 178.84322 25.69281 102.26802
#
# Velocity S-wave (km/s) = 9.39744 3.56188 7.10630
# Velocity P-wave (km/s) = 12.08478 6.83719 9.81807
#
# Compressibility (1/GPa) = 0.01745313
#
# Stress axis : x y z
#
# Youngs Moduli (GPa) = 57.01734 99.62015 139.38184
#
# Poissons Ratio (x) = 0.62578 0.27873
# Poissons Ratio (y) = 0.35817 0.05123
# Poissons Ratio (z) = 0.11402 0.03662
#
# Static dielectric constant tensor:
#      x y z
#    x 1.691090 0.000000 0.000000 
#    y 0.000000 1.680800 0.000000 
#    z 0.000000 0.000000 1.932630 
# 
# From -- ./inp_files/1214.got.cif
#   From: 2010.05.17/outbox.cif.g08.bks.cpg/sg54_1_cif.got.tgz:1214.got - 2010.06.03 13:09:01.
