data_PCOD9420509
_publ_section_title
;
Structure prediction by ZEFSAII (Michael W. Deem and Ramdas Pophale) SiO2 
 PCOD9420509
Probable space group: P C C A
;
_chemical_formula_sum "Si O2"
_cell_formula_units_Z 56
_cell_length_a 19.558129
_cell_length_b 8.342948
_cell_length_c 14.877619
_cell_angle_alpha 90.000000
_cell_angle_beta 90.000000
_cell_angle_gamma 90.000000
_cell_volume 2427.617590
_symmetry_space_group_name_H-M "P C C A"
_symmetry_group_IT_number 54
_symmetry_cell_setting 'orthorhombic'
loop_
_space_group_symop_operation_xyz
x,y,z
1/2-x,-y,z
1/2+x,-y,1/2-z
-x,y,1/2-z
-x,-y,-z
1/2+x,y,-z
1/2-x,y,1/2+z
x,-y,1/2+z
loop_
_atom_site_type_symbol
_atom_site_label
_atom_site_fract_x
_atom_site_fract_y
_atom_site_fract_z
Si Si1 0.093345 0.171613 0.888917
Si Si2 0.117026 0.936991 0.591409
Si Si3 0.255597 0.805432 0.905876
Si Si4 0.974920 0.867041 0.655512
Si Si5 0.818060 0.715803 0.420296
Si Si6 0.466910 0.337072 0.029995
Si Si7 0.722015 0.813625 0.278747
O O1 0.168827 0.237039 0.867080
O O2 0.022536 0.269500 0.897404
O O3 0.081463 0.006614 0.834461
O O4 0.106970 0.130559 0.993065
O O5 0.157099 0.819777 0.656760
O O6 0.042410 0.966457 0.628426
O O7 0.158433 0.098828 0.582671
O O8 0.206398 0.766170 0.822638
O O9 0.250000 0.000000 0.922968
O O10 0.232344 0.710485 0.994028
O O11 0.959870 0.767230 0.563637
O O12 0.000000 0.787747 0.750000
O O13 0.890739 0.631408 0.432425
O O14 0.775910 0.699230 0.329108
O O15 0.500000 0.500000 0.000000
O O16 0.750000 0.000000 0.273549
#
# Coordination Sequence:
#
# PCOD9420509 Si02
#       7
#     8   8   8   8   8   8   8
#     4  11  20  38  60  91 121 161 209 262 323 373
#     4  10  17  33  54  85 122 151 195 256 318 369
#     4  11  19  31  58  92 127 157 201 266 329 379
#     4  11  23  35  62  94 125 158 212 271 322 373
#     4  11  18  37  57  86 125 161 201 260 310 377
#     4  11  24  43  63  86 126 179 218 254 319 390
#     4   9  20  28  52  91 123 152 196 251 327 376
#
# _framework density 23.067881
#
# number of rings (size 3 to 8) (size 9 to 14) (size 15 to 20)
#    0.000    1.429    5.714    1.286    8.000    0.000 
#    0.000    2.857    0.000    0.000    7.429    0.000 
#    0.000    0.000    0.000    0.000    0.000    0.000 
#
# Total GULP energy -312144.950653 kJ/mol
# GULP energy per Si atom -5574.016976 kJ/mol
# Density = 2.301538 g / cm^3
# Si number density = 23.067881 Si / 1000 Ang^3
#
#
#
# Elastic Constant Matrix: (Units=GPa)
#
#
# Indices 1 2 3 4 5 6 
#
# 1 100.9967 14.2137 -4.0649 0.0000 0.0000 0.0000
# 2 14.2137 30.6736 -3.6640 0.0000 0.0000 0.0000
# 3 -4.0649 -3.6640 76.9299 0.0000 0.0000 0.0000
# 4 0.0000 0.0000 0.0000 0.3886 0.0000 0.0000
# 5 0.0000 0.0000 0.0000 0.0000 26.0804 0.0000
# 6 0.0000 0.0000 0.0000 0.0000 0.0000 2.4413
#
#
#
# Elastic Compliance Matrix: (Units=1/GPa)
#
#
# Indices 1 2 3 4 5 6 
#
# 1 0.010600 -0.004873 0.000328 0.000000 0.000000 0.000000
# 2 -0.004873 0.035028 0.001411 0.000000 0.000000 0.000000
# 3 0.000328 0.001411 0.013083 0.000000 0.000000 0.000000
# 4 0.000000 0.000000 0.000000 2.573333 0.000000 0.000000
# 5 0.000000 0.000000 0.000000 0.000000 0.038343 0.000000
# 6 0.000000 0.000000 0.000000 0.000000 0.000000 0.409617
#
#
# Mechanical properties :
#
#
# Convention : Reuss Voigt Hill
#
# Bulk Modulus (GPa) = 19.06815 24.61887 21.84351
# Shear Modulus (GPa) = 1.61095 19.25644 10.43369
#
# Velocity S-wave (km/s) = 0.83658 2.89238 2.12905
# Velocity P-wave (km/s) = 3.03599 4.67440 3.94127
#
# Compressibility (1/GPa) = 0.05244347
#
# Stress axis : x y z
#
# Youngs Moduli (GPa) = 94.33709 28.54877 76.43293
#
# Poissons Ratio (x) = 0.13911 -0.02507
# Poissons Ratio (y) = 0.45969 -0.10783
# Poissons Ratio (z) = -0.03095 -0.04028
#
# Static dielectric constant tensor:
#      x y z
#    x 2.013550 0.000000 0.000000 
#    y 0.000000 1.879650 0.000000 
#    z 0.000000 0.000000 2.004130 
# 
# From -- ./inp_files/14655.got.cif
#   From: 2010.05.17/outbox.cif.g08.bks.cpg/sg54_8_cif.got.tgz:14655.got - 2010.06.03 13:09:01.
