data_PCOD9420488
_publ_section_title
;
Structure prediction by ZEFSAII (Michael W. Deem and Ramdas Pophale) SiO2 
 PCOD9420488
Probable space group: P C C A
;
_chemical_formula_sum "Si O2"
_cell_formula_units_Z 60
_cell_length_a 19.219316
_cell_length_b 19.796440
_cell_length_c 5.754047
_cell_angle_alpha 90.000000
_cell_angle_beta 90.000000
_cell_angle_gamma 90.000000
_cell_volume 2189.265486
_symmetry_space_group_name_H-M "P C C A"
_symmetry_group_IT_number 54
_symmetry_cell_setting 'orthorhombic'
loop_
_space_group_symop_operation_xyz
x,y,z
1/2-x,-y,z
1/2+x,-y,1/2-z
-x,y,1/2-z
-x,-y,-z
1/2+x,y,-z
1/2-x,y,1/2+z
x,-y,1/2+z
loop_
_atom_site_type_symbol
_atom_site_label
_atom_site_fract_x
_atom_site_fract_y
_atom_site_fract_z
Si Si1 0.917911 0.310609 0.238644
Si Si2 0.220778 0.626333 0.271090
Si Si3 0.084792 0.468446 0.256015
Si Si4 0.280854 0.790968 0.779330
Si Si5 0.082053 0.319557 0.762809
Si Si6 0.072045 0.155057 0.634713
Si Si7 0.386458 0.001790 0.130172
Si Si8 0.500000 0.892044 0.250000
O O1 0.894526 0.389072 0.238653
O O2 0.899866 0.283841 0.492768
O O3 0.000000 0.312822 0.250000
O O4 0.900520 0.283871 0.982959
O O5 0.249252 0.601610 0.521965
O O6 0.231302 0.708856 0.274816
O O7 0.137222 0.620426 0.263855
O O8 0.105937 0.500080 0.505890
O O9 0.000000 0.470646 0.250000
O O10 0.245029 0.813640 0.534839
O O11 0.357297 0.822096 0.747009
O O12 0.000000 0.338589 0.750000
O O13 0.000000 0.180559 0.750000
O O14 0.054251 0.160895 0.364020
O O15 0.074499 0.073430 0.638835
O O16 0.445173 0.943107 0.128229
O O17 0.348538 0.997463 0.380120
#
# Coordination Sequence:
#
# PCOD9420488 Si02
#       8
#     8   8   8   8   8   8   8   4
#     4   9  17  28  44  75 110 144 177 223 285 324
#     4  10  21  41  61  78 105 146 186 218 275 342
#     4   9  15  23  37  60 101 151 186 208 250 328
#     4  10  25  43  59  80 117 155 178 223 290 348
#     4  10  19  32  55  80 110 136 173 235 290 321
#     4  11  20  34  62  88 112 143 197 232 267 319
#     4  10  17  30  50  84 109 140 175 229 266 307
#     4  10  18  32  54  92 112 142 184 236 270 312
#
# _framework density 27.406452999999999
#
# number of rings (size 3 to 8) (size 9 to 14) (size 15 to 20)
#    0.000    2.133    2.000    2.400    1.867    3.733 
#    0.000    0.000    4.400    9.600    0.000    0.000 
#    0.000   37.333    0.000    0.000    0.000    0.000 
#
# Total GULP energy -334540.497712 kJ/mol
# GULP energy per Si atom -5575.674962 kJ/mol
# Density = 2.734407 g / cm^3
# Si number density = 27.406453 Si / 1000 Ang^3
#
#
#
# Elastic Constant Matrix: (Units=GPa)
#
#
# Indices 1 2 3 4 5 6 
#
# 1 106.0872 20.5258 54.0348 0.0000 0.0000 0.0000
# 2 20.5258 65.2581 27.7859 0.0000 0.0000 0.0000
# 3 54.0348 27.7859 301.1774 0.0000 0.0000 0.0000
# 4 0.0000 0.0000 0.0000 13.6648 0.0000 0.0000
# 5 0.0000 0.0000 0.0000 0.0000 45.1128 0.0000
# 6 0.0000 0.0000 0.0000 0.0000 0.0000 -4.6699
#
#
#
# Elastic Compliance Matrix: (Units=1/GPa)
#
#
# Indices 1 2 3 4 5 6 
#
# 1 0.010806 -0.002679 -0.001692 0.000000 0.000000 0.000000
# 2 -0.002679 0.016614 -0.001052 0.000000 0.000000 0.000000
# 3 -0.001692 -0.001052 0.003721 0.000000 0.000000 0.000000
# 4 0.000000 0.000000 0.000000 0.073181 0.000000 0.000000
# 5 0.000000 0.000000 0.000000 0.000000 0.022167 0.000000
# 6 0.000000 0.000000 0.000000 0.000000 0.000000 -0.214138
#
#
# Mechanical properties :
#
#
# Convention : Reuss Voigt Hill
#
# Bulk Modulus (GPa) = 49.26989 75.24618 62.25804
# Shear Modulus (GPa) = -71.38890 35.49995 -17.94447
#
# Velocity S-wave (km/s) = -5.10928 3.60295 -2.56159
# Velocity P-wave (km/s) = 4.09754 6.69504 3.74391
#
# Compressibility (1/GPa) = 0.02029637
#
# Stress axis : x y z
#
# Youngs Moduli (GPa) = 92.54056 60.18914 268.75407
#
# Poissons Ratio (x) = 0.16122 0.45463
# Poissons Ratio (y) = 0.24788 0.28279
# Poissons Ratio (z) = 0.15654 0.06333
#
# Static dielectric constant tensor:
#      x y z
#    x 2.184000 0.000000 0.000000 
#    y 0.000000 2.164970 0.000000 
#    z 0.000000 0.000000 2.403280 
# 
# From -- ./inp_files/1446.got.cif
#   From: 2010.05.17/outbox.cif.g08.bks.cpg/sg54_1_cif.got.tgz:1446.got - 2010.06.03 13:09:01.
