data_PCOD9420672
_publ_section_title
;
Structure prediction by ZEFSAII (Michael W. Deem and Ramdas Pophale) SiO2 
 PCOD9420672
Probable space group: P C C A
;
_chemical_formula_sum "Si O2"
_cell_formula_units_Z 60
_cell_length_a 14.393078
_cell_length_b 15.595622
_cell_length_c 14.706596
_cell_angle_alpha 90.000000
_cell_angle_beta 90.000000
_cell_angle_gamma 90.000000
_cell_volume 3301.174955
_symmetry_space_group_name_H-M "P C C A"
_symmetry_group_IT_number 54
_symmetry_cell_setting 'orthorhombic'
loop_
_space_group_symop_operation_xyz
x,y,z
1/2-x,-y,z
1/2+x,-y,1/2-z
-x,y,1/2-z
-x,-y,-z
1/2+x,y,-z
1/2-x,y,1/2+z
x,-y,1/2+z
loop_
_atom_site_type_symbol
_atom_site_label
_atom_site_fract_x
_atom_site_fract_y
_atom_site_fract_z
Si Si1 0.679566 0.201350 0.744768
Si Si2 0.000000 0.088244 0.250000
Si Si3 0.733332 0.718615 0.062676
Si Si4 0.836443 0.559965 0.016592
Si Si5 0.412737 0.580281 0.375935
Si Si6 0.742490 0.131860 0.421919
Si Si7 0.879221 0.614128 0.820051
Si Si8 0.414057 0.988528 0.068170
O O1 0.585688 0.149636 0.721185
O O2 0.732635 0.225111 0.653243
O O3 0.740425 0.148089 0.815448
O O4 0.653217 0.289947 0.796166
O O5 0.040418 0.033401 0.166152
O O6 0.820531 0.654600 0.055435
O O7 0.645071 0.654608 0.073215
O O8 0.728292 0.780661 0.976874
O O9 0.750000 0.500000 0.043612
O O10 0.917280 0.505819 0.064415
O O11 0.833704 0.571373 0.908122
O O12 0.368447 0.564421 0.275709
O O13 0.513592 0.615834 0.350984
O O14 0.839441 0.087258 0.454141
O O15 0.653589 0.070890 0.433006
O O16 0.500000 0.000000 0.000000
#
# Coordination Sequence:
#
# PCOD9420672 Si02
#       8
#     8   4   8   8   8   8   8   8
#     4  10  19  33  58  80 109 148 187 234 280 339
#     4  10  20  36  56  86 108 142 192 228 278 348
#     4  10  19  35  54  79 110 141 187 226 280 335
#     4  10  20  33  51  80 110 146 184 229 278 328
#     4   9  20  33  53  79 105 148 188 231 274 330
#     4  10  21  38  57  87 115 148 189 235 289 342
#     4  10  18  34  55  76 107 146 190 233 276 327
#     4  10  22  38  61  85 116 149 186 234 288 348
#
# _framework density 18.175346999999999
#
# number of rings (size 3 to 8) (size 9 to 14) (size 15 to 20)
#    0.000    2.133    1.333    2.800    0.000    4.800 
#    0.000    2.667    0.000    0.000    0.000    0.000 
#    0.000    0.000    0.000    0.000    0.000    0.000 
#
# Total GULP energy -334216.120420 kJ/mol
# GULP energy per Si atom -5570.268674 kJ/mol
# Density = 1.813398 g / cm^3
# Si number density = 18.175347 Si / 1000 Ang^3
#
#
#
# Elastic Constant Matrix: (Units=GPa)
#
#
# Indices 1 2 3 4 5 6 
#
# 1 74.6625 29.2572 44.5459 0.0000 0.0000 0.0000
# 2 29.2572 67.4779 35.7577 0.0000 0.0000 0.0000
# 3 44.5459 35.7577 82.8159 0.0000 0.0000 0.0000
# 4 0.0000 0.0000 0.0000 31.1279 0.0000 0.0000
# 5 0.0000 0.0000 0.0000 0.0000 32.2018 0.0000
# 6 0.0000 0.0000 0.0000 0.0000 0.0000 17.2301
#
#
#
# Elastic Compliance Matrix: (Units=1/GPa)
#
#
# Indices 1 2 3 4 5 6 
#
# 1 0.020504 -0.003949 -0.009324 0.000000 0.000000 0.000000
# 2 -0.003949 0.019977 -0.006501 0.000000 0.000000 0.000000
# 3 -0.009324 -0.006501 0.019897 0.000000 0.000000 0.000000
# 4 0.000000 0.000000 0.000000 0.032126 0.000000 0.000000
# 5 0.000000 0.000000 0.000000 0.000000 0.031054 0.000000
# 6 0.000000 0.000000 0.000000 0.000000 0.000000 0.058038
#
#
# Mechanical properties :
#
#
# Convention : Reuss Voigt Hill
#
# Bulk Modulus (GPa) = 48.00840 49.34199 48.67520
# Shear Modulus (GPa) = 21.92135 23.80498 22.86317
#
# Velocity S-wave (km/s) = 3.47667 3.62296 3.55057
# Velocity P-wave (km/s) = 6.52592 6.68639 6.60664
#
# Compressibility (1/GPa) = 0.02082969
#
# Stress axis : x y z
#
# Youngs Moduli (GPa) = 48.77097 50.05703 50.25844
#
# Poissons Ratio (x) = 0.19770 0.46859
# Poissons Ratio (y) = 0.19262 0.32674
# Poissons Ratio (z) = 0.45472 0.32544
#
# Static dielectric constant tensor:
#      x y z
#    x 1.655480 0.000000 0.000000 
#    y 0.000000 1.639680 0.000000 
#    z 0.000000 0.000000 1.639070 
# 
# From -- ./inp_files/13617.got.cif
#   From: 2010.05.17/outbox.cif.g08.bks.cpg/sg54_7_cif.got.tgz:13617.got - 2010.06.03 13:09:01.
