data_PCOD9420337
_publ_section_title
;
Structure prediction by ZEFSAII (Michael W. Deem and Ramdas Pophale) SiO2 
 PCOD9420337
Probable space group: P C C A
;
_chemical_formula_sum "Si O2"
_cell_formula_units_Z 52
_cell_length_a 15.581660
_cell_length_b 9.676765
_cell_length_c 18.091692
_cell_angle_alpha 90.000000
_cell_angle_beta 90.000000
_cell_angle_gamma 90.000000
_cell_volume 2727.866444
_symmetry_space_group_name_H-M "P C C A"
_symmetry_group_IT_number 54
_symmetry_cell_setting 'orthorhombic'
loop_
_space_group_symop_operation_xyz
x,y,z
1/2-x,-y,z
1/2+x,-y,1/2-z
-x,y,1/2-z
-x,-y,-z
1/2+x,y,-z
1/2-x,y,1/2+z
x,-y,1/2+z
loop_
_atom_site_type_symbol
_atom_site_label
_atom_site_fract_x
_atom_site_fract_y
_atom_site_fract_z
Si Si1 0.750000 0.000000 0.051261
Si Si2 0.837655 0.568184 0.027643
Si Si3 0.617233 0.889227 0.941322
Si Si4 0.734754 0.835413 0.811155
Si Si5 0.761842 0.241523 0.644855
Si Si6 0.600902 0.788893 0.408409
Si Si7 0.423403 0.292796 0.927947
O O1 0.700874 0.102492 0.105979
O O2 0.799810 0.095368 0.994021
O O3 0.750000 0.500000 0.995138
O O4 0.871491 0.690697 0.976327
O O5 0.808681 0.632857 0.105455
O O6 0.904094 0.446303 0.043476
O O7 0.652570 0.823279 0.865735
O O8 0.589500 0.047567 0.927578
O O9 0.561166 0.796958 0.996404
O O10 0.725867 0.766951 0.731646
O O11 0.820220 0.782018 0.851633
O O12 0.750000 0.000000 0.800829
O O13 0.661156 0.248691 0.619511
O O14 0.509638 0.730399 0.381970
#
# Coordination Sequence:
#
# PCOD9420337 Si02
#       7
#     4   8   8   8   8   8   8
#     4  10  14  30  56  78 102 136 182 228 266 306
#     4  10  20  37  56  79 106 149 196 227 266 331
#     4  10  18  35  56  87 106 141 188 228 271 327
#     4  10  19  32  57  84 110 138 187 230 275 330
#     4  10  19  33  54  79 111 147 184 228 274 332
#     4  11  19  35  58  84 113 142 179 240 279 326
#     4  10  22  34  55  84 115 145 184 227 283 334
#
# _framework density 19.062515999999999
#
# number of rings (size 3 to 8) (size 9 to 14) (size 15 to 20)
#    0.000    1.846    4.615    2.769    0.000    0.615 
#    0.000    6.923    0.000    4.615    0.000    0.000 
#    0.000    0.000    0.000    0.000    0.000    0.000 
#
# Total GULP energy -289606.819118 kJ/mol
# GULP energy per Si atom -5569.361906 kJ/mol
# Density = 1.901913 g / cm^3
# Si number density = 19.062516 Si / 1000 Ang^3
#
#
#
# Elastic Constant Matrix: (Units=GPa)
#
#
# Indices 1 2 3 4 5 6 
#
# 1 45.4431 4.7633 24.7501 0.0000 0.0000 0.0000
# 2 4.7633 58.3722 32.8599 0.0000 0.0000 0.0000
# 3 24.7501 32.8599 111.6188 0.0000 0.0000 0.0000
# 4 0.0000 0.0000 0.0000 16.8224 0.0000 0.0000
# 5 0.0000 0.0000 0.0000 0.0000 11.2689 0.0000
# 6 0.0000 0.0000 0.0000 0.0000 0.0000 21.1767
#
#
#
# Elastic Compliance Matrix: (Units=1/GPa)
#
#
# Indices 1 2 3 4 5 6 
#
# 1 0.025110 0.001301 -0.005951 0.000000 0.000000 0.000000
# 2 0.001301 0.020602 -0.006354 0.000000 0.000000 0.000000
# 3 -0.005951 -0.006354 0.012149 0.000000 0.000000 0.000000
# 4 0.000000 0.000000 0.000000 0.059445 0.000000 0.000000
# 5 0.000000 0.000000 0.000000 0.000000 0.088740 0.000000
# 6 0.000000 0.000000 0.000000 0.000000 0.000000 0.047222
#
#
# Mechanical properties :
#
#
# Convention : Reuss Voigt Hill
#
# Bulk Modulus (GPa) = 27.89074 37.79786 32.84430
# Shear Modulus (GPa) = 17.40791 20.05764 18.73278
#
# Velocity S-wave (km/s) = 3.02520 3.24729 3.13821
# Velocity P-wave (km/s) = 5.18318 5.82505 5.51347
#
# Compressibility (1/GPa) = 0.03585420
#
# Stress axis : x y z
#
# Youngs Moduli (GPa) = 39.82440 48.53908 82.31103
#
# Poissons Ratio (x) = -0.06314 0.48982
# Poissons Ratio (y) = -0.05181 0.52297
# Poissons Ratio (z) = 0.23699 0.30840
#
# Static dielectric constant tensor:
#      x y z
#    x 1.724340 0.000000 0.000000 
#    y 0.000000 1.728580 0.000000 
#    z 0.000000 0.000000 1.640780 
# 
# From -- ./inp_files/18155.got.cif
#   From: 2010.05.17/outbox.cif.g08.bks.cpg/sg54_10_cif.got.tgz:18155.got - 2010.06.03 13:09:01.
