data_PCOD9420117
_publ_section_title
;
Structure prediction by ZEFSAII (Michael W. Deem and Ramdas Pophale) SiO2 
 PCOD9420117
Probable space group: P M N A
;
_chemical_formula_sum "Si O2"
_cell_formula_units_Z 56
_cell_length_a 9.000000
_cell_length_b 15.000000
_cell_length_c 21.000000
_cell_angle_alpha 90.000000
_cell_angle_beta 90.000000
_cell_angle_gamma 90.000000
_cell_volume 2835.000000
_symmetry_space_group_name_H-M "P M N A"
_symmetry_group_IT_number 53
_symmetry_cell_setting 'orthorhombic'
loop_
_space_group_symop_operation_xyz
x,y,z
1/2-x,-y,1/2+z
x,-y,-z
1/2-x,y,1/2-z
-x,-y,-z
1/2+x,y,1/2-z
-x,y,z
1/2+x,-y,1/2+z
loop_
_atom_site_type_symbol
_atom_site_label
_atom_site_fract_x
_atom_site_fract_y
_atom_site_fract_z
Si Si1 0.176742 0.510062 0.316263
Si Si2 0.177316 0.582100 0.452747
Si Si3 0.822752 0.701578 0.682461
Si Si4 0.320125 0.163656 0.415725
Si Si5 0.178318 0.762835 0.045261
Si Si6 0.677798 0.188565 0.684903
Si Si7 0.176630 0.022024 0.185460
O O1 0.250000 0.539000 0.250000
O O2 0.226230 0.558346 0.380801
O O3 0.204847 0.404276 0.325097
O O4 0.000000 0.521806 0.310686
O O5 0.201224 0.500000 0.500000
O O6 0.266136 0.666936 0.476725
O O7 0.000000 0.600206 0.451946
O O8 0.750000 0.727635 0.750000
O O9 0.750148 0.756504 0.625274
O O10 0.000000 0.715983 0.684191
O O11 0.500000 0.171123 0.413677
O O12 0.275316 0.168878 0.489721
O O13 0.276453 0.074957 0.377364
O O14 0.234609 0.775250 0.117329
O O15 0.000000 0.766828 0.049146
O O16 0.750000 0.223708 0.750000
O O17 0.500000 0.201199 0.689075
O O18 0.708950 0.082676 0.681242
O O19 0.250000 0.057432 0.250000
O O20 0.000000 0.031912 0.191766
#
# Coordination Sequence:
#
# PCOD9420117 Si02
#       7
#     8   8   8   8   8   8   8
#     4   9  19  34  52  74  99 130 169 213 259 309
#     4  10  21  38  57  76 102 137 176 215 259 313
#     4  10  19  32  51  75 105 140 175 213 259 309
#     4  10  20  33  50  76 108 139 174 214 256 307
#     4  10  22  37  54  79 107 136 173 217 265 312
#     4   9  19  37  58  79 105 138 176 218 263 311
#     4   9  18  33  54  78 105 139 175 211 253 303
#
# _framework density 19.753086
#
# number of rings (size 3 to 8) (size 9 to 14) (size 15 to 20)
#    0.000    2.429    0.000    1.714    0.000    6.571 
#    0.000    5.714    0.000    0.000    0.000    6.000 
#    0.000    0.000    0.000    0.000    0.000    0.000 
#
# Total GULP energy -312445.009401 kJ/mol
# GULP energy per Si atom -5579.375168 kJ/mol
# Density = 1.970813 g / cm^3
# Si number density = 19.753086 Si / 1000 Ang^3
#
#
#
# Elastic Constant Matrix: (Units=GPa)
#
#
# Indices 1 2 3 4 5 6 
#
# 1 -4.6629 9.4531 14.6942 0.0000 0.0000 0.0000
# 2 9.4531 24.0529 14.3644 0.0000 0.0000 0.0000
# 3 14.6942 14.3644 122.3178 0.0000 0.0000 0.0000
# 4 0.0000 0.0000 0.0000 24.3366 0.0000 0.0000
# 5 0.0000 0.0000 0.0000 0.0000 27.8718 0.0000
# 6 0.0000 0.0000 0.0000 0.0000 0.0000 14.9792
#
#
#
# Elastic Compliance Matrix: (Units=1/GPa)
#
#
# Indices 1 2 3 4 5 6 
#
# 1 -0.109914 0.037976 0.008744 0.000000 0.000000 0.000000
# 2 0.037976 0.031590 -0.008272 0.000000 0.000000 0.000000
# 3 0.008744 -0.008272 0.008096 0.000000 0.000000 0.000000
# 4 0.000000 0.000000 0.000000 0.041090 0.000000 0.000000
# 5 0.000000 0.000000 0.000000 0.000000 0.035879 0.000000
# 6 0.000000 0.000000 0.000000 0.000000 0.000000 0.066759
#
#
# Mechanical properties :
#
#
# Convention : Reuss Voigt Hill
#
# Bulk Modulus (GPa) = 149.95986 24.30346 87.13166
# Shear Modulus (GPa) = -4261.84954 20.31725 -2120.76615
#
# Velocity S-wave (km/s) = -46.49995 3.21060 -32.80196
# Velocity P-wave (km/s) = 52.98029 5.10630 37.28832
#
# Compressibility (1/GPa) = 0.00666845
#
# Stress axis : x y z
#
# Youngs Moduli (GPa) = -9.09799 31.65544 123.51248
#
# Poissons Ratio (x) = -1.20213 -1.08005
# Poissons Ratio (y) = 0.34550 1.02168
# Poissons Ratio (z) = 0.07956 0.26185
#
# Static dielectric constant tensor:
#      x y z
#    x 1.663030 0.000000 0.000000 
#    y 0.000000 1.710350 0.000000 
#    z 0.000000 0.000000 1.707830 
# 
# From -- ./inp_files/30809.got.cif
#   From: 2010.05.17/outbox.ucp.g08.bks.cvg/sg53_16_cif.got.tgz:30809.got - 2010.06.11 16:32:34.
