data_PCOD9420219
_publ_section_title
;
Structure prediction by ZEFSAII (Michael W. Deem and Ramdas Pophale) SiO2 
 PCOD9420219
Probable space group: P M N A
;
_chemical_formula_sum "Si O2"
_cell_formula_units_Z 64
_cell_length_a 21.000000
_cell_length_b 18.000000
_cell_length_c 9.000000
_cell_angle_alpha 90.000000
_cell_angle_beta 90.000000
_cell_angle_gamma 90.000000
_cell_volume 3402.000000
_symmetry_space_group_name_H-M "P M N A"
_symmetry_group_IT_number 53
_symmetry_cell_setting 'orthorhombic'
loop_
_space_group_symop_operation_xyz
x,y,z
1/2-x,-y,1/2+z
x,-y,-z
1/2-x,y,1/2-z
-x,-y,-z
1/2+x,y,1/2-z
-x,y,z
1/2+x,-y,1/2+z
loop_
_atom_site_type_symbol
_atom_site_label
_atom_site_fract_x
_atom_site_fract_y
_atom_site_fract_z
Si Si1 0.427020 0.042672 0.735131
Si Si2 0.927417 0.319229 0.873723
Si Si3 0.424533 0.195024 0.883534
Si Si4 0.425391 0.511181 0.321862
Si Si5 0.574785 0.892743 0.599584
Si Si6 0.309183 0.442391 0.133025
Si Si7 0.686389 0.273773 0.068481
Si Si8 0.829959 0.246140 0.084083
O O1 0.500000 0.032496 0.782526
O O2 0.403455 0.111215 0.836054
O O3 0.427235 0.074065 0.567000
O O4 0.402790 0.958089 0.713530
O O5 0.923746 0.250495 0.758815
O O6 0.918861 0.399661 0.797942
O O7 0.000000 0.318923 0.936856
O O8 0.872665 0.305420 0.994580
O O9 0.500000 0.193077 0.931988
O O10 0.372337 0.230340 0.993184
O O11 0.415596 0.500000 0.500000
O O12 0.500000 0.490919 0.289954
O O13 0.373048 0.467274 0.224304
O O14 0.500000 0.871874 0.633226
O O15 0.625996 0.827357 0.588873
O O16 0.250000 0.439280 0.250000
O O17 0.316465 0.362698 0.051711
O O18 0.296598 0.500000 0.000000
O O19 0.757108 0.243800 0.022313
O O20 0.679034 0.265983 0.244959
#
# Coordination Sequence:
#
# PCOD9420219 Si02
#       8
#     8   8   8   8   8   8   8   8
#     4   8  15  31  58  93 121 144 194 254 294 346
#     4  10  20  36  62  91 114 148 201 255 301 359
#     4  10  20  38  61  90 123 152 199 258 308 356
#     4  10  22  39  62  92 123 154 200 259 311 370
#     4   9  16  31  62  92 115 155 200 246 298 345
#     4  12  25  43  65  87 119 163 211 255 315 378
#     4  11  26  41  55  85 124 165 197 253 303 368
#     4  11  21  38  58  79 126 164 202 244 294 368
#
# _framework density 18.812463000000001
#
# number of rings (size 3 to 8) (size 9 to 14) (size 15 to 20)
#    0.000    1.875    2.500    3.000    1.750    2.250 
#    0.000    0.625   11.000    2.250    0.000    0.000 
#    0.000    0.000    0.000    0.000    0.000    0.000 
#
# Total GULP energy -356720.068684 kJ/mol
# GULP energy per Si atom -5573.751073 kJ/mol
# Density = 1.876965 g / cm^3
# Si number density = 18.812463 Si / 1000 Ang^3
#
#
#
# Elastic Constant Matrix: (Units=GPa)
#
#
# Indices 1 2 3 4 5 6 
#
# 1 141.6527 47.2282 35.2502 0.0000 0.0000 0.0000
# 2 47.2282 119.8900 8.5426 0.0000 0.0000 0.0000
# 3 35.2502 8.5426 42.6019 0.0000 0.0000 0.0000
# 4 0.0000 0.0000 0.0000 31.0149 0.0000 0.0000
# 5 0.0000 0.0000 0.0000 0.0000 33.3288 0.0000
# 6 0.0000 0.0000 0.0000 0.0000 0.0000 25.8710
#
#
#
# Elastic Compliance Matrix: (Units=1/GPa)
#
#
# Indices 1 2 3 4 5 6 
#
# 1 0.010118 -0.003438 -0.007682 0.000000 0.000000 0.000000
# 2 -0.003438 0.009630 0.000914 0.000000 0.000000 0.000000
# 3 -0.007682 0.000914 0.029646 0.000000 0.000000 0.000000
# 4 0.000000 0.000000 0.000000 0.032243 0.000000 0.000000
# 5 0.000000 0.000000 0.000000 0.000000 0.030004 0.000000
# 6 0.000000 0.000000 0.000000 0.000000 0.000000 0.038653
#
#
# Mechanical properties :
#
#
# Convention : Reuss Voigt Hill
#
# Bulk Modulus (GPa) = 34.50529 54.02072 44.26300
# Shear Modulus (GPa) = 27.72119 32.25120 29.98620
#
# Velocity S-wave (km/s) = 3.84285 4.14497 3.99677
# Velocity P-wave (km/s) = 6.17022 7.18926 6.69914
#
# Compressibility (1/GPa) = 0.02898107
#
# Stress axis : x y z
#
# Youngs Moduli (GPa) = 98.83821 103.83909 33.73100
#
# Poissons Ratio (x) = 0.35702 0.25913
# Poissons Ratio (y) = 0.33983 -0.03082
# Poissons Ratio (z) = 0.75929 -0.09489
#
# Static dielectric constant tensor:
#      x y z
#    x 1.650760 0.000000 0.000000 
#    y 0.000000 1.726260 0.000000 
#    z 0.000000 0.000000 1.661270 
# 
# From -- ./inp_files/11221.got.cif
#   From: 2010.05.17/outbox.ucp.g08.bks.cvg/sg53_6_cif.got.tgz:11221.got - 2010.06.11 16:32:34.
