data_PCOD9420961
_publ_section_title
;
Structure prediction by ZEFSAII (Michael W. Deem and Ramdas Pophale) SiO2 
 PCOD9420961
Probable space group: P C C A
;
_chemical_formula_sum "Si O2"
_cell_formula_units_Z 40
_cell_length_a 5.215207
_cell_length_b 24.367906
_cell_length_c 16.455845
_cell_angle_alpha 90.000000
_cell_angle_beta 90.000000
_cell_angle_gamma 90.000000
_cell_volume 2091.269240
_symmetry_space_group_name_H-M "P C C A"
_symmetry_group_IT_number 54
_symmetry_cell_setting 'orthorhombic'
loop_
_space_group_symop_operation_xyz
x,y,z
1/2-x,-y,z
1/2+x,-y,1/2-z
-x,y,1/2-z
-x,-y,-z
1/2+x,y,-z
1/2-x,y,1/2+z
x,-y,1/2+z
loop_
_atom_site_type_symbol
_atom_site_label
_atom_site_fract_x
_atom_site_fract_y
_atom_site_fract_z
Si Si1 0.250457 0.845763 0.807333
Si Si2 0.728511 0.936998 0.055163
Si Si3 0.249241 0.725771 0.806679
Si Si4 0.070870 0.561197 0.469281
Si Si5 0.250234 0.395728 0.806469
O O1 0.500000 0.849414 0.750000
O O2 0.251150 0.893612 0.872950
O O3 0.252109 0.785051 0.849292
O O4 0.000000 0.849713 0.750000
O O5 0.750000 0.000000 0.085172
O O6 0.459569 0.929804 0.008825
O O7 0.500000 0.725085 0.750000
O O8 0.237248 0.665603 0.846057
O O9 0.000000 0.726962 0.750000
O O10 0.286859 0.587422 0.527926
O O11 0.197365 0.563935 0.380965
O O12 0.000000 0.500000 0.500000
O O13 0.500000 0.405403 0.750000
O O14 0.000000 0.398064 0.750000
#
# Coordination Sequence:
#
# PCOD9420961 Si02
#       5
#     8   8   8   8   8
#     4  10  19  33  54  78 103 134 176 224 268 314
#     4  10  21  36  51  71 105 143 176 218 271 322
#     4   8  16  30  50  77 106 132 167 221 269 304
#     4  10  21  38  55  77 112 143 166 214 272 303
#     4  10  19  35  59  82 104 141 187 216 251 322
#
# _framework density 19.127141000000002
#
# number of rings (size 3 to 8) (size 9 to 14) (size 15 to 20)
#    0.000    2.400    0.000    2.400    0.000    0.800 
#    0.000   10.000    0.000    0.000    0.000    0.000 
#    0.000    0.000    0.000    0.000    0.000    0.000 
#
# Total GULP energy -222698.536884 kJ/mol
# GULP energy per Si atom -5567.463422 kJ/mol
# Density = 1.908361 g / cm^3
# Si number density = 19.127141 Si / 1000 Ang^3
#
#
#
# Elastic Constant Matrix: (Units=GPa)
#
#
# Indices 1 2 3 4 5 6 
#
# 1 142.5859 16.1921 13.4516 0.0000 0.0000 0.0000
# 2 16.1921 138.2886 64.9446 0.0000 0.0000 0.0000
# 3 13.4516 64.9446 63.6973 0.0000 0.0000 0.0000
# 4 0.0000 0.0000 0.0000 -24.8836 0.0000 0.0000
# 5 0.0000 0.0000 0.0000 0.0000 20.7504 0.0000
# 6 0.0000 0.0000 0.0000 0.0000 0.0000 13.5961
#
#
#
# Elastic Compliance Matrix: (Units=1/GPa)
#
#
# Indices 1 2 3 4 5 6 
#
# 1 0.007160 -0.000246 -0.001261 0.000000 0.000000 0.000000
# 2 -0.000246 0.013883 -0.014103 0.000000 0.000000 0.000000
# 3 -0.001261 -0.014103 0.030345 0.000000 0.000000 0.000000
# 4 0.000000 0.000000 0.000000 -0.040187 0.000000 0.000000
# 5 0.000000 0.000000 0.000000 0.000000 0.048192 0.000000
# 6 0.000000 0.000000 0.000000 0.000000 0.000000 0.073551
#
#
# Mechanical properties :
#
#
# Convention : Reuss Voigt Hill
#
# Bulk Modulus (GPa) = 49.58458 59.30536 54.44497
# Shear Modulus (GPa) = 29.25899 18.55815 23.90857
#
# Velocity S-wave (km/s) = 3.91539 3.11827 3.53934
# Velocity P-wave (km/s) = 6.81325 6.63611 6.72526
#
# Compressibility (1/GPa) = 0.02016756
#
# Stress axis : x y z
#
# Youngs Moduli (GPa) = 139.66003 72.02838 32.95427
#
# Poissons Ratio (x) = 0.01773 0.04156
# Poissons Ratio (y) = 0.03437 0.46476
# Poissons Ratio (z) = 0.17614 1.01584
#
# Static dielectric constant tensor:
#      x y z
#    x 1.741400 0.000000 0.000000 
#    y 0.000000 1.756960 0.000000 
#    z 0.000000 0.000000 1.638360 
# 
# From -- ./inp_files/10841.got.cif
#   From: 2010.05.17/outbox.cif.g08.bks.cpg/sg54_6_cif.got.tgz:10841.got - 2010.06.03 13:09:01.
