data_PCOD9420675
_publ_section_title
;
Structure prediction by ZEFSAII (Michael W. Deem and Ramdas Pophale) SiO2 
 PCOD9420675
Probable space group: P C C A
;
_chemical_formula_sum "Si O2"
_cell_formula_units_Z 48
_cell_length_a 8.923177
_cell_length_b 14.739531
_cell_length_c 17.585975
_cell_angle_alpha 90.000000
_cell_angle_beta 90.000000
_cell_angle_gamma 90.000000
_cell_volume 2312.967998
_symmetry_space_group_name_H-M "P C C A"
_symmetry_group_IT_number 54
_symmetry_cell_setting 'orthorhombic'
loop_
_space_group_symop_operation_xyz
x,y,z
1/2-x,-y,z
1/2+x,-y,1/2-z
-x,y,1/2-z
-x,-y,-z
1/2+x,y,-z
1/2-x,y,1/2+z
x,-y,1/2+z
loop_
_atom_site_type_symbol
_atom_site_label
_atom_site_fract_x
_atom_site_fract_y
_atom_site_fract_z
Si Si1 0.740140 0.635797 0.111016
Si Si2 0.250000 0.500000 0.523745
Si Si3 0.250000 0.500000 0.272152
Si Si4 0.500000 0.905594 0.750000
Si Si5 0.078399 0.399522 0.640913
Si Si6 0.105384 0.201110 0.602369
Si Si7 0.250000 0.000000 0.849586
Si Si8 0.761034 0.825694 0.051283
O O1 0.659973 0.568838 0.171335
O O2 0.687885 0.736458 0.091513
O O3 0.907813 0.632807 0.144937
O O4 0.760469 0.585241 0.031309
O O5 0.110184 0.476071 0.577411
O O6 0.349885 0.440887 0.215622
O O7 0.413866 0.846184 0.685161
O O8 0.384488 0.966878 0.796476
O O9 0.154614 0.304953 0.616765
O O10 0.216724 0.165190 0.536967
O O11 0.939327 0.190678 0.564229
O O12 0.212915 0.914864 0.903285
#
# Coordination Sequence:
#
# PCOD9420675 Si02
#       8
#     8   4   4   4   8   8   4   8
#     4  10  20  36  56  81 122 156 201 259 299 365
#     4  10  18  34  56  80 110 156 200 240 304 362
#     4  10  22  32  54  82 118 160 206 244 304 362
#     4  10  24  42  68  96 126 166 206 262 326 376
#     4  10  20  34  55  83 118 160 204 249 306 367
#     4  10  22  40  66  92 126 167 206 258 318 374
#     4  10  24  42  68  94 124 164 210 258 320 384
#     4  10  22  41  64  91 123 163 211 261 312 377
#
# _framework density 20.752556999999999
#
# number of rings (size 3 to 8) (size 9 to 14) (size 15 to 20)
#    0.000    2.000    1.667    1.000    7.000    4.667 
#    0.000    1.667    7.333    0.000    0.000    0.000 
#    0.000    0.000    0.000    0.000    0.000    0.000 
#
# Total GULP energy -267547.045653 kJ/mol
# GULP energy per Si atom -5573.896784 kJ/mol
# Density = 2.070532 g / cm^3
# Si number density = 20.752557 Si / 1000 Ang^3
#
#
#
# Elastic Constant Matrix: (Units=GPa)
#
#
# Indices 1 2 3 4 5 6 
#
# 1 30.1812 17.1038 34.3477 0.0000 0.0000 0.0000
# 2 17.1038 152.1804 89.2784 0.0000 0.0000 0.0000
# 3 34.3477 89.2784 179.6208 0.0000 0.0000 0.0000
# 4 0.0000 0.0000 0.0000 30.9234 0.0000 0.0000
# 5 0.0000 0.0000 0.0000 0.0000 37.3168 0.0000
# 6 0.0000 0.0000 0.0000 0.0000 0.0000 19.1928
#
#
#
# Elastic Compliance Matrix: (Units=1/GPa)
#
#
# Indices 1 2 3 4 5 6 
#
# 1 0.042349 -0.000012 -0.008092 0.000000 0.000000 0.000000
# 2 -0.000012 0.009276 -0.004608 0.000000 0.000000 0.000000
# 3 -0.008092 -0.004608 0.009405 0.000000 0.000000 0.000000
# 4 0.000000 0.000000 0.000000 0.032338 0.000000 0.000000
# 5 0.000000 0.000000 0.000000 0.000000 0.026798 0.000000
# 6 0.000000 0.000000 0.000000 0.000000 0.000000 0.052103
#
#
# Mechanical properties :
#
#
# Convention : Reuss Voigt Hill
#
# Bulk Modulus (GPa) = 28.08577 71.49355 49.78966
# Shear Modulus (GPa) = 23.85926 32.23677 28.04802
#
# Velocity S-wave (km/s) = 3.39440 3.94558 3.68033
# Velocity P-wave (km/s) = 5.37826 7.43519 6.48875
#
# Compressibility (1/GPa) = 0.03560522
#
# Stress axis : x y z
#
# Youngs Moduli (GPa) = 23.61315 107.80563 106.32562
#
# Poissons Ratio (x) = 0.00134 0.86038
# Poissons Ratio (y) = 0.00029 0.48996
# Poissons Ratio (z) = 0.19108 0.49678
#
# Static dielectric constant tensor:
#      x y z
#    x 1.887240 0.000000 0.000000 
#    y 0.000000 1.798260 0.000000 
#    z 0.000000 0.000000 1.773200 
# 
# From -- ./inp_files/16712.got.cif
#   From: 2010.05.17/outbox.cif.g08.bks.cpg/sg54_9_cif.got.tgz:16712.got - 2010.06.03 13:09:01.
