data_PCOD9420184
_publ_section_title
;
Structure prediction by ZEFSAII (Michael W. Deem and Ramdas Pophale) SiO2 
 PCOD9420184
Probable space group: P M N A
;
_chemical_formula_sum "Si O2"
_cell_formula_units_Z 56
_cell_length_a 21.000000
_cell_length_b 15.000000
_cell_length_c 9.000000
_cell_angle_alpha 90.000000
_cell_angle_beta 90.000000
_cell_angle_gamma 90.000000
_cell_volume 2835.000000
_symmetry_space_group_name_H-M "P M N A"
_symmetry_group_IT_number 53
_symmetry_cell_setting 'orthorhombic'
loop_
_space_group_symop_operation_xyz
x,y,z
1/2-x,-y,1/2+z
x,-y,-z
1/2-x,y,1/2-z
-x,-y,-z
1/2+x,y,1/2-z
-x,y,z
1/2+x,-y,1/2+z
loop_
_atom_site_type_symbol
_atom_site_label
_atom_site_fract_x
_atom_site_fract_y
_atom_site_fract_z
Si Si1 0.893643 0.337580 0.980199
Si Si2 0.203074 0.916885 0.104897
Si Si3 0.929701 0.360401 0.302705
Si Si4 0.764994 0.259506 0.073234
Si Si5 0.574742 0.841696 0.294416
Si Si6 0.923460 0.444774 0.703964
Si Si7 0.371962 0.271671 0.961550
O O1 0.932596 0.351728 0.128032
O O2 0.821018 0.327344 0.032935
O O3 0.915852 0.247314 0.895908
O O4 0.903529 0.418348 0.868986
O O5 0.250000 0.911903 0.250000
O O6 0.128882 0.911823 0.156202
O O7 0.212080 0.834273 0.993005
O O8 0.217244 0.000000 0.000000
O O9 0.899461 0.456914 0.334569
O O10 0.894100 0.275892 0.368905
O O11 0.000000 0.359727 0.368457
O O12 0.750000 0.258898 0.250000
O O13 0.703194 0.276716 0.972080
O O14 0.500000 0.867021 0.296559
O O15 0.597872 0.807504 0.132366
O O16 0.898174 0.363067 0.607711
O O17 0.000000 0.447569 0.696127
#
# Coordination Sequence:
#
# PCOD9420184 Si02
#       7
#     8   8   8   8   8   8   8
#     4  10  20  34  56  79 117 155 202 252 298 352
#     4  11  23  42  69  96 122 159 191 230 291 362
#     4  11  20  33  54  80 113 155 202 255 308 349
#     4  11  22  40  59  87 115 153 202 248 289 361
#     4  10  21  38  63  94 122 156 198 241 296 352
#     4  10  21  35  52  80 113 154 203 252 307 362
#     4  11  20  36  57  80 119 153 201 249 294 350
#
# _framework density 19.753086
#
# number of rings (size 3 to 8) (size 9 to 14) (size 15 to 20)
#    0.000    1.429    2.857    4.714    0.000    2.571 
#    0.000    4.286    0.000    0.429    0.000    0.000 
#    0.000    0.000    0.000    0.000    0.000    0.000 
#
# Total GULP energy -312042.144298 kJ/mol
# GULP energy per Si atom -5572.181148 kJ/mol
# Density = 1.970813 g / cm^3
# Si number density = 19.753086 Si / 1000 Ang^3
#
#
#
# Elastic Constant Matrix: (Units=GPa)
#
#
# Indices 1 2 3 4 5 6 
#
# 1 130.8848 5.6363 21.1179 0.0000 0.0000 0.0000
# 2 5.6363 18.9455 5.8342 0.0000 0.0000 0.0000
# 3 21.1179 5.8342 89.5267 0.0000 0.0000 0.0000
# 4 0.0000 0.0000 0.0000 12.4107 0.0000 0.0000
# 5 0.0000 0.0000 0.0000 0.0000 28.1630 0.0000
# 6 0.0000 0.0000 0.0000 0.0000 0.0000 10.0621
#
#
#
# Elastic Compliance Matrix: (Units=1/GPa)
#
#
# Indices 1 2 3 4 5 6 
#
# 1 0.008005 -0.001837 -0.001768 0.000000 0.000000 0.000000
# 2 -0.001837 0.054285 -0.003104 0.000000 0.000000 0.000000
# 3 -0.001768 -0.003104 0.011789 0.000000 0.000000 0.000000
# 4 0.000000 0.000000 0.000000 0.080576 0.000000 0.000000
# 5 0.000000 0.000000 0.000000 0.000000 0.035508 0.000000
# 6 0.000000 0.000000 0.000000 0.000000 0.000000 0.099382
#
#
# Mechanical properties :
#
#
# Convention : Reuss Voigt Hill
#
# Bulk Modulus (GPa) = 16.48529 33.83708 25.16119
# Shear Modulus (GPa) = 15.47104 23.91174 19.69139
#
# Velocity S-wave (km/s) = 2.80165 3.48304 3.16076
# Velocity P-wave (km/s) = 4.33929 5.77431 5.10745
#
# Compressibility (1/GPa) = 0.06066015
#
# Stress axis : x y z
#
# Youngs Moduli (GPa) = 124.92583 18.42116 84.82260
#
# Poissons Ratio (x) = 0.03384 0.15001
# Poissons Ratio (y) = 0.22947 0.26332
# Poissons Ratio (z) = 0.22093 0.05719
#
# Static dielectric constant tensor:
#      x y z
#    x 1.703850 0.000000 0.000000 
#    y 0.000000 1.723040 0.000000 
#    z 0.000000 0.000000 1.878660 
# 
# From -- ./inp_files/11056.got.cif
#   From: 2010.05.17/outbox.ucp.g08.bks.cvg/sg53_6_cif.got.tgz:11056.got - 2010.06.11 16:32:34.
