data_PCOD9420983
_publ_section_title
;
Structure prediction by ZEFSAII (Michael W. Deem and Ramdas Pophale) SiO2 
 PCOD9420983
Probable space group: P C C A
;
_chemical_formula_sum "Si O2"
_cell_formula_units_Z 48
_cell_length_a 5.260980
_cell_length_b 24.578226
_cell_length_c 16.734968
_cell_angle_alpha 90.000000
_cell_angle_beta 90.000000
_cell_angle_gamma 90.000000
_cell_volume 2163.924332
_symmetry_space_group_name_H-M "P C C A"
_symmetry_group_IT_number 54
_symmetry_cell_setting 'orthorhombic'
loop_
_space_group_symop_operation_xyz
x,y,z
1/2-x,-y,z
1/2+x,-y,1/2-z
-x,y,1/2-z
-x,-y,-z
1/2+x,y,-z
1/2-x,y,1/2+z
x,-y,1/2+z
loop_
_atom_site_type_symbol
_atom_site_label
_atom_site_fract_x
_atom_site_fract_y
_atom_site_fract_z
Si Si1 0.061434 0.355819 0.049957
Si Si2 0.248231 0.817440 0.273444
Si Si3 0.684314 0.055629 0.051332
Si Si4 0.245021 0.820252 0.447405
Si Si5 0.497655 0.536698 0.156322
Si Si6 0.251544 0.700224 0.204152
O O1 0.044722 0.413710 0.095613
O O2 0.188715 0.315601 0.114340
O O3 0.269579 0.349584 0.979008
O O4 0.500000 0.848721 0.250000
O O5 0.248200 0.791981 0.361896
O O6 0.244131 0.765410 0.214314
O O7 0.000000 0.850104 0.250000
O O8 0.732977 0.116366 0.081994
O O9 0.750000 0.000000 0.097926
O O10 0.393981 0.053541 0.020823
O O11 0.496573 0.810452 0.499193
O O12 0.250000 0.500000 0.147131
O O13 0.500000 0.554153 0.250000
O O14 0.750000 0.500000 0.141291
O O15 0.500000 0.680397 0.250000
O O16 0.000000 0.679006 0.250000
#
# Coordination Sequence:
#
# PCOD9420983 Si02
#       6
#     8   8   8   8   8   8
#     4  12  25  40  63  93 122 152 193 245 287 325
#     4  10  21  39  58  79 111 154 190 233 298 356
#     4   8  14  25  44  73 108 142 178 229 289 344
#     4  10  19  33  56  85 111 142 195 248 288 342
#     4  10  22  40  63  90 122 162 197 225 273 344
#     4  10  22  43  63  82 114 158 198 235 292 358
#
# _framework density 22.181920000000002
#
# number of rings (size 3 to 8) (size 9 to 14) (size 15 to 20)
#    0.000    2.000    0.000    3.500    0.000    4.000 
#    0.000   20.000    0.000    1.000    0.000    0.000 
#    0.000    0.000    0.000    0.000    0.000    0.000 
#
# Total GULP energy -267546.462765 kJ/mol
# GULP energy per Si atom -5573.884641 kJ/mol
# Density = 2.213143 g / cm^3
# Si number density = 22.181920 Si / 1000 Ang^3
#
#
#
# Elastic Constant Matrix: (Units=GPa)
#
#
# Indices 1 2 3 4 5 6 
#
# 1 198.5469 -3.0030 35.4746 0.0000 0.0000 0.0000
# 2 -3.0030 43.5852 -4.0830 0.0000 0.0000 0.0000
# 3 35.4746 -4.0830 77.4720 0.0000 0.0000 0.0000
# 4 0.0000 0.0000 0.0000 4.1563 0.0000 0.0000
# 5 0.0000 0.0000 0.0000 0.0000 76.5025 0.0000
# 6 0.0000 0.0000 0.0000 0.0000 0.0000 -2.7158
#
#
#
# Elastic Compliance Matrix: (Units=1/GPa)
#
#
# Indices 1 2 3 4 5 6 
#
# 1 0.005486 0.000143 -0.002505 0.000000 0.000000 0.000000
# 2 0.000143 0.023061 0.001150 0.000000 0.000000 0.000000
# 3 -0.002505 0.001150 0.014115 0.000000 0.000000 0.000000
# 4 0.000000 0.000000 0.000000 0.240599 0.000000 0.000000
# 5 0.000000 0.000000 0.000000 0.000000 0.013071 0.000000
# 6 0.000000 0.000000 0.000000 0.000000 0.000000 -0.368217
#
#
# Mechanical properties :
#
#
# Convention : Reuss Voigt Hill
#
# Bulk Modulus (GPa) = 24.85107 41.82016 33.33561
# Shear Modulus (GPa) = -89.21021 35.00297 -27.10362
#
# Velocity S-wave (km/s) = -6.34861 3.97671 -3.49933
# Velocity P-wave (km/s) = 6.52014 6.32296 1.12525
#
# Compressibility (1/GPa) = 0.04023971
#
# Stress axis : x y z
#
# Youngs Moduli (GPa) = 182.27340 43.36301 70.84491
#
# Poissons Ratio (x) = -0.00622 0.17744
# Poissons Ratio (y) = -0.02613 -0.08145
# Poissons Ratio (z) = 0.45652 -0.04986
#
# Static dielectric constant tensor:
#      x y z
#    x 1.941190 0.000000 0.000000 
#    y 0.000000 1.880540 0.000000 
#    z 0.000000 0.000000 1.939470 
# 
# From -- ./inp_files/10925.got.cif
#   From: 2010.05.17/outbox.cif.g08.bks.cpg/sg54_6_cif.got.tgz:10925.got - 2010.06.03 13:09:01.
