data_PCOD9420701
_publ_section_title
;
Structure prediction by ZEFSAII (Michael W. Deem and Ramdas Pophale) SiO2 
 PCOD9420701
Probable space group: P C C A
;
_chemical_formula_sum "Si O2"
_cell_formula_units_Z 60
_cell_length_a 13.141660
_cell_length_b 18.111955
_cell_length_c 12.334721
_cell_angle_alpha 90.000000
_cell_angle_beta 90.000000
_cell_angle_gamma 90.000000
_cell_volume 2935.924533
_symmetry_space_group_name_H-M "P C C A"
_symmetry_group_IT_number 54
_symmetry_cell_setting 'orthorhombic'
loop_
_space_group_symop_operation_xyz
x,y,z
1/2-x,-y,z
1/2+x,-y,1/2-z
-x,y,1/2-z
-x,-y,-z
1/2+x,y,-z
1/2-x,y,1/2+z
x,-y,1/2+z
loop_
_atom_site_type_symbol
_atom_site_label
_atom_site_fract_x
_atom_site_fract_y
_atom_site_fract_z
Si Si1 0.099009 0.398270 0.010833
Si Si2 0.333355 0.151337 0.743613
Si Si3 0.427327 0.452149 0.145481
Si Si4 0.000244 0.110578 0.086274
Si Si5 0.750000 0.000000 0.199564
Si Si6 0.965585 0.053827 0.634083
Si Si7 0.384455 0.303018 0.717128
Si Si8 0.262947 0.587137 0.806971
O O1 0.182877 0.389408 0.917494
O O2 0.994043 0.407853 0.942957
O O3 0.108600 0.473723 0.082797
O O4 0.107937 0.331360 0.094396
O O5 0.398419 0.135901 0.853303
O O6 0.408777 0.153051 0.641514
O O7 0.304144 0.236923 0.743817
O O8 0.270298 0.075666 0.733925
O O9 0.500000 0.470746 0.250000
O O10 0.335687 0.406361 0.200594
O O11 0.003605 0.110302 0.958305
O O12 0.021316 0.024673 0.117304
O O13 0.651762 0.026850 0.131542
O O14 0.000000 0.082115 0.750000
O O15 0.500000 0.283434 0.750000
O O16 0.342162 0.371450 0.786899
O O17 0.250000 0.500000 0.817557
#
# Coordination Sequence:
#
# PCOD9420701 Si02
#       8
#     8   8   8   8   4   8   8   8
#     4  10  22  37  65  92 127 171 217 270 327 384
#     4  10  20  43  63  91 124 169 220 265 322 396
#     4   9  19  40  65  94 124 165 221 268 320 387
#     4   9  17  37  62  83 125 160 197 264 311 372
#     4  10  20  38  66  96 124 170 214 262 322 396
#     4  10  18  34  61  95 125 155 212 259 319 380
#     4  12  25  42  65  93 132 176 221 265 331 404
#     4  11  24  38  63  97 135 166 219 281 318 390
#
# _framework density 20.436492000000001
#
# number of rings (size 3 to 8) (size 9 to 14) (size 15 to 20)
#    0.000    1.867    5.333    0.400    5.600    0.533 
#    4.800    0.000    2.933    0.000    0.000    0.000 
#    0.000    0.000    0.000    0.000    0.000    0.000 
#
# Total GULP energy -334189.063855 kJ/mol
# GULP energy per Si atom -5569.817731 kJ/mol
# Density = 2.038998 g / cm^3
# Si number density = 20.436492 Si / 1000 Ang^3
#
#
#
# Elastic Constant Matrix: (Units=GPa)
#
#
# Indices 1 2 3 4 5 6 
#
# 1 17.3408 14.8969 8.3090 0.0000 0.0000 0.0000
# 2 14.8969 97.0279 30.2863 0.0000 0.0000 0.0000
# 3 8.3090 30.2863 140.7145 0.0000 0.0000 0.0000
# 4 0.0000 0.0000 0.0000 19.7511 0.0000 0.0000
# 5 0.0000 0.0000 0.0000 0.0000 6.5469 0.0000
# 6 0.0000 0.0000 0.0000 0.0000 0.0000 24.7241
#
#
#
# Elastic Compliance Matrix: (Units=1/GPa)
#
#
# Indices 1 2 3 4 5 6 
#
# 1 0.066882 -0.009687 -0.001864 0.000000 0.000000 0.000000
# 2 -0.009687 0.012452 -0.002108 0.000000 0.000000 0.000000
# 3 -0.001864 -0.002108 0.007670 0.000000 0.000000 0.000000
# 4 0.000000 0.000000 0.000000 0.050630 0.000000 0.000000
# 5 0.000000 0.000000 0.000000 0.000000 0.152744 0.000000
# 6 0.000000 0.000000 0.000000 0.000000 0.000000 0.040446
#
#
# Mechanical properties :
#
#
# Convention : Reuss Voigt Hill
#
# Bulk Modulus (GPa) = 16.75433 40.22973 28.49203
# Shear Modulus (GPa) = 13.22616 23.64382 18.43499
#
# Velocity S-wave (km/s) = 2.54674 3.40507 3.00669
# Velocity P-wave (km/s) = 4.10657 5.93189 5.10153
#
# Compressibility (1/GPa) = 0.05968606
#
# Stress axis : x y z
#
# Youngs Moduli (GPa) = 14.95164 80.31152 130.37153
#
# Poissons Ratio (x) = 0.77795 0.24307
# Poissons Ratio (y) = 0.14483 0.27482
# Poissons Ratio (z) = 0.02788 0.16929
#
# Static dielectric constant tensor:
#      x y z
#    x 1.796130 0.000000 0.000000 
#    y 0.000000 1.780830 0.000000 
#    z 0.000000 0.000000 1.761850 
# 
# From -- ./inp_files/8528.got.cif
#   From: 2010.05.17/outbox.cif.g08.bks.cpg/sg54_5_cif.got.tgz:8528.got - 2010.06.03 13:09:01.
