data_PCOD9420661
_publ_section_title
;
Structure prediction by ZEFSAII (Michael W. Deem and Ramdas Pophale) SiO2 
 PCOD9420661
Probable space group: P C C A
;
_chemical_formula_sum "Si O2"
_cell_formula_units_Z 64
_cell_length_a 12.013080
_cell_length_b 14.420749
_cell_length_c 17.279384
_cell_angle_alpha 90.000000
_cell_angle_beta 90.000000
_cell_angle_gamma 90.000000
_cell_volume 2993.439211
_symmetry_space_group_name_H-M "P C C A"
_symmetry_group_IT_number 54
_symmetry_cell_setting 'orthorhombic'
loop_
_space_group_symop_operation_xyz
x,y,z
1/2-x,-y,z
1/2+x,-y,1/2-z
-x,y,1/2-z
-x,-y,-z
1/2+x,y,-z
1/2-x,y,1/2+z
x,-y,1/2+z
loop_
_atom_site_type_symbol
_atom_site_label
_atom_site_fract_x
_atom_site_fract_y
_atom_site_fract_z
Si Si1 0.355876 0.768498 0.542557
Si Si2 0.375833 0.969453 0.907485
Si Si3 0.222991 0.218622 0.894063
Si Si4 0.800173 0.395936 0.388702
Si Si5 0.796422 0.357581 0.214618
Si Si6 0.125341 0.973722 0.089400
Si Si7 0.921758 0.476640 0.676747
Si Si8 0.560422 0.638629 0.532617
O O1 0.306069 0.808276 0.462430
O O2 0.280638 0.688672 0.583123
O O3 0.374094 0.861519 0.591230
O O4 0.467346 0.714972 0.521613
O O5 0.367352 0.860957 0.886201
O O6 0.500112 0.003335 0.880506
O O7 0.250000 0.000000 0.879838
O O8 0.375072 0.986693 0.000608
O O9 0.282164 0.254251 0.816904
O O10 0.165199 0.309360 0.929221
O O11 0.750000 0.500000 0.385568
O O12 0.835448 0.367464 0.302479
O O13 0.896837 0.399947 0.452180
O O14 0.678779 0.411289 0.207534
O O15 0.875351 0.420730 0.161357
O O16 0.250000 0.000000 0.121019
O O17 0.971984 0.433474 0.599319
O O18 0.000000 0.479690 0.750000
#
# Coordination Sequence:
#
# PCOD9420661 Si02
#       8
#     8   8   8   8   8   8   8   8
#     4  11  21  38  60  94 125 161 215 277 334 404
#     4  10  18  33  61  95 131 163 213 274 341 417
#     4  10  20  37  57  89 119 166 209 269 332 408
#     4  11  24  40  58  88 131 171 221 283 332 392
#     4  10  22  40  56  81 125 167 220 267 334 399
#     4  10  19  34  62  96 135 165 210 277 349 405
#     4  10  20  38  62  83 117 171 223 274 337 399
#     4  10  23  34  60  89 122 161 223 274 327 402
#
# _framework density 21.380091
#
# number of rings (size 3 to 8) (size 9 to 14) (size 15 to 20)
#    0.000    1.750    5.000    0.750    5.250    1.500 
#    0.000    0.000    0.000    0.750    0.000    0.000 
#    0.000    0.000    0.000    0.000    0.000    0.000 
#
# Total GULP energy -356405.146647 kJ/mol
# GULP energy per Si atom -5568.830416 kJ/mol
# Density = 2.133143 g / cm^3
# Si number density = 21.380091 Si / 1000 Ang^3
#
#
#
# Elastic Constant Matrix: (Units=GPa)
#
#
# Indices 1 2 3 4 5 6 
#
# 1 118.8829 16.9353 20.1591 0.0000 0.0000 0.0000
# 2 16.9353 84.2184 24.4535 0.0000 0.0000 0.0000
# 3 20.1591 24.4535 45.9927 0.0000 0.0000 0.0000
# 4 0.0000 0.0000 0.0000 9.7817 0.0000 0.0000
# 5 0.0000 0.0000 0.0000 0.0000 15.2746 0.0000
# 6 0.0000 0.0000 0.0000 0.0000 0.0000 34.9407
#
#
#
# Elastic Compliance Matrix: (Units=1/GPa)
#
#
# Indices 1 2 3 4 5 6 
#
# 1 0.009132 -0.000797 -0.003579 0.000000 0.000000 0.000000
# 2 -0.000797 0.014111 -0.007153 0.000000 0.000000 0.000000
# 3 -0.003579 -0.007153 0.027114 0.000000 0.000000 0.000000
# 4 0.000000 0.000000 0.000000 0.102232 0.000000 0.000000
# 5 0.000000 0.000000 0.000000 0.000000 0.065468 0.000000
# 6 0.000000 0.000000 0.000000 0.000000 0.000000 0.028620
#
#
# Mechanical properties :
#
#
# Convention : Reuss Voigt Hill
#
# Bulk Modulus (GPa) = 36.63114 41.35442 38.99278
# Shear Modulus (GPa) = 17.93170 24.50247 21.21709
#
# Velocity S-wave (km/s) = 2.89919 3.38900 3.15362
# Velocity P-wave (km/s) = 5.32706 5.89052 5.61586
#
# Compressibility (1/GPa) = 0.02729918
#
# Stress axis : x y z
#
# Youngs Moduli (GPa) = 109.50418 70.86570 36.88070
#
# Poissons Ratio (x) = 0.05649 0.13199
# Poissons Ratio (y) = 0.08730 0.26382
# Poissons Ratio (z) = 0.39190 0.50692
#
# Static dielectric constant tensor:
#      x y z
#    x 1.880640 0.000000 0.000000 
#    y 0.000000 1.809620 0.000000 
#    z 0.000000 0.000000 1.762310 
# 
# From -- ./inp_files/17464.got.cif
#   From: 2010.05.17/outbox.cif.g08.bks.cpg/sg54_9_cif.got.tgz:17464.got - 2010.06.03 13:09:01.
