data_PCOD9420918
_publ_section_title
;
Structure prediction by ZEFSAII (Michael W. Deem and Ramdas Pophale) SiO2 
 PCOD9420918
Probable space group: P C C A
;
_chemical_formula_sum "Si O2"
_cell_formula_units_Z 64
_cell_length_a 32.976932
_cell_length_b 20.485010
_cell_length_c 5.198991
_cell_angle_alpha 90.000000
_cell_angle_beta 90.000000
_cell_angle_gamma 90.000000
_cell_volume 3512.088853
_symmetry_space_group_name_H-M "P C C A"
_symmetry_group_IT_number 54
_symmetry_cell_setting 'orthorhombic'
loop_
_space_group_symop_operation_xyz
x,y,z
1/2-x,-y,z
1/2+x,-y,1/2-z
-x,y,1/2-z
-x,-y,-z
1/2+x,y,-z
1/2-x,y,1/2+z
x,-y,1/2+z
loop_
_atom_site_type_symbol
_atom_site_label
_atom_site_fract_x
_atom_site_fract_y
_atom_site_fract_z
Si Si1 0.274417 0.616222 0.340831
Si Si2 0.546069 0.026843 0.040884
Si Si3 0.044669 0.304777 0.850376
Si Si4 0.723190 0.227401 0.677100
Si Si5 0.143919 0.541563 0.709326
Si Si6 0.581154 0.162069 0.180666
Si Si7 0.869470 0.195901 0.181531
Si Si8 0.910676 0.336738 0.149181
O O1 0.260815 0.602635 0.632370
O O2 0.283464 0.693762 0.322535
O O3 0.312336 0.573726 0.256787
O O4 0.552233 0.099843 0.140284
O O5 0.565116 0.981658 0.260782
O O6 0.500000 0.000000 0.000000
O O7 0.054488 0.227752 0.827756
O O8 0.074527 0.338598 0.644489
O O9 0.000000 0.317920 0.750000
O O10 0.053692 0.325242 0.142246
O O11 0.751424 0.211829 0.433160
O O12 0.679130 0.194123 0.665186
O O13 0.139384 0.515148 0.421351
O O14 0.112241 0.598347 0.771733
O O15 0.606783 0.163077 0.443561
O O16 0.612747 0.167155 0.945241
O O17 0.882428 0.272545 0.175655
#
# Coordination Sequence:
#
# PCOD9420918 Si02
#       8
#     8   8   8   8   8   8   8   8
#     4  10  21  35  52  76 110 145 181 222 270 339
#     4  10  21  36  53  79 121 168 184 217 252 318
#     4  10  21  36  61  82 105 137 180 241 273 337
#     4  10  19  32  54  81 112 150 181 224 298 344
#     4  12  24  37  57  77 104 145 188 229 274 353
#     4  10  21  34  56  86 113 152 198 219 269 314
#     4  10  19  36  56  79 115 147 187 248 266 330
#     4  10  21  39  54  79 108 138 180 230 300 324
#
# _framework density 18.222774000000001
#
# number of rings (size 3 to 8) (size 9 to 14) (size 15 to 20)
#    0.000    1.750    1.250    3.375    1.750    1.500 
#    4.500    0.000    0.000    7.500    0.000    0.000 
#    0.000   35.000    0.000    0.000    0.000    0.000 
#
# Total GULP energy -357166.453344 kJ/mol
# GULP energy per Si atom -5580.725833 kJ/mol
# Density = 1.818130 g / cm^3
# Si number density = 18.222774 Si / 1000 Ang^3
#
#
#
# Elastic Constant Matrix: (Units=GPa)
#
#
# Indices 1 2 3 4 5 6 
#
# 1 68.6539 26.0253 4.4372 0.0000 0.0000 0.0000
# 2 26.0253 42.6425 0.0587 0.0000 0.0000 0.0000
# 3 4.4372 0.0587 96.5571 0.0000 0.0000 0.0000
# 4 0.0000 0.0000 0.0000 19.1187 0.0000 0.0000
# 5 0.0000 0.0000 0.0000 0.0000 17.1136 0.0000
# 6 0.0000 0.0000 0.0000 0.0000 0.0000 27.2142
#
#
#
# Elastic Compliance Matrix: (Units=1/GPa)
#
#
# Indices 1 2 3 4 5 6 
#
# 1 0.019022 -0.011608 -0.000867 0.000000 0.000000 0.000000
# 2 -0.011608 0.030535 0.000515 0.000000 0.000000 0.000000
# 3 -0.000867 0.000515 0.010396 0.000000 0.000000 0.000000
# 4 0.000000 0.000000 0.000000 0.052305 0.000000 0.000000
# 5 0.000000 0.000000 0.000000 0.000000 0.058433 0.000000
# 6 0.000000 0.000000 0.000000 0.000000 0.000000 0.036746
#
#
# Mechanical properties :
#
#
# Convention : Reuss Voigt Hill
#
# Bulk Modulus (GPa) = 27.75305 29.87732 28.81518
# Shear Modulus (GPa) = 20.54497 24.51146 22.52822
#
# Velocity S-wave (km/s) = 3.36137 3.67154 3.51987
# Velocity P-wave (km/s) = 5.50709 5.86556 5.68915
#
# Compressibility (1/GPa) = 0.03603208
#
# Stress axis : x y z
#
# Youngs Moduli (GPa) = 52.56973 32.74949 96.18992
#
# Poissons Ratio (x) = 0.38017 0.08341
# Poissons Ratio (y) = 0.61025 -0.04953
# Poissons Ratio (z) = 0.04558 -0.01686
#
# Static dielectric constant tensor:
#      x y z
#    x 1.516820 0.000000 0.000000 
#    y 0.000000 1.616590 0.000000 
#    z 0.000000 0.000000 1.517880 
# 
# From -- ./inp_files/2242.got.cif
#   From: 2010.05.17/outbox.cif.g08.bks.cpg/sg54_2_cif.got.tgz:2242.got - 2010.06.03 13:09:01.
