data_PCOD9420410
_publ_section_title
;
Structure prediction by ZEFSAII (Michael W. Deem and Ramdas Pophale) SiO2 
 PCOD9420410
Probable space group: P C C A
;
_chemical_formula_sum "Si O2"
_cell_formula_units_Z 56
_cell_length_a 14.737156
_cell_length_b 35.519009
_cell_length_c 5.327261
_cell_angle_alpha 90.000000
_cell_angle_beta 90.000000
_cell_angle_gamma 90.000000
_cell_volume 2788.550384
_symmetry_space_group_name_H-M "P C C A"
_symmetry_group_IT_number 54
_symmetry_cell_setting 'orthorhombic'
loop_
_space_group_symop_operation_xyz
x,y,z
1/2-x,-y,z
1/2+x,-y,1/2-z
-x,y,1/2-z
-x,-y,-z
1/2+x,y,-z
1/2-x,y,1/2+z
x,-y,1/2+z
loop_
_atom_site_type_symbol
_atom_site_label
_atom_site_fract_x
_atom_site_fract_y
_atom_site_fract_z
Si Si1 0.938304 0.591442 0.498919
Si Si2 0.940376 0.102428 0.998342
Si Si3 0.192190 0.254001 0.437166
Si Si4 0.146840 0.484559 0.401126
Si Si5 0.691592 0.172515 0.474969
Si Si6 0.395625 0.983690 0.506766
Si Si7 0.439537 0.676202 0.501063
O O1 0.863735 0.558764 0.522826
O O2 0.899506 0.633840 0.485153
O O3 0.000000 0.589525 0.750000
O O4 0.000000 0.585649 0.250000
O O5 0.000000 0.108205 0.750000
O O6 0.870927 0.136633 0.015389
O O7 0.896834 0.061081 0.972591
O O8 0.000000 0.101391 0.250000
O O9 0.269638 0.254791 0.653500
O O10 0.145228 0.213353 0.482518
O O11 0.131233 0.290184 0.484169
O O12 0.250000 0.500000 0.374310
O O13 0.104228 0.508094 0.629253
O O14 0.732037 0.171429 0.193722
O O15 0.500000 0.000000 0.500000
O O16 0.353760 0.002920 0.748295
O O17 0.500000 0.677625 0.250000
O O18 0.500000 0.680873 0.750000
#
# Coordination Sequence:
#
# PCOD9420410 Si02
#       7
#     8   8   8   8   8   8   8
#     4  10  21  37  57  83 113 148 186 225 288 340
#     4  12  21  33  59  90 106 143 204 239 278 336
#     4  10  21  40  61  86 114 157 196 222 284 354
#     4  10  21  37  53  78 112 146 186 236 276 316
#     4  10  23  41  57  79 124 158 180 232 294 348
#     4  10  16  30  49  78 107 141 173 244 287 321
#     4  10  21  38  61  89 121 148 184 246 292 334
#
# _framework density 20.082118000000001
#
# number of rings (size 3 to 8) (size 9 to 14) (size 15 to 20)
#    0.000    1.714    2.857    2.571    0.000    2.857 
#    5.143    0.000    0.000    2.571    0.000    0.000 
#    0.000    0.000    0.000    0.000    0.000    0.000 
#
# Total GULP energy -312507.959287 kJ/mol
# GULP energy per Si atom -5580.499273 kJ/mol
# Density = 2.003641 g / cm^3
# Si number density = 20.082118 Si / 1000 Ang^3
#
#
#
# Elastic Constant Matrix: (Units=GPa)
#
#
# Indices 1 2 3 4 5 6 
#
# 1 24.6967 28.3889 -10.3937 0.0000 0.0000 0.0000
# 2 28.3889 144.9103 -33.0639 0.0000 0.0000 0.0000
# 3 -10.3937 -33.0639 109.6592 0.0000 0.0000 0.0000
# 4 0.0000 0.0000 0.0000 32.3015 0.0000 0.0000
# 5 0.0000 0.0000 0.0000 0.0000 6.5640 0.0000
# 6 0.0000 0.0000 0.0000 0.0000 0.0000 61.4952
#
#
#
# Elastic Compliance Matrix: (Units=1/GPa)
#
#
# Indices 1 2 3 4 5 6 
#
# 1 0.052674 -0.009858 0.002020 0.000000 0.000000 0.000000
# 2 -0.009858 0.009256 0.001856 0.000000 0.000000 0.000000
# 3 0.002020 0.001856 0.009870 0.000000 0.000000 0.000000
# 4 0.000000 0.000000 0.000000 0.030958 0.000000 0.000000
# 5 0.000000 0.000000 0.000000 0.000000 0.152347 0.000000
# 6 0.000000 0.000000 0.000000 0.000000 0.000000 0.016261
#
#
# Mechanical properties :
#
#
# Convention : Reuss Voigt Hill
#
# Bulk Modulus (GPa) = 16.71234 27.68100 22.19667
# Shear Modulus (GPa) = 16.48667 39.69446 28.09057
#
# Velocity S-wave (km/s) = 2.86835 4.45073 3.74409
# Velocity P-wave (km/s) = 4.39431 6.34238 5.45600
#
# Compressibility (1/GPa) = 0.05983601
#
# Stress axis : x y z
#
# Youngs Moduli (GPa) = 18.98487 108.04194 101.31364
#
# Poissons Ratio (x) = 1.06510 -0.20466
# Poissons Ratio (y) = 0.18716 -0.18807
# Poissons Ratio (z) = -0.03835 -0.20056
#
# Static dielectric constant tensor:
#      x y z
#    x 1.658700 0.000000 0.000000 
#    y 0.000000 1.721440 0.000000 
#    z 0.000000 0.000000 1.723870 
# 
# From -- ./inp_files/733.got.cif
#   From: 2010.05.17/outbox.cif.g08.bks.cpg/sg54_1_cif.got.tgz:733.got - 2010.06.03 13:09:01.
