data_PCOD9420327
_publ_section_title
;
Structure prediction by ZEFSAII (Michael W. Deem and Ramdas Pophale) SiO2 
 PCOD9420327
Probable space group: P C C A
;
_chemical_formula_sum "Si O2"
_cell_formula_units_Z 56
_cell_length_a 14.363721
_cell_length_b 27.942637
_cell_length_c 5.593100
_cell_angle_alpha 90.000000
_cell_angle_beta 90.000000
_cell_angle_gamma 90.000000
_cell_volume 2244.847969
_symmetry_space_group_name_H-M "P C C A"
_symmetry_group_IT_number 54
_symmetry_cell_setting 'orthorhombic'
loop_
_space_group_symop_operation_xyz
x,y,z
1/2-x,-y,z
1/2+x,-y,1/2-z
-x,y,1/2-z
-x,-y,-z
1/2+x,y,-z
1/2-x,y,1/2+z
x,-y,1/2+z
loop_
_atom_site_type_symbol
_atom_site_label
_atom_site_fract_x
_atom_site_fract_y
_atom_site_fract_z
Si Si1 0.641201 0.017948 0.598176
Si Si2 0.649335 0.368733 0.494797
Si Si3 0.758806 0.866579 0.489338
Si Si4 0.447455 0.878878 0.499122
Si Si5 0.634223 0.331585 0.995721
Si Si6 0.303613 0.766103 0.017109
Si Si7 0.856383 0.481639 0.907697
O O1 0.606695 0.070293 0.517574
O O2 0.750000 0.000000 0.612878
O O3 0.604839 0.987294 0.370583
O O4 0.604035 0.355465 0.748070
O O5 0.754200 0.346082 0.501672
O O6 0.650771 0.425629 0.464363
O O7 0.602510 0.348950 0.254571
O O8 0.752411 0.893341 0.238855
O O9 0.860463 0.842743 0.491217
O O10 0.684469 0.823631 0.485011
O O11 0.500000 0.872926 0.250000
O O12 0.500000 0.877378 0.750000
O O13 0.618886 0.274537 0.978312
O O14 0.251645 0.757009 0.764663
O O15 0.750000 0.500000 0.884158
O O16 0.897801 0.492358 0.643691
#
# Coordination Sequence:
#
# PCOD9420327 Si02
#       7
#     8   8   8   8   8   8   8
#     4  10  23  40  65  92 124 163 200 243 288 339
#     4  10  16  20  31  44  66  99 135 188 262 301
#     4  10  23  38  64  86 117 155 195 233 291 350
#     4  12  26  43  66  95 126 159 200 245 290 341
#     4  10  14  22  33  50  74  96 134 185 251 314
#     4  10  16  29  44  70  92 121 159 208 259 329
#     4  10  16  22  26  35  55  88 136 187 241 302
#
# _framework density 24.946010000000001
#
# number of rings (size 3 to 8) (size 9 to 14) (size 15 to 20)
#    0.000    1.714    2.857    6.000    4.000    1.714 
#    0.000    0.000    0.000    0.000    0.000    0.000 
#    0.000    0.000    0.000    0.000    0.000    0.000 
#
# Total GULP energy -312158.674278 kJ/mol
# GULP energy per Si atom -5574.262041 kJ/mol
# Density = 2.488923 g / cm^3
# Si number density = 24.946010 Si / 1000 Ang^3
#
#
#
# Elastic Constant Matrix: (Units=GPa)
#
#
# Indices 1 2 3 4 5 6 
#
# 1 75.1067 8.8669 40.5913 0.0000 0.0000 0.0000
# 2 8.8669 75.4692 28.5879 0.0000 0.0000 0.0000
# 3 40.5913 28.5879 308.6227 0.0000 0.0000 0.0000
# 4 0.0000 0.0000 0.0000 36.4654 0.0000 0.0000
# 5 0.0000 0.0000 0.0000 0.0000 15.0698 0.0000
# 6 0.0000 0.0000 0.0000 0.0000 0.0000 -23.8744
#
#
#
# Elastic Compliance Matrix: (Units=1/GPa)
#
#
# Indices 1 2 3 4 5 6 
#
# 1 0.014407 -0.001010 -0.001801 0.000000 0.000000 0.000000
# 2 -0.001010 0.013803 -0.001146 0.000000 0.000000 0.000000
# 3 -0.001801 -0.001146 0.003583 0.000000 0.000000 0.000000
# 4 0.000000 0.000000 0.000000 0.027423 0.000000 0.000000
# 5 0.000000 0.000000 0.000000 0.000000 0.066358 0.000000
# 6 0.000000 0.000000 0.000000 0.000000 0.000000 -0.041886
#
#
# Mechanical properties :
#
#
# Convention : Reuss Voigt Hill
#
# Bulk Modulus (GPa) = 41.87811 68.36565 55.12188
# Shear Modulus (GPa) = 50.21927 30.94232 40.58079
#
# Velocity S-wave (km/s) = 4.49165 3.52571 4.03767
# Velocity P-wave (km/s) = 6.61240 6.63620 6.62431
#
# Compressibility (1/GPa) = 0.02387883
#
# Stress axis : x y z
#
# Youngs Moduli (GPa) = 69.40984 72.44724 279.07672
#
# Poissons Ratio (x) = 0.07320 0.50270
# Poissons Ratio (y) = 0.07013 0.31974
# Poissons Ratio (z) = 0.12503 0.08300
#
# Static dielectric constant tensor:
#      x y z
#    x 2.082610 0.000000 0.000000 
#    y 0.000000 1.990930 0.000000 
#    z 0.000000 0.000000 2.013610 
# 
# From -- ./inp_files/769.got.cif
#   From: 2010.05.17/outbox.cif.g08.bks.cpg/sg54_1_cif.got.tgz:769.got - 2010.06.03 13:09:01.
