data_PCOD9420758
_publ_section_title
;
Structure prediction by ZEFSAII (Michael W. Deem and Ramdas Pophale) SiO2 
 PCOD9420758
Probable space group: P C C A
;
_chemical_formula_sum "Si O2"
_cell_formula_units_Z 48
_cell_length_a 16.253760
_cell_length_b 9.120737
_cell_length_c 13.524557
_cell_angle_alpha 90.000000
_cell_angle_beta 90.000000
_cell_angle_gamma 90.000000
_cell_volume 2004.965132
_symmetry_space_group_name_H-M "P C C A"
_symmetry_group_IT_number 54
_symmetry_cell_setting 'orthorhombic'
loop_
_space_group_symop_operation_xyz
x,y,z
1/2-x,-y,z
1/2+x,-y,1/2-z
-x,y,1/2-z
-x,-y,-z
1/2+x,y,-z
1/2-x,y,1/2+z
x,-y,1/2+z
loop_
_atom_site_type_symbol
_atom_site_label
_atom_site_fract_x
_atom_site_fract_y
_atom_site_fract_z
Si Si1 0.174651 0.169018 0.936935
Si Si2 0.250000 0.000000 0.110588
Si Si3 0.078312 0.112147 0.386911
Si Si4 0.500000 0.349956 0.250000
Si Si5 0.575571 0.904503 0.876445
Si Si6 0.922922 0.444726 0.560610
Si Si7 0.693668 0.630903 0.155889
O O1 0.100889 0.278873 0.964217
O O2 0.235302 0.254628 0.867006
O O3 0.140513 0.025351 0.884838
O O4 0.221955 0.128765 0.036374
O O5 0.334607 0.046179 0.159424
O O6 0.076658 0.136205 0.506709
O O7 0.115994 0.251989 0.327983
O O8 0.990096 0.037286 0.361812
O O9 0.448903 0.240354 0.181748
O O10 0.444562 0.444340 0.322663
O O11 0.842652 0.546041 0.559316
O O12 0.000000 0.500000 0.500000
O O13 0.750000 0.500000 0.209058
#
# Coordination Sequence:
#
# PCOD9420758 Si02
#       7
#     8   4   8   4   8   8   8
#     4  10  18  36  68  99 128 179 236 289 353 421
#     4  10  20  36  70 102 134 166 240 298 358 418
#     4  10  18  38  69 101 124 181 241 288 356 423
#     4  12  24  46  66 102 144 190 234 290 360 438
#     4  10  21  36  69  95 135 179 233 302 345 419
#     4  11  25  40  68  95 137 195 232 288 363 432
#     4  10  20  34  59  99 138 173 231 284 343 423
#
# _framework density 23.940566
#
# number of rings (size 3 to 8) (size 9 to 14) (size 15 to 20)
#    0.000    1.667    5.000    1.000    4.667    0.000 
#    0.000    5.000   11.000    0.000    0.000    0.000 
#    0.000    0.000    0.000    0.000    0.000    0.000 
#
# Total GULP energy -267582.692834 kJ/mol
# GULP energy per Si atom -5574.639434 kJ/mol
# Density = 2.388608 g / cm^3
# Si number density = 23.940566 Si / 1000 Ang^3
#
#
#
# Elastic Constant Matrix: (Units=GPa)
#
#
# Indices 1 2 3 4 5 6 
#
# 1 157.4534 55.8469 19.4527 0.0000 0.0000 0.0000
# 2 55.8469 153.8964 14.0936 0.0000 0.0000 0.0000
# 3 19.4527 14.0936 72.2104 0.0000 0.0000 0.0000
# 4 0.0000 0.0000 0.0000 10.5146 0.0000 0.0000
# 5 0.0000 0.0000 0.0000 0.0000 -14.4693 0.0000
# 6 0.0000 0.0000 0.0000 0.0000 0.0000 32.9295
#
#
#
# Elastic Compliance Matrix: (Units=1/GPa)
#
#
# Indices 1 2 3 4 5 6 
#
# 1 0.007447 -0.002564 -0.001506 0.000000 0.000000 0.000000
# 2 -0.002564 0.007499 -0.000773 0.000000 0.000000 0.000000
# 3 -0.001506 -0.000773 0.014405 0.000000 0.000000 0.000000
# 4 0.000000 0.000000 0.000000 0.095106 0.000000 0.000000
# 5 0.000000 0.000000 0.000000 0.000000 -0.069112 0.000000
# 6 0.000000 0.000000 0.000000 0.000000 0.000000 0.030368
#
#
# Mechanical properties :
#
#
# Convention : Reuss Voigt Hill
#
# Bulk Modulus (GPa) = 50.85138 62.48297 56.66718
# Shear Modulus (GPa) = 49.04206 25.40611 37.22408
#
# Velocity S-wave (km/s) = 4.53094 3.26116 3.94744
# Velocity P-wave (km/s) = 6.97562 6.35107 6.67066
#
# Compressibility (1/GPa) = 0.01966515
#
# Stress axis : x y z
#
# Youngs Moduli (GPa) = 134.28840 133.34679 69.42119
#
# Poissons Ratio (x) = 0.34196 0.10452
# Poissons Ratio (y) = 0.34437 0.05365
# Poissons Ratio (z) = 0.20218 0.10305
#
# Static dielectric constant tensor:
#      x y z
#    x 2.100870 0.000000 0.000000 
#    y 0.000000 1.945320 0.000000 
#    z 0.000000 0.000000 1.987330 
# 
# From -- ./inp_files/14170.got.cif
#   From: 2010.05.17/outbox.cif.g08.bks.cpg/sg54_8_cif.got.tgz:14170.got - 2010.06.03 13:09:01.
