data_PCOD9420422
_publ_section_title
;
Structure prediction by ZEFSAII (Michael W. Deem and Ramdas Pophale) SiO2 
 PCOD9420422
Probable space group: P C C A
;
_chemical_formula_sum "Si O2"
_cell_formula_units_Z 36
_cell_length_a 5.137082
_cell_length_b 21.688517
_cell_length_c 14.636973
_cell_angle_alpha 90.000000
_cell_angle_beta 90.000000
_cell_angle_gamma 90.000000
_cell_volume 1630.788451
_symmetry_space_group_name_H-M "P C C A"
_symmetry_group_IT_number 54
_symmetry_cell_setting 'orthorhombic'
loop_
_space_group_symop_operation_xyz
x,y,z
1/2-x,-y,z
1/2+x,-y,1/2-z
-x,y,1/2-z
-x,-y,-z
1/2+x,y,-z
1/2-x,y,1/2+z
x,-y,1/2+z
loop_
_atom_site_type_symbol
_atom_site_label
_atom_site_fract_x
_atom_site_fract_y
_atom_site_fract_z
Si Si1 0.987251 0.172525 0.560139
Si Si2 0.997919 0.028703 0.602837
Si Si3 0.250000 0.500000 0.311424
Si Si4 0.605524 0.385459 0.560416
Si Si5 0.241695 0.274500 0.808551
O O1 0.777155 0.182768 0.478730
O O2 0.891571 0.217024 0.640122
O O3 0.981137 0.101681 0.592631
O O4 0.250000 0.000000 0.646825
O O5 0.750000 0.000000 0.649139
O O6 0.000000 0.000000 0.500000
O O7 0.500000 0.483030 0.250000
O O8 0.336966 0.556712 0.374686
O O9 0.313264 0.387215 0.522178
O O10 0.661538 0.323849 0.617381
O O11 0.500000 0.258246 0.750000
O O12 0.000000 0.301787 0.750000
#
# Coordination Sequence:
#
# PCOD9420422 Si02
#       5
#     8   8   4   8   8
#     4  12  21  36  63  92 118 154 213 261 309 377
#     4  10  16  30  52  90 116 143 189 260 300 354
#     4  12  24  42  68 102 140 180 210 262 346 402
#     4  12  24  44  69  98 129 170 232 280 314 374
#     4  12  26  44  61  89 132 175 210 265 339 399
#
# _framework density 22.075209999999998
#
# number of rings (size 3 to 8) (size 9 to 14) (size 15 to 20)
#    0.000    0.444    4.444    7.333    0.000    0.000 
#    0.000    0.000    0.000    2.667    0.000    0.000 
#    0.000    0.000    0.000    0.000    0.000    0.000 
#
# Total GULP energy -201422.700757 kJ/mol
# GULP energy per Si atom -5595.075021 kJ/mol
# Density = 2.202497 g / cm^3
# Si number density = 22.075210 Si / 1000 Ang^3
#
#
#
# Elastic Constant Matrix: (Units=GPa)
#
#
# Indices 1 2 3 4 5 6 
#
# 1 119.1197 -19.3626 1.7919 0.0000 0.0000 0.0000
# 2 -19.3626 108.8919 22.9532 0.0000 0.0000 0.0000
# 3 1.7919 22.9532 69.7288 0.0000 0.0000 0.0000
# 4 0.0000 0.0000 0.0000 -8.0582 0.0000 0.0000
# 5 0.0000 0.0000 0.0000 0.0000 37.3060 0.0000
# 6 0.0000 0.0000 0.0000 0.0000 0.0000 19.2733
#
#
#
# Elastic Compliance Matrix: (Units=1/GPa)
#
#
# Indices 1 2 3 4 5 6 
#
# 1 0.008685 0.001710 -0.000786 0.000000 0.000000 0.000000
# 2 0.001710 0.010205 -0.003403 0.000000 0.000000 0.000000
# 3 -0.000786 -0.003403 0.015482 0.000000 0.000000 0.000000
# 4 0.000000 0.000000 0.000000 -0.124097 0.000000 0.000000
# 5 0.000000 0.000000 0.000000 0.000000 0.026805 0.000000
# 6 0.000000 0.000000 0.000000 0.000000 0.000000 0.051885
#
#
# Mechanical properties :
#
#
# Convention : Reuss Voigt Hill
#
# Bulk Modulus (GPa) = 33.99889 34.27839 34.13864
# Shear Modulus (GPa) = 1341.50999 29.19476 685.35237
#
# Velocity S-wave (km/s) = 24.67831 3.64058 17.63906
# Velocity P-wave (km/s) = 28.76561 5.76485 20.74480
#
# Compressibility (1/GPa) = 0.02941272
#
# Stress axis : x y z
#
# Youngs Moduli (GPa) = 115.14513 97.99285 64.59234
#
# Poissons Ratio (x) = -0.16756 0.05077
# Poissons Ratio (y) = -0.19689 0.21982
# Poissons Ratio (z) = 0.09051 0.33348
#
# Static dielectric constant tensor:
#      x y z
#    x 1.788970 0.000000 0.000000 
#    y 0.000000 1.858730 0.000000 
#    z 0.000000 0.000000 1.801060 
# 
# From -- ./inp_files/10799.got.cif
#   From: 2010.05.17/outbox.cif.g08.bks.cpg/sg54_6_cif.got.tgz:10799.got - 2010.06.03 13:09:01.
