data_PCOD9420154
_publ_section_title
;
Structure prediction by ZEFSAII (Michael W. Deem and Ramdas Pophale) SiO2 
 PCOD9420154
Probable space group: P M N A
;
_chemical_formula_sum "Si O2"
_cell_formula_units_Z 64
_cell_length_a 15.000000
_cell_length_b 18.000000
_cell_length_c 12.000000
_cell_angle_alpha 90.000000
_cell_angle_beta 90.000000
_cell_angle_gamma 90.000000
_cell_volume 3240.000000
_symmetry_space_group_name_H-M "P M N A"
_symmetry_group_IT_number 53
_symmetry_cell_setting 'orthorhombic'
loop_
_space_group_symop_operation_xyz
x,y,z
1/2-x,-y,1/2+z
x,-y,-z
1/2-x,y,1/2-z
-x,-y,-z
1/2+x,y,1/2-z
-x,y,z
1/2+x,-y,1/2+z
loop_
_atom_site_type_symbol
_atom_site_label
_atom_site_fract_x
_atom_site_fract_y
_atom_site_fract_z
Si Si1 0.103895 0.823972 0.006390
Si Si2 0.403389 0.560081 0.600189
Si Si3 0.851852 0.966400 0.880727
Si Si4 0.403526 0.312174 0.903325
Si Si5 0.644721 0.829664 0.238210
Si Si6 0.292995 0.329148 0.511587
Si Si7 0.851204 0.573077 0.224385
Si Si8 0.355595 0.985404 0.129634
O O1 0.112152 0.848831 0.136917
O O2 0.159173 0.748883 0.000714
O O3 0.000000 0.813021 0.983497
O O4 0.143157 0.880787 0.916141
O O5 0.396522 0.500000 0.500000
O O6 0.500000 0.597787 0.591189
O O7 0.323144 0.616972 0.587782
O O8 0.399132 0.504038 0.701854
O O9 0.750103 0.995742 0.875415
O O10 0.886735 0.979012 0.751882
O O11 0.891245 0.000000 0.000000
O O12 0.500000 0.309697 0.960997
O O13 0.396835 0.242013 0.819528
O O14 0.312318 0.316656 0.973760
O O15 0.396701 0.383096 0.823319
O O16 0.750000 0.814819 0.250000
O O17 0.631509 0.898876 0.156450
O O18 0.337380 0.369763 0.620289
O O19 0.750000 0.553044 0.250000
O O20 0.388152 0.000000 0.000000
#
# Coordination Sequence:
#
# PCOD9420154 Si02
#       8
#     8   8   8   8   8   8   8   8
#     4  12  23  35  59  94 128 158 208 273 329 386
#     4   9  17  30  53  81 114 154 197 244 299 366
#     4  10  19  36  57  90 119 162 210 268 323 390
#     4  11  21  32  54  87 123 159 203 256 314 386
#     4  12  18  35  57  87 123 161 207 254 331 381
#     4  10  20  34  53  84 119 159 199 254 320 379
#     4   9  17  32  54  84 121 155 195 250 314 379
#     4  10  20  36  63  87 117 168 217 264 320 398
#
# _framework density 19.753086
#
# number of rings (size 3 to 8) (size 9 to 14) (size 15 to 20)
#    0.000    1.625    5.000    2.250    0.000    1.250 
#    0.000    0.000    2.750   13.500    0.000    0.000 
#    0.000    0.000    0.000    0.000    0.000    0.000 
#
# Total GULP energy -356290.096977 kJ/mol
# GULP energy per Si atom -5567.032765 kJ/mol
# Density = 1.970813 g / cm^3
# Si number density = 19.753086 Si / 1000 Ang^3
#
#
#
# Elastic Constant Matrix: (Units=GPa)
#
#
# Indices 1 2 3 4 5 6 
#
# 1 60.1906 34.7761 24.2494 0.0000 0.0000 0.0000
# 2 34.7761 74.9071 53.0929 0.0000 0.0000 0.0000
# 3 24.2494 53.0929 89.6252 0.0000 0.0000 0.0000
# 4 0.0000 0.0000 0.0000 17.4139 0.0000 0.0000
# 5 0.0000 0.0000 0.0000 0.0000 3.7585 0.0000
# 6 0.0000 0.0000 0.0000 0.0000 0.0000 -26.6239
#
#
#
# Elastic Compliance Matrix: (Units=1/GPa)
#
#
# Indices 1 2 3 4 5 6 
#
# 1 0.022705 -0.010665 0.000174 0.000000 0.000000 0.000000
# 2 -0.010665 0.028021 -0.013714 0.000000 0.000000 0.000000
# 3 0.000174 -0.013714 0.019234 0.000000 0.000000 0.000000
# 4 0.000000 0.000000 0.000000 0.057425 0.000000 0.000000
# 5 0.000000 0.000000 0.000000 0.000000 0.266067 0.000000
# 6 0.000000 0.000000 0.000000 0.000000 0.000000 -0.037560
#
#
# Mechanical properties :
#
#
# Convention : Reuss Voigt Hill
#
# Bulk Modulus (GPa) = 46.39853 49.88442 48.14148
# Shear Modulus (GPa) = 12.15109 6.41666 9.28388
#
# Velocity S-wave (km/s) = 2.48291 1.80430 2.17029
# Velocity P-wave (km/s) = 5.63560 5.44513 5.54119
#
# Compressibility (1/GPa) = 0.02155241
#
# Stress axis : x y z
#
# Youngs Moduli (GPa) = 44.04251 35.68720 51.99018
#
# Poissons Ratio (x) = 0.38059 -0.00907
# Poissons Ratio (y) = 0.46970 0.71299
# Poissons Ratio (z) = -0.00768 0.48941
#
# Static dielectric constant tensor:
#      x y z
#    x 1.783410 0.000000 0.000000 
#    y 0.000000 1.725180 0.000000 
#    z 0.000000 0.000000 1.780500 
# 
# From -- ./inp_files/16268.got.cif
#   From: 2010.05.17/outbox.ucp.g08.bks.cvg/sg53_9_cif.got.tgz:16268.got - 2010.06.11 16:32:34.
