data_PCOD9420710
_publ_section_title
;
Structure prediction by ZEFSAII (Michael W. Deem and Ramdas Pophale) SiO2 
 PCOD9420710
Probable space group: P C C A
;
_chemical_formula_sum "Si O2"
_cell_formula_units_Z 48
_cell_length_a 13.563382
_cell_length_b 8.911044
_cell_length_c 17.628750
_cell_angle_alpha 90.000000
_cell_angle_beta 90.000000
_cell_angle_gamma 90.000000
_cell_volume 2130.679368
_symmetry_space_group_name_H-M "P C C A"
_symmetry_group_IT_number 54
_symmetry_cell_setting 'orthorhombic'
loop_
_space_group_symop_operation_xyz
x,y,z
1/2-x,-y,z
1/2+x,-y,1/2-z
-x,y,1/2-z
-x,-y,-z
1/2+x,y,-z
1/2-x,y,1/2+z
x,-y,1/2+z
loop_
_atom_site_type_symbol
_atom_site_label
_atom_site_fract_x
_atom_site_fract_y
_atom_site_fract_z
Si Si1 0.304927 0.655717 0.515364
Si Si2 0.750153 0.180558 0.719876
Si Si3 0.581245 0.230147 0.627873
Si Si4 0.112731 0.818096 0.140411
Si Si5 0.883016 0.850434 0.935272
Si Si6 0.407610 0.876844 0.892311
O O1 0.250000 0.500000 0.514913
O O2 0.363295 0.679006 0.437462
O O3 0.384369 0.683318 0.580573
O O4 0.221236 0.775052 0.543837
O O5 0.642022 0.250032 0.706318
O O6 0.812097 0.224518 0.793362
O O7 0.813458 0.205413 0.642860
O O8 0.750000 0.000000 0.729022
O O9 0.462913 0.234922 0.617978
O O10 0.606612 0.055255 0.611128
O O11 0.998661 0.836828 0.161341
O O12 0.131133 0.983293 0.100849
O O13 0.930574 0.851669 0.019507
#
# Coordination Sequence:
#
# PCOD9420710 Si02
#       6
#     8   8   8   8   8   8
#     4  12  24  37  59  88 121 163 209 253 306 364
#     4  10  20  33  59  93 123 149 191 254 312 366
#     4  10  20  37  58  90 122 154 199 250 307 364
#     4  11  21  38  60  92 119 158 195 248 312 369
#     4  11  20  38  66  89 116 157 208 257 302 363
#     4  10  18  34  65  92 117 149 201 257 298 357
#
# _framework density 22.528026000000001
#
# number of rings (size 3 to 8) (size 9 to 14) (size 15 to 20)
#    0.000    1.333    5.000    3.000    0.000    0.667 
#    0.000    3.333    0.000    2.000    0.000    0.000 
#    0.000    0.000    0.000    0.000    0.000    0.000 
#
# Total GULP energy -267431.738057 kJ/mol
# GULP energy per Si atom -5571.494543 kJ/mol
# Density = 2.247675 g / cm^3
# Si number density = 22.528026 Si / 1000 Ang^3
#
#
#
# Elastic Constant Matrix: (Units=GPa)
#
#
# Indices 1 2 3 4 5 6 
#
# 1 75.2179 13.1104 23.5553 0.0000 0.0000 0.0000
# 2 13.1104 29.8921 -1.4831 0.0000 0.0000 0.0000
# 3 23.5553 -1.4831 103.6991 0.0000 0.0000 0.0000
# 4 0.0000 0.0000 0.0000 -2.2963 0.0000 0.0000
# 5 0.0000 0.0000 0.0000 0.0000 34.5877 0.0000
# 6 0.0000 0.0000 0.0000 0.0000 0.0000 21.9336
#
#
#
# Elastic Compliance Matrix: (Units=1/GPa)
#
#
# Indices 1 2 3 4 5 6 
#
# 1 0.015671 -0.007055 -0.003660 0.000000 0.000000 0.000000
# 2 -0.007055 0.036653 0.002127 0.000000 0.000000 0.000000
# 3 -0.003660 0.002127 0.010505 0.000000 0.000000 0.000000
# 4 0.000000 0.000000 0.000000 -0.435481 0.000000 0.000000
# 5 0.000000 0.000000 0.000000 0.000000 0.028912 0.000000
# 6 0.000000 0.000000 0.000000 0.000000 0.000000 0.045592
#
#
# Mechanical properties :
#
#
# Convention : Reuss Voigt Hill
#
# Bulk Modulus (GPa) = 21.90475 31.01938 26.46206
# Shear Modulus (GPa) = -18.81443 22.42011 1.80284
#
# Velocity S-wave (km/s) = -2.89304 3.15812 0.89554
# Velocity P-wave (km/s) = 1.18960 5.20552 3.58345
#
# Compressibility (1/GPa) = 0.04565219
#
# Stress axis : x y z
#
# Youngs Moduli (GPa) = 63.81361 27.28273 95.19115
#
# Poissons Ratio (x) = 0.19247 0.34845
# Poissons Ratio (y) = 0.45018 -0.20244
# Poissons Ratio (z) = 0.23359 -0.05802
#
# Static dielectric constant tensor:
#      x y z
#    x 2.041120 0.000000 0.000000 
#    y 0.000000 1.800030 0.000000 
#    z 0.000000 0.000000 1.913810 
# 
# From -- ./inp_files/18036.got.cif
#   From: 2010.05.17/outbox.cif.g08.bks.cpg/sg54_10_cif.got.tgz:18036.got - 2010.06.03 13:09:01.
