data_PCOD9420931
_publ_section_title
;
Structure prediction by ZEFSAII (Michael W. Deem and Ramdas Pophale) SiO2 
 PCOD9420931
Probable space group: P C C A
;
_chemical_formula_sum "Si O2"
_cell_formula_units_Z 60
_cell_length_a 5.179544
_cell_length_b 23.093627
_cell_length_c 34.214396
_cell_angle_alpha 90.000000
_cell_angle_beta 90.000000
_cell_angle_gamma 90.000000
_cell_volume 4092.536405
_symmetry_space_group_name_H-M "P C C A"
_symmetry_group_IT_number 54
_symmetry_cell_setting 'orthorhombic'
loop_
_space_group_symop_operation_xyz
x,y,z
1/2-x,-y,z
1/2+x,-y,1/2-z
-x,y,1/2-z
-x,-y,-z
1/2+x,y,-z
1/2-x,y,1/2+z
x,-y,1/2+z
loop_
_atom_site_type_symbol
_atom_site_label
_atom_site_fract_x
_atom_site_fract_y
_atom_site_fract_z
Si Si1 0.709344 0.848480 0.654222
Si Si2 0.250000 0.000000 0.151611
Si Si3 0.738214 0.931291 0.974400
Si Si4 0.371159 0.059318 0.287262
Si Si5 0.488758 0.667992 0.297078
Si Si6 0.007126 0.260014 0.702829
Si Si7 0.812525 0.886030 0.889936
Si Si8 0.498006 0.536070 0.202330
O O1 0.791046 0.894467 0.688412
O O2 0.591767 0.794562 0.678038
O O3 0.468147 0.870196 0.627814
O O4 0.963127 0.844561 0.627089
O O5 0.436616 0.034497 0.180344
O O6 0.117769 0.048903 0.125298
O O7 0.790545 0.892753 0.936320
O O8 0.750000 0.000000 0.963953
O O9 0.459311 0.920949 0.993404
O O10 0.500000 0.089013 0.250000
O O11 0.250000 0.000000 0.271298
O O12 0.500000 0.665251 0.250000
O O13 0.204957 0.690976 0.306057
O O14 0.520023 0.602371 0.311544
O O15 0.712603 0.713891 0.307990
O O16 0.000000 0.248386 0.750000
O O17 0.250000 0.500000 0.190117
O O18 0.500000 0.538054 0.250000
O O19 0.750000 0.500000 0.190469
#
# Coordination Sequence:
#
# PCOD9420931 Si02
#       8
#     8   4   8   8   8   8   8   8
#     4  11  23  33  49  65  84 114 144 184 222 258
#     4  10  20  32  44  62  82 108 130 166 218 270
#     4  10  20  34  53  74  90 108 126 153 204 279
#     4  11  20  32  44  59  79 107 141 180 225 269
#     4   9  17  28  44  58  82 113 145 187 232 266
#     4  10  19  33  44  61  82 116 158 192 222 262
#     4  11  21  35  50  68  89 106 132 168 217 267
#     4   9  15  23  37  60  83 105 135 177 231 282
#
# _framework density 14.660836
#
# number of rings (size 3 to 8) (size 9 to 14) (size 15 to 20)
#    0.000    1.867    2.667    2.800    0.000    3.200 
#    0.000    2.000    0.000    0.000    0.000    0.000 
#    0.000    0.000    0.000    0.000    0.000    0.000 
#
# Total GULP energy -334141.823443 kJ/mol
# GULP energy per Si atom -5569.030391 kJ/mol
# Density = 1.462747 g / cm^3
# Si number density = 14.660836 Si / 1000 Ang^3
#
#
#
# Elastic Constant Matrix: (Units=GPa)
#
#
# Indices 1 2 3 4 5 6 
#
# 1 67.9787 6.0175 11.9269 0.0000 0.0000 0.0000
# 2 6.0175 53.2521 17.0254 0.0000 0.0000 0.0000
# 3 11.9269 17.0254 51.1788 0.0000 0.0000 0.0000
# 4 0.0000 0.0000 0.0000 8.1466 0.0000 0.0000
# 5 0.0000 0.0000 0.0000 0.0000 11.9948 0.0000
# 6 0.0000 0.0000 0.0000 0.0000 0.0000 15.3242
#
#
#
# Elastic Compliance Matrix: (Units=1/GPa)
#
#
# Indices 1 2 3 4 5 6 
#
# 1 0.015358 -0.000662 -0.003359 0.000000 0.000000 0.000000
# 2 -0.000662 0.021042 -0.006846 0.000000 0.000000 0.000000
# 3 -0.003359 -0.006846 0.022600 0.000000 0.000000 0.000000
# 4 0.000000 0.000000 0.000000 0.122751 0.000000 0.000000
# 5 0.000000 0.000000 0.000000 0.000000 0.083370 0.000000
# 6 0.000000 0.000000 0.000000 0.000000 0.000000 0.065256
#
#
# Mechanical properties :
#
#
# Convention : Reuss Voigt Hill
#
# Bulk Modulus (GPa) = 26.83332 26.92768 26.88050
# Shear Modulus (GPa) = 13.71621 16.25576 14.98598
#
# Velocity S-wave (km/s) = 3.06202 3.33346 3.20062
# Velocity P-wave (km/s) = 5.55372 5.76393 5.65980
#
# Compressibility (1/GPa) = 0.03726710
#
# Stress axis : x y z
#
# Youngs Moduli (GPa) = 65.11095 47.52391 44.24874
#
# Poissons Ratio (x) = 0.03144 0.14864
# Poissons Ratio (y) = 0.04307 0.30292
# Poissons Ratio (z) = 0.21871 0.32534
#
# Static dielectric constant tensor:
#      x y z
#    x 1.524800 0.000000 0.000000 
#    y 0.000000 1.504740 0.000000 
#    z 0.000000 0.000000 1.473880 
# 
# From -- ./inp_files/27326.got.cif
#   From: 2010.05.17/outbox.cif.g08.bks.cpg/sg54_14_cif.got.tgz:27326.got - 2010.06.03 13:09:01.
