data_PCOD9420333
_publ_section_title
;
Structure prediction by ZEFSAII (Michael W. Deem and Ramdas Pophale) SiO2 
 PCOD9420333
Probable space group: P C C A
;
_chemical_formula_sum "Si O2"
_cell_formula_units_Z 56
_cell_length_a 5.466370
_cell_length_b 28.795109
_cell_length_c 17.490678
_cell_angle_alpha 90.000000
_cell_angle_beta 90.000000
_cell_angle_gamma 90.000000
_cell_volume 2753.115273
_symmetry_space_group_name_H-M "P C C A"
_symmetry_group_IT_number 54
_symmetry_cell_setting 'orthorhombic'
loop_
_space_group_symop_operation_xyz
x,y,z
1/2-x,-y,z
1/2+x,-y,1/2-z
-x,y,1/2-z
-x,-y,-z
1/2+x,y,-z
1/2-x,y,1/2+z
x,-y,1/2+z
loop_
_atom_site_type_symbol
_atom_site_label
_atom_site_fract_x
_atom_site_fract_y
_atom_site_fract_z
Si Si1 0.749998 0.189073 0.079061
Si Si2 0.750000 0.318753 0.719537
Si Si3 0.750000 0.443698 0.541094
Si Si4 0.750002 0.848292 0.905434
Si Si5 0.750004 0.051843 0.449825
Si Si6 0.250000 0.425779 0.280842
Si Si7 0.749997 0.298695 0.544117
O O1 0.501008 0.175135 0.121391
O O2 0.750001 0.242964 0.056833
O O3 0.998986 0.175135 0.121392
O O4 0.749996 0.161441 0.997896
O O5 0.500000 0.296506 0.750000
O O6 0.750000 0.372221 0.747945
O O7 0.750000 0.319587 0.628469
O O8 0.000000 0.296506 0.750000
O O9 0.750000 0.500000 0.540076
O O10 0.500000 0.428129 0.500000
O O11 0.750000 0.428000 0.628292
O O12 0.750000 0.903513 0.895328
O O13 0.500007 0.055232 0.500001
O O14 0.750000 0.000000 0.415221
O O15 0.500000 0.447148 0.250000
O O16 0.000000 0.447148 0.250000
O O17 0.499996 0.310898 0.500001
#
# Coordination Sequence:
#
# PCOD9420333 Si02
#       7
#     8   8   8   8   8   8   8
#     4  10  16  25  39  60  85 110 145 200 242 282
#     4  10  23  41  55  75 110 145 172 215 278 319
#     4  10  21  36  56  85 119 146 174 221 275 315
#     4  10  14  25  36  51  87 114 143 194 247 279
#     4  10  16  20  29  45  67 109 156 178 210 287
#     4  10  21  38  59  79 105 145 188 219 254 318
#     4  12  21  33  54  81  99 125 178 225 248 308
#
# _framework density 20.340593999999999
#
# number of rings (size 3 to 8) (size 9 to 14) (size 15 to 20)
#    0.000    1.714    5.714    1.714    0.000    1.714 
#    0.000    0.000    0.000    0.000    0.000    0.000 
#    0.000    0.000    0.000    0.000    0.000   24.286 
#
# Total GULP energy -312412.504807 kJ/mol
# GULP energy per Si atom -5578.794729 kJ/mol
# Density = 2.029430 g / cm^3
# Si number density = 20.340594 Si / 1000 Ang^3
#
#
#
# Elastic Constant Matrix: (Units=GPa)
#
#
# Indices 1 2 3 4 5 6 
#
# 1 246.5156 5.6012 53.8522 0.0000 0.0000 0.0000
# 2 5.6012 65.6040 -15.1959 0.0000 0.0000 0.0000
# 3 53.8522 -15.1959 64.0689 0.0000 0.0000 0.0000
# 4 0.0000 0.0000 0.0000 -3.4756 0.0000 0.0000
# 5 0.0000 0.0000 0.0000 0.0000 26.5723 0.0000
# 6 0.0000 0.0000 0.0000 0.0000 0.0000 5.2865
#
#
#
# Elastic Compliance Matrix: (Units=1/GPa)
#
#
# Indices 1 2 3 4 5 6 
#
# 1 0.005107 -0.001514 -0.004652 0.000000 0.000000 0.000000
# 2 -0.001514 0.016578 0.005204 0.000000 0.000000 0.000000
# 3 -0.004652 0.005204 0.020752 0.000000 0.000000 0.000000
# 4 0.000000 0.000000 0.000000 -0.287717 0.000000 0.000000
# 5 0.000000 0.000000 0.000000 0.000000 0.037633 0.000000
# 6 0.000000 0.000000 0.000000 0.000000 0.000000 0.189160
#
#
# Mechanical properties :
#
#
# Convention : Reuss Voigt Hill
#
# Bulk Modulus (GPa) = 24.68232 51.63372 38.15802
# Shear Modulus (GPa) = -1633.93464 27.80537 -803.06464
#
# Velocity S-wave (km/s) = -28.37308 3.70129 -19.89135
# Velocity P-wave (km/s) = 32.57629 6.61103 22.55558
#
# Compressibility (1/GPa) = 0.04051484
#
# Stress axis : x y z
#
# Youngs Moduli (GPa) = 195.80574 60.32228 48.18724
#
# Poissons Ratio (x) = 0.09130 0.22415
# Poissons Ratio (y) = 0.29635 -0.25077
# Poissons Ratio (z) = 0.91082 -0.31392
#
# Static dielectric constant tensor:
#      x y z
#    x 1.777220 0.000000 0.000000 
#    y 0.000000 1.746880 0.000000 
#    z 0.000000 0.000000 1.657750 
# 
# From -- ./inp_files/10984.got.cif
#   From: 2010.05.17/outbox.cif.g08.bks.cpg/sg54_6_cif.got.tgz:10984.got - 2010.06.03 13:09:01.
