data_PCOD9420461
_publ_section_title
;
Structure prediction by ZEFSAII (Michael W. Deem and Ramdas Pophale) SiO2 
 PCOD9420461
Probable space group: P C C A
;
_chemical_formula_sum "Si O2"
_cell_formula_units_Z 32
_cell_length_a 14.086920
_cell_length_b 16.842710
_cell_length_c 5.406408
_cell_angle_alpha 90.000000
_cell_angle_beta 90.000000
_cell_angle_gamma 90.000000
_cell_volume 1282.734679
_symmetry_space_group_name_H-M "P C C A"
_symmetry_group_IT_number 54
_symmetry_cell_setting 'orthorhombic'
loop_
_space_group_symop_operation_xyz
x,y,z
1/2-x,-y,z
1/2+x,-y,1/2-z
-x,y,1/2-z
-x,-y,-z
1/2+x,y,-z
1/2-x,y,1/2+z
x,-y,1/2+z
loop_
_atom_site_type_symbol
_atom_site_label
_atom_site_fract_x
_atom_site_fract_y
_atom_site_fract_z
Si Si1 0.387873 0.291847 0.733732
Si Si2 0.890246 0.529447 0.961450
Si Si3 0.385089 0.784876 0.734269
Si Si4 0.142500 0.032736 0.618211
O O1 0.500000 0.274266 0.750000
O O2 0.381683 0.382585 0.646462
O O3 0.350053 0.238512 0.507814
O O4 0.353897 0.273361 0.011154
O O5 0.850724 0.474836 0.739809
O O6 0.000000 0.500000 0.000000
O O7 0.500000 0.781039 0.750000
O O8 0.357639 0.873733 0.662369
O O9 0.250000 0.000000 0.600557
O O10 0.098369 0.009399 0.356864
#
# Coordination Sequence:
#
# PCOD9420461 Si02
#       4
#     8   8   8   8
#     4  10  18  29  43  68 107 143 183 212 256 311
#     4  10  17  24  41  63  95 147 195 202 239 303
#     4  10  21  32  49  75 106 140 175 219 275 316
#     4  10  21  38  58  76  97 133 177 229 270 326
#
# _framework density 24.9467
#
# number of rings (size 3 to 8) (size 9 to 14) (size 15 to 20)
#    0.000    2.000    2.500    3.000    7.000    1.000 
#    0.000    0.000    0.000    0.000    0.000    0.000 
#    0.000    0.000    0.000  315.000    0.000    0.000 
#
# Total GULP energy -178913.487980 kJ/mol
# GULP energy per Si atom -5591.046499 kJ/mol
# Density = 2.488992 g / cm^3
# Si number density = 24.946700 Si / 1000 Ang^3
#
#
#
# Elastic Constant Matrix: (Units=GPa)
#
#
# Indices 1 2 3 4 5 6 
#
# 1 109.1771 1.1271 15.6933 0.0000 0.0000 0.0000
# 2 1.1271 144.2359 77.9458 0.0000 0.0000 0.0000
# 3 15.6933 77.9458 230.1523 0.0000 0.0000 0.0000
# 4 0.0000 0.0000 0.0000 56.8225 0.0000 0.0000
# 5 0.0000 0.0000 0.0000 0.0000 -17.9486 0.0000
# 6 0.0000 0.0000 0.0000 0.0000 0.0000 1.4386
#
#
#
# Elastic Compliance Matrix: (Units=1/GPa)
#
#
# Indices 1 2 3 4 5 6 
#
# 1 0.009263 0.000329 -0.000743 0.000000 0.000000 0.000000
# 2 0.000329 0.008498 -0.002900 0.000000 0.000000 0.000000
# 3 -0.000743 -0.002900 0.005378 0.000000 0.000000 0.000000
# 4 0.000000 0.000000 0.000000 0.017599 0.000000 0.000000
# 5 0.000000 0.000000 0.000000 0.000000 -0.055715 0.000000
# 6 0.000000 0.000000 0.000000 0.000000 0.000000 0.695129
#
#
# Mechanical properties :
#
#
# Convention : Reuss Voigt Hill
#
# Bulk Modulus (GPa) = 60.56938 74.78865 67.67902
# Shear Modulus (GPa) = 7.22247 33.98244 20.60246
#
# Velocity S-wave (km/s) = 1.70336 3.69481 2.87689
# Velocity P-wave (km/s) = 5.31044 6.94598 6.18253
#
# Compressibility (1/GPa) = 0.01650999
#
# Stress axis : x y z
#
# Youngs Moduli (GPa) = 107.95817 117.67571 185.94575
#
# Poissons Ratio (x) = -0.03874 0.13817
# Poissons Ratio (y) = -0.03554 0.53933
# Poissons Ratio (z) = 0.08022 0.34131
#
# Static dielectric constant tensor:
#      x y z
#    x 2.351040 0.000000 0.000000 
#    y 0.000000 1.962010 0.000000 
#    z 0.000000 0.000000 1.995650 
# 
# From -- ./inp_files/868.got.cif
#   From: 2010.05.17/outbox.cif.g08.bks.cpg/sg54_1_cif.got.tgz:868.got - 2010.06.03 13:09:01.
