data_PCOD9420042
_publ_section_title
;
Structure prediction by ZEFSAII (Michael W. Deem and Ramdas Pophale) SiO2 
 PCOD9420042
Probable space group: P M N A
;
_chemical_formula_sum "Si O2"
_cell_formula_units_Z 56
_cell_length_a 7.279444
_cell_length_b 13.540522
_cell_length_c 26.924384
_cell_angle_alpha 90.000000
_cell_angle_beta 90.000000
_cell_angle_gamma 90.000000
_cell_volume 2653.868456
_symmetry_space_group_name_H-M "P M N A"
_symmetry_group_IT_number 53
_symmetry_cell_setting 'orthorhombic'
loop_
_space_group_symop_operation_xyz
x,y,z
1/2-x,-y,1/2+z
x,-y,-z
1/2-x,y,1/2-z
-x,-y,-z
1/2+x,y,1/2-z
-x,y,z
1/2+x,-y,1/2+z
loop_
_atom_site_type_symbol
_atom_site_label
_atom_site_fract_x
_atom_site_fract_y
_atom_site_fract_z
Si Si1 0.276558 0.681108 0.989046
Si Si2 0.219251 0.243510 0.308884
Si Si3 0.722482 0.106733 0.984243
Si Si4 0.276175 0.628955 0.101314
Si Si5 0.277464 0.159689 0.871392
Si Si6 0.724289 0.589423 0.885030
Si Si7 0.218605 0.024193 0.308510
O O1 0.500000 0.678527 0.989499
O O2 0.218642 0.622494 0.940373
O O3 0.219557 0.795958 0.985924
O O4 0.220535 0.640569 0.043224
O O5 0.250000 0.259312 0.250000
O O6 0.286689 0.331713 0.343924
O O7 0.289011 0.133516 0.322850
O O8 0.000000 0.240295 0.315578
O O9 0.500000 0.104529 0.987906
O O10 0.767410 0.126566 0.927160
O O11 0.790590 0.000000 0.000000
O O12 0.500000 0.630240 0.100791
O O13 0.216412 0.726387 0.131417
O O14 0.218247 0.523695 0.122562
O O15 0.500000 0.162183 0.867063
O O16 0.209520 0.073668 0.835361
O O17 0.500000 0.590255 0.884471
O O18 0.250000 0.015195 0.250000
O O19 0.000000 0.026291 0.318049
#
# Coordination Sequence:
#
# PCOD9420042 Si02
#       7
#     8   8   8   8   8   8   8
#     4   8  13  19  29  49  76 105 133 158 189 237
#     4   9  18  30  43  60  81 105 134 170 206 237
#     4   8  13  18  27  46  74 103 127 154 192 237
#     4   8  13  22  33  51  79 108 132 158 196 240
#     4   8  14  23  35  51  75 104 129 159 199 236
#     4   9  15  22  36  54  76 107 138 162 195 242
#     4   9  17  29  44  60  80 105 136 170 203 240
#
# _framework density 21.101272000000002
#
# number of rings (size 3 to 8) (size 9 to 14) (size 15 to 20)
#    0.000    3.571    0.000    2.143    2.000    1.714 
#    0.000    0.714    0.000    0.000    0.000    0.000 
#    0.000    7.429    0.000    0.286    0.000    0.286 
#
# Total GULP energy -312245.754819 kJ/mol
# GULP energy per Si atom -5575.817050 kJ/mol
# Density = 2.105325 g / cm^3
# Si number density = 21.101272 Si / 1000 Ang^3
#
#
#
# Elastic Constant Matrix: (Units=GPa)
#
#
# Indices 1 2 3 4 5 6 
#
# 1 90.5856 10.6338 1.3611 0.0000 0.0000 0.0000
# 2 10.6338 262.2632 99.3439 0.0000 0.0000 0.0000
# 3 1.3611 99.3439 61.1913 0.0000 0.0000 0.0000
# 4 0.0000 0.0000 0.0000 39.7053 0.0000 0.0000
# 5 0.0000 0.0000 0.0000 0.0000 -13.2467 0.0000
# 6 0.0000 0.0000 0.0000 0.0000 0.0000 -18.2804
#
#
#
# Elastic Compliance Matrix: (Units=1/GPa)
#
#
# Indices 1 2 3 4 5 6 
#
# 1 0.011129 -0.000928 0.001260 0.000000 0.000000 0.000000
# 2 -0.000928 0.009981 -0.016183 0.000000 0.000000 0.000000
# 3 0.001260 -0.016183 0.042587 0.000000 0.000000 0.000000
# 4 0.000000 0.000000 0.000000 0.025186 0.000000 0.000000
# 5 0.000000 0.000000 0.000000 0.000000 -0.075491 0.000000
# 6 0.000000 0.000000 0.000000 0.000000 0.000000 -0.054704
#
#
# Mechanical properties :
#
#
# Convention : Reuss Voigt Hill
#
# Bulk Modulus (GPa) = 31.25598 70.74642 51.00120
# Shear Modulus (GPa) = 4737.65243 21.81575 2379.73409
#
# Velocity S-wave (km/s) = 47.43492 3.21886 33.61869
# Velocity P-wave (km/s) = 54.90847 6.88583 39.13026
#
# Compressibility (1/GPa) = 0.03199388
#
# Stress axis : x y z
#
# Youngs Moduli (GPa) = 89.85257 100.19505 23.48150
#
# Poissons Ratio (x) = 0.09303 -0.02958
# Poissons Ratio (y) = 0.08342 0.37999
# Poissons Ratio (z) = -0.11320 1.62143
#
# Static dielectric constant tensor:
#      x y z
#    x 1.971620 0.000000 0.000000 
#    y 0.000000 1.782300 0.000000 
#    z 0.000000 0.000000 1.695400 
# 
# From -- ./inp_files/35004.got.cif
#   From: 2010.05.17/outbox.cif.g08.bks.cpg/sg53_18_cif.got.tgz:35004.got - 2010.06.03 12:45:16.
