data_PCOD9420999
_publ_section_title
;
Structure prediction by ZEFSAII (Michael W. Deem and Ramdas Pophale) SiO2 
 PCOD9420999
Probable space group: P C C A
;
_chemical_formula_sum "Si O2"
_cell_formula_units_Z 60
_cell_length_a 15.188855
_cell_length_b 9.745838
_cell_length_c 21.936168
_cell_angle_alpha 90.000000
_cell_angle_beta 90.000000
_cell_angle_gamma 90.000000
_cell_volume 3247.169714
_symmetry_space_group_name_H-M "P C C A"
_symmetry_group_IT_number 54
_symmetry_cell_setting 'orthorhombic'
loop_
_space_group_symop_operation_xyz
x,y,z
1/2-x,-y,z
1/2+x,-y,1/2-z
-x,y,1/2-z
-x,-y,-z
1/2+x,y,-z
1/2-x,y,1/2+z
x,-y,1/2+z
loop_
_atom_site_type_symbol
_atom_site_label
_atom_site_fract_x
_atom_site_fract_y
_atom_site_fract_z
Si Si1 0.320313 0.747181 0.404623
Si Si2 0.967193 0.924227 0.436760
Si Si3 0.000000 0.658393 0.750000
Si Si4 0.171548 0.315343 0.543863
Si Si5 0.126744 0.729139 0.405811
Si Si6 0.129289 0.378652 0.043609
Si Si7 0.490576 0.188107 0.623320
Si Si8 0.844855 0.504335 0.692157
O O1 0.327279 0.682803 0.470934
O O2 0.221659 0.804989 0.401714
O O3 0.406256 0.836842 0.392083
O O4 0.328311 0.623007 0.357590
O O5 0.885985 0.818671 0.442162
O O6 0.047516 0.834751 0.410826
O O7 0.943111 0.046191 0.390852
O O8 0.000000 0.000000 0.500000
O O9 0.016043 0.752006 0.690800
O O10 0.081559 0.559579 0.763298
O O11 0.274491 0.318627 0.562894
O O12 0.128606 0.461085 0.561510
O O13 0.123553 0.645631 0.470375
O O14 0.125644 0.627193 0.347688
O O15 0.050718 0.298943 0.076795
O O16 0.750000 0.500000 0.724289
#
# Coordination Sequence:
#
# PCOD9420999 Si02
#       8
#     8   8   4   8   8   8   8   8
#     4   9  17  32  58  85 120 152 190 241 297 365
#     4  12  23  35  55  94 128 162 191 245 316 377
#     4  10  24  42  64  78 116 174 204 256 294 350
#     4  10  20  34  56  94 126 156 191 241 316 370
#     4  10  19  33  59  93 120 148 193 255 306 356
#     4  10  20  36  61  89 124 158 195 250 310 360
#     4  11  23  41  57  86 120 168 205 236 305 368
#     4   9  18  37  62  90 115 150 212 259 300 347
#
# _framework density 18.477630999999999
#
# number of rings (size 3 to 8) (size 9 to 14) (size 15 to 20)
#    0.000    1.867    4.000    0.000    3.733    2.133 
#    2.400    0.667    0.000    4.800    0.000    0.000 
#    0.000    0.000    0.000    0.000    0.000    0.000 
#
# Total GULP energy -334365.416281 kJ/mol
# GULP energy per Si atom -5572.756938 kJ/mol
# Density = 1.843558 g / cm^3
# Si number density = 18.477631 Si / 1000 Ang^3
#
#
#
# Elastic Constant Matrix: (Units=GPa)
#
#
# Indices 1 2 3 4 5 6 
#
# 1 76.5953 27.7939 35.3511 0.0000 0.0000 0.0000
# 2 27.7939 73.5846 17.7786 0.0000 0.0000 0.0000
# 3 35.3511 17.7786 59.5201 0.0000 0.0000 0.0000
# 4 0.0000 0.0000 0.0000 9.5961 0.0000 0.0000
# 5 0.0000 0.0000 0.0000 0.0000 26.4476 0.0000
# 6 0.0000 0.0000 0.0000 0.0000 0.0000 28.7940
#
#
#
# Elastic Compliance Matrix: (Units=1/GPa)
#
#
# Indices 1 2 3 4 5 6 
#
# 1 0.019513 -0.004926 -0.010118 0.000000 0.000000 0.000000
# 2 -0.004926 0.015890 -0.001821 0.000000 0.000000 0.000000
# 3 -0.010118 -0.001821 0.023354 0.000000 0.000000 0.000000
# 4 0.000000 0.000000 0.000000 0.104209 0.000000 0.000000
# 5 0.000000 0.000000 0.000000 0.000000 0.037811 0.000000
# 6 0.000000 0.000000 0.000000 0.000000 0.000000 0.034729
#
#
# Mechanical properties :
#
#
# Convention : Reuss Voigt Hill
#
# Bulk Modulus (GPa) = 39.95483 41.28302 40.61893
# Shear Modulus (GPa) = 18.01294 21.55265 19.78280
#
# Velocity S-wave (km/s) = 3.12565 3.41899 3.27561
# Velocity P-wave (km/s) = 5.89038 6.16252 6.02798
#
# Compressibility (1/GPa) = 0.02502826
#
# Stress axis : x y z
#
# Youngs Moduli (GPa) = 51.24849 62.93183 42.81845
#
# Poissons Ratio (x) = 0.30998 0.43324
# Poissons Ratio (y) = 0.25243 0.07797
# Poissons Ratio (z) = 0.51853 0.11459
#
# Static dielectric constant tensor:
#      x y z
#    x 1.723880 0.000000 0.000000 
#    y 0.000000 1.609170 0.000000 
#    z 0.000000 0.000000 1.621290 
# 
# From -- ./inp_files/24446.got.cif
#   From: 2010.05.17/outbox.cif.g08.bks.cpg/sg54_13_cif.got.tgz:24446.got - 2010.06.03 13:09:01.
