data_PCOD9420660
_publ_section_title
;
Structure prediction by ZEFSAII (Michael W. Deem and Ramdas Pophale) SiO2 
 PCOD9420660
Probable space group: P C C A
;
_chemical_formula_sum "Si O2"
_cell_formula_units_Z 48
_cell_length_a 9.888037
_cell_length_b 7.770716
_cell_length_c 28.463309
_cell_angle_alpha 90.000000
_cell_angle_beta 90.000000
_cell_angle_gamma 90.000000
_cell_volume 2187.038898
_symmetry_space_group_name_H-M "P C C A"
_symmetry_group_IT_number 54
_symmetry_cell_setting 'orthorhombic'
loop_
_space_group_symop_operation_xyz
x,y,z
1/2-x,-y,z
1/2+x,-y,1/2-z
-x,y,1/2-z
-x,-y,-z
1/2+x,y,-z
1/2-x,y,1/2+z
x,-y,1/2+z
loop_
_atom_site_type_symbol
_atom_site_label
_atom_site_fract_x
_atom_site_fract_y
_atom_site_fract_z
Si Si1 0.059368 0.286206 0.912337
Si Si2 0.651593 0.157596 0.262270
Si Si3 0.298100 0.197750 0.136357
Si Si4 0.978133 0.321370 0.392035
Si Si5 0.735976 0.706351 0.164896
Si Si6 0.622091 0.371632 0.988557
O O1 0.154792 0.216719 0.871233
O O2 0.132714 0.267647 0.962582
O O3 0.908888 0.215787 0.904661
O O4 0.036709 0.489623 0.902507
O O5 0.500000 0.104060 0.250000
O O6 0.639173 0.247448 0.313029
O O7 0.722654 0.247549 0.217832
O O8 0.750000 0.000000 0.271123
O O9 0.166306 0.315837 0.132483
O O10 0.250000 0.000000 0.134461
O O11 0.931432 0.260106 0.444397
O O12 0.090126 0.240928 0.357135
O O13 0.750000 0.500000 0.162913
O O14 0.750000 0.500000 0.979081
O O15 0.500000 0.500000 0.000000
#
# Coordination Sequence:
#
# PCOD9420660 Si02
#       6
#     8   8   8   8   8   8
#     4  10  19  38  61  89 121 155 199 247 297 357
#     4  11  25  44  64  85 115 161 206 244 297 368
#     4  11  24  39  58  85 119 158 205 247 301 358
#     4  10  21  36  61  92 118 156 194 243 300 356
#     4  10  22  38  60  91 121 149 195 253 305 346
#     4  10  18  33  61  92 120 156 199 240 294 364
#
# _framework density 21.947485
#
# number of rings (size 3 to 8) (size 9 to 14) (size 15 to 20)
#    0.000    1.667    1.667    5.000    4.667    1.333 
#    0.000    0.833    0.000    2.000    0.000    0.000 
#    0.000    0.000    0.000    0.000    0.000    0.000 
#
# Total GULP energy -267282.787911 kJ/mol
# GULP energy per Si atom -5568.391415 kJ/mol
# Density = 2.189753 g / cm^3
# Si number density = 21.947485 Si / 1000 Ang^3
#
#
#
# Elastic Constant Matrix: (Units=GPa)
#
#
# Indices 1 2 3 4 5 6 
#
# 1 126.6548 -2.1827 25.0829 0.0000 0.0000 0.0000
# 2 -2.1827 13.5262 13.4566 0.0000 0.0000 0.0000
# 3 25.0829 13.4566 114.7067 0.0000 0.0000 0.0000
# 4 0.0000 0.0000 0.0000 10.0396 0.0000 0.0000
# 5 0.0000 0.0000 0.0000 0.0000 38.5527 0.0000
# 6 0.0000 0.0000 0.0000 0.0000 0.0000 20.3669
#
#
#
# Elastic Compliance Matrix: (Units=1/GPa)
#
#
# Indices 1 2 3 4 5 6 
#
# 1 0.008405 0.003606 -0.002261 0.000000 0.000000 0.000000
# 2 0.003606 0.085246 -0.010789 0.000000 0.000000 0.000000
# 3 -0.002261 -0.010789 0.010478 0.000000 0.000000 0.000000
# 4 0.000000 0.000000 0.000000 0.099605 0.000000 0.000000
# 5 0.000000 0.000000 0.000000 0.000000 0.025939 0.000000
# 6 0.000000 0.000000 0.000000 0.000000 0.000000 0.049099
#
#
# Mechanical properties :
#
#
# Convention : Reuss Voigt Hill
#
# Bulk Modulus (GPa) = 11.73143 36.40015 24.06579
# Shear Modulus (GPa) = 15.33390 28.36056 21.84723
#
# Velocity S-wave (km/s) = 2.64609 3.59862 3.15847
# Velocity P-wave (km/s) = 3.83309 5.82133 4.92851
#
# Compressibility (1/GPa) = 0.08524108
#
# Stress axis : x y z
#
# Youngs Moduli (GPa) = 118.97133 11.73073 95.43816
#
# Poissons Ratio (x) = -0.04230 0.21579
# Poissons Ratio (y) = -0.42898 1.02968
# Poissons Ratio (z) = 0.26900 0.12656
#
# Static dielectric constant tensor:
#      x y z
#    x 1.762330 0.000000 0.000000 
#    y 0.000000 2.001160 0.000000 
#    z 0.000000 0.000000 1.959960 
# 
# From -- ./inp_files/27699.got.cif
#   From: 2010.05.17/outbox.cif.g08.bks.cpg/sg54_14_cif.got.tgz:27699.got - 2010.06.03 13:09:01.
