data_PCOD9420533
_publ_section_title
;
Structure prediction by ZEFSAII (Michael W. Deem and Ramdas Pophale) SiO2 
 PCOD9420533
Probable space group: P C C A
;
_chemical_formula_sum "Si O2"
_cell_formula_units_Z 64
_cell_length_a 11.466200
_cell_length_b 10.695062
_cell_length_c 22.562933
_cell_angle_alpha 90.000000
_cell_angle_beta 90.000000
_cell_angle_gamma 90.000000
_cell_volume 2766.931280
_symmetry_space_group_name_H-M "P C C A"
_symmetry_group_IT_number 54
_symmetry_cell_setting 'orthorhombic'
loop_
_space_group_symop_operation_xyz
x,y,z
1/2-x,-y,z
1/2+x,-y,1/2-z
-x,y,1/2-z
-x,-y,-z
1/2+x,y,-z
1/2-x,y,1/2+z
x,-y,1/2+z
loop_
_atom_site_type_symbol
_atom_site_label
_atom_site_fract_x
_atom_site_fract_y
_atom_site_fract_z
Si Si1 0.468195 0.039975 0.810503
Si Si2 0.888765 0.736774 0.981181
Si Si3 0.919966 0.323495 0.612591
Si Si4 0.219452 0.234607 0.316589
Si Si5 0.323955 0.267828 0.086547
Si Si6 0.949038 0.394921 0.108738
Si Si7 0.619545 0.005044 0.416296
Si Si8 0.862616 0.283730 0.310656
O O1 0.500000 0.968953 0.750000
O O2 0.339122 0.097527 0.811675
O O3 0.515078 0.978157 0.870000
O O4 0.554466 0.161702 0.808154
O O5 0.767425 0.674623 0.959180
O O6 0.991399 0.653910 0.951859
O O7 0.896301 0.877704 0.953202
O O8 0.887042 0.741144 0.050961
O O9 0.853444 0.253779 0.665818
O O10 0.059849 0.327990 0.610683
O O11 0.891550 0.470065 0.608710
O O12 0.185493 0.303641 0.255153
O O13 0.148113 0.298052 0.369833
O O14 0.242368 0.255657 0.144705
O O15 0.366598 0.139809 0.053522
O O16 0.053378 0.385182 0.158265
O O17 0.750000 0.000000 0.387441
#
# Coordination Sequence:
#
# PCOD9420533 Si02
#       8
#     8   8   8   8   8   8   8   8
#     4   9  16  34  65  89 116 160 213 260 313 397
#     4  10  22  40  67  87 121 171 215 274 322 384
#     4  12  26  39  57  98 132 162 215 274 322 383
#     4  10  21  40  63  92 130 168 209 264 331 399
#     4  10  23  41  62  94 126 167 217 269 336 385
#     4  10  20  43  65  90 117 169 222 254 315 391
#     4  10  17  39  66  90 118 168 221 259 326 396
#     4   9  18  40  67  88 123 166 212 262 322 400
#
# _framework density 23.130317000000002
#
# number of rings (size 3 to 8) (size 9 to 14) (size 15 to 20)
#    0.000    2.000    5.000    1.875    1.750    3.000 
#   11.250    3.125    0.000    0.000    0.000    0.000 
#    0.000    0.000    0.000    0.000    0.000    0.000 
#
# Total GULP energy -356802.551146 kJ/mol
# GULP energy per Si atom -5575.039862 kJ/mol
# Density = 2.307767 g / cm^3
# Si number density = 23.130317 Si / 1000 Ang^3
#
#
#
# Elastic Constant Matrix: (Units=GPa)
#
#
# Indices 1 2 3 4 5 6 
#
# 1 87.5437 27.2302 14.5172 0.0000 0.0000 0.0000
# 2 27.2302 33.7029 7.3059 0.0000 0.0000 0.0000
# 3 14.5172 7.3059 82.4187 0.0000 0.0000 0.0000
# 4 0.0000 0.0000 0.0000 4.0829 0.0000 0.0000
# 5 0.0000 0.0000 0.0000 0.0000 19.6633 0.0000
# 6 0.0000 0.0000 0.0000 0.0000 0.0000 20.1378
#
#
#
# Elastic Compliance Matrix: (Units=1/GPa)
#
#
# Indices 1 2 3 4 5 6 
#
# 1 0.015474 -0.012145 -0.001649 0.000000 0.000000 0.000000
# 2 -0.012145 0.039784 -0.001387 0.000000 0.000000 0.000000
# 3 -0.001649 -0.001387 0.012547 0.000000 0.000000 0.000000
# 4 0.000000 0.000000 0.000000 0.244923 0.000000 0.000000
# 5 0.000000 0.000000 0.000000 0.000000 0.050856 0.000000
# 6 0.000000 0.000000 0.000000 0.000000 0.000000 0.049658
#
#
# Mechanical properties :
#
#
# Convention : Reuss Voigt Hill
#
# Bulk Modulus (GPa) = 26.70774 33.53022 30.11898
# Shear Modulus (GPa) = 10.96288 19.08427 15.02358
#
# Velocity S-wave (km/s) = 2.17943 2.87553 2.55133
# Velocity P-wave (km/s) = 4.23142 5.05496 4.66141
#
# Compressibility (1/GPa) = 0.03744233
#
# Stress axis : x y z
#
# Youngs Moduli (GPa) = 64.62505 25.13568 79.70278
#
# Poissons Ratio (x) = 0.30526 0.13143
# Poissons Ratio (y) = 0.78485 0.11059
# Poissons Ratio (z) = 0.10657 0.03487
#
# Static dielectric constant tensor:
#      x y z
#    x 1.943620 0.000000 0.000000 
#    y 0.000000 1.920490 0.000000 
#    z 0.000000 0.000000 1.894250 
# 
# From -- ./inp_files/24270.got.cif
#   From: 2010.05.17/outbox.cif.g08.bks.cpg/sg54_13_cif.got.tgz:24270.got - 2010.06.03 13:09:01.
