data_PCOD9420191
_publ_section_title
;
Structure prediction by ZEFSAII (Michael W. Deem and Ramdas Pophale) SiO2 
 PCOD9420191
Probable space group: P M N A
;
_chemical_formula_sum "Si O2"
_cell_formula_units_Z 64
_cell_length_a 18.000000
_cell_length_b 21.000000
_cell_length_c 9.000000
_cell_angle_alpha 90.000000
_cell_angle_beta 90.000000
_cell_angle_gamma 90.000000
_cell_volume 3402.000000
_symmetry_space_group_name_H-M "P M N A"
_symmetry_group_IT_number 53
_symmetry_cell_setting 'orthorhombic'
loop_
_space_group_symop_operation_xyz
x,y,z
1/2-x,-y,1/2+z
x,-y,-z
1/2-x,y,1/2-z
-x,-y,-z
1/2+x,y,1/2-z
-x,y,z
1/2+x,-y,1/2+z
loop_
_atom_site_type_symbol
_atom_site_label
_atom_site_fract_x
_atom_site_fract_y
_atom_site_fract_z
Si Si1 0.089600 0.132061 0.622042
Si Si2 0.664947 0.896794 0.809239
Si Si3 0.585787 0.355260 0.410564
Si Si4 0.171997 0.520836 0.827019
Si Si5 0.913600 0.396810 0.745881
Si Si6 0.160885 0.242701 0.246260
Si Si7 0.911258 0.274516 0.560354
Si Si8 0.089135 0.016403 0.833119
O O1 0.143585 0.114743 0.482974
O O2 0.100193 0.207760 0.648557
O O3 0.106987 0.084938 0.759344
O O4 0.000000 0.123554 0.585335
O O5 0.750000 0.903862 0.750000
O O6 0.637473 0.831264 0.730775
O O7 0.622172 0.960384 0.766312
O O8 0.500000 0.348300 0.365951
O O9 0.622243 0.415649 0.328123
O O10 0.588491 0.371539 0.584857
O O11 0.629072 0.290729 0.374757
O O12 0.250000 0.534186 0.750000
O O13 0.132942 0.461634 0.743853
O O14 0.181274 0.500000 0.000000
O O15 0.886774 0.338638 0.643523
O O16 0.000000 0.410534 0.710461
O O17 0.250000 0.244265 0.250000
O O18 0.129214 0.266545 0.403774
O O19 0.000000 0.279561 0.536608
O O20 0.000000 0.012206 0.833685
O O21 0.115582 0.000000 0.000000
#
# Coordination Sequence:
#
# PCOD9420191 Si02
#       8
#     8   8   8   8   8   8   8   8
#     4   9  18  35  58  80 106 143 180 217 268 323
#     4  10  21  36  54  77 106 143 182 219 265 322
#     4  10  20  35  56  79 104 138 177 219 268 317
#     4  10  21  36  54  77 107 142 177 215 262 316
#     4   9  19  35  55  79 106 137 176 220 264 315
#     4  10  21  36  53  77 109 140 176 221 266 317
#     4   9  18  34  56  81 108 139 177 220 265 315
#     4  10  21  35  54  82 111 139 179 229 271 315
#
# _framework density 18.812463000000001
#
# number of rings (size 3 to 8) (size 9 to 14) (size 15 to 20)
#    0.000    2.375    0.000    1.875    0.000    9.000 
#    0.000    2.500    0.000    8.250    0.000    0.000 
#    0.000    0.000    0.000    0.000    0.000    0.000 
#
# Total GULP energy -356899.018769 kJ/mol
# GULP energy per Si atom -5576.547168 kJ/mol
# Density = 1.876965 g / cm^3
# Si number density = 18.812463 Si / 1000 Ang^3
#
#
#
# Elastic Constant Matrix: (Units=GPa)
#
#
# Indices 1 2 3 4 5 6 
#
# 1 26.8166 -11.9338 -5.8406 0.0000 0.0000 0.0000
# 2 -11.9338 31.8413 -9.3473 0.0000 0.0000 0.0000
# 3 -5.8406 -9.3473 14.7506 0.0000 0.0000 0.0000
# 4 0.0000 0.0000 0.0000 32.3978 0.0000 0.0000
# 5 0.0000 0.0000 0.0000 0.0000 22.2936 0.0000
# 6 0.0000 0.0000 0.0000 0.0000 0.0000 94.0461
#
#
#
# Elastic Compliance Matrix: (Units=1/GPa)
#
#
# Indices 1 2 3 4 5 6 
#
# 1 0.066347 0.040023 0.051633 0.000000 0.000000 0.000000
# 2 0.040023 0.062727 0.055597 0.000000 0.000000 0.000000
# 3 0.051633 0.055597 0.123469 0.000000 0.000000 0.000000
# 4 0.000000 0.000000 0.000000 0.030866 0.000000 0.000000
# 5 0.000000 0.000000 0.000000 0.000000 0.044856 0.000000
# 6 0.000000 0.000000 0.000000 0.000000 0.000000 0.010633
#
#
# Mechanical properties :
#
#
# Convention : Reuss Voigt Hill
#
# Bulk Modulus (GPa) = 1.82799 2.12947 1.97873
# Shear Modulus (GPa) = 22.05147 36.44951 29.25049
#
# Velocity S-wave (km/s) = 3.42742 4.40650 3.94743
# Velocity P-wave (km/s) = 4.07881 5.19847 4.67230
#
# Compressibility (1/GPa) = 0.54704836
#
# Stress axis : x y z
#
# Youngs Moduli (GPa) = 15.07232 15.94212 8.09918
#
# Poissons Ratio (x) = -0.63806 -0.41818
# Poissons Ratio (y) = -0.60324 -0.45029
# Poissons Ratio (z) = -0.77822 -0.88633
#
# Static dielectric constant tensor:
#      x y z
#    x 1.644750 0.000000 0.000000 
#    y 0.000000 1.642300 0.000000 
#    z 0.000000 0.000000 1.658630 
# 
# From -- ./inp_files/10231.got.cif
#   From: 2010.05.17/outbox.ucp.g08.bks.cvg/sg53_6_cif.got.tgz:10231.got - 2010.06.11 16:32:34.
