data_PCOD9420934
_publ_section_title
;
Structure prediction by ZEFSAII (Michael W. Deem and Ramdas Pophale) SiO2 
 PCOD9420934
Probable space group: P C C A
;
_chemical_formula_sum "Si O2"
_cell_formula_units_Z 48
_cell_length_a 5.237201
_cell_length_b 30.327603
_cell_length_c 14.475501
_cell_angle_alpha 90.000000
_cell_angle_beta 90.000000
_cell_angle_gamma 90.000000
_cell_volume 2299.169196
_symmetry_space_group_name_H-M "P C C A"
_symmetry_group_IT_number 54
_symmetry_cell_setting 'orthorhombic'
loop_
_space_group_symop_operation_xyz
x,y,z
1/2-x,-y,z
1/2+x,-y,1/2-z
-x,y,1/2-z
-x,-y,-z
1/2+x,y,-z
1/2-x,y,1/2+z
x,-y,1/2+z
loop_
_atom_site_type_symbol
_atom_site_label
_atom_site_fract_x
_atom_site_fract_y
_atom_site_fract_z
Si Si1 0.713298 0.140451 0.563407
Si Si2 0.171435 0.955155 0.936588
Si Si3 0.497671 0.480232 0.103302
Si Si4 0.999335 0.621616 0.137615
Si Si5 0.502925 0.673714 0.139281
Si Si6 0.946087 0.229868 0.060763
O O1 0.495378 0.141118 0.482173
O O2 0.692636 0.092644 0.610912
O O3 0.636776 0.185473 0.615989
O O4 0.250000 0.000000 0.883562
O O5 0.388883 0.955965 0.018110
O O6 0.750000 0.500000 0.147364
O O7 0.480372 0.427832 0.101150
O O8 0.250000 0.500000 0.149928
O O9 0.500000 0.500000 0.000000
O O10 0.231446 0.653663 0.109326
O O11 0.000000 0.618838 0.250000
O O12 0.731912 0.642399 0.107837
O O13 0.500000 0.672865 0.250000
O O14 0.566115 0.723382 0.110161
O O15 0.732291 0.228405 0.979811
#
# Coordination Sequence:
#
# PCOD9420934 Si02
#       6
#     8   8   8   8   8   8
#     4   8  14  23  37  54  86 118 149 195 235 278
#     4   8  12  18  29  48  73 111 152 184 227 278
#     4  10  21  38  53  77 104 126 153 191 235 276
#     4  10  21  38  58  76  99 131 162 191 234 286
#     4  10  21  38  55  76 103 132 164 202 241 285
#     4  10  19  33  48  75  99 128 167 201 249 294
#
# _framework density 20.877108
#
# number of rings (size 3 to 8) (size 9 to 14) (size 15 to 20)
#    0.000    2.667    0.000    2.000    0.000    0.667 
#   18.000    0.000    0.000    0.000    0.000    0.000 
#    0.000    0.000    0.000   36.000    0.000    8.667 
#
# Total GULP energy -267357.527661 kJ/mol
# GULP energy per Si atom -5569.948493 kJ/mol
# Density = 2.082959 g / cm^3
# Si number density = 20.877108 Si / 1000 Ang^3
#
#
#
# Elastic Constant Matrix: (Units=GPa)
#
#
# Indices 1 2 3 4 5 6 
#
# 1 144.8008 30.2828 1.3199 0.0000 0.0000 0.0000
# 2 30.2828 216.3144 12.0756 0.0000 0.0000 0.0000
# 3 1.3199 12.0756 45.3369 0.0000 0.0000 0.0000
# 4 0.0000 0.0000 0.0000 102.7462 0.0000 0.0000
# 5 0.0000 0.0000 0.0000 0.0000 -12.2907 0.0000
# 6 0.0000 0.0000 0.0000 0.0000 0.0000 39.0651
#
#
#
# Elastic Compliance Matrix: (Units=1/GPa)
#
#
# Indices 1 2 3 4 5 6 
#
# 1 0.007114 -0.000999 0.000059 0.000000 0.000000 0.000000
# 2 -0.000999 0.004833 -0.001258 0.000000 0.000000 0.000000
# 3 0.000059 -0.001258 0.022390 0.000000 0.000000 0.000000
# 4 0.000000 0.000000 0.000000 0.009733 0.000000 0.000000
# 5 0.000000 0.000000 0.000000 0.000000 -0.081362 0.000000
# 6 0.000000 0.000000 0.000000 0.000000 0.000000 0.025598
#
#
# Mechanical properties :
#
#
# Convention : Reuss Voigt Hill
#
# Bulk Modulus (GPa) = 33.39889 54.86762 44.13325
# Shear Modulus (GPa) = 1862.85153 50.08903 956.47028
#
# Velocity S-wave (km/s) = 29.90369 4.90351 21.42750
# Velocity P-wave (km/s) = 34.76119 7.64183 25.16682
#
# Compressibility (1/GPa) = 0.02994112
#
# Stress axis : x y z
#
# Youngs Moduli (GPa) = 140.55831 206.90943 44.66184
#
# Poissons Ratio (x) = 0.20676 -0.00264
# Poissons Ratio (y) = 0.14046 0.05619
# Poissons Ratio (z) = -0.00830 0.26033
#
# Static dielectric constant tensor:
#      x y z
#    x 1.752820 0.000000 0.000000 
#    y 0.000000 1.870060 0.000000 
#    z 0.000000 0.000000 1.721520 
# 
# From -- ./inp_files/15947.got.cif
#   From: 2010.05.17/outbox.cif.g08.bks.cpg/sg54_8_cif.got.tgz:15947.got - 2010.06.03 13:09:01.
