data_PCOD9420872
_publ_section_title
;
Structure prediction by ZEFSAII (Michael W. Deem and Ramdas Pophale) SiO2 
 PCOD9420872
Probable space group: P C C A
;
_chemical_formula_sum "Si O2"
_cell_formula_units_Z 48
_cell_length_a 22.306509
_cell_length_b 6.144681
_cell_length_c 19.171588
_cell_angle_alpha 90.000000
_cell_angle_beta 90.000000
_cell_angle_gamma 90.000000
_cell_volume 2627.780205
_symmetry_space_group_name_H-M "P C C A"
_symmetry_group_IT_number 54
_symmetry_cell_setting 'orthorhombic'
loop_
_space_group_symop_operation_xyz
x,y,z
1/2-x,-y,z
1/2+x,-y,1/2-z
-x,y,1/2-z
-x,-y,-z
1/2+x,y,-z
1/2-x,y,1/2+z
x,-y,1/2+z
loop_
_atom_site_type_symbol
_atom_site_label
_atom_site_fract_x
_atom_site_fract_y
_atom_site_fract_z
Si Si1 0.750000 0.500000 0.317092
Si Si2 0.153443 0.812675 0.738086
Si Si3 0.154481 0.832776 0.353360
Si Si4 0.750000 0.500000 0.596384
Si Si5 0.928992 0.423923 0.749726
Si Si6 0.685815 0.885152 0.016904
Si Si7 0.852041 0.807859 0.368252
O O1 0.795310 0.362418 0.271512
O O2 0.790722 0.669528 0.359404
O O3 0.093888 0.673299 0.752861
O O4 0.169107 0.977263 0.799111
O O5 0.150967 0.957601 0.668588
O O6 0.207543 0.660209 0.360838
O O7 0.099386 0.706755 0.316249
O O8 0.152691 0.956441 0.427633
O O9 0.793470 0.657404 0.551430
O O10 0.900716 0.321025 0.821001
O O11 0.000000 0.407524 0.750000
O O12 0.750000 0.000000 0.997710
O O13 0.643835 0.842323 0.950552
#
# Coordination Sequence:
#
# PCOD9420872 Si02
#       7
#     4   8   8   4   8   8   8
#     4  10  19  31  52  84 117 143 180 228 283 339
#     4  10  21  34  55  81 110 145 187 234 282 332
#     4  10  22  36  56  84 114 148 185 226 278 337
#     4  10  21  35  56  86 123 151 174 216 281 349
#     4  10  23  41  58  78 108 149 198 245 281 317
#     4  10  20  34  55  86 122 150 177 218 278 346
#     4  10  21  36  57  84 114 148 185 228 279 335
#
# _framework density 18.266368
#
# number of rings (size 3 to 8) (size 9 to 14) (size 15 to 20)
#    0.000    2.000    0.000    3.000    0.000   26.667 
#    0.000    0.833    0.000    5.000    0.000    0.000 
#    0.000    0.000    0.000    0.000    0.000    0.000 
#
# Total GULP energy -267812.690266 kJ/mol
# GULP energy per Si atom -5579.431047 kJ/mol
# Density = 1.822479 g / cm^3
# Si number density = 18.266368 Si / 1000 Ang^3
#
#
#
# Elastic Constant Matrix: (Units=GPa)
#
#
# Indices 1 2 3 4 5 6 
#
# 1 100.2575 43.6372 60.4049 0.0000 0.0000 0.0000
# 2 43.6372 119.0001 56.3553 0.0000 0.0000 0.0000
# 3 60.4049 56.3553 129.5285 0.0000 0.0000 0.0000
# 4 0.0000 0.0000 0.0000 16.3725 0.0000 0.0000
# 5 0.0000 0.0000 0.0000 0.0000 18.5240 0.0000
# 6 0.0000 0.0000 0.0000 0.0000 0.0000 13.4380
#
#
#
# Elastic Compliance Matrix: (Units=1/GPa)
#
#
# Indices 1 2 3 4 5 6 
#
# 1 0.014514 -0.002666 -0.005608 0.000000 0.000000 0.000000
# 2 -0.002666 0.011074 -0.003575 0.000000 0.000000 0.000000
# 3 -0.005608 -0.003575 0.011891 0.000000 0.000000 0.000000
# 4 0.000000 0.000000 0.000000 0.061078 0.000000 0.000000
# 5 0.000000 0.000000 0.000000 0.000000 0.053984 0.000000
# 6 0.000000 0.000000 0.000000 0.000000 0.000000 0.074416
#
#
# Mechanical properties :
#
#
# Convention : Reuss Voigt Hill
#
# Bulk Modulus (GPa) = 72.56801 74.39788 73.48295
# Shear Modulus (GPa) = 19.58873 22.22614 20.90743
#
# Velocity S-wave (km/s) = 3.27829 3.49202 3.38684
# Velocity P-wave (km/s) = 7.35823 7.55492 7.45722
#
# Compressibility (1/GPa) = 0.01378018
#
# Stress axis : x y z
#
# Youngs Moduli (GPa) = 68.89965 90.30219 84.09692
#
# Poissons Ratio (x) = 0.24076 0.47165
# Poissons Ratio (y) = 0.18370 0.30062
# Poissons Ratio (z) = 0.38642 0.32280
#
# Static dielectric constant tensor:
#      x y z
#    x 1.613450 0.000000 0.000000 
#    y 0.000000 1.693950 0.000000 
#    z 0.000000 0.000000 1.665710 
# 
# From -- ./inp_files/19089.got.cif
#   From: 2010.05.17/outbox.cif.g08.bks.cpg/sg54_10_cif.got.tgz:19089.got - 2010.06.03 13:09:01.
