data_PCOD9420355
_publ_section_title
;
Structure prediction by ZEFSAII (Michael W. Deem and Ramdas Pophale) SiO2 
 PCOD9420355
Probable space group: P C C A
;
_chemical_formula_sum "Si O2"
_cell_formula_units_Z 32
_cell_length_a 5.392132
_cell_length_b 7.120730
_cell_length_c 35.723806
_cell_angle_alpha 90.000000
_cell_angle_beta 90.000000
_cell_angle_gamma 90.000000
_cell_volume 1371.648258
_symmetry_space_group_name_H-M "P C C A"
_symmetry_group_IT_number 54
_symmetry_cell_setting 'orthorhombic'
loop_
_space_group_symop_operation_xyz
x,y,z
1/2-x,-y,z
1/2+x,-y,1/2-z
-x,y,1/2-z
-x,-y,-z
1/2+x,y,-z
1/2-x,y,1/2+z
x,-y,1/2+z
loop_
_atom_site_type_symbol
_atom_site_label
_atom_site_fract_x
_atom_site_fract_y
_atom_site_fract_z
Si Si1 0.495510 0.228644 0.174393
Si Si2 0.998592 0.875469 0.092347
Si Si3 0.498252 0.804056 0.294158
Si Si4 0.188259 0.719476 0.484480
O O1 0.477397 0.246786 0.129941
O O2 0.750786 0.295563 0.192088
O O3 0.248506 0.297165 0.194160
O O4 0.498578 0.004464 0.184406
O O5 0.936192 0.753950 0.055692
O O6 0.250000 0.000000 0.088640
O O7 0.750000 0.000000 0.097726
O O8 0.500000 0.839909 0.250000
O O9 0.250000 0.500000 0.491313
O O10 0.470507 0.797686 0.488038
#
# Coordination Sequence:
#
# PCOD9420355 Si02
#       4
#     8   8   8   8
#     4  10  16  27  38  66 100 133 165 209 253 302
#     4  12  21  34  55  80 111 139 168 225 278 315
#     4  10  16  25  41  61  99 147 170 196 251 317
#     4  10  23  42  59  77 104 140 180 220 265 328
#
# _framework density 23.329595000000001
#
# number of rings (size 3 to 8) (size 9 to 14) (size 15 to 20)
#    0.000    1.500    5.000    5.250    0.000    3.000 
#    0.000    0.000    0.000    0.000    0.000    0.000 
#    0.000    6.000    0.000    0.500    0.000    0.000 
#
# Total GULP energy -178633.516187 kJ/mol
# GULP energy per Si atom -5582.297381 kJ/mol
# Density = 2.327650 g / cm^3
# Si number density = 23.329595 Si / 1000 Ang^3
#
#
#
# Elastic Constant Matrix: (Units=GPa)
#
#
# Indices 1 2 3 4 5 6 
#
# 1 265.5641 16.7122 49.2993 0.0000 0.0000 0.0000
# 2 16.7122 68.4091 -13.0694 0.0000 0.0000 0.0000
# 3 49.2993 -13.0694 157.1459 0.0000 0.0000 0.0000
# 4 0.0000 0.0000 0.0000 -43.0406 0.0000 0.0000
# 5 0.0000 0.0000 0.0000 0.0000 45.8276 0.0000
# 6 0.0000 0.0000 0.0000 0.0000 0.0000 -13.2939
#
#
#
# Elastic Compliance Matrix: (Units=1/GPa)
#
#
# Indices 1 2 3 4 5 6 
#
# 1 0.004104 -0.001269 -0.001393 0.000000 0.000000 0.000000
# 2 -0.001269 0.015246 0.001666 0.000000 0.000000 0.000000
# 3 -0.001393 0.001666 0.006939 0.000000 0.000000 0.000000
# 4 0.000000 0.000000 0.000000 -0.023234 0.000000 0.000000
# 5 0.000000 0.000000 0.000000 0.000000 0.021821 0.000000
# 6 0.000000 0.000000 0.000000 0.000000 0.000000 -0.075222
#
#
# Mechanical properties :
#
#
# Convention : Reuss Voigt Hill
#
# Bulk Modulus (GPa) = 41.15602 66.33370 53.74486
# Shear Modulus (GPa) = -124.20748 27.11042 -48.54853
#
# Velocity S-wave (km/s) = -7.30451 3.41260 -4.56673
# Velocity P-wave (km/s) = 7.31176 6.63497 2.17244
#
# Compressibility (1/GPa) = 0.02429778
#
# Stress axis : x y z
#
# Youngs Moduli (GPa) = 243.66403 65.59021 144.11125
#
# Poissons Ratio (x) = 0.08322 0.20075
# Poissons Ratio (y) = 0.30914 -0.24009
# Poissons Ratio (z) = 0.33943 -0.10927
#
# Static dielectric constant tensor:
#      x y z
#    x 1.909210 0.000000 0.000000 
#    y 0.000000 1.869270 0.000000 
#    z 0.000000 0.000000 1.844360 
# 
# From -- ./inp_files/26853.got.cif
#   From: 2010.05.17/outbox.cif.g08.bks.cpg/sg54_14_cif.got.tgz:26853.got - 2010.06.03 13:09:01.
