data_PCOD9420723
_publ_section_title
;
Structure prediction by ZEFSAII (Michael W. Deem and Ramdas Pophale) SiO2 
 PCOD9420723
Probable space group: P C C A
;
_chemical_formula_sum "Si O2"
_cell_formula_units_Z 44
_cell_length_a 16.414585
_cell_length_b 8.788685
_cell_length_c 14.960557
_cell_angle_alpha 90.000000
_cell_angle_beta 90.000000
_cell_angle_gamma 90.000000
_cell_volume 2158.249104
_symmetry_space_group_name_H-M "P C C A"
_symmetry_group_IT_number 54
_symmetry_cell_setting 'orthorhombic'
loop_
_space_group_symop_operation_xyz
x,y,z
1/2-x,-y,z
1/2+x,-y,1/2-z
-x,y,1/2-z
-x,-y,-z
1/2+x,y,-z
1/2-x,y,1/2+z
x,-y,1/2+z
loop_
_atom_site_type_symbol
_atom_site_label
_atom_site_fract_x
_atom_site_fract_y
_atom_site_fract_z
Si Si1 0.951069 0.746982 0.955945
Si Si2 0.386667 0.687969 0.336420
Si Si3 0.909036 0.069062 0.290454
Si Si4 0.162247 0.545095 0.007280
Si Si5 0.500000 0.473276 0.250000
Si Si6 0.555315 0.230019 0.384439
O O1 0.900457 0.849305 0.886684
O O2 0.900454 0.597037 0.983922
O O3 0.031813 0.706288 0.898068
O O4 0.988513 0.829753 0.043667
O O5 0.358868 0.842316 0.286525
O O6 0.328124 0.604303 0.405235
O O7 0.420094 0.576990 0.259109
O O8 0.000000 0.091478 0.250000
O O9 0.908229 0.891968 0.315609
O O10 0.250000 0.500000 0.042937
O O11 0.126370 0.686620 0.061958
O O12 0.508619 0.363263 0.333245
#
# Coordination Sequence:
#
# PCOD9420723 Si02
#       6
#     8   8   8   8   4   8
#     4  10  18  35  58  84 116 148 194 249 288 346
#     4  10  18  35  58  86 115 149 191 256 296 341
#     4  10  19  32  58  90 120 142 190 253 313 343
#     4  11  22  38  59  85 119 164 203 234 287 360
#     4  12  16  32  62  84 114 140 200 248 298 330
#     4  11  20  33  59  91 113 149 199 253 296 350
#
# _framework density 20.386894000000002
#
# number of rings (size 3 to 8) (size 9 to 14) (size 15 to 20)
#    0.000    1.455    7.273    1.636    0.000    0.000 
#    0.000    4.545    0.000    4.364    0.000    0.000 
#    0.000    0.000    0.000    0.000    0.000    0.000 
#
# Total GULP energy -244975.971206 kJ/mol
# GULP energy per Si atom -5567.635709 kJ/mol
# Density = 2.034049 g / cm^3
# Si number density = 20.386894 Si / 1000 Ang^3
#
#
#
# Elastic Constant Matrix: (Units=GPa)
#
#
# Indices 1 2 3 4 5 6 
#
# 1 37.0929 12.8598 13.7707 0.0000 0.0000 0.0000
# 2 12.8598 93.5123 24.6692 0.0000 0.0000 0.0000
# 3 13.7707 24.6692 71.8514 0.0000 0.0000 0.0000
# 4 0.0000 0.0000 0.0000 45.6650 0.0000 0.0000
# 5 0.0000 0.0000 0.0000 0.0000 8.0867 0.0000
# 6 0.0000 0.0000 0.0000 0.0000 0.0000 9.2271
#
#
#
# Elastic Compliance Matrix: (Units=1/GPa)
#
#
# Indices 1 2 3 4 5 6 
#
# 1 0.029695 -0.002839 -0.004716 0.000000 0.000000 0.000000
# 2 -0.002839 0.012030 -0.003586 0.000000 0.000000 0.000000
# 3 -0.004716 -0.003586 0.016053 0.000000 0.000000 0.000000
# 4 0.000000 0.000000 0.000000 0.021899 0.000000 0.000000
# 5 0.000000 0.000000 0.000000 0.000000 0.123660 0.000000
# 6 0.000000 0.000000 0.000000 0.000000 0.000000 0.108376
#
#
# Mechanical properties :
#
#
# Convention : Reuss Voigt Hill
#
# Bulk Modulus (GPa) = 28.17385 33.89510 31.03448
# Shear Modulus (GPa) = 14.45808 22.67288 18.56548
#
# Velocity S-wave (km/s) = 2.66594 3.33848 3.02098
# Velocity P-wave (km/s) = 4.82969 5.61450 5.23682
#
# Compressibility (1/GPa) = 0.03549390
#
# Stress axis : x y z
#
# Youngs Moduli (GPa) = 33.67613 83.12315 62.29443
#
# Poissons Ratio (x) = 0.23602 0.29380
# Poissons Ratio (y) = 0.09562 0.22340
# Poissons Ratio (z) = 0.15882 0.29810
#
# Static dielectric constant tensor:
#      x y z
#    x 1.759330 0.000000 0.000000 
#    y 0.000000 1.771150 0.000000 
#    z 0.000000 0.000000 1.821380 
# 
# From -- ./inp_files/14001.got.cif
#   From: 2010.05.17/outbox.cif.g08.bks.cpg/sg54_8_cif.got.tgz:14001.got - 2010.06.03 13:09:01.
