data_PCOD9420217
_publ_section_title
;
Structure prediction by ZEFSAII (Michael W. Deem and Ramdas Pophale) SiO2 
 PCOD9420217
Probable space group: P M N A
;
_chemical_formula_sum "Si O2"
_cell_formula_units_Z 64
_cell_length_a 9.000000
_cell_length_b 21.000000
_cell_length_c 18.000000
_cell_angle_alpha 90.000000
_cell_angle_beta 90.000000
_cell_angle_gamma 90.000000
_cell_volume 3402.000000
_symmetry_space_group_name_H-M "P M N A"
_symmetry_group_IT_number 53
_symmetry_cell_setting 'orthorhombic'
loop_
_space_group_symop_operation_xyz
x,y,z
1/2-x,-y,1/2+z
x,-y,-z
1/2-x,y,1/2-z
-x,-y,-z
1/2+x,y,1/2-z
-x,y,z
1/2+x,-y,1/2+z
loop_
_atom_site_type_symbol
_atom_site_label
_atom_site_fract_x
_atom_site_fract_y
_atom_site_fract_z
Si Si1 0.678511 0.352342 0.592073
Si Si2 0.320497 0.948237 0.432671
Si Si3 0.180208 0.471562 0.668798
Si Si4 0.326834 0.816342 0.903745
Si Si5 0.823028 0.584551 0.929738
Si Si6 0.821661 0.950575 0.670231
Si Si7 0.173744 0.686738 0.673388
Si Si8 0.676446 0.795699 0.445162
O O1 0.500000 0.352825 0.606643
O O2 0.764361 0.399460 0.648775
O O3 0.701717 0.391351 0.514449
O O4 0.723555 0.275667 0.587772
O O5 0.500000 0.948091 0.429523
O O6 0.274895 0.871877 0.430374
O O7 0.282423 0.000000 0.500000
O O8 0.246830 0.985541 0.364367
O O9 0.250000 0.488278 0.750000
O O10 0.241312 0.522626 0.606688
O O11 0.000000 0.474361 0.670786
O O12 0.500000 0.817839 0.928541
O O13 0.285910 0.887228 0.877917
O O14 0.316351 0.762481 0.841056
O O15 0.223239 0.792064 0.969345
O O16 0.762717 0.645445 0.885497
O O17 0.000000 0.574411 0.920876
O O18 0.750000 0.940187 0.750000
O O19 0.000000 0.955053 0.674296
O O20 0.250000 0.671124 0.750000
O O21 0.000000 0.669521 0.671319
O O22 0.500000 0.796762 0.433920
#
# Coordination Sequence:
#
# PCOD9420217 Si02
#       8
#     8   8   8   8   8   8   8   8
#     4  10  22  41  65  93 124 158 200 247 299 357
#     4  10  20  36  61  89 119 155 199 246 294 353
#     4  12  26  44  66  91 122 159 202 250 303 358
#     4  10  21  35  54  82 118 157 198 247 296 352
#     4  11  22  39  64  92 124 159 197 243 296 355
#     4  11  23  38  57  84 119 159 202 250 303 358
#     4  11  22  35  52  80 120 162 203 244 292 351
#     4  10  20  37  62  91 120 157 199 244 298 358
#
# _framework density 18.812463000000001
#
# number of rings (size 3 to 8) (size 9 to 14) (size 15 to 20)
#    0.000    1.375    2.500    3.375    0.000    4.750 
#    0.000    0.625    0.000    0.000    0.000    0.000 
#    0.000    0.000    0.000    0.000    0.000    0.000 
#
# Total GULP energy -356412.338752 kJ/mol
# GULP energy per Si atom -5568.942793 kJ/mol
# Density = 1.876965 g / cm^3
# Si number density = 18.812463 Si / 1000 Ang^3
#
#
#
# Elastic Constant Matrix: (Units=GPa)
#
#
# Indices 1 2 3 4 5 6 
#
# 1 31.4385 27.6256 17.6034 0.0000 0.0000 0.0000
# 2 27.6256 148.2799 17.6914 0.0000 0.0000 0.0000
# 3 17.6034 17.6914 33.5776 0.0000 0.0000 0.0000
# 4 0.0000 0.0000 0.0000 26.8790 0.0000 0.0000
# 5 0.0000 0.0000 0.0000 0.0000 24.8544 0.0000
# 6 0.0000 0.0000 0.0000 0.0000 0.0000 37.3318
#
#
#
# Elastic Compliance Matrix: (Units=1/GPa)
#
#
# Indices 1 2 3 4 5 6 
#
# 1 0.050540 -0.006674 -0.022980 0.000000 0.000000 0.000000
# 2 -0.006674 0.008078 -0.000757 0.000000 0.000000 0.000000
# 3 -0.022980 -0.000757 0.042228 0.000000 0.000000 0.000000
# 4 0.000000 0.000000 0.000000 0.037204 0.000000 0.000000
# 5 0.000000 0.000000 0.000000 0.000000 0.040234 0.000000
# 6 0.000000 0.000000 0.000000 0.000000 0.000000 0.026787
#
#
# Mechanical properties :
#
#
# Convention : Reuss Voigt Hill
#
# Bulk Modulus (GPa) = 24.98503 37.68189 31.33346
# Shear Modulus (GPa) = 17.90618 27.83807 22.87213
#
# Velocity S-wave (km/s) = 3.08851 3.85095 3.49061
# Velocity P-wave (km/s) = 5.10181 6.31243 5.73913
#
# Compressibility (1/GPa) = 0.04002397
#
# Stress axis : x y z
#
# Youngs Moduli (GPa) = 19.78636 123.79640 23.68106
#
# Poissons Ratio (x) = 0.82625 0.54418
# Poissons Ratio (y) = 0.13206 0.01793
# Poissons Ratio (z) = 0.45468 0.09371
#
# Static dielectric constant tensor:
#      x y z
#    x 1.633800 0.000000 0.000000 
#    y 0.000000 1.692010 0.000000 
#    z 0.000000 0.000000 1.677740 
# 
# From -- ./inp_files/26951.got.cif
#   From: 2010.05.17/outbox.ucp.g08.bks.cvg/sg53_14_cif.got.tgz:26951.got - 2010.06.11 16:32:34.
