data_PCOD9420348
_publ_section_title
;
Structure prediction by ZEFSAII (Michael W. Deem and Ramdas Pophale) SiO2 
 PCOD9420348
Probable space group: P C C A
;
_chemical_formula_sum "Si O2"
_cell_formula_units_Z 36
_cell_length_a 5.389179
_cell_length_b 20.826764
_cell_length_c 14.268289
_cell_angle_alpha 90.000000
_cell_angle_beta 90.000000
_cell_angle_gamma 90.000000
_cell_volume 1601.460760
_symmetry_space_group_name_H-M "P C C A"
_symmetry_group_IT_number 54
_symmetry_cell_setting 'orthorhombic'
loop_
_space_group_symop_operation_xyz
x,y,z
1/2-x,-y,z
1/2+x,-y,1/2-z
-x,y,1/2-z
-x,-y,-z
1/2+x,y,-z
1/2-x,y,1/2+z
x,-y,1/2+z
loop_
_atom_site_type_symbol
_atom_site_label
_atom_site_fract_x
_atom_site_fract_y
_atom_site_fract_z
Si Si1 0.503563 0.031720 0.640224
Si Si2 0.124426 0.308500 0.397020
Si Si3 0.750000 0.500000 0.936929
Si Si4 0.369671 0.639082 0.612801
Si Si5 0.658984 0.159373 0.555346
O O1 0.500000 0.016928 0.750000
O O2 0.555193 0.107132 0.627620
O O3 0.750000 0.000000 0.598512
O O4 0.250000 0.000000 0.603123
O O5 0.107306 0.341425 0.501325
O O6 0.360464 0.342412 0.350130
O O7 0.153519 0.232863 0.411369
O O8 0.859385 0.319822 0.350640
O O9 0.785818 0.434563 0.879695
O O10 0.500000 0.500000 0.000000
O O11 0.447054 0.150268 0.474505
#
# Coordination Sequence:
#
# PCOD9420348 Si02
#       5
#     8   8   4   8   8
#     4  10  23  42  57  73 102 135 163 202 257 308
#     4  10  16  27  38  59  91 120 150 195 247 279
#     4  12  16  20  34  52  74 128 174 178 214 292
#     4  10  16  25  36  54  90 126 160 193 235 284
#     4  12  21  32  55  80 100 128 169 206 253 303
#
# _framework density 22.479478
#
# number of rings (size 3 to 8) (size 9 to 14) (size 15 to 20)
#    0.000    1.333    8.889    1.333    0.000    2.667 
#    0.000    0.000    0.000    0.000    0.000    0.000 
#    0.000    0.000    0.000    6.000    1.778    3.333 
#
# Total GULP energy -200758.311585 kJ/mol
# GULP energy per Si atom -5576.619766 kJ/mol
# Density = 2.242831 g / cm^3
# Si number density = 22.479478 Si / 1000 Ang^3
#
#
#
# Elastic Constant Matrix: (Units=GPa)
#
#
# Indices 1 2 3 4 5 6 
#
# 1 166.5541 13.9641 16.8481 0.0000 0.0000 0.0000
# 2 13.9641 96.9137 -4.2676 0.0000 0.0000 0.0000
# 3 16.8481 -4.2676 47.6570 0.0000 0.0000 0.0000
# 4 0.0000 0.0000 0.0000 -13.9391 0.0000 0.0000
# 5 0.0000 0.0000 0.0000 0.0000 4.0704 0.0000
# 6 0.0000 0.0000 0.0000 0.0000 0.0000 35.2865
#
#
#
# Elastic Compliance Matrix: (Units=1/GPa)
#
#
# Indices 1 2 3 4 5 6 
#
# 1 0.006324 -0.001014 -0.002327 0.000000 0.000000 0.000000
# 2 -0.001014 0.010522 0.001301 0.000000 0.000000 0.000000
# 3 -0.002327 0.001301 0.021922 0.000000 0.000000 0.000000
# 4 0.000000 0.000000 0.000000 -0.071740 0.000000 0.000000
# 5 0.000000 0.000000 0.000000 0.000000 0.245673 0.000000
# 6 0.000000 0.000000 0.000000 0.000000 0.000000 0.028339
#
#
# Mechanical properties :
#
#
# Convention : Reuss Voigt Hill
#
# Bulk Modulus (GPa) = 28.82765 40.46821 34.64793
# Shear Modulus (GPa) = 19.47926 24.05558 21.76742
#
# Velocity S-wave (km/s) = 2.94689 3.27481 3.11517
# Velocity P-wave (km/s) = 4.94274 5.68687 5.32782
#
# Compressibility (1/GPa) = 0.03468892
#
# Stress axis : x y z
#
# Youngs Moduli (GPa) = 158.11771 95.04084 45.61576
#
# Poissons Ratio (x) = 0.09634 0.10613
# Poissons Ratio (y) = 0.16029 -0.05933
# Poissons Ratio (z) = 0.36788 -0.12361
#
# Static dielectric constant tensor:
#      x y z
#    x 1.916430 0.000000 0.000000 
#    y 0.000000 1.845880 0.000000 
#    z 0.000000 0.000000 1.908830 
# 
# From -- ./inp_files/19670.got.cif
#   From: 2010.05.17/outbox.cif.g08.bks.cpg/sg54_10_cif.got.tgz:19670.got - 2010.06.03 13:09:01.
