data_PCOD9420988
_publ_section_title
;
Structure prediction by ZEFSAII (Michael W. Deem and Ramdas Pophale) SiO2 
 PCOD9420988
Probable space group: P C C A
;
_chemical_formula_sum "Si O2"
_cell_formula_units_Z 48
_cell_length_a 11.889089
_cell_length_b 9.328439
_cell_length_c 24.882679
_cell_angle_alpha 90.000000
_cell_angle_beta 90.000000
_cell_angle_gamma 90.000000
_cell_volume 2759.654359
_symmetry_space_group_name_H-M "P C C A"
_symmetry_group_IT_number 54
_symmetry_cell_setting 'orthorhombic'
loop_
_space_group_symop_operation_xyz
x,y,z
1/2-x,-y,z
1/2+x,-y,1/2-z
-x,y,1/2-z
-x,-y,-z
1/2+x,y,-z
1/2-x,y,1/2+z
x,-y,1/2+z
loop_
_atom_site_type_symbol
_atom_site_label
_atom_site_fract_x
_atom_site_fract_y
_atom_site_fract_z
Si Si1 0.414433 0.287809 0.795672
Si Si2 0.926124 0.481281 0.852112
Si Si3 0.250000 0.500000 0.560114
Si Si4 0.416785 0.641058 0.929534
Si Si5 0.705957 0.160340 0.602799
Si Si6 0.901439 0.330799 0.017988
Si Si7 0.250000 0.500000 0.234210
O O1 0.500000 0.225249 0.750000
O O2 0.492594 0.400985 0.827167
O O3 0.354600 0.190342 0.840314
O O4 0.315796 0.381159 0.767940
O O5 0.850420 0.545906 0.900377
O O6 0.842598 0.431152 0.805417
O O7 0.998658 0.357337 0.879210
O O8 0.301320 0.625843 0.523451
O O9 0.307399 0.728271 0.911906
O O10 0.400300 0.471716 0.943305
O O11 0.485717 0.686964 0.982791
O O12 0.620009 0.194945 0.554671
O O13 0.750000 0.000000 0.601126
#
# Coordination Sequence:
#
# PCOD9420988 Si02
#       7
#     8   8   4   8   8   8   4
#     4  10  20  35  53  75 105 142 182 229 280 319
#     4   9  17  30  54  83 107 129 172 229 280 323
#     4   9  16  29  52  86 110 133 166 213 278 328
#     4  10  19  34  57  83 107 139 177 220 273 327
#     4  12  24  36  52  79 114 152 184 222 268 327
#     4  10  19  33  57  81 108 142 176 221 268 322
#     4   9  18  31  54  84 102 125 178 245 284 312
#
# _framework density 17.393483
#
# number of rings (size 3 to 8) (size 9 to 14) (size 15 to 20)
#    0.000    2.000    3.333    1.000    0.000    0.667 
#    0.000    1.667    0.000    0.000    0.000    1.167 
#    0.000    0.000    0.000    0.000    0.000    0.000 
#
# Total GULP energy -267281.356961 kJ/mol
# GULP energy per Si atom -5568.361603 kJ/mol
# Density = 1.735389 g / cm^3
# Si number density = 17.393483 Si / 1000 Ang^3
#
#
#
# Elastic Constant Matrix: (Units=GPa)
#
#
# Indices 1 2 3 4 5 6 
#
# 1 90.5063 35.4803 46.9436 0.0000 0.0000 0.0000
# 2 35.4803 56.7501 45.6070 0.0000 0.0000 0.0000
# 3 46.9436 45.6070 113.7028 0.0000 0.0000 0.0000
# 4 0.0000 0.0000 0.0000 13.8120 0.0000 0.0000
# 5 0.0000 0.0000 0.0000 0.0000 19.3351 0.0000
# 6 0.0000 0.0000 0.0000 0.0000 0.0000 19.0767
#
#
#
# Elastic Compliance Matrix: (Units=1/GPa)
#
#
# Indices 1 2 3 4 5 6 
#
# 1 0.015646 -0.006774 -0.003742 0.000000 0.000000 0.000000
# 2 -0.006774 0.028936 -0.008810 0.000000 0.000000 0.000000
# 3 -0.003742 -0.008810 0.013874 0.000000 0.000000 0.000000
# 4 0.000000 0.000000 0.000000 0.072401 0.000000 0.000000
# 5 0.000000 0.000000 0.000000 0.000000 0.051719 0.000000
# 6 0.000000 0.000000 0.000000 0.000000 0.000000 0.052420
#
#
# Mechanical properties :
#
#
# Convention : Reuss Voigt Hill
#
# Bulk Modulus (GPa) = 50.49744 57.44678 53.97211
# Shear Modulus (GPa) = 17.84126 19.30665 18.57396
#
# Velocity S-wave (km/s) = 3.20620 3.33527 3.27137
# Velocity P-wave (km/s) = 6.54230 6.92326 6.73547
#
# Compressibility (1/GPa) = 0.01980298
#
# Stress axis : x y z
#
# Youngs Moduli (GPa) = 63.91571 34.55874 72.07953
#
# Poissons Ratio (x) = 0.23411 0.26974
# Poissons Ratio (y) = 0.43298 0.63500
# Poissons Ratio (z) = 0.23919 0.30445
#
# Static dielectric constant tensor:
#      x y z
#    x 1.677650 0.000000 0.000000 
#    y 0.000000 1.536400 0.000000 
#    z 0.000000 0.000000 1.647860 
# 
# From -- ./inp_files/24095.got.cif
#   From: 2010.05.17/outbox.cif.g08.bks.cpg/sg54_13_cif.got.tgz:24095.got - 2010.06.03 13:09:01.
