data_PCOD9420542
_publ_section_title
;
Structure prediction by ZEFSAII (Michael W. Deem and Ramdas Pophale) SiO2 
 PCOD9420542
Probable space group: P C C A
;
_chemical_formula_sum "Si O2"
_cell_formula_units_Z 48
_cell_length_a 10.192716
_cell_length_b 7.155244
_cell_length_c 27.839832
_cell_angle_alpha 90.000000
_cell_angle_beta 90.000000
_cell_angle_gamma 90.000000
_cell_volume 2030.397088
_symmetry_space_group_name_H-M "P C C A"
_symmetry_group_IT_number 54
_symmetry_cell_setting 'orthorhombic'
loop_
_space_group_symop_operation_xyz
x,y,z
1/2-x,-y,z
1/2+x,-y,1/2-z
-x,y,1/2-z
-x,-y,-z
1/2+x,y,-z
1/2-x,y,1/2+z
x,-y,1/2+z
loop_
_atom_site_type_symbol
_atom_site_label
_atom_site_fract_x
_atom_site_fract_y
_atom_site_fract_z
Si Si1 0.286924 0.778850 0.862461
Si Si2 0.033690 0.805691 0.085063
Si Si3 0.481995 0.236251 0.888034
Si Si4 0.878325 0.369062 0.009331
Si Si5 0.746638 0.229786 0.339866
Si Si6 0.647701 0.830946 0.740230
O O1 0.386628 0.724305 0.905572
O O2 0.140872 0.701609 0.855766
O O3 0.359088 0.743097 0.812481
O O4 0.250000 0.000000 0.869915
O O5 0.134705 0.717275 0.122379
O O6 0.102398 0.783512 0.033272
O O7 0.015177 0.018691 0.101653
O O8 0.415506 0.288878 0.939039
O O9 0.615644 0.298294 0.861915
O O10 0.750000 0.500000 0.005489
O O11 0.000000 0.500000 0.000000
O O12 0.702769 0.281907 0.285968
O O13 0.750000 0.000000 0.338138
O O14 0.500000 0.900050 0.750000
O O15 0.750000 0.000000 0.734211
#
# Coordination Sequence:
#
# PCOD9420542 Si02
#       6
#     8   8   8   8   8   8
#     4   9  18  30  52  81 118 151 188 232 292 350
#     4  10  19  37  58  82 113 156 193 239 292 356
#     4  10  21  37  56  84 115 156 195 241 292 357
#     4  12  25  40  59  84 114 150 201 253 305 354
#     4   9  18  30  52  81 118 151 188 230 287 351
#     4  10  18  28  48  84 125 155 182 231 296 355
#
# _framework density 23.640694
#
# number of rings (size 3 to 8) (size 9 to 14) (size 15 to 20)
#    0.000    2.000    1.667    2.500    7.000    0.000 
#    0.000    6.667    0.000    0.000    0.000   17.500 
#    0.000    0.000    0.000    0.000    0.000    0.000 
#
# Total GULP energy -267333.276975 kJ/mol
# GULP energy per Si atom -5569.443270 kJ/mol
# Density = 2.358689 g / cm^3
# Si number density = 23.640694 Si / 1000 Ang^3
#
#
#
# Elastic Constant Matrix: (Units=GPa)
#
#
# Indices 1 2 3 4 5 6 
#
# 1 224.3109 12.9317 47.4829 0.0000 0.0000 0.0000
# 2 12.9317 50.2238 -8.8805 0.0000 0.0000 0.0000
# 3 47.4829 -8.8805 99.7294 0.0000 0.0000 0.0000
# 4 0.0000 0.0000 0.0000 -55.3704 0.0000 0.0000
# 5 0.0000 0.0000 0.0000 0.0000-1066.8278 0.0000
# 6 0.0000 0.0000 0.0000 0.0000 0.0000 5.7489
#
#
#
# Elastic Compliance Matrix: (Units=1/GPa)
#
#
# Indices 1 2 3 4 5 6 
#
# 1 0.005109 -0.001773 -0.002590 0.000000 0.000000 0.000000
# 2 -0.001773 0.020845 0.002701 0.000000 0.000000 0.000000
# 3 -0.002590 0.002701 0.011501 0.000000 0.000000 0.000000
# 4 0.000000 0.000000 0.000000 -0.018060 0.000000 0.000000
# 5 0.000000 0.000000 0.000000 0.000000 -0.000937 0.000000
# 6 0.000000 0.000000 0.000000 0.000000 0.000000 0.173945
#
#
# Mechanical properties :
#
#
# Convention : Reuss Voigt Hill
#
# Bulk Modulus (GPa) = 29.30121 53.03692 41.16906
# Shear Modulus (GPa) = 24.14239 -201.77453 -88.81607
#
# Velocity S-wave (km/s) = 3.19912 -9.24856 -6.13602
# Velocity P-wave (km/s) = 5.10560 9.56893 5.72264
#
# Compressibility (1/GPa) = 0.03412829
#
# Stress axis : x y z
#
# Youngs Moduli (GPa) = 195.74668 47.97314 86.95004
#
# Poissons Ratio (x) = 0.08507 0.22522
# Poissons Ratio (y) = 0.34713 -0.23481
# Poissons Ratio (z) = 0.50703 -0.12955
#
# Static dielectric constant tensor:
#      x y z
#    x 1.980240 0.000000 0.000000 
#    y 0.000000 2.463590 0.000000 
#    z 0.000000 0.000000 1.755700 
# 
# From -- ./inp_files/27771.got.cif
#   From: 2010.05.17/outbox.cif.g08.bks.cpg/sg54_14_cif.got.tgz:27771.got - 2010.06.03 13:09:01.
