data_PCOD9420594
_publ_section_title
;
Structure prediction by ZEFSAII (Michael W. Deem and Ramdas Pophale) SiO2 
 PCOD9420594
Probable space group: P C C A
;
_chemical_formula_sum "Si O2"
_cell_formula_units_Z 52
_cell_length_a 15.114957
_cell_length_b 7.230876
_cell_length_c 20.619342
_cell_angle_alpha 90.000000
_cell_angle_beta 90.000000
_cell_angle_gamma 90.000000
_cell_volume 2253.578196
_symmetry_space_group_name_H-M "P C C A"
_symmetry_group_IT_number 54
_symmetry_cell_setting 'orthorhombic'
loop_
_space_group_symop_operation_xyz
x,y,z
1/2-x,-y,z
1/2+x,-y,1/2-z
-x,y,1/2-z
-x,-y,-z
1/2+x,y,-z
1/2-x,y,1/2+z
x,-y,1/2+z
loop_
_atom_site_type_symbol
_atom_site_label
_atom_site_fract_x
_atom_site_fract_y
_atom_site_fract_z
Si Si1 0.061072 0.403459 0.195871
Si Si2 0.082029 0.250849 0.949277
Si Si3 0.987134 0.165726 0.823532
Si Si4 0.034760 0.308644 0.430494
Si Si5 0.183880 0.166797 0.600947
Si Si6 0.250000 0.500000 0.689318
Si Si7 0.718038 0.289451 0.539002
O O1 0.030706 0.614936 0.185138
O O2 0.161004 0.424561 0.221954
O O3 0.000000 0.316717 0.250000
O O4 0.036240 0.310193 0.127823
O O5 0.060744 0.473435 0.943128
O O6 0.060408 0.160140 0.879743
O O7 0.184334 0.198850 0.963322
O O8 0.016429 0.211212 0.009681
O O9 0.900970 0.094065 0.860771
O O10 0.000000 0.096581 0.750000
O O11 0.134513 0.233741 0.416162
O O12 0.221824 0.329890 0.644896
O O13 0.172749 0.263231 0.531370
O O14 0.250000 0.000000 0.593280
O O15 0.750000 0.500000 0.551479
#
# Coordination Sequence:
#
# PCOD9420594 Si02
#       7
#     8   8   8   8   8   4   8
#     4   9  18  33  53  85 117 156 200 244 300 360
#     4   9  16  28  53  79 109 153 194 234 304 347
#     4   9  18  35  55  80 118 157 201 248 294 359
#     4   9  16  28  48  80 116 146 193 247 284 352
#     4  11  21  36  60  88 114 154 202 240 294 361
#     4  10  20  38  60  82 120 156 196 246 292 352
#     4  10  18  31  55  84 115 150 190 245 304 348
#
# _framework density 23.074414999999998
#
# number of rings (size 3 to 8) (size 9 to 14) (size 15 to 20)
#    0.000    2.462    2.308    0.923    4.308    0.000 
#   12.462    1.538    0.000    0.923    0.000    0.000 
#    0.000    0.000    0.000    0.000    0.000    0.000 
#
# Total GULP energy -289625.939091 kJ/mol
# GULP energy per Si atom -5569.729598 kJ/mol
# Density = 2.302190 g / cm^3
# Si number density = 23.074415 Si / 1000 Ang^3
#
#
#
# Elastic Constant Matrix: (Units=GPa)
#
#
# Indices 1 2 3 4 5 6 
#
# 1 184.7007 9.7729 63.5687 0.0000 0.0000 0.0000
# 2 9.7729 82.1870 1.9666 0.0000 0.0000 0.0000
# 3 63.5687 1.9666 100.6703 0.0000 0.0000 0.0000
# 4 0.0000 0.0000 0.0000 2.3533 0.0000 0.0000
# 5 0.0000 0.0000 0.0000 0.0000 33.1320 0.0000
# 6 0.0000 0.0000 0.0000 0.0000 0.0000 -1.2185
#
#
#
# Elastic Compliance Matrix: (Units=1/GPa)
#
#
# Indices 1 2 3 4 5 6 
#
# 1 0.006960 -0.000723 -0.004381 0.000000 0.000000 0.000000
# 2 -0.000723 0.012248 0.000217 0.000000 0.000000 0.000000
# 3 -0.004381 0.000217 0.012696 0.000000 0.000000 0.000000
# 4 0.000000 0.000000 0.000000 0.424937 0.000000 0.000000
# 5 0.000000 0.000000 0.000000 0.000000 0.030182 0.000000
# 6 0.000000 0.000000 0.000000 0.000000 0.000000 -0.820660
#
#
# Mechanical properties :
#
#
# Convention : Reuss Voigt Hill
#
# Bulk Modulus (GPa) = 45.18613 57.57494 51.38053
# Shear Modulus (GPa) = -15.79843 26.33667 5.26912
#
# Velocity S-wave (km/s) = -2.61946 3.38210 1.51278
# Velocity P-wave (km/s) = 3.23674 6.34488 5.03656
#
# Compressibility (1/GPa) = 0.02213069
#
# Stress axis : x y z
#
# Youngs Moduli (GPa) = 143.67398 81.64512 78.76783
#
# Poissons Ratio (x) = 0.05901 0.34508
# Poissons Ratio (y) = 0.10385 -0.01710
# Poissons Ratio (z) = 0.62943 -0.01773
#
# Static dielectric constant tensor:
#      x y z
#    x 1.979270 0.000000 0.000000 
#    y 0.000000 1.826850 0.000000 
#    z 0.000000 0.000000 1.865810 
# 
# From -- ./inp_files/21549.got.cif
#   From: 2010.05.17/outbox.cif.g08.bks.cpg/sg54_11_cif.got.tgz:21549.got - 2010.06.03 13:09:01.
