data_PCOD9420495
_publ_section_title
;
Structure prediction by ZEFSAII (Michael W. Deem and Ramdas Pophale) SiO2 
 PCOD9420495
Probable space group: P C C A
;
_chemical_formula_sum "Si O2"
_cell_formula_units_Z 48
_cell_length_a 14.714726
_cell_length_b 8.953394
_cell_length_c 19.601118
_cell_angle_alpha 90.000000
_cell_angle_beta 90.000000
_cell_angle_gamma 90.000000
_cell_volume 2582.383387
_symmetry_space_group_name_H-M "P C C A"
_symmetry_group_IT_number 54
_symmetry_cell_setting 'orthorhombic'
loop_
_space_group_symop_operation_xyz
x,y,z
1/2-x,-y,z
1/2+x,-y,1/2-z
-x,y,1/2-z
-x,-y,-z
1/2+x,y,-z
1/2-x,y,1/2+z
x,-y,1/2+z
loop_
_atom_site_type_symbol
_atom_site_label
_atom_site_fract_x
_atom_site_fract_y
_atom_site_fract_z
Si Si1 0.227899 0.822524 0.506171
Si Si2 0.247975 0.322959 0.860735
Si Si3 0.573195 0.165472 0.691500
Si Si4 0.176683 0.131637 0.634719
Si Si5 0.899073 0.183194 0.728441
Si Si6 0.457925 0.916386 0.064711
O O1 0.251143 0.735807 0.438274
O O2 0.289675 0.775455 0.570201
O O3 0.124484 0.818827 0.533538
O O4 0.250000 0.000000 0.494500
O O5 0.250000 0.500000 0.857960
O O6 0.332766 0.254859 0.817863
O O7 0.151654 0.264281 0.832357
O O8 0.500000 0.214962 0.750000
O O9 0.525546 0.165512 0.616636
O O10 0.597833 0.994089 0.711579
O O11 0.161554 0.212429 0.704840
O O12 0.250000 0.000000 0.645298
O O13 0.086224 0.044553 0.612515
O O14 0.000000 0.230035 0.750000
O O15 0.500000 0.000000 0.000000
#
# Coordination Sequence:
#
# PCOD9420495 Si02
#       6
#     8   8   8   8   8   8
#     4   9  20  36  62  85 117 155 201 254 294 357
#     4  12  26  42  57  83 130 171 203 243 303 372
#     4  11  21  37  67  97 119 154 200 264 307 360
#     4   9  17  32  57  94 119 141 185 255 309 349
#     4  11  21  37  68  94 118 150 202 258 309 363
#     4  10  17  30  59  96 118 140 191 251 305 344
#
# _framework density 18.587479999999999
#
# number of rings (size 3 to 8) (size 9 to 14) (size 15 to 20)
#    0.000    2.000    3.333    5.500    2.333    0.667 
#    0.000    1.667    0.000    0.000    0.000    0.000 
#    0.000    0.000    0.000    0.000    0.000    0.000 
#
# Total GULP energy -267614.226703 kJ/mol
# GULP energy per Si atom -5575.296390 kJ/mol
# Density = 1.854517 g / cm^3
# Si number density = 18.587480 Si / 1000 Ang^3
#
#
#
# Elastic Constant Matrix: (Units=GPa)
#
#
# Indices 1 2 3 4 5 6 
#
# 1 95.2195 35.7651 41.6718 0.0000 0.0000 0.0000
# 2 35.7651 49.5989 26.9111 0.0000 0.0000 0.0000
# 3 41.6718 26.9111 112.2203 0.0000 0.0000 0.0000
# 4 0.0000 0.0000 0.0000 -5.8602 0.0000 0.0000
# 5 0.0000 0.0000 0.0000 0.0000 20.6449 0.0000
# 6 0.0000 0.0000 0.0000 0.0000 0.0000 6.0155
#
#
#
# Elastic Compliance Matrix: (Units=1/GPa)
#
#
# Indices 1 2 3 4 5 6 
#
# 1 0.015540 -0.009282 -0.003545 0.000000 0.000000 0.000000
# 2 -0.009282 0.028722 -0.003441 0.000000 0.000000 0.000000
# 3 -0.003545 -0.003441 0.011052 0.000000 0.000000 0.000000
# 4 0.000000 0.000000 0.000000 -0.170641 0.000000 0.000000
# 5 0.000000 0.000000 0.000000 0.000000 0.048438 0.000000
# 6 0.000000 0.000000 0.000000 0.000000 0.000000 0.166236
#
#
# Mechanical properties :
#
#
# Convention : Reuss Voigt Hill
#
# Bulk Modulus (GPa) = 43.90056 51.74831 47.82443
# Shear Modulus (GPa) = 35.84855 14.33942 25.09398
#
# Velocity S-wave (km/s) = 4.39639 2.78052 3.67829
# Velocity P-wave (km/s) = 7.03140 6.18136 6.62004
#
# Compressibility (1/GPa) = 0.02277875
#
# Stress axis : x y z
#
# Youngs Moduli (GPa) = 64.35083 34.81648 90.47797
#
# Poissons Ratio (x) = 0.32318 0.32071
# Poissons Ratio (y) = 0.59733 0.31132
# Poissons Ratio (z) = 0.22810 0.11980
#
# Static dielectric constant tensor:
#      x y z
#    x 1.235930 0.000000 0.000000 
#    y 0.000000 1.602810 0.000000 
#    z 0.000000 0.000000 1.678810 
# 
# From -- ./inp_files/18052.got.cif
#   From: 2010.05.17/outbox.cif.g08.bks.cpg/sg54_10_cif.got.tgz:18052.got - 2010.06.03 13:09:01.
