data_PCOD9420914
_publ_section_title
;
Structure prediction by ZEFSAII (Michael W. Deem and Ramdas Pophale) SiO2 
 PCOD9420914
Probable space group: P C C A
;
_chemical_formula_sum "Si O2"
_cell_formula_units_Z 60
_cell_length_a 21.282531
_cell_length_b 8.628398
_cell_length_c 14.954379
_cell_angle_alpha 90.000000
_cell_angle_beta 90.000000
_cell_angle_gamma 90.000000
_cell_volume 2746.134645
_symmetry_space_group_name_H-M "P C C A"
_symmetry_group_IT_number 54
_symmetry_cell_setting 'orthorhombic'
loop_
_space_group_symop_operation_xyz
x,y,z
1/2-x,-y,z
1/2+x,-y,1/2-z
-x,y,1/2-z
-x,-y,-z
1/2+x,y,-z
1/2-x,y,1/2+z
x,-y,1/2+z
loop_
_atom_site_type_symbol
_atom_site_label
_atom_site_fract_x
_atom_site_fract_y
_atom_site_fract_z
Si Si1 0.500000 0.831477 0.250000
Si Si2 0.130672 0.649045 0.367241
Si Si3 0.936739 0.662227 0.601078
Si Si4 0.367447 0.716785 0.565037
Si Si5 0.109046 0.084161 0.737688
Si Si6 0.255806 0.188293 0.451471
Si Si7 0.321443 0.472654 0.688793
Si Si8 0.823204 0.813155 0.712355
O O1 0.493305 0.719235 0.336598
O O2 0.556852 0.951255 0.265754
O O3 0.081181 0.519224 0.399906
O O4 0.096918 0.788585 0.313992
O O5 0.176422 0.722671 0.444596
O O6 0.165887 0.554449 0.285718
O O7 0.926720 0.720999 0.501046
O O8 0.880292 0.752668 0.651574
O O9 0.377447 0.839800 0.643137
O O10 0.300235 0.742620 0.514094
O O11 0.364278 0.553172 0.615864
O O12 0.170783 0.992058 0.767984
O O13 0.235410 0.220017 0.349206
O O14 0.250000 0.000000 0.465598
O O15 0.250000 0.500000 0.663875
O O16 0.327696 0.289934 0.700058
#
# Coordination Sequence:
#
# PCOD9420914 Si02
#       8
#     4   8   8   8   8   8   8   8
#     4  10  22  44  74  82 114 172 222 282 332 356
#     4  10  20  36  62  86 128 164 214 244 299 405
#     4   9  21  39  61  89 117 162 212 271 316 377
#     4  10  24  36  55  95 135 156 212 259 324 382
#     4  10  21  41  63  94 119 165 218 273 312 382
#     4  11  20  35  58  91 132 175 201 251 310 383
#     4  10  19  32  53  86 122 174 200 241 295 370
#     4   9  18  35  59  82 123 165 218 235 303 385
#
# _framework density 21.848893
#
# number of rings (size 3 to 8) (size 9 to 14) (size 15 to 20)
#    0.000    2.133    2.667    0.000    1.867    2.133 
#    0.000    0.000    0.000   13.600    0.000    0.000 
#    0.000    0.000    0.000    0.000    0.000    0.000 
#
# Total GULP energy -334131.111999 kJ/mol
# GULP energy per Si atom -5568.851867 kJ/mol
# Density = 2.179916 g / cm^3
# Si number density = 21.848893 Si / 1000 Ang^3
#
#
#
# Elastic Constant Matrix: (Units=GPa)
#
#
# Indices 1 2 3 4 5 6 
#
# 1 24.6527 2.5339 -0.7733 0.0000 0.0000 0.0000
# 2 2.5339 109.3025 25.9684 0.0000 0.0000 0.0000
# 3 -0.7733 25.9684 63.3711 0.0000 0.0000 0.0000
# 4 0.0000 0.0000 0.0000 7.4037 0.0000 0.0000
# 5 0.0000 0.0000 0.0000 0.0000 11.9145 0.0000
# 6 0.0000 0.0000 0.0000 0.0000 0.0000 33.2244
#
#
#
# Elastic Compliance Matrix: (Units=1/GPa)
#
#
# Indices 1 2 3 4 5 6 
#
# 1 0.040715 -0.001176 0.000979 0.000000 0.000000 0.000000
# 2 -0.001176 0.010170 -0.004182 0.000000 0.000000 0.000000
# 3 0.000979 -0.004182 0.017506 0.000000 0.000000 0.000000
# 4 0.000000 0.000000 0.000000 0.135068 0.000000 0.000000
# 5 0.000000 0.000000 0.000000 0.000000 0.083932 0.000000
# 6 0.000000 0.000000 0.000000 0.000000 0.000000 0.030098
#
#
# Mechanical properties :
#
#
# Convention : Reuss Voigt Hill
#
# Bulk Modulus (GPa) = 16.76954 28.08714 22.42834
# Shear Modulus (GPa) = 14.44567 21.81498 18.13032
#
# Velocity S-wave (km/s) = 2.57410 3.16325 2.88376
# Velocity P-wave (km/s) = 4.06528 5.12100 4.62337
#
# Compressibility (1/GPa) = 0.05963192
#
# Stress axis : x y z
#
# Youngs Moduli (GPa) = 24.56092 98.33124 57.12453
#
# Poissons Ratio (x) = 0.11568 -0.05592
# Poissons Ratio (y) = 0.02889 0.23888
# Poissons Ratio (z) = -0.02404 0.41120
#
# Static dielectric constant tensor:
#      x y z
#    x 1.916700 0.000000 0.000000 
#    y 0.000000 1.856450 0.000000 
#    z 0.000000 0.000000 1.826090 
# 
# From -- ./inp_files/15260.got.cif
#   From: 2010.05.17/outbox.cif.g08.bks.cpg/sg54_8_cif.got.tgz:15260.got - 2010.06.03 13:09:01.
