data_PCOD9420884
_publ_section_title
;
Structure prediction by ZEFSAII (Michael W. Deem and Ramdas Pophale) SiO2 
 PCOD9420884
Probable space group: P C C A
;
_chemical_formula_sum "Si O2"
_cell_formula_units_Z 48
_cell_length_a 5.040112
_cell_length_b 23.532945
_cell_length_c 23.797206
_cell_angle_alpha 90.000000
_cell_angle_beta 90.000000
_cell_angle_gamma 90.000000
_cell_volume 2822.555155
_symmetry_space_group_name_H-M "P C C A"
_symmetry_group_IT_number 54
_symmetry_cell_setting 'orthorhombic'
loop_
_space_group_symop_operation_xyz
x,y,z
1/2-x,-y,z
1/2+x,-y,1/2-z
-x,y,1/2-z
-x,-y,-z
1/2+x,y,-z
1/2-x,y,1/2+z
x,-y,1/2+z
loop_
_atom_site_type_symbol
_atom_site_label
_atom_site_fract_x
_atom_site_fract_y
_atom_site_fract_z
Si Si1 0.891444 0.383262 0.461617
Si Si2 0.344164 0.744212 0.039843
Si Si3 0.250000 0.500000 0.041829
Si Si4 0.248925 0.932404 0.534921
Si Si5 0.852075 0.843226 0.872348
Si Si6 0.146409 0.124078 0.810284
Si Si7 0.750000 0.000000 0.710323
O O1 0.692948 0.385487 0.515831
O O2 0.854862 0.320512 0.437211
O O3 0.797162 0.439467 0.427838
O O4 0.399078 0.789495 0.088093
O O5 0.562083 0.751388 0.990716
O O6 0.500000 0.500000 0.000000
O O7 0.545614 0.917445 0.515525
O O8 0.143369 0.898930 0.588352
O O9 0.250000 0.000000 0.544095
O O10 0.553504 0.842661 0.850108
O O11 0.062923 0.850962 0.822173
O O12 0.000000 0.126339 0.750000
O O13 0.167652 0.056349 0.822952
O O14 0.500000 0.016166 0.750000
#
# Coordination Sequence:
#
# PCOD9420884 Si02
#       7
#     8   8   4   8   8   8   4
#     4   8  14  23  38  59  88 123 158 194 220 254
#     4  10  19  32  48  70  98 128 165 196 223 270
#     4   8  12  20  34  56  84 120 160 188 222 256
#     4  10  21  35  49  69  95 119 149 187 222 269
#     4  12  22  34  55  71  92 126 155 188 240 286
#     4  11  24  38  54  73  93 113 149 197 245 294
#     4  10  20  38  56  70  88 108 136 188 242 292
#
# _framework density 17.005869000000001
#
# number of rings (size 3 to 8) (size 9 to 14) (size 15 to 20)
#    0.000    2.000    0.000    5.500    2.333    0.000 
#    0.000    0.000    0.000    0.000    0.000    0.000 
#    0.000    0.000    0.000    3.000    0.000    8.167 
#
# Total GULP energy -267384.638921 kJ/mol
# GULP energy per Si atom -5570.513311 kJ/mol
# Density = 1.696716 g / cm^3
# Si number density = 17.005869 Si / 1000 Ang^3
#
#
#
# Elastic Constant Matrix: (Units=GPa)
#
#
# Indices 1 2 3 4 5 6 
#
# 1 89.4925 15.9585 4.1347 0.0000 0.0000 0.0000
# 2 15.9585 95.6859 29.2944 0.0000 0.0000 0.0000
# 3 4.1347 29.2944 30.0298 0.0000 0.0000 0.0000
# 4 0.0000 0.0000 0.0000 -2.9469 0.0000 0.0000
# 5 0.0000 0.0000 0.0000 0.0000 26.4221 0.0000
# 6 0.0000 0.0000 0.0000 0.0000 0.0000 18.8739
#
#
#
# Elastic Compliance Matrix: (Units=1/GPa)
#
#
# Indices 1 2 3 4 5 6 
#
# 1 0.011520 -0.002047 0.000411 0.000000 0.000000 0.000000
# 2 -0.002047 0.015265 -0.014609 0.000000 0.000000 0.000000
# 3 0.000411 -0.014609 0.047495 0.000000 0.000000 0.000000
# 4 0.000000 0.000000 0.000000 -0.339342 0.000000 0.000000
# 5 0.000000 0.000000 0.000000 0.000000 0.037847 0.000000
# 6 0.000000 0.000000 0.000000 0.000000 0.000000 0.052983
#
#
# Mechanical properties :
#
#
# Convention : Reuss Voigt Hill
#
# Bulk Modulus (GPa) = 23.92965 34.88708 29.40837
# Shear Modulus (GPa) = -39.12049 19.52453 -9.79798
#
# Velocity S-wave (km/s) = -4.80146 3.39205 -2.40292
# Velocity P-wave (km/s) = 4.07882 5.99171 3.10353
#
# Compressibility (1/GPa) = 0.04178915
#
# Stress axis : x y z
#
# Youngs Moduli (GPa) = 86.80420 65.50964 21.05477
#
# Poissons Ratio (x) = 0.13411 -0.00865
# Poissons Ratio (y) = 0.17770 0.30759
# Poissons Ratio (z) = -0.03566 0.95705
#
# Static dielectric constant tensor:
#      x y z
#    x 1.600170 0.000000 0.000000 
#    y 0.000000 1.649450 0.000000 
#    z 0.000000 0.000000 1.563880 
# 
# From -- ./inp_files/19858.got.cif
#   From: 2010.05.17/outbox.cif.g08.bks.cpg/sg54_10_cif.got.tgz:19858.got - 2010.06.03 13:09:01.
