data_PCOD9420632
_publ_section_title
;
Structure prediction by ZEFSAII (Michael W. Deem and Ramdas Pophale) SiO2 
 PCOD9420632
Probable space group: P C C A
;
_chemical_formula_sum "Si O2"
_cell_formula_units_Z 60
_cell_length_a 13.890675
_cell_length_b 11.414645
_cell_length_c 21.653434
_cell_angle_alpha 90.000000
_cell_angle_beta 90.000000
_cell_angle_gamma 90.000000
_cell_volume 3433.306218
_symmetry_space_group_name_H-M "P C C A"
_symmetry_group_IT_number 54
_symmetry_cell_setting 'orthorhombic'
loop_
_space_group_symop_operation_xyz
x,y,z
1/2-x,-y,z
1/2+x,-y,1/2-z
-x,y,1/2-z
-x,-y,-z
1/2+x,y,-z
1/2-x,y,1/2+z
x,-y,1/2+z
loop_
_atom_site_type_symbol
_atom_site_label
_atom_site_fract_x
_atom_site_fract_y
_atom_site_fract_z
Si Si1 0.106310 0.512327 0.473034
Si Si2 0.317241 0.751261 0.472018
Si Si3 0.750000 0.500000 0.922372
Si Si4 0.801943 0.740094 0.379363
Si Si5 0.007814 0.869651 0.525420
Si Si6 0.155807 0.080191 0.128969
Si Si7 0.022802 0.126849 0.678196
Si Si8 0.610054 0.249938 0.083866
O O1 0.150557 0.383862 0.459741
O O2 0.171360 0.555874 0.530962
O O3 0.108593 0.607356 0.417870
O O4 0.000000 0.500000 0.500000
O O5 0.308175 0.770823 0.546593
O O6 0.405306 0.830463 0.448812
O O7 0.217677 0.780492 0.438383
O O8 0.706483 0.601448 0.881398
O O9 0.711389 0.804519 0.346852
O O10 0.896943 0.781848 0.345109
O O11 0.095429 0.871890 0.572073
O O12 0.035616 0.782931 0.470485
O O13 0.000000 0.000000 0.500000
O O14 0.250000 0.000000 0.114103
O O15 0.077025 0.997515 0.163146
O O16 0.000000 0.131136 0.750000
O O17 0.928375 0.170316 0.640158
#
# Coordination Sequence:
#
# PCOD9420632 Si02
#       8
#     8   8   4   8   8   8   8   8
#     4  11  18  31  53  87 123 150 176 233 307 370
#     4  11  21  32  55  94 123 147 180 242 321 361
#     4  10  18  32  58  94 124 146 188 238 320 374
#     4  10  18  36  61  89 113 152 196 244 293 369
#     4  12  20  31  52  86 123 142 180 237 307 355
#     4  10  20  37  59  82 109 150 198 248 292 350
#     4  11  24  42  59  79 114 170 212 240 290 356
#     4  12  20  35  57  85 119 149 194 244 294 364
#
# _framework density 17.475866
#
# number of rings (size 3 to 8) (size 9 to 14) (size 15 to 20)
#    0.000    1.067    8.000    1.600    0.000    0.000 
#    0.000    4.000    2.933    0.800    0.000    0.000 
#    0.000    0.000    0.000    0.000    0.000    0.000 
#
# Total GULP energy -334004.304021 kJ/mol
# GULP energy per Si atom -5566.738400 kJ/mol
# Density = 1.743609 g / cm^3
# Si number density = 17.475866 Si / 1000 Ang^3
#
#
#
# Elastic Constant Matrix: (Units=GPa)
#
#
# Indices 1 2 3 4 5 6 
#
# 1 128.7007 20.2180 38.0863 0.0000 0.0000 0.0000
# 2 20.2180 73.5017 24.2876 0.0000 0.0000 0.0000
# 3 38.0863 24.2876 76.5369 0.0000 0.0000 0.0000
# 4 0.0000 0.0000 0.0000 7.9089 0.0000 0.0000
# 5 0.0000 0.0000 0.0000 0.0000 14.6264 0.0000
# 6 0.0000 0.0000 0.0000 0.0000 0.0000 26.2414
#
#
#
# Elastic Compliance Matrix: (Units=1/GPa)
#
#
# Indices 1 2 3 4 5 6 
#
# 1 0.009196 -0.001137 -0.004215 0.000000 0.000000 0.000000
# 2 -0.001137 0.015339 -0.004302 0.000000 0.000000 0.000000
# 3 -0.004215 -0.004302 0.016528 0.000000 0.000000 0.000000
# 4 0.000000 0.000000 0.000000 0.126439 0.000000 0.000000
# 5 0.000000 0.000000 0.000000 0.000000 0.068369 0.000000
# 6 0.000000 0.000000 0.000000 0.000000 0.000000 0.038108
#
#
# Mechanical properties :
#
#
# Convention : Reuss Voigt Hill
#
# Bulk Modulus (GPa) = 45.96521 49.32479 47.64500
# Shear Modulus (GPa) = 16.63672 22.83185 19.73428
#
# Velocity S-wave (km/s) = 3.08877 3.61845 3.36405
# Velocity P-wave (km/s) = 6.25139 6.76338 6.51242
#
# Compressibility (1/GPa) = 0.02175559
#
# Stress axis : x y z
#
# Youngs Moduli (GPa) = 108.74307 65.19192 60.50175
#
# Poissons Ratio (x) = 0.07410 0.25504
# Poissons Ratio (y) = 0.12360 0.26028
# Poissons Ratio (z) = 0.45840 0.28046
#
# Static dielectric constant tensor:
#      x y z
#    x 1.639230 0.000000 0.000000 
#    y 0.000000 1.686980 0.000000 
#    z 0.000000 0.000000 1.561900 
# 
# From -- ./inp_files/21713.got.cif
#   From: 2010.05.17/outbox.cif.g08.bks.cpg/sg54_11_cif.got.tgz:21713.got - 2010.06.03 13:09:01.
