data_PCOD9420815
_publ_section_title
;
Structure prediction by ZEFSAII (Michael W. Deem and Ramdas Pophale) SiO2 
 PCOD9420815
Probable space group: P C C A
;
_chemical_formula_sum "Si O2"
_cell_formula_units_Z 64
_cell_length_a 28.592260
_cell_length_b 5.357226
_cell_length_c 19.792258
_cell_angle_alpha 90.000000
_cell_angle_beta 90.000000
_cell_angle_gamma 90.000000
_cell_volume 3031.683051
_symmetry_space_group_name_H-M "P C C A"
_symmetry_group_IT_number 54
_symmetry_cell_setting 'orthorhombic'
loop_
_space_group_symop_operation_xyz
x,y,z
1/2-x,-y,z
1/2+x,-y,1/2-z
-x,y,1/2-z
-x,-y,-z
1/2+x,y,-z
1/2-x,y,1/2+z
x,-y,1/2+z
loop_
_atom_site_type_symbol
_atom_site_label
_atom_site_fract_x
_atom_site_fract_y
_atom_site_fract_z
Si Si1 0.696137 0.493567 0.495599
Si Si2 0.474139 0.681109 0.570238
Si Si3 0.050717 0.188060 0.036284
Si Si4 0.555780 0.051399 0.232355
Si Si5 0.358780 0.018554 0.670517
Si Si6 0.196155 0.481383 0.668783
Si Si7 0.036002 0.448398 0.312725
Si Si8 0.142773 0.992949 0.505583
O O1 0.750000 0.500000 0.518182
O O2 0.696851 0.481242 0.413513
O O3 0.672646 0.753903 0.515331
O O4 0.666363 0.250222 0.516739
O O5 0.503606 0.741184 0.503015
O O6 0.434246 0.466960 0.561228
O O7 0.506974 0.550297 0.624515
O O8 0.459864 0.963905 0.588297
O O9 0.089109 0.065937 0.987282
O O10 0.500000 0.079127 0.250000
O O11 0.591462 0.985448 0.292004
O O12 0.558192 0.822973 0.179683
O O13 0.569765 0.324788 0.206272
O O14 0.332417 0.273390 0.689328
O O15 0.360571 0.011876 0.588290
O O16 0.329160 0.773455 0.690135
O O17 0.250000 0.500000 0.691070
O O18 0.000000 0.415643 0.250000
#
# Coordination Sequence:
#
# PCOD9420815 Si02
#       8
#     8   8   8   8   8   8   8   8
#     4   9  17  30  44  68 100 128 159 198 255 307
#     4  10  21  36  50  70  98 138 172 220 256 294
#     4  10  21  34  52  71  99 131 179 214 248 302
#     4  10  21  33  44  71  97 137 167 210 254 294
#     4  10  19  29  46  69 100 127 169 209 244 312
#     4   9  17  30  46  66  94 132 163 202 256 308
#     4  10  21  32  50  68  95 135 172 213 259 299
#     4  10  19  28  48  71  93 134 166 206 242 303
#
# _framework density 21.110385000000001
#
# number of rings (size 3 to 8) (size 9 to 14) (size 15 to 20)
#    0.000    2.250    0.000    3.000    7.000    3.000 
#    0.000    0.000    0.000    0.000    0.000    0.000 
#    0.000   15.000    0.000    0.000    0.000    0.000 
#
# Total GULP energy -356614.533883 kJ/mol
# GULP energy per Si atom -5572.102092 kJ/mol
# Density = 2.106234 g / cm^3
# Si number density = 21.110385 Si / 1000 Ang^3
#
#
#
# Elastic Constant Matrix: (Units=GPa)
#
#
# Indices 1 2 3 4 5 6 
#
# 1 95.7743 53.2790 0.8061 0.0000 0.0000 0.0000
# 2 53.2790 181.9446 6.8846 0.0000 0.0000 0.0000
# 3 0.8061 6.8846 23.3474 0.0000 0.0000 0.0000
# 4 0.0000 0.0000 0.0000 15.3738 0.0000 0.0000
# 5 0.0000 0.0000 0.0000 0.0000 9.7215 0.0000
# 6 0.0000 0.0000 0.0000 0.0000 0.0000 34.6248
#
#
#
# Elastic Compliance Matrix: (Units=1/GPa)
#
#
# Indices 1 2 3 4 5 6 
#
# 1 0.012483 -0.003680 0.000654 0.000000 0.000000 0.000000
# 2 -0.003680 0.006643 -0.001832 0.000000 0.000000 0.000000
# 3 0.000654 -0.001832 0.043349 0.000000 0.000000 0.000000
# 4 0.000000 0.000000 0.000000 0.065046 0.000000 0.000000
# 5 0.000000 0.000000 0.000000 0.000000 0.102865 0.000000
# 6 0.000000 0.000000 0.000000 0.000000 0.000000 0.028881
#
#
# Mechanical properties :
#
#
# Convention : Reuss Voigt Hill
#
# Bulk Modulus (GPa) = 18.95397 47.00063 32.97730
# Shear Modulus (GPa) = 17.44782 27.95046 22.69914
#
# Velocity S-wave (km/s) = 2.87802 3.64265 3.28267
# Velocity P-wave (km/s) = 4.47683 6.32490 5.47934
#
# Compressibility (1/GPa) = 0.05275941
#
# Stress axis : x y z
#
# Youngs Moduli (GPa) = 80.10915 150.53081 23.06865
#
# Poissons Ratio (x) = 0.55398 -0.01509
# Poissons Ratio (y) = 0.29481 0.04226
# Poissons Ratio (z) = -0.05241 0.27575
#
# Static dielectric constant tensor:
#      x y z
#    x 1.790980 0.000000 0.000000 
#    y 0.000000 1.877450 0.000000 
#    z 0.000000 0.000000 1.777450 
# 
# From -- ./inp_files/22406.got.cif
#   From: 2010.05.17/outbox.cif.g08.bks.cpg/sg54_12_cif.got.tgz:22406.got - 2010.06.03 13:09:01.
