data_PCOD9420212
_publ_section_title
;
Structure prediction by ZEFSAII (Michael W. Deem and Ramdas Pophale) SiO2 
 PCOD9420212
Probable space group: P M N A
;
_chemical_formula_sum "Si O2"
_cell_formula_units_Z 52
_cell_length_a 18.000000
_cell_length_b 18.000000
_cell_length_c 9.000000
_cell_angle_alpha 90.000000
_cell_angle_beta 90.000000
_cell_angle_gamma 90.000000
_cell_volume 2916.000000
_symmetry_space_group_name_H-M "P M N A"
_symmetry_group_IT_number 53
_symmetry_cell_setting 'orthorhombic'
loop_
_space_group_symop_operation_xyz
x,y,z
1/2-x,-y,1/2+z
x,-y,-z
1/2-x,y,1/2-z
-x,-y,-z
1/2+x,y,1/2-z
-x,y,z
1/2+x,-y,1/2+z
loop_
_atom_site_type_symbol
_atom_site_label
_atom_site_fract_x
_atom_site_fract_y
_atom_site_fract_z
Si Si1 0.307062 0.666691 0.472982
Si Si2 0.362849 0.719240 0.994240
Si Si3 0.500000 0.519935 0.741968
Si Si4 0.088040 0.231744 0.173090
Si Si5 0.832818 0.193707 0.764055
Si Si6 0.000000 0.383999 0.529265
Si Si7 0.371364 0.500000 0.500000
Si Si8 0.589123 0.086952 0.505454
O O1 0.220032 0.682583 0.511703
O O2 0.362881 0.706847 0.587355
O O3 0.324385 0.722162 0.333672
O O4 0.325942 0.577749 0.466386
O O5 0.391588 0.750669 0.840070
O O6 0.424652 0.661728 0.050083
O O7 0.362361 0.789282 0.102840
O O8 0.500000 0.587463 0.858422
O O9 0.427036 0.517425 0.637694
O O10 0.500000 0.449333 0.850797
O O11 0.000000 0.241987 0.142804
O O12 0.107524 0.146445 0.126702
O O13 0.750000 0.163369 0.750000
O O14 0.880262 0.135500 0.856954
O O15 0.500000 0.083434 0.513529
O O16 0.615063 0.000000 0.500000
#
# Coordination Sequence:
#
# PCOD9420212 Si02
#       8
#     8   8   4   8   8   4   4   8
#     4  10  22  38  58  82 110 153 196 241 279 339
#     4  11  21  36  58  82 114 147 192 235 283 344
#     4  10  24  36  52  80 110 144 186 250 280 342
#     4  10  20  36  59  86 113 149 190 233 284 340
#     4   9  20  38  57  83 115 148 193 234 278 341
#     4  11  22  38  52  78 115 146 182 234 307 334
#     4  11  22  38  58  79 110 150 202 239 280 332
#     4   9  19  37  61  87 117 149 187 229 277 339
#
# _framework density 17.832647000000001
#
# number of rings (size 3 to 8) (size 9 to 14) (size 15 to 20)
#    0.000    2.000    0.769    2.308    3.231    1.231 
#    0.000   11.538    0.000    2.769    0.000    0.000 
#    0.000    0.000    0.000    0.000    0.000    0.000 
#
# Total GULP energy -289489.157291 kJ/mol
# GULP energy per Si atom -5567.099179 kJ/mol
# Density = 1.779206 g / cm^3
# Si number density = 17.832647 Si / 1000 Ang^3
#
#
#
# Elastic Constant Matrix: (Units=GPa)
#
#
# Indices 1 2 3 4 5 6 
#
# 1 85.3344 38.0276 14.0824 0.0000 0.0000 0.0000
# 2 38.0276 119.6753 -5.2421 0.0000 0.0000 0.0000
# 3 14.0824 -5.2421 33.4123 0.0000 0.0000 0.0000
# 4 0.0000 0.0000 0.0000 -84.9144 0.0000 0.0000
# 5 0.0000 0.0000 0.0000 0.0000 24.5910 0.0000
# 6 0.0000 0.0000 0.0000 0.0000 0.0000 66.7040
#
#
#
# Elastic Compliance Matrix: (Units=1/GPa)
#
#
# Indices 1 2 3 4 5 6 
#
# 1 0.015203 -0.005147 -0.007215 0.000000 0.000000 0.000000
# 2 -0.005147 0.010156 0.003763 0.000000 0.000000 0.000000
# 3 -0.007215 0.003763 0.033560 0.000000 0.000000 0.000000
# 4 0.000000 0.000000 0.000000 -0.011777 0.000000 0.000000
# 5 0.000000 0.000000 0.000000 0.000000 0.040665 0.000000
# 6 0.000000 0.000000 0.000000 0.000000 0.000000 0.014992
#
#
# Mechanical properties :
#
#
# Convention : Reuss Voigt Hill
#
# Bulk Modulus (GPa) = 23.96881 36.90642 30.43761
# Shear Modulus (GPa) = 37.33983 14.04639 25.69311
#
# Velocity S-wave (km/s) = 4.58088 2.80961 3.79989
# Velocity P-wave (km/s) = 6.43813 5.59161 6.02974
#
# Compressibility (1/GPa) = 0.04172089
#
# Stress axis : x y z
#
# Youngs Moduli (GPa) = 65.77706 98.46196 29.79708
#
# Poissons Ratio (x) = 0.50677 0.21499
# Poissons Ratio (y) = 0.33854 -0.11212
# Poissons Ratio (z) = 0.47459 -0.37048
#
# Static dielectric constant tensor:
#      x y z
#    x 1.569880 0.000000 0.000000 
#    y 0.000000 1.600400 0.000000 
#    z 0.000000 0.000000 1.699620 
# 
# From -- ./inp_files/10142.got.cif
#   From: 2010.05.17/outbox.ucp.g08.bks.cvg/sg53_6_cif.got.tgz:10142.got - 2010.06.11 16:32:34.
