data_PCOD9420808
_publ_section_title
;
Structure prediction by ZEFSAII (Michael W. Deem and Ramdas Pophale) SiO2 
 PCOD9420808
Probable space group: P C C A
;
_chemical_formula_sum "Si O2"
_cell_formula_units_Z 44
_cell_length_a 18.641223
_cell_length_b 8.214037
_cell_length_c 12.495752
_cell_angle_alpha 90.000000
_cell_angle_beta 90.000000
_cell_angle_gamma 90.000000
_cell_volume 1913.345741
_symmetry_space_group_name_H-M "P C C A"
_symmetry_group_IT_number 54
_symmetry_cell_setting 'orthorhombic'
loop_
_space_group_symop_operation_xyz
x,y,z
1/2-x,-y,z
1/2+x,-y,1/2-z
-x,y,1/2-z
-x,-y,-z
1/2+x,y,-z
1/2-x,y,1/2+z
x,-y,1/2+z
loop_
_atom_site_type_symbol
_atom_site_label
_atom_site_fract_x
_atom_site_fract_y
_atom_site_fract_z
Si Si1 0.900368 0.916982 0.428861
Si Si2 0.769592 0.314358 0.286176
Si Si3 0.750000 0.000000 0.437934
Si Si4 0.622013 0.746625 0.710528
Si Si5 0.425635 0.401264 0.702947
Si Si6 0.532764 0.761367 0.495949
O O1 0.826300 0.956947 0.490452
O O2 0.884186 0.876448 0.305595
O O3 0.948562 0.774733 0.479743
O O4 0.947855 0.078097 0.428971
O O5 0.750000 0.500000 0.327069
O O6 0.707696 0.282871 0.197848
O O7 0.853013 0.316115 0.256896
O O8 0.763716 0.166259 0.370320
O O9 0.586693 0.584763 0.760096
O O10 0.577218 0.778353 0.605009
O O11 0.500000 0.337454 0.750000
O O12 0.436916 0.384289 0.575586
#
# Coordination Sequence:
#
# PCOD9420808 Si02
#       6
#     8   8   4   8   8   8
#     4  10  22  40  65  94 135 173 225 287 340 410
#     4   9  20  42  66  93 133 185 223 287 353 407
#     4  10  18  42  66  94 134 184 224 284 350 416
#     4  10  23  44  69  93 139 181 228 294 349 413
#     4  11  23  42  67  98 141 178 231 291 353 424
#     4  11  23  42  67 101 132 181 232 282 352 424
#
# _framework density 22.996368
#
# number of rings (size 3 to 8) (size 9 to 14) (size 15 to 20)
#    0.000    1.818    1.818    1.636    0.000    5.818 
#    3.273    9.091    0.000    0.000    0.000    0.000 
#    0.000    0.000    0.000    0.000    0.000    0.000 
#
# Total GULP energy -245406.048871 kJ/mol
# GULP energy per Si atom -5577.410202 kJ/mol
# Density = 2.294403 g / cm^3
# Si number density = 22.996368 Si / 1000 Ang^3
#
#
#
# Elastic Constant Matrix: (Units=GPa)
#
#
# Indices 1 2 3 4 5 6 
#
# 1 230.7056 21.6227 44.2650 0.0000 0.0000 0.0000
# 2 21.6227 85.2505 14.3860 0.0000 0.0000 0.0000
# 3 44.2650 14.3860 67.1671 0.0000 0.0000 0.0000
# 4 0.0000 0.0000 0.0000 25.0063 0.0000 0.0000
# 5 0.0000 0.0000 0.0000 0.0000 19.8078 0.0000
# 6 0.0000 0.0000 0.0000 0.0000 0.0000 1.6089
#
#
#
# Elastic Compliance Matrix: (Units=1/GPa)
#
#
# Indices 1 2 3 4 5 6 
#
# 1 0.005007 -0.000740 -0.003141 0.000000 0.000000 0.000000
# 2 -0.000740 0.012279 -0.002142 0.000000 0.000000 0.000000
# 3 -0.003141 -0.002142 0.017417 0.000000 0.000000 0.000000
# 4 0.000000 0.000000 0.000000 0.039990 0.000000 0.000000
# 5 0.000000 0.000000 0.000000 0.000000 0.050485 0.000000
# 6 0.000000 0.000000 0.000000 0.000000 0.000000 0.621559
#
#
# Mechanical properties :
#
#
# Convention : Reuss Voigt Hill
#
# Bulk Modulus (GPa) = 44.13755 60.40787 52.27271
# Shear Modulus (GPa) = 6.52456 29.47457 17.99957
#
# Velocity S-wave (km/s) = 1.68623 3.58398 2.80074
# Velocity P-wave (km/s) = 4.79855 6.59181 5.76533
#
# Compressibility (1/GPa) = 0.02265645
#
# Stress axis : x y z
#
# Youngs Moduli (GPa) = 199.73954 81.43776 57.41480
#
# Poissons Ratio (x) = 0.06025 0.18034
# Poissons Ratio (y) = 0.14777 0.12301
# Poissons Ratio (z) = 0.62738 0.17448
#
# Static dielectric constant tensor:
#      x y z
#    x 1.933720 0.000000 0.000000 
#    y 0.000000 1.920690 0.000000 
#    z 0.000000 0.000000 1.855180 
# 
# From -- ./inp_files/13994.got.cif
#   From: 2010.05.17/outbox.cif.g08.bks.cpg/sg54_7_cif.got.tgz:13994.got - 2010.06.03 13:09:01.
