data_PCOD9420088
_publ_section_title
;
Structure prediction by ZEFSAII (Michael W. Deem and Ramdas Pophale) SiO2 
 PCOD9420088
Probable space group: P M N A
;
_chemical_formula_sum "Si O2"
_cell_formula_units_Z 64
_cell_length_a 18.000000
_cell_length_b 12.000000
_cell_length_c 15.000000
_cell_angle_alpha 90.000000
_cell_angle_beta 90.000000
_cell_angle_gamma 90.000000
_cell_volume 3240.000000
_symmetry_space_group_name_H-M "P M N A"
_symmetry_group_IT_number 53
_symmetry_cell_setting 'orthorhombic'
loop_
_space_group_symop_operation_xyz
x,y,z
1/2-x,-y,1/2+z
x,-y,-z
1/2-x,y,1/2-z
-x,-y,-z
1/2+x,y,1/2-z
-x,y,z
1/2+x,-y,1/2+z
loop_
_atom_site_type_symbol
_atom_site_label
_atom_site_fract_x
_atom_site_fract_y
_atom_site_fract_z
Si Si1 0.585049 0.682199 0.875405
Si Si2 0.221957 0.596763 0.067685
Si Si3 0.783532 0.053535 0.147843
Si Si4 0.761367 0.148782 0.540222
Si Si5 0.582544 0.777402 0.070065
Si Si6 0.913501 0.517086 0.856047
Si Si7 0.636664 0.448993 0.840872
Si Si8 0.410310 0.770555 0.683935
O O1 0.500000 0.651034 0.854650
O O2 0.625260 0.565810 0.891721
O O3 0.611013 0.747297 0.787714
O O4 0.585272 0.753341 0.964434
O O5 0.234520 0.723126 0.037903
O O6 0.137694 0.564548 0.087515
O O7 0.276518 0.580088 0.151972
O O8 0.246099 0.500000 0.000000
O O9 0.750000 0.053542 0.250000
O O10 0.859107 0.127668 0.151475
O O11 0.788555 0.928278 0.106070
O O12 0.738476 0.107908 0.063104
O O13 0.844259 0.148194 0.583745
O O14 0.500000 0.820418 0.093275
O O15 0.595133 0.657556 0.117312
O O16 0.895374 0.478837 0.755396
O O17 0.894434 0.649688 0.862219
O O18 0.000000 0.505402 0.875367
O O19 0.500000 0.790479 0.677728
#
# Coordination Sequence:
#
# PCOD9420088 Si02
#       8
#     8   8   8   8   8   8   8   8
#     4   9  16  27  49  85 120 150 188 233 282 347
#     4  11  22  37  59  87 121 157 192 241 300 361
#     4  11  23  43  65  81 114 160 197 253 312 343
#     4  10  24  41  58  92 119 146 209 252 284 364
#     4  10  18  31  53  80 119 158 184 228 294 355
#     4  10  21  36  56  86 122 158 196 244 303 366
#     4  10  18  30  50  83 122 156 192 230 283 358
#     4   9  19  36  59  86 114 151 208 258 294 349
#
# _framework density 19.753086
#
# number of rings (size 3 to 8) (size 9 to 14) (size 15 to 20)
#    0.000    2.000    0.000    5.625    0.000    6.250 
#    0.000    4.375    0.000    0.000    0.000    0.000 
#    0.000    0.000    0.000    0.000    0.000    0.000 
#
# Total GULP energy -356657.438011 kJ/mol
# GULP energy per Si atom -5572.772469 kJ/mol
# Density = 1.970813 g / cm^3
# Si number density = 19.753086 Si / 1000 Ang^3
#
#
#
# Elastic Constant Matrix: (Units=GPa)
#
#
# Indices 1 2 3 4 5 6 
#
# 1 91.6429 42.1006 24.5193 0.0000 0.0000 0.0000
# 2 42.1006 104.7752 31.9105 0.0000 0.0000 0.0000
# 3 24.5193 31.9105 64.5967 0.0000 0.0000 0.0000
# 4 0.0000 0.0000 0.0000 27.6458 0.0000 0.0000
# 5 0.0000 0.0000 0.0000 0.0000 25.6213 0.0000
# 6 0.0000 0.0000 0.0000 0.0000 0.0000 31.9523
#
#
#
# Elastic Compliance Matrix: (Units=1/GPa)
#
#
# Indices 1 2 3 4 5 6 
#
# 1 0.013844 -0.004664 -0.002951 0.000000 0.000000 0.000000
# 2 -0.004664 0.012806 -0.004556 0.000000 0.000000 0.000000
# 3 -0.002951 -0.004556 0.018851 0.000000 0.000000 0.000000
# 4 0.000000 0.000000 0.000000 0.036172 0.000000 0.000000
# 5 0.000000 0.000000 0.000000 0.000000 0.039030 0.000000
# 6 0.000000 0.000000 0.000000 0.000000 0.000000 0.031297
#
#
# Mechanical properties :
#
#
# Convention : Reuss Voigt Hill
#
# Bulk Modulus (GPa) = 47.25906 50.89729 49.07818
# Shear Modulus (GPa) = 27.26367 27.87617 27.56992
#
# Velocity S-wave (km/s) = 3.71917 3.76071 3.74000
# Velocity P-wave (km/s) = 6.51305 6.68431 6.59923
#
# Compressibility (1/GPa) = 0.02115997
#
# Stress axis : x y z
#
# Youngs Moduli (GPa) = 72.23288 78.08931 53.04706
#
# Poissons Ratio (x) = 0.36422 0.15653
# Poissons Ratio (y) = 0.33690 0.24166
# Poissons Ratio (z) = 0.21315 0.35575
#
# Static dielectric constant tensor:
#      x y z
#    x 1.739690 0.000000 0.000000 
#    y 0.000000 1.694300 0.000000 
#    z 0.000000 0.000000 1.779630 
# 
# From -- ./inp_files/23894.got.cif
#   From: 2010.05.17/outbox.ucp.g08.bks.cvg/sg53_12_cif.got.tgz:23894.got - 2010.06.11 16:32:34.
