data_PCOD9420566
_publ_section_title
;
Structure prediction by ZEFSAII (Michael W. Deem and Ramdas Pophale) SiO2 
 PCOD9420566
Probable space group: P C C A
;
_chemical_formula_sum "Si O2"
_cell_formula_units_Z 64
_cell_length_a 9.900767
_cell_length_b 17.558698
_cell_length_c 19.738220
_cell_angle_alpha 90.000000
_cell_angle_beta 90.000000
_cell_angle_gamma 90.000000
_cell_volume 3431.382521
_symmetry_space_group_name_H-M "P C C A"
_symmetry_group_IT_number 54
_symmetry_cell_setting 'orthorhombic'
loop_
_space_group_symop_operation_xyz
x,y,z
1/2-x,-y,z
1/2+x,-y,1/2-z
-x,y,1/2-z
-x,-y,-z
1/2+x,y,-z
1/2-x,y,1/2+z
x,-y,1/2+z
loop_
_atom_site_type_symbol
_atom_site_label
_atom_site_fract_x
_atom_site_fract_y
_atom_site_fract_z
Si Si1 0.128356 0.446090 0.516997
Si Si2 0.344707 0.572370 0.268163
Si Si3 0.210435 0.813594 0.077632
Si Si4 0.551352 0.914913 0.580651
Si Si5 0.062862 0.929346 0.574195
Si Si6 0.301482 0.824430 0.422375
Si Si7 0.920315 0.663623 0.600779
Si Si8 0.762693 0.649734 0.868943
O O1 0.250000 0.500000 0.495906
O O2 0.121243 0.371718 0.470646
O O3 0.170225 0.412628 0.591188
O O4 0.000000 0.500000 0.500000
O O5 0.250000 0.500000 0.273618
O O6 0.500000 0.551879 0.250000
O O7 0.356278 0.614797 0.339223
O O8 0.283475 0.624921 0.208561
O O9 0.318942 0.876155 0.103633
O O10 0.209128 0.734768 0.117942
O O11 0.064202 0.851670 0.076753
O O12 0.247333 0.800559 0.998204
O O13 0.600801 0.941843 0.505310
O O14 0.680556 0.872257 0.611848
O O15 0.476855 0.990560 0.608106
O O16 0.926523 0.881212 0.572197
O O17 0.363349 0.748389 0.390563
O O18 0.082799 0.654664 0.603306
#
# Coordination Sequence:
#
# PCOD9420566 Si02
#       8
#     8   8   8   8   8   8   8   8
#     4  12  24  37  62  90 117 150 192 248 310 364
#     4  10  24  45  65  83 115 156 203 247 294 359
#     4  10  18  30  51  78 112 150 188 237 291 344
#     4   9  18  27  45  80 112 151 187 233 284 345
#     4   9  16  29  47  72 116 153 188 226 287 347
#     4  10  18  30  51  78 116 149 190 236 289 344
#     4  11  22  39  60  87 116 157 196 243 295 360
#     4  11  22  39  61  86 118 155 195 245 300 352
#
# _framework density 18.651374000000001
#
# number of rings (size 3 to 8) (size 9 to 14) (size 15 to 20)
#    0.000    1.750    3.750    1.500    1.750    4.000 
#    2.250    0.000    0.000    0.000    0.000    5.250 
#    0.000    0.000    0.000    0.000    0.000    0.000 
#
# Total GULP energy -356494.934308 kJ/mol
# GULP energy per Si atom -5570.233349 kJ/mol
# Density = 1.860892 g / cm^3
# Si number density = 18.651374 Si / 1000 Ang^3
#
#
#
# Elastic Constant Matrix: (Units=GPa)
#
#
# Indices 1 2 3 4 5 6 
#
# 1 76.8122 21.1859 8.3000 0.0000 0.0000 0.0000
# 2 21.1859 92.8505 6.6544 0.0000 0.0000 0.0000
# 3 8.3000 6.6544 37.2960 0.0000 0.0000 0.0000
# 4 0.0000 0.0000 0.0000 10.4127 0.0000 0.0000
# 5 0.0000 0.0000 0.0000 0.0000 15.4386 0.0000
# 6 0.0000 0.0000 0.0000 0.0000 0.0000 39.7032
#
#
#
# Elastic Compliance Matrix: (Units=1/GPa)
#
#
# Indices 1 2 3 4 5 6 
#
# 1 0.014138 -0.003039 -0.002604 0.000000 0.000000 0.000000
# 2 -0.003039 0.011563 -0.001387 0.000000 0.000000 0.000000
# 3 -0.002604 -0.001387 0.027639 0.000000 0.000000 0.000000
# 4 0.000000 0.000000 0.000000 0.096037 0.000000 0.000000
# 5 0.000000 0.000000 0.000000 0.000000 0.064773 0.000000
# 6 0.000000 0.000000 0.000000 0.000000 0.000000 0.025187
#
#
# Mechanical properties :
#
#
# Convention : Reuss Voigt Hill
#
# Bulk Modulus (GPa) = 25.45798 31.02661 28.24230
# Shear Modulus (GPa) = 18.76234 24.49879 21.63056
#
# Velocity S-wave (km/s) = 3.17511 3.62817 3.40918
# Velocity P-wave (km/s) = 5.20776 5.85001 5.53821
#
# Compressibility (1/GPa) = 0.03928042
#
# Stress axis : x y z
#
# Youngs Moduli (GPa) = 70.72903 86.48364 36.18014
#
# Poissons Ratio (x) = 0.26286 0.09422
# Poissons Ratio (y) = 0.21497 0.05017
# Poissons Ratio (z) = 0.18419 0.11992
#
# Static dielectric constant tensor:
#      x y z
#    x 1.499960 0.000000 0.000000 
#    y 0.000000 1.831230 0.000000 
#    z 0.000000 0.000000 1.645950 
# 
# From -- ./inp_files/20666.got.cif
#   From: 2010.05.17/outbox.cif.g08.bks.cpg/sg54_11_cif.got.tgz:20666.got - 2010.06.03 13:09:01.
