data_PCOD9420256
_publ_section_title
;
Structure prediction by ZEFSAII (Michael W. Deem and Ramdas Pophale) SiO2 
 PCOD9420256
Probable space group: P M N A
;
_chemical_formula_sum "Si O2"
_cell_formula_units_Z 64
_cell_length_a 9.000000
_cell_length_b 18.000000
_cell_length_c 21.000000
_cell_angle_alpha 90.000000
_cell_angle_beta 90.000000
_cell_angle_gamma 90.000000
_cell_volume 3402.000000
_symmetry_space_group_name_H-M "P M N A"
_symmetry_group_IT_number 53
_symmetry_cell_setting 'orthorhombic'
loop_
_space_group_symop_operation_xyz
x,y,z
1/2-x,-y,1/2+z
x,-y,-z
1/2-x,y,1/2-z
-x,-y,-z
1/2+x,y,1/2-z
-x,y,z
1/2+x,-y,1/2+z
loop_
_atom_site_type_symbol
_atom_site_label
_atom_site_fract_x
_atom_site_fract_y
_atom_site_fract_z
Si Si1 0.677794 0.695711 0.683520
Si Si2 0.323177 0.178757 0.406360
Si Si3 0.819975 0.432334 0.816418
Si Si4 0.179366 0.017525 0.426461
Si Si5 0.177798 0.720771 0.358175
Si Si6 0.321740 0.561519 0.587911
Si Si7 0.179870 0.107994 0.680307
Si Si8 0.178254 0.313934 0.991939
O O1 0.750000 0.681611 0.750000
O O2 0.500000 0.698510 0.687171
O O3 0.727533 0.774839 0.655354
O O4 0.712742 0.626804 0.638016
O O5 0.500000 0.164352 0.403328
O O6 0.242386 0.100028 0.412816
O O7 0.303848 0.242952 0.460585
O O8 0.750000 0.461605 0.750000
O O9 0.761190 0.347815 0.823808
O O10 0.773878 0.484732 0.877172
O O11 0.000000 0.433261 0.812980
O O12 0.000000 0.020229 0.424427
O O13 0.222950 0.000000 0.500000
O O14 0.223684 0.952793 0.374857
O O15 0.218810 0.805804 0.338142
O O16 0.226609 0.706938 0.430813
O O17 0.000000 0.713381 0.349657
O O18 0.500000 0.553848 0.581139
O O19 0.276232 0.605634 0.522849
O O20 0.250000 0.091643 0.750000
O O21 0.000000 0.104963 0.684943
O O22 0.000000 0.319115 0.977893
#
# Coordination Sequence:
#
# PCOD9420256 Si02
#       8
#     8   8   8   8   8   8   8   8
#     4   9  17  31  50  74 105 140 176 212 254 310
#     4   9  19  34  53  79 109 139 174 216 263 321
#     4  11  22  37  57  81 109 143 184 228 275 328
#     4  10  21  38  59  82 109 142 181 226 278 334
#     4  11  23  39  58  81 109 143 186 234 284 335
#     4   8  17  34  55  78 108 145 181 219 267 326
#     4  10  23  41  60  82 111 149 190 234 285 340
#     4   9  18  36  59  82 110 146 185 223 270 328
#
# _framework density 18.812463000000001
#
# number of rings (size 3 to 8) (size 9 to 14) (size 15 to 20)
#    0.000    2.375    0.000    3.750    0.000    5.750 
#    0.000    8.750    0.000    0.000    0.000    0.000 
#    0.000    0.000    0.000    0.000    0.000    0.000 
#
# Total GULP energy -356599.568563 kJ/mol
# GULP energy per Si atom -5571.868259 kJ/mol
# Density = 1.876965 g / cm^3
# Si number density = 18.812463 Si / 1000 Ang^3
#
#
#
# Elastic Constant Matrix: (Units=GPa)
#
#
# Indices 1 2 3 4 5 6 
#
# 1 29.8317 25.0003 19.9067 0.0000 0.0000 0.0000
# 2 25.0003 115.2218 29.0682 0.0000 0.0000 0.0000
# 3 19.9067 29.0682 97.5541 0.0000 0.0000 0.0000
# 4 0.0000 0.0000 0.0000 30.8162 0.0000 0.0000
# 5 0.0000 0.0000 0.0000 0.0000 33.0665 0.0000
# 6 0.0000 0.0000 0.0000 0.0000 0.0000 33.7837
#
#
#
# Elastic Compliance Matrix: (Units=1/GPa)
#
#
# Indices 1 2 3 4 5 6 
#
# 1 0.044728 -0.008004 -0.006742 0.000000 0.000000 0.000000
# 2 -0.008004 0.010817 -0.001590 0.000000 0.000000 0.000000
# 3 -0.006742 -0.001590 0.012100 0.000000 0.000000 0.000000
# 4 0.000000 0.000000 0.000000 0.032450 0.000000 0.000000
# 5 0.000000 0.000000 0.000000 0.000000 0.030242 0.000000
# 6 0.000000 0.000000 0.000000 0.000000 0.000000 0.029600
#
#
# Mechanical properties :
#
#
# Convention : Reuss Voigt Hill
#
# Bulk Modulus (GPa) = 28.59335 43.39534 35.99435
# Shear Modulus (GPa) = 24.47772 30.77543 27.62658
#
# Velocity S-wave (km/s) = 3.61105 4.04902 3.83629
# Velocity P-wave (km/s) = 5.71125 6.70648 6.22877
#
# Compressibility (1/GPa) = 0.03497316
#
# Stress axis : x y z
#
# Youngs Moduli (GPa) = 22.35725 92.45007 82.64310
#
# Poissons Ratio (x) = 0.73997 0.55720
# Poissons Ratio (y) = 0.17895 0.13138
# Poissons Ratio (z) = 0.15074 0.14697
#
# Static dielectric constant tensor:
#      x y z
#    x 1.626310 0.000000 0.000000 
#    y 0.000000 1.651880 0.000000 
#    z 0.000000 0.000000 1.716700 
# 
# From -- ./inp_files/31269.got.cif
#   From: 2010.05.17/outbox.ucp.g08.bks.cvg/sg53_16_cif.got.tgz:31269.got - 2010.06.11 16:32:34.
