data_PCOD9420332
_publ_section_title
;
Structure prediction by ZEFSAII (Michael W. Deem and Ramdas Pophale) SiO2 
 PCOD9420332
Probable space group: P C C A
;
_chemical_formula_sum "Si O2"
_cell_formula_units_Z 40
_cell_length_a 5.384799
_cell_length_b 23.782579
_cell_length_c 14.258250
_cell_angle_alpha 90.000000
_cell_angle_beta 90.000000
_cell_angle_gamma 90.000000
_cell_volume 1825.974340
_symmetry_space_group_name_H-M "P C C A"
_symmetry_group_IT_number 54
_symmetry_cell_setting 'orthorhombic'
loop_
_space_group_symop_operation_xyz
x,y,z
1/2-x,-y,z
1/2+x,-y,1/2-z
-x,y,1/2-z
-x,-y,-z
1/2+x,y,-z
1/2-x,y,1/2+z
x,-y,1/2+z
loop_
_atom_site_type_symbol
_atom_site_label
_atom_site_fract_x
_atom_site_fract_y
_atom_site_fract_z
Si Si1 0.617904 0.728512 0.602781
Si Si2 0.622601 0.682049 0.386862
Si Si3 0.307999 0.559312 0.062809
Si Si4 0.003155 0.972054 0.359972
Si Si5 0.148901 0.140776 0.944693
O O1 0.604219 0.699297 0.498572
O O2 0.355889 0.716380 0.649650
O O3 0.639455 0.794946 0.588809
O O4 0.856192 0.700488 0.650180
O O5 0.687369 0.616505 0.378934
O O6 0.250000 0.500000 0.113384
O O7 0.577303 0.560586 0.011229
O O8 0.049814 0.905921 0.373243
O O9 0.000000 0.984603 0.250000
O O10 0.250000 0.000000 0.401150
O O11 0.750000 0.000000 0.397110
O O12 0.437258 0.133161 0.974356
#
# Coordination Sequence:
#
# PCOD9420332 Si02
#       5
#     8   8   8   8   8
#     4  10  16  25  38  59  84 111 137 180 233 275
#     4  10  14  25  36  49  83 117 139 183 234 272
#     4  10  16  20  29  45  65 103 155 187 201 253
#     4  10  23  42  57  71  98 133 158 185 239 300
#     4  12  21  32  53  80 100 117 158 207 234 278
#
# _framework density 21.906115
#
# number of rings (size 3 to 8) (size 9 to 14) (size 15 to 20)
#    0.000    1.600    8.000    1.200    0.000    2.400 
#    0.000    0.000    0.000    0.000    0.000    0.000 
#    0.000    0.000    0.000    0.000    0.000    6.000 
#
# Total GULP energy -222962.365016 kJ/mol
# GULP energy per Si atom -5574.059125 kJ/mol
# Density = 2.185626 g / cm^3
# Si number density = 21.906115 Si / 1000 Ang^3
#
#
#
# Elastic Constant Matrix: (Units=GPa)
#
#
# Indices 1 2 3 4 5 6 
#
# 1 148.6278 12.7204 15.7515 0.0000 0.0000 0.0000
# 2 12.7204 92.7197 -5.0477 0.0000 0.0000 0.0000
# 3 15.7515 -5.0477 43.2014 0.0000 0.0000 0.0000
# 4 0.0000 0.0000 0.0000 -17.4526 0.0000 0.0000
# 5 0.0000 0.0000 0.0000 0.0000 0.2425 0.0000
# 6 0.0000 0.0000 0.0000 0.0000 0.0000 34.6548
#
#
#
# Elastic Compliance Matrix: (Units=1/GPa)
#
#
# Indices 1 2 3 4 5 6 
#
# 1 0.007113 -0.001124 -0.002725 0.000000 0.000000 0.000000
# 2 -0.001124 0.011032 0.001699 0.000000 0.000000 0.000000
# 3 -0.002725 0.001699 0.024339 0.000000 0.000000 0.000000
# 4 0.000000 0.000000 0.000000 -0.057298 0.000000 0.000000
# 5 0.000000 0.000000 0.000000 0.000000 4.123725 0.000000
# 6 0.000000 0.000000 0.000000 0.000000 0.000000 0.028856
#
#
# Mechanical properties :
#
#
# Convention : Reuss Voigt Hill
#
# Bulk Modulus (GPa) = 26.18890 36.82190 31.50540
# Shear Modulus (GPa) = 1.20343 20.89726 11.05034
#
# Velocity S-wave (km/s) = 0.74199 3.09195 2.24841
# Velocity P-wave (km/s) = 3.56582 5.43988 4.59932
#
# Compressibility (1/GPa) = 0.03818411
#
# Stress axis : x y z
#
# Youngs Moduli (GPa) = 140.58344 90.64603 41.08569
#
# Poissons Ratio (x) = 0.10191 0.11195
# Poissons Ratio (y) = 0.15805 -0.06980
# Poissons Ratio (z) = 0.38307 -0.15400
#
# Static dielectric constant tensor:
#      x y z
#    x 2.007470 0.000000 0.000000 
#    y 0.000000 1.848100 0.000000 
#    z 0.000000 0.000000 1.845310 
# 
# From -- ./inp_files/15867.got.cif
#   From: 2010.05.17/outbox.cif.g08.bks.cpg/sg54_8_cif.got.tgz:15867.got - 2010.06.03 13:09:01.
