data_PCOD9420894
_publ_section_title
;
Structure prediction by ZEFSAII (Michael W. Deem and Ramdas Pophale) SiO2 
 PCOD9420894
Probable space group: P C C A
;
_chemical_formula_sum "Si O2"
_cell_formula_units_Z 64
_cell_length_a 5.418283
_cell_length_b 13.841674
_cell_length_c 35.758224
_cell_angle_alpha 90.000000
_cell_angle_beta 90.000000
_cell_angle_gamma 90.000000
_cell_volume 2681.799107
_symmetry_space_group_name_H-M "P C C A"
_symmetry_group_IT_number 54
_symmetry_cell_setting 'orthorhombic'
loop_
_space_group_symop_operation_xyz
x,y,z
1/2-x,-y,z
1/2+x,-y,1/2-z
-x,y,1/2-z
-x,-y,-z
1/2+x,y,-z
1/2-x,y,1/2+z
x,-y,1/2+z
loop_
_atom_site_type_symbol
_atom_site_label
_atom_site_fract_x
_atom_site_fract_y
_atom_site_fract_z
Si Si1 0.854507 0.361810 0.141877
Si Si2 0.144060 0.893804 0.788119
Si Si3 0.412776 0.133409 0.867199
Si Si4 0.091549 0.870898 0.101689
Si Si5 0.144724 0.640404 0.105746
Si Si6 0.759645 0.385647 0.981997
Si Si7 0.995410 0.889957 0.015414
Si Si8 0.758382 0.316019 0.726190
O O1 0.876704 0.248586 0.129711
O O2 0.618451 0.400095 0.119224
O O3 0.792692 0.366791 0.186156
O O4 0.124816 0.397583 0.130028
O O5 0.985560 0.880725 0.825444
O O6 0.309021 0.796842 0.785410
O O7 0.000000 0.892562 0.750000
O O8 0.250000 0.000000 0.791127
O O9 0.625727 0.093727 0.894111
O O10 0.134017 0.094179 0.872172
O O11 0.122679 0.756698 0.110086
O O12 0.997103 0.886672 0.059868
O O13 0.198429 0.624966 0.062157
O O14 0.750000 0.500000 0.990083
O O15 0.497092 0.347125 0.995871
O O16 0.248647 0.845324 0.001011
O O17 0.000000 0.000000 0.000000
O O18 0.500000 0.320962 0.750000
O O19 0.000000 0.348497 0.750000
#
# Coordination Sequence:
#
# PCOD9420894 Si02
#       8
#     8   8   8   8   8   8   8   8
#     4   9  18  32  51  76 108 132 177 219 259 304
#     4  10  21  35  51  72 101 133 175 214 261 324
#     4   9  20  36  52  75  97 131 165 216 263 308
#     4  10  20  37  56  74 101 127 174 212 262 316
#     4  10  19  33  55  78 104 143 171 216 258 307
#     4  10  21  36  54  82 118 148 178 214 255 311
#     4  10  21  37  53  70  93 123 154 212 264 302
#     4  10  19  32  52  75 104 140 170 219 277 317
#
# _framework density 23.864578000000002
#
# number of rings (size 3 to 8) (size 9 to 14) (size 15 to 20)
#    0.000    2.250    0.000    2.625    0.000    8.000 
#    6.750    0.000    0.000    0.000    0.000    0.000 
#    0.000   10.000    0.000    0.000    0.000    0.000 
#
# Total GULP energy -357453.418025 kJ/mol
# GULP energy per Si atom -5585.209657 kJ/mol
# Density = 2.381026 g / cm^3
# Si number density = 23.864578 Si / 1000 Ang^3
#
#
#
# Elastic Constant Matrix: (Units=GPa)
#
#
# Indices 1 2 3 4 5 6 
#
# 1 201.3239 35.7271 79.9918 0.0000 0.0000 0.0000
# 2 35.7271 65.1939 -4.9827 0.0000 0.0000 0.0000
# 3 79.9918 -4.9827 134.2935 0.0000 0.0000 0.0000
# 4 0.0000 0.0000 0.0000 18.1666 0.0000 0.0000
# 5 0.0000 0.0000 0.0000 0.0000 44.0528 0.0000
# 6 0.0000 0.0000 0.0000 0.0000 0.0000 27.5814
#
#
#
# Elastic Compliance Matrix: (Units=1/GPa)
#
#
# Indices 1 2 3 4 5 6 
#
# 1 0.007654 -0.004556 -0.004728 0.000000 0.000000 0.000000
# 2 -0.004556 0.018094 0.003385 0.000000 0.000000 0.000000
# 3 -0.004728 0.003385 0.010388 0.000000 0.000000 0.000000
# 4 0.000000 0.000000 0.000000 0.055046 0.000000 0.000000
# 5 0.000000 0.000000 0.000000 0.000000 0.022700 0.000000
# 6 0.000000 0.000000 0.000000 0.000000 0.000000 0.036256
#
#
# Mechanical properties :
#
#
# Convention : Reuss Voigt Hill
#
# Bulk Modulus (GPa) = 41.08693 69.14264 55.11479
# Shear Modulus (GPa) = 29.40292 37.29847 33.35070
#
# Velocity S-wave (km/s) = 3.51390 3.95767 3.74237
# Velocity P-wave (km/s) = 5.80667 7.06541 6.46674
#
# Compressibility (1/GPa) = 0.02433864
#
# Stress axis : x y z
#
# Youngs Moduli (GPa) = 130.64459 55.26582 96.26107
#
# Poissons Ratio (x) = 0.25179 0.45516
# Poissons Ratio (y) = 0.59523 -0.32586
# Poissons Ratio (z) = 0.61773 -0.18708
#
# Static dielectric constant tensor:
#      x y z
#    x 1.931090 0.000000 0.000000 
#    y 0.000000 1.991240 0.000000 
#    z 0.000000 0.000000 1.820410 
# 
# From -- ./inp_files/27294.got.cif
#   From: 2010.05.17/outbox.cif.g08.bks.cpg/sg54_14_cif.got.tgz:27294.got - 2010.06.03 13:09:01.
