data_PCOD9420519
_publ_section_title
;
Structure prediction by ZEFSAII (Michael W. Deem and Ramdas Pophale) SiO2 
 PCOD9420519
Probable space group: P C C A
;
_chemical_formula_sum "Si O2"
_cell_formula_units_Z 48
_cell_length_a 16.583976
_cell_length_b 8.922609
_cell_length_c 13.400864
_cell_angle_alpha 90.000000
_cell_angle_beta 90.000000
_cell_angle_gamma 90.000000
_cell_volume 1982.957117
_symmetry_space_group_name_H-M "P C C A"
_symmetry_group_IT_number 54
_symmetry_cell_setting 'orthorhombic'
loop_
_space_group_symop_operation_xyz
x,y,z
1/2-x,-y,z
1/2+x,-y,1/2-z
-x,y,1/2-z
-x,-y,-z
1/2+x,y,-z
1/2-x,y,1/2+z
x,-y,1/2+z
loop_
_atom_site_type_symbol
_atom_site_label
_atom_site_fract_x
_atom_site_fract_y
_atom_site_fract_z
Si Si1 0.160481 0.065493 0.672859
Si Si2 0.031956 0.174188 0.154944
Si Si3 0.214172 0.247651 0.942826
Si Si4 0.702508 0.363434 0.354303
Si Si5 0.133509 0.921964 0.938269
Si Si6 0.588552 0.565426 0.483126
O O1 0.168489 0.232740 0.715210
O O2 0.135624 0.091046 0.557811
O O3 0.250000 0.000000 0.681001
O O4 0.093211 0.946947 0.703179
O O5 0.074548 0.281104 0.077299
O O6 0.000000 0.266033 0.250000
O O7 0.956342 0.100606 0.099268
O O8 0.302932 0.204479 0.898570
O O9 0.168482 0.089579 0.924038
O O10 0.240191 0.287808 0.059640
O O11 0.150572 0.383998 0.928566
O O12 0.750000 0.500000 0.303665
O O13 0.632769 0.442567 0.416469
O O14 0.500000 0.500000 0.500000
#
# Coordination Sequence:
#
# PCOD9420519 Si02
#       6
#     8   8   8   8   8   8
#     4  11  18  38  67  92 119 164 224 275 317 382
#     4  12  26  40  58  95 138 170 211 273 343 406
#     4   9  17  33  62  95 116 147 225 273 308 368
#     4   9  17  31  56  91 117 145 203 272 319 362
#     4  10  17  35  64  88 118 159 216 275 304 371
#     4  11  21  35  62  92 122 169 213 274 327 379
#
# _framework density 24.206274000000001
#
# number of rings (size 3 to 8) (size 9 to 14) (size 15 to 20)
#    0.000    1.667    5.000    3.500    2.333    0.000 
#    3.000    0.833    0.000    4.000    0.000    0.000 
#    0.000    0.000    0.000    0.000    0.000    0.000 
#
# Total GULP energy -267610.059335 kJ/mol
# GULP energy per Si atom -5575.209569 kJ/mol
# Density = 2.415118 g / cm^3
# Si number density = 24.206274 Si / 1000 Ang^3
#
#
#
# Elastic Constant Matrix: (Units=GPa)
#
#
# Indices 1 2 3 4 5 6 
#
# 1 173.1648 61.2041 27.2613 0.0000 0.0000 0.0000
# 2 61.2041 141.7875 11.7573 0.0000 0.0000 0.0000
# 3 27.2613 11.7573 45.9015 0.0000 0.0000 0.0000
# 4 0.0000 0.0000 0.0000 10.3853 0.0000 0.0000
# 5 0.0000 0.0000 0.0000 0.0000 5.5790 0.0000
# 6 0.0000 0.0000 0.0000 0.0000 0.0000 55.9039
#
#
#
# Elastic Compliance Matrix: (Units=1/GPa)
#
#
# Indices 1 2 3 4 5 6 
#
# 1 0.007364 -0.002877 -0.003637 0.000000 0.000000 0.000000
# 2 -0.002877 0.008330 -0.000425 0.000000 0.000000 0.000000
# 3 -0.003637 -0.000425 0.024055 0.000000 0.000000 0.000000
# 4 0.000000 0.000000 0.000000 0.096290 0.000000 0.000000
# 5 0.000000 0.000000 0.000000 0.000000 0.179242 0.000000
# 6 0.000000 0.000000 0.000000 0.000000 0.000000 0.017888
#
#
# Mechanical properties :
#
#
# Convention : Reuss Voigt Hill
#
# Bulk Modulus (GPa) = 38.65309 62.36658 50.50983
# Shear Modulus (GPa) = 14.05795 31.74904 22.90350
#
# Velocity S-wave (km/s) = 2.41250 3.62554 3.07934
# Velocity P-wave (km/s) = 4.87474 6.58381 5.79265
#
# Compressibility (1/GPa) = 0.02587115
#
# Stress axis : x y z
#
# Youngs Moduli (GPa) = 135.78912 120.04701 41.57224
#
# Poissons Ratio (x) = 0.34542 0.15119
# Poissons Ratio (y) = 0.39071 0.01766
# Poissons Ratio (z) = 0.49383 0.05100
#
# Static dielectric constant tensor:
#      x y z
#    x 1.988420 0.000000 0.000000 
#    y 0.000000 2.054480 0.000000 
#    z 0.000000 0.000000 1.984090 
# 
# From -- ./inp_files/21465.got.cif
#   From: 2010.05.17/outbox.cif.g08.bks.cpg/sg54_11_cif.got.tgz:21465.got - 2010.06.03 13:09:01.
