data_PCOD9420172
_publ_section_title
;
Structure prediction by ZEFSAII (Michael W. Deem and Ramdas Pophale) SiO2 
 PCOD9420172
Probable space group: P M N A
;
_chemical_formula_sum "Si O2"
_cell_formula_units_Z 48
_cell_length_a 15.000000
_cell_length_b 15.000000
_cell_length_c 12.000000
_cell_angle_alpha 90.000000
_cell_angle_beta 90.000000
_cell_angle_gamma 90.000000
_cell_volume 2700.000000
_symmetry_space_group_name_H-M "P M N A"
_symmetry_group_IT_number 53
_symmetry_cell_setting 'orthorhombic'
loop_
_space_group_symop_operation_xyz
x,y,z
1/2-x,-y,1/2+z
x,-y,-z
1/2-x,y,1/2-z
-x,-y,-z
1/2+x,y,1/2-z
-x,y,z
1/2+x,-y,1/2+z
loop_
_atom_site_type_symbol
_atom_site_label
_atom_site_fract_x
_atom_site_fract_y
_atom_site_fract_z
Si Si1 0.673809 0.189494 0.160932
Si Si2 0.895847 0.377827 0.290496
Si Si3 0.252113 0.759359 0.072829
Si Si4 0.279493 0.413379 0.429198
Si Si5 0.890693 0.186123 0.747592
Si Si6 0.606351 0.999612 0.871790
O O1 0.750000 0.209649 0.250000
O O2 0.607625 0.272901 0.175310
O O3 0.635236 0.092429 0.183923
O O4 0.714055 0.188005 0.036400
O O5 0.851983 0.392776 0.167855
O O6 0.819390 0.420007 0.371729
O O7 0.000000 0.407414 0.296996
O O8 0.166777 0.798824 0.139572
O O9 0.337048 0.753376 0.156915
O O10 0.225009 0.666112 0.018297
O O11 0.301529 0.500000 0.500000
O O12 0.870985 0.087049 0.699302
O O13 0.000000 0.198378 0.754210
O O14 0.500000 0.999721 0.878854
O O15 0.639689 0.000000 0.000000
#
# Coordination Sequence:
#
# PCOD9420172 Si02
#       6
#     8   8   8   8   8   8
#     4  11  20  36  59  86 116 157 201 244 291 342
#     4  10  21  39  61  88 117 155 199 242 301 363
#     4  10  21  39  58  86 113 159 194 242 305 353
#     4  10  22  42  61  87 121 150 193 255 304 361
#     4  10  22  38  57  87 123 158 199 243 295 354
#     4  10  20  33  54  84 117 157 202 245 282 335
#
# _framework density 17.777778000000001
#
# number of rings (size 3 to 8) (size 9 to 14) (size 15 to 20)
#    0.000    1.833    5.000    0.500    2.333    6.667 
#    0.000    1.667    0.000    2.000    0.000    0.000 
#    0.000    0.000    0.000    0.000    0.000    0.000 
#
# Total GULP energy -267249.567544 kJ/mol
# GULP energy per Si atom -5567.699324 kJ/mol
# Density = 1.773731 g / cm^3
# Si number density = 17.777778 Si / 1000 Ang^3
#
#
#
# Elastic Constant Matrix: (Units=GPa)
#
#
# Indices 1 2 3 4 5 6 
#
# 1 108.1305 20.8784 55.2988 0.0000 0.0000 0.0000
# 2 20.8784 70.5196 36.2699 0.0000 0.0000 0.0000
# 3 55.2988 36.2699 113.7563 0.0000 0.0000 0.0000
# 4 0.0000 0.0000 0.0000 56.5175 0.0000 0.0000
# 5 0.0000 0.0000 0.0000 0.0000 23.4807 0.0000
# 6 0.0000 0.0000 0.0000 0.0000 0.0000 17.5535
#
#
#
# Elastic Compliance Matrix: (Units=1/GPa)
#
#
# Indices 1 2 3 4 5 6 
#
# 1 0.012335 -0.000679 -0.005780 0.000000 0.000000 0.000000
# 2 -0.000679 0.016999 -0.005090 0.000000 0.000000 0.000000
# 3 -0.005780 -0.005090 0.013223 0.000000 0.000000 0.000000
# 4 0.000000 0.000000 0.000000 0.017694 0.000000 0.000000
# 5 0.000000 0.000000 0.000000 0.000000 0.042588 0.000000
# 6 0.000000 0.000000 0.000000 0.000000 0.000000 0.056969
#
#
# Mechanical properties :
#
#
# Convention : Reuss Voigt Hill
#
# Bulk Modulus (GPa) = 51.38772 57.47785 54.43278
# Shear Modulus (GPa) = 26.40020 31.50761 28.95391
#
# Velocity S-wave (km/s) = 3.85776 4.21444 4.04004
# Velocity P-wave (km/s) = 6.98652 7.48889 7.24206
#
# Compressibility (1/GPa) = 0.01945990
#
# Stress axis : x y z
#
# Youngs Moduli (GPa) = 81.06997 58.82556 75.62499
#
# Poissons Ratio (x) = 0.03996 0.43709
# Poissons Ratio (y) = 0.05508 0.38492
# Poissons Ratio (z) = 0.46856 0.29941
#
# Static dielectric constant tensor:
#      x y z
#    x 1.608030 0.000000 0.000000 
#    y 0.000000 1.680770 0.000000 
#    z 0.000000 0.000000 1.613760 
# 
# From -- ./inp_files/15950.got.cif
#   From: 2010.05.17/outbox.ucp.g08.bks.cvg/sg53_8_cif.got.tgz:15950.got - 2010.06.11 16:32:34.
