data_PCOD9420856
_publ_section_title
;
Structure prediction by ZEFSAII (Michael W. Deem and Ramdas Pophale) SiO2 
 PCOD9420856
Probable space group: P C C A
;
_chemical_formula_sum "Si O2"
_cell_formula_units_Z 48
_cell_length_a 10.054326
_cell_length_b 12.778740
_cell_length_c 21.639120
_cell_angle_alpha 90.000000
_cell_angle_beta 90.000000
_cell_angle_gamma 90.000000
_cell_volume 2780.229146
_symmetry_space_group_name_H-M "P C C A"
_symmetry_group_IT_number 54
_symmetry_cell_setting 'orthorhombic'
loop_
_space_group_symop_operation_xyz
x,y,z
1/2-x,-y,z
1/2+x,-y,1/2-z
-x,y,1/2-z
-x,-y,-z
1/2+x,y,-z
1/2-x,y,1/2+z
x,-y,1/2+z
loop_
_atom_site_type_symbol
_atom_site_label
_atom_site_fract_x
_atom_site_fract_y
_atom_site_fract_z
Si Si1 0.252600 0.693631 0.343152
Si Si2 0.018675 0.775358 0.003308
Si Si3 0.231907 0.122367 0.935556
Si Si4 0.010727 0.604827 0.106313
Si Si5 0.458188 0.365646 0.611370
Si Si6 0.775357 0.621416 0.291353
O O1 0.239931 0.808092 0.373418
O O2 0.400030 0.651519 0.355872
O O3 0.224766 0.688026 0.270614
O O4 0.144450 0.623138 0.379463
O O5 0.053100 0.687110 0.054153
O O6 0.909058 0.851607 0.032673
O O7 0.149086 0.834088 0.978844
O O8 0.953666 0.713430 0.945717
O O9 0.250000 0.000000 0.924830
O O10 0.045428 0.485982 0.088848
O O11 0.089428 0.626851 0.169767
O O12 0.341704 0.349592 0.660876
O O13 0.750000 0.500000 0.273140
#
# Coordination Sequence:
#
# PCOD9420856 Si02
#       6
#     8   8   8   8   8   8
#     4  10  20  32  50  72  98 136 174 206 244 292
#     4  10  20  34  54  78 102 130 166 206 252 300
#     4  10  21  37  55  72  95 130 172 218 257 290
#     4  10  19  31  50  77 108 136 161 196 244 302
#     4  10  19  31  50  77 108 136 161 196 244 302
#     4  10  19  31  49  74 105 138 166 194 237 298
#
# _framework density 17.264765000000001
#
# number of rings (size 3 to 8) (size 9 to 14) (size 15 to 20)
#    0.000    2.000    0.000    4.500    0.000    2.667 
#    0.000    5.000    0.000   20.000    0.000    0.000 
#    0.000    0.000    0.000    0.000    0.000    0.000 
#
# Total GULP energy -268012.788825 kJ/mol
# GULP energy per Si atom -5583.599767 kJ/mol
# Density = 1.722547 g / cm^3
# Si number density = 17.264765 Si / 1000 Ang^3
#
#
#
# Elastic Constant Matrix: (Units=GPa)
#
#
# Indices 1 2 3 4 5 6 
#
# 1 48.1000 4.1216 -3.8365 0.0000 0.0000 0.0000
# 2 4.1216 56.9084 24.4504 0.0000 0.0000 0.0000
# 3 -3.8365 24.4504 57.5317 0.0000 0.0000 0.0000
# 4 0.0000 0.0000 0.0000 14.3284 0.0000 0.0000
# 5 0.0000 0.0000 0.0000 0.0000 16.8856 0.0000
# 6 0.0000 0.0000 0.0000 0.0000 0.0000 16.8676
#
#
#
# Elastic Compliance Matrix: (Units=1/GPa)
#
#
# Indices 1 2 3 4 5 6 
#
# 1 0.021217 -0.002624 0.002530 0.000000 0.000000 0.000000
# 2 -0.002624 0.021822 -0.009449 0.000000 0.000000 0.000000
# 3 0.002530 -0.009449 0.021566 0.000000 0.000000 0.000000
# 4 0.000000 0.000000 0.000000 0.069791 0.000000 0.000000
# 5 0.000000 0.000000 0.000000 0.000000 0.059222 0.000000
# 6 0.000000 0.000000 0.000000 0.000000 0.000000 0.059285
#
#
# Mechanical properties :
#
#
# Convention : Reuss Voigt Hill
#
# Bulk Modulus (GPa) = 21.96878 23.55678 22.76278
# Shear Modulus (GPa) = 17.41179 18.80330 18.10755
#
# Velocity S-wave (km/s) = 3.17916 3.30375 3.24205
# Velocity P-wave (km/s) = 5.12136 5.31292 5.21802
#
# Compressibility (1/GPa) = 0.04551914
#
# Stress axis : x y z
#
# Youngs Moduli (GPa) = 47.13287 45.82563 46.36888
#
# Poissons Ratio (x) = 0.12023 -0.11731
# Poissons Ratio (y) = 0.12366 0.43814
# Poissons Ratio (z) = -0.11924 0.43301
#
# Static dielectric constant tensor:
#      x y z
#    x 1.588510 0.000000 0.000000 
#    y 0.000000 1.556190 0.000000 
#    z 0.000000 0.000000 1.571010 
# 
# From -- ./inp_files/17288.got.cif
#   From: 2010.05.17/outbox.cif.g08.bks.cpg/sg54_9_cif.got.tgz:17288.got - 2010.06.03 13:09:01.
