data_PCOD9420024
_publ_section_title
;
Structure prediction by ZEFSAII (Michael W. Deem and Ramdas Pophale) SiO2 
 PCOD9420024
Probable space group: P M N A
;
_chemical_formula_sum "Si O2"
_cell_formula_units_Z 26
_cell_length_a 24.121658
_cell_length_b 4.846564
_cell_length_c 8.651099
_cell_angle_alpha 90.000000
_cell_angle_beta 90.000000
_cell_angle_gamma 90.000000
_cell_volume 1011.375409
_symmetry_space_group_name_H-M "P M N A"
_symmetry_group_IT_number 53
_symmetry_cell_setting 'orthorhombic'
loop_
_space_group_symop_operation_xyz
x,y,z
1/2-x,-y,1/2+z
x,-y,-z
1/2-x,y,1/2-z
-x,-y,-z
1/2+x,y,1/2-z
-x,y,z
1/2+x,-y,1/2+z
loop_
_atom_site_type_symbol
_atom_site_label
_atom_site_fract_x
_atom_site_fract_y
_atom_site_fract_z
Si Si1 0.420061 0.861330 0.343658
Si Si2 0.803671 0.393735 0.832608
Si Si3 0.000000 0.500000 0.000000
Si Si4 0.623974 0.239286 0.106750
O O1 0.355086 0.808297 0.357012
O O2 0.451931 0.575801 0.366540
O O3 0.442411 0.000000 0.500000
O O4 0.423328 0.062982 0.197710
O O5 0.750000 0.275630 0.750000
O O6 0.831644 0.629094 0.724555
O O7 0.786831 0.500000 0.000000
O O8 0.605860 0.500000 0.000000
O O9 0.650191 0.000000 0.000000
#
# Coordination Sequence:
#
# PCOD9420024 Si02
#       4
#     8   8   2   8
#     4  12  25  51  84 118 166 220 297 345 425 511
#     4  12  26  49  78 124 164 223 276 345 425 513
#     4  12  26  52  88 124 160 236 296 356 418 522
#     4  12  26  49  78 116 170 212 271 352 426 507
#
# _framework density 25.707564999999999
#
# number of rings (size 3 to 8) (size 9 to 14) (size 15 to 20)
#    0.000    0.000    7.692    1.385    0.000    1.231 
#    5.538    1.538    0.000    0.000    0.000    0.000 
#    0.000    0.000    0.000    0.000    0.000    0.000 
#
# Total GULP energy -144780.047359 kJ/mol
# GULP energy per Si atom -5568.463360 kJ/mol
# Density = 2.564905 g / cm^3
# Si number density = 25.707565 Si / 1000 Ang^3
#
#
#
# Elastic Constant Matrix: (Units=GPa)
#
#
# Indices 1 2 3 4 5 6 
#
# 1 160.9506 29.4127 46.8372 0.0000 0.0000 0.0000
# 2 29.4127 115.9674 52.6701 0.0000 0.0000 0.0000
# 3 46.8372 52.6701 164.7817 0.0000 0.0000 0.0000
# 4 0.0000 0.0000 0.0000 69.8584 0.0000 0.0000
# 5 0.0000 0.0000 0.0000 0.0000 22.1471 0.0000
# 6 0.0000 0.0000 0.0000 0.0000 0.0000 72.7994
#
#
#
# Elastic Compliance Matrix: (Units=1/GPa)
#
#
# Indices 1 2 3 4 5 6 
#
# 1 0.006871 -0.001001 -0.001633 0.000000 0.000000 0.000000
# 2 -0.001001 0.010233 -0.002986 0.000000 0.000000 0.000000
# 3 -0.001633 -0.002986 0.007487 0.000000 0.000000 0.000000
# 4 0.000000 0.000000 0.000000 0.014315 0.000000 0.000000
# 5 0.000000 0.000000 0.000000 0.000000 0.045153 0.000000
# 6 0.000000 0.000000 0.000000 0.000000 0.000000 0.013736
#
#
# Mechanical properties :
#
#
# Convention : Reuss Voigt Hill
#
# Bulk Modulus (GPa) = 74.90125 77.72665 76.31395
# Shear Modulus (GPa) = 44.05788 53.81296 48.93542
#
# Velocity S-wave (km/s) = 4.14431 4.58019 4.36769
# Velocity P-wave (km/s) = 7.21800 7.63358 7.42869
#
# Compressibility (1/GPa) = 0.01335091
#
# Stress axis : x y z
#
# Youngs Moduli (GPa) = 145.53378 97.71950 133.55786
#
# Poissons Ratio (x) = 0.09782 0.21811
# Poissons Ratio (y) = 0.14568 0.39886
# Poissons Ratio (z) = 0.23767 0.29183
#
# Static dielectric constant tensor:
#      x y z
#    x 1.973920 0.000000 0.000000 
#    y 0.000000 2.423180 0.000000 
#    z 0.000000 0.000000 2.101120 
# 
# From -- ./inp_files/12094.got.cif
#   From: 2010.05.17/outbox.cif.g08.bks.cpg/sg53_7_cif.got.tgz:12094.got - 2010.06.03 12:45:16.
