data_PCOD9420898
_publ_section_title
;
Structure prediction by ZEFSAII (Michael W. Deem and Ramdas Pophale) SiO2 
 PCOD9420898
Probable space group: P C C A
;
_chemical_formula_sum "Si O2"
_cell_formula_units_Z 56
_cell_length_a 17.049433
_cell_length_b 28.459395
_cell_length_c 5.297994
_cell_angle_alpha 90.000000
_cell_angle_beta 90.000000
_cell_angle_gamma 90.000000
_cell_volume 2570.674361
_symmetry_space_group_name_H-M "P C C A"
_symmetry_group_IT_number 54
_symmetry_cell_setting 'orthorhombic'
loop_
_space_group_symop_operation_xyz
x,y,z
1/2-x,-y,z
1/2+x,-y,1/2-z
-x,y,1/2-z
-x,-y,-z
1/2+x,y,-z
1/2-x,y,1/2+z
x,-y,1/2+z
loop_
_atom_site_type_symbol
_atom_site_label
_atom_site_fract_x
_atom_site_fract_y
_atom_site_fract_z
Si Si1 0.697229 0.116186 0.900720
Si Si2 0.542871 0.431760 0.499084
Si Si3 0.024308 0.671020 0.500082
Si Si4 0.405647 0.027709 0.741190
Si Si5 0.201787 0.781202 0.665914
Si Si6 0.779811 0.553195 0.613279
Si Si7 0.197347 0.324437 0.072799
O O1 0.762287 0.112301 0.675994
O O2 0.635234 0.075870 0.840218
O O3 0.661425 0.168918 0.883915
O O4 0.500000 0.448171 0.750000
O O5 0.532265 0.375213 0.496382
O O6 0.632654 0.445631 0.513719
O O7 0.500000 0.448992 0.250000
O O8 0.113201 0.652407 0.515394
O O9 0.000000 0.697782 0.250000
O O10 0.000000 0.697659 0.750000
O O11 0.500000 0.032437 0.750000
O O12 0.383061 0.990663 0.519943
O O13 0.273604 0.781791 0.460650
O O14 0.168221 0.730363 0.595059
O O15 0.750000 0.500000 0.653918
O O16 0.728077 0.575287 0.390144
O O17 0.243319 0.331330 0.337445
#
# Coordination Sequence:
#
# PCOD9420898 Si02
#       7
#     8   8   8   8   8   8   8
#     4  10  19  32  52  76 100 129 172 221 263 312
#     4  10  21  40  60  84 118 152 181 230 290 330
#     4  10  21  38  56  83 118 150 181 226 283 329
#     4  10  21  35  49  68 100 137 170 212 267 322
#     4   8  16  30  50  76 104 132 168 218 268 309
#     4  10  21  40  62  88 114 148 197 238 272 331
#     4  10  19  35  59  83 108 146 189 223 265 335
#
# _framework density 21.784165999999999
#
# number of rings (size 3 to 8) (size 9 to 14) (size 15 to 20)
#    0.000    2.286    0.000    2.571    0.000    1.714 
#    0.000   26.429    0.000    2.571    0.000    0.000 
#    0.000    0.000    0.000    0.000    0.000    0.000 
#
# Total GULP energy -312460.752034 kJ/mol
# GULP energy per Si atom -5579.656286 kJ/mol
# Density = 2.173458 g / cm^3
# Si number density = 21.784166 Si / 1000 Ang^3
#
#
#
# Elastic Constant Matrix: (Units=GPa)
#
#
# Indices 1 2 3 4 5 6 
#
# 1 94.6408 1.0081 35.7061 0.0000 0.0000 0.0000
# 2 1.0081 78.7577 -6.3184 0.0000 0.0000 0.0000
# 3 35.7061 -6.3184 187.0658 0.0000 0.0000 0.0000
# 4 0.0000 0.0000 0.0000 25.0413 0.0000 0.0000
# 5 0.0000 0.0000 0.0000 0.0000 30.4810 0.0000
# 6 0.0000 0.0000 0.0000 0.0000 0.0000 32.4957
#
#
#
# Elastic Compliance Matrix: (Units=1/GPa)
#
#
# Indices 1 2 3 4 5 6 
#
# 1 0.011394 -0.000321 -0.002186 0.000000 0.000000 0.000000
# 2 -0.000321 0.012741 0.000492 0.000000 0.000000 0.000000
# 3 -0.002186 0.000492 0.005780 0.000000 0.000000 0.000000
# 4 0.000000 0.000000 0.000000 0.039934 0.000000 0.000000
# 5 0.000000 0.000000 0.000000 0.000000 0.032807 0.000000
# 6 0.000000 0.000000 0.000000 0.000000 0.000000 0.030773
#
#
# Mechanical properties :
#
#
# Convention : Reuss Voigt Hill
#
# Bulk Modulus (GPa) = 38.63391 46.80620 42.72006
# Shear Modulus (GPa) = 34.22597 39.60816 36.91707
#
# Velocity S-wave (km/s) = 3.96806 4.26867 4.12111
# Velocity P-wave (km/s) = 6.22634 6.76967 6.50368
#
# Compressibility (1/GPa) = 0.02588400
#
# Stress axis : x y z
#
# Youngs Moduli (GPa) = 87.76299 78.48847 173.02479
#
# Poissons Ratio (x) = 0.02521 0.37819
# Poissons Ratio (y) = 0.02819 -0.08507
# Poissons Ratio (z) = 0.19183 -0.03859
#
# Static dielectric constant tensor:
#      x y z
#    x 1.771380 0.000000 0.000000 
#    y 0.000000 1.937700 0.000000 
#    z 0.000000 0.000000 1.897810 
# 
# From -- ./inp_files/747.got.cif
#   From: 2010.05.17/outbox.cif.g08.bks.cpg/sg54_1_cif.got.tgz:747.got - 2010.06.03 13:09:01.
