data_PCOD9420277
_publ_section_title
;
Structure prediction by ZEFSAII (Michael W. Deem and Ramdas Pophale) SiO2 
 PCOD9420277
Probable space group: P M N A
;
_chemical_formula_sum "Si O2"
_cell_formula_units_Z 64
_cell_length_a 9.000000
_cell_length_b 21.000000
_cell_length_c 18.000000
_cell_angle_alpha 90.000000
_cell_angle_beta 90.000000
_cell_angle_gamma 90.000000
_cell_volume 3402.000000
_symmetry_space_group_name_H-M "P M N A"
_symmetry_group_IT_number 53
_symmetry_cell_setting 'orthorhombic'
loop_
_space_group_symop_operation_xyz
x,y,z
1/2-x,-y,1/2+z
x,-y,-z
1/2-x,y,1/2-z
-x,-y,-z
1/2+x,y,1/2-z
-x,y,z
1/2+x,-y,1/2+z
loop_
_atom_site_type_symbol
_atom_site_label
_atom_site_fract_x
_atom_site_fract_y
_atom_site_fract_z
Si Si1 0.674086 0.686586 0.436306
Si Si2 0.833435 0.100656 0.609022
Si Si3 0.165406 0.235292 0.677696
Si Si4 0.678753 0.357719 0.328729
Si Si5 0.674799 0.230931 0.416106
Si Si6 0.825870 0.098532 0.435511
Si Si7 0.827752 0.007351 0.176278
Si Si8 0.681673 0.567508 0.528359
O O1 0.500000 0.681084 0.420857
O O2 0.757015 0.707419 0.363542
O O3 0.690121 0.738492 0.501997
O O4 0.730043 0.621369 0.470996
O O5 0.834757 0.175347 0.623121
O O6 0.801174 0.090274 0.523046
O O7 0.000000 0.075911 0.626076
O O8 0.718136 0.065162 0.660879
O O9 0.250000 0.214375 0.750000
O O10 0.000000 0.252512 0.698379
O O11 0.750000 0.369196 0.250000
O O12 0.500000 0.359518 0.324280
O O13 0.717415 0.287514 0.360048
O O14 0.726856 0.409203 0.390210
O O15 0.500000 0.215817 0.405290
O O16 0.771298 0.168039 0.410964
O O17 0.734162 0.046289 0.392425
O O18 0.000000 0.091040 0.420979
O O19 0.750000 0.031459 0.250000
O O20 0.000000 0.014348 0.183778
O O21 0.733487 0.500000 0.500000
O O22 0.500000 0.567886 0.528628
#
# Coordination Sequence:
#
# PCOD9420277 Si02
#       8
#     8   8   8   8   8   8   8   8
#     4   9  17  32  55  80 107 141 182 228 271 320
#     4  10  22  40  60  83 110 142 182 227 276 332
#     4  11  22  36  55  82 112 145 182 226 280 331
#     4   9  18  32  52  80 111 145 183 227 273 322
#     4   9  18  33  53  78 108 141 182 223 268 326
#     4  11  22  38  60  85 112 143 180 225 277 330
#     4  12  26  42  59  80 108 145 185 229 280 330
#     4   8  15  31  56  82 109 147 190 226 268 324
#
# _framework density 18.812463000000001
#
# number of rings (size 3 to 8) (size 9 to 14) (size 15 to 20)
#    0.000    2.125    1.250    4.125    0.000    5.500 
#    0.000    3.750    0.000    3.000    0.000    0.000 
#    0.000    0.000    0.000    0.000    0.000    0.000 
#
# Total GULP energy -356881.050284 kJ/mol
# GULP energy per Si atom -5576.266411 kJ/mol
# Density = 1.876965 g / cm^3
# Si number density = 18.812463 Si / 1000 Ang^3
#
#
#
# Elastic Constant Matrix: (Units=GPa)
#
#
# Indices 1 2 3 4 5 6 
#
# 1 15.1978 54.5560 93.4615 0.0000 0.0000 0.0000
# 2 54.5560 54.1416 19.1740 0.0000 0.0000 0.0000
# 3 93.4615 19.1740 43.2153 0.0000 0.0000 0.0000
# 4 0.0000 0.0000 0.0000 1.0813 0.0000 0.0000
# 5 0.0000 0.0000 0.0000 0.0000 25.8610 0.0000
# 6 0.0000 0.0000 0.0000 0.0000 0.0000 10.7708
#
#
#
# Elastic Compliance Matrix: (Units=1/GPa)
#
#
# Indices 1 2 3 4 5 6 
#
# 1 -0.005244 0.001504 0.010674 0.000000 0.000000 0.000000
# 2 0.001504 0.021482 -0.012784 0.000000 0.000000 0.000000
# 3 0.010674 -0.012784 0.005727 0.000000 0.000000 0.000000
# 4 0.000000 0.000000 0.000000 0.924840 0.000000 0.000000
# 5 0.000000 0.000000 0.000000 0.000000 0.038668 0.000000
# 6 0.000000 0.000000 0.000000 0.000000 0.000000 0.092844
#
#
# Mechanical properties :
#
#
# Convention : Reuss Voigt Hill
#
# Bulk Modulus (GPa) = 48.18577 49.65974 48.92275
# Shear Modulus (GPa) = 4.60216 3.90015 4.25116
#
# Velocity S-wave (km/s) = 1.56577 1.44141 1.50488
# Velocity P-wave (km/s) = 5.37943 5.40600 5.39273
#
# Compressibility (1/GPa) = 0.02075302
#
# Stress axis : x y z
#
# Youngs Moduli (GPa) = -190.68465 46.55078 174.62087
#
# Poissons Ratio (x) = -0.07002 -1.86397
# Poissons Ratio (y) = 0.28681 2.23238
# Poissons Ratio (z) = 2.03544 0.59511
#
# Static dielectric constant tensor:
#      x y z
#    x 1.643340 0.000000 0.000000 
#    y 0.000000 1.641200 0.000000 
#    z 0.000000 0.000000 1.580880 
# 
# From -- ./inp_files/26925.got.cif
#   From: 2010.05.17/outbox.ucp.g08.bks.cvg/sg53_14_cif.got.tgz:26925.got - 2010.06.11 16:32:34.
