data_PCOD9420434
_publ_section_title
;
Structure prediction by ZEFSAII (Michael W. Deem and Ramdas Pophale) SiO2 
 PCOD9420434
Probable space group: P C C A
;
_chemical_formula_sum "Si O2"
_cell_formula_units_Z 28
_cell_length_a 21.139759
_cell_length_b 11.542564
_cell_length_c 5.350271
_cell_angle_alpha 90.000000
_cell_angle_beta 90.000000
_cell_angle_gamma 90.000000
_cell_volume 1305.503689
_symmetry_space_group_name_H-M "P C C A"
_symmetry_group_IT_number 54
_symmetry_cell_setting 'orthorhombic'
loop_
_space_group_symop_operation_xyz
x,y,z
1/2-x,-y,z
1/2+x,-y,1/2-z
-x,y,1/2-z
-x,-y,-z
1/2+x,y,-z
1/2-x,y,1/2+z
x,-y,1/2+z
loop_
_atom_site_type_symbol
_atom_site_label
_atom_site_fract_x
_atom_site_fract_y
_atom_site_fract_z
Si Si1 0.500000 0.246513 0.750000
Si Si2 0.275572 0.133099 0.545220
Si Si3 0.080854 0.075017 0.953035
Si Si4 0.071951 0.547197 0.957861
O O1 0.530334 0.170971 0.969234
O O2 0.443124 0.323731 0.865213
O O3 0.237544 0.187185 0.314851
O O4 0.348793 0.126061 0.477673
O O5 0.250000 0.000000 0.573262
O O6 0.075039 0.981557 0.180159
O O7 0.101738 0.475122 0.728647
O O8 0.000000 0.500000 0.000000
#
# Coordination Sequence:
#
# PCOD9420434 Si02
#       4
#     4   8   8   8
#     4  10  22  32  46  74 104 120 158 186 240 298
#     4  10  16  32  50  58  80 126 173 198 214 246
#     4  12  22  32  45  68 100 137 153 190 231 273
#     4   8  16  32  51  64  87 122 152 192 231 276
#
# _framework density 21.447658000000001
#
# number of rings (size 3 to 8) (size 9 to 14) (size 15 to 20)
#    0.000    2.286    5.714    0.857    0.000    9.143 
#    0.000    0.000    0.000    0.000    0.000    0.000 
#    0.000   61.714    0.000    0.000    0.000    0.000 
#
# Total GULP energy -156164.288483 kJ/mol
# GULP energy per Si atom -5577.296017 kJ/mol
# Density = 2.139884 g / cm^3
# Si number density = 21.447658 Si / 1000 Ang^3
#
#
#
# Elastic Constant Matrix: (Units=GPa)
#
#
# Indices 1 2 3 4 5 6 
#
# 1 44.9161 12.0919 -5.9979 0.0000 0.0000 0.0000
# 2 12.0919 39.9127 19.0171 0.0000 0.0000 0.0000
# 3 -5.9979 19.0171 155.8915 0.0000 0.0000 0.0000
# 4 0.0000 0.0000 0.0000 0.7850 0.0000 0.0000
# 5 0.0000 0.0000 0.0000 0.0000 21.4759 0.0000
# 6 0.0000 0.0000 0.0000 0.0000 0.0000 -8.3547
#
#
#
# Elastic Compliance Matrix: (Units=1/GPa)
#
#
# Indices 1 2 3 4 5 6 
#
# 1 0.024807 -0.008462 0.001987 0.000000 0.000000 0.000000
# 2 -0.008462 0.029487 -0.003923 0.000000 0.000000 0.000000
# 3 0.001987 -0.003923 0.006970 0.000000 0.000000 0.000000
# 4 0.000000 0.000000 0.000000 1.273833 0.000000 0.000000
# 5 0.000000 0.000000 0.000000 0.000000 0.046564 0.000000
# 6 0.000000 0.000000 0.000000 0.000000 0.000000 -0.119693
#
#
# Mechanical properties :
#
#
# Convention : Reuss Voigt Hill
#
# Bulk Modulus (GPa) = 24.71089 32.32693 28.51891
# Shear Modulus (GPa) = 3.85727 17.15520 10.50624
#
# Velocity S-wave (km/s) = 1.34252 2.83125 2.21567
# Velocity P-wave (km/s) = 3.73492 5.07870 4.45774
#
# Compressibility (1/GPa) = 0.04046799
#
# Stress axis : x y z
#
# Youngs Moduli (GPa) = 40.31099 33.91274 143.47836
#
# Poissons Ratio (x) = 0.28697 -0.28506
# Poissons Ratio (y) = 0.34112 0.56283
# Poissons Ratio (z) = -0.08009 0.13303
#
# Static dielectric constant tensor:
#      x y z
#    x 1.045900 0.000000 0.000000 
#    y 0.000000 1.866200 0.000000 
#    z 0.000000 0.000000 -9.422920 
# 
# From -- ./inp_files/1134.got.cif
#   From: 2010.05.17/outbox.cif.g08.bks.cpg/sg54_1_cif.got.tgz:1134.got - 2010.06.03 13:09:01.
