data_PCOD9420264
_publ_section_title
;
Structure prediction by ZEFSAII (Michael W. Deem and Ramdas Pophale) SiO2 
 PCOD9420264
Probable space group: P M N A
;
_chemical_formula_sum "Si O2"
_cell_formula_units_Z 48
_cell_length_a 9.000000
_cell_length_b 15.000000
_cell_length_c 18.000000
_cell_angle_alpha 90.000000
_cell_angle_beta 90.000000
_cell_angle_gamma 90.000000
_cell_volume 2430.000000
_symmetry_space_group_name_H-M "P M N A"
_symmetry_group_IT_number 53
_symmetry_cell_setting 'orthorhombic'
loop_
_space_group_symop_operation_xyz
x,y,z
1/2-x,-y,1/2+z
x,-y,-z
1/2-x,y,1/2-z
-x,-y,-z
1/2+x,y,1/2-z
-x,y,z
1/2+x,-y,1/2+z
loop_
_atom_site_type_symbol
_atom_site_label
_atom_site_fract_x
_atom_site_fract_y
_atom_site_fract_z
Si Si1 0.324682 0.137796 0.928546
Si Si2 0.675261 0.690284 0.169573
Si Si3 0.820948 0.467338 0.917525
Si Si4 0.822717 0.185409 0.083690
Si Si5 0.177547 0.358742 0.171208
Si Si6 0.321994 0.971347 0.828656
O O1 0.500000 0.136030 0.948100
O O2 0.303055 0.211855 0.864995
O O3 0.284916 0.043661 0.892009
O O4 0.234730 0.162127 0.001928
O O5 0.750000 0.681309 0.250000
O O6 0.500000 0.673622 0.177032
O O7 0.744920 0.621981 0.110648
O O8 0.779453 0.544641 0.859345
O O9 0.000000 0.456211 0.917074
O O10 0.779295 0.500000 0.000000
O O11 0.785913 0.285733 0.108720
O O12 0.744302 0.121173 0.142863
O O13 0.000000 0.173889 0.087208
O O14 0.250000 0.338244 0.250000
O O15 0.000000 0.357624 0.180428
O O16 0.250000 0.995909 0.750000
O O17 0.500000 0.967506 0.821325
#
# Coordination Sequence:
#
# PCOD9420264 Si02
#       6
#     8   8   8   8   8   8
#     4  10  23  41  60  85 118 154 191 237 291 344
#     4  11  23  39  60  87 118 153 195 241 290 344
#     4  10  21  39  61  85 116 153 192 237 290 346
#     4  11  23  39  61  88 116 151 195 239 288 346
#     4  10  22  38  57  83 114 150 190 233 284 340
#     4  11  23  40  61  86 118 154 193 237 287 342
#
# _framework density 19.753086
#
# number of rings (size 3 to 8) (size 9 to 14) (size 15 to 20)
#    0.000    1.500    0.000    4.500    0.000   11.000 
#    0.000    0.000    0.000    0.000    0.000    0.000 
#    0.000    0.000    0.000    0.000    0.000    0.000 
#
# Total GULP energy -268376.660377 kJ/mol
# GULP energy per Si atom -5591.180425 kJ/mol
# Density = 1.970813 g / cm^3
# Si number density = 19.753086 Si / 1000 Ang^3
#
#
#
# Elastic Constant Matrix: (Units=GPa)
#
#
# Indices 1 2 3 4 5 6 
#
# 1 29.8517 13.2835 19.4795 0.0000 0.0000 0.0000
# 2 13.2835 44.1218 -30.8758 0.0000 0.0000 0.0000
# 3 19.4795 -30.8758 66.8409 0.0000 0.0000 0.0000
# 4 0.0000 0.0000 0.0000 24.7802 0.0000 0.0000
# 5 0.0000 0.0000 0.0000 0.0000 32.9154 0.0000
# 6 0.0000 0.0000 0.0000 0.0000 0.0000 27.6735
#
#
#
# Elastic Compliance Matrix: (Units=1/GPa)
#
#
# Indices 1 2 3 4 5 6 
#
# 1 0.132491 -0.098868 -0.084282 0.000000 0.000000 0.000000
# 2 -0.098868 0.107268 0.078364 0.000000 0.000000 0.000000
# 3 -0.084282 0.078364 0.075722 0.000000 0.000000 0.000000
# 4 0.000000 0.000000 0.000000 0.040355 0.000000 0.000000
# 5 0.000000 0.000000 0.000000 0.000000 0.030381 0.000000
# 6 0.000000 0.000000 0.000000 0.000000 0.000000 0.036136
#
#
# Mechanical properties :
#
#
# Convention : Reuss Voigt Hill
#
# Bulk Modulus (GPa) = 9.44218 16.06542 12.75380
# Shear Modulus (GPa) = 7.49369 26.33562 16.91466
#
# Velocity S-wave (km/s) = 1.94985 3.65532 2.92944
# Velocity P-wave (km/s) = 3.14002 5.09568 4.23235
#
# Compressibility (1/GPa) = 0.10590775
#
# Stress axis : x y z
#
# Youngs Moduli (GPa) = 7.54767 9.32245 13.20623
#
# Poissons Ratio (x) = 0.92169 1.11305
# Poissons Ratio (y) = 0.74622 -1.03489
# Poissons Ratio (z) = 0.63613 -0.73054
#
# Static dielectric constant tensor:
#      x y z
#    x 1.659080 0.000000 0.000000 
#    y 0.000000 1.681610 0.000000 
#    z 0.000000 0.000000 1.652290 
# 
# From -- ./inp_files/26170.got.cif
#   From: 2010.05.17/outbox.ucp.g08.bks.cvg/sg53_14_cif.got.tgz:26170.got - 2010.06.11 16:32:34.
