data_PCOD9420499
_publ_section_title
;
Structure prediction by ZEFSAII (Michael W. Deem and Ramdas Pophale) SiO2 
 PCOD9420499
Probable space group: P C C A
;
_chemical_formula_sum "Si O2"
_cell_formula_units_Z 64
_cell_length_a 22.123851
_cell_length_b 9.820397
_cell_length_c 11.929049
_cell_angle_alpha 90.000000
_cell_angle_beta 90.000000
_cell_angle_gamma 90.000000
_cell_volume 2591.764831
_symmetry_space_group_name_H-M "P C C A"
_symmetry_group_IT_number 54
_symmetry_cell_setting 'orthorhombic'
loop_
_space_group_symop_operation_xyz
x,y,z
1/2-x,-y,z
1/2+x,-y,1/2-z
-x,y,1/2-z
-x,-y,-z
1/2+x,y,-z
1/2-x,y,1/2+z
x,-y,1/2+z
loop_
_atom_site_type_symbol
_atom_site_label
_atom_site_fract_x
_atom_site_fract_y
_atom_site_fract_z
Si Si1 0.450273 0.249093 0.388046
Si Si2 0.377205 0.695013 0.300195
Si Si3 0.067230 0.672145 0.014366
Si Si4 0.255054 0.345371 0.365972
Si Si5 0.077426 0.052234 0.391154
Si Si6 0.180515 0.011629 0.053799
Si Si7 0.654153 0.308920 0.934457
Si Si8 0.646047 0.248713 0.305037
O O1 0.507390 0.346142 0.413072
O O2 0.404581 0.287756 0.488834
O O3 0.412006 0.264263 0.274851
O O4 0.461645 0.083642 0.381871
O O5 0.417535 0.612374 0.391591
O O6 0.312228 0.715791 0.361279
O O7 0.410696 0.842660 0.289062
O O8 0.364712 0.623316 0.182645
O O9 0.058068 0.832539 0.980466
O O10 0.127563 0.659813 0.088200
O O11 0.250000 0.500000 0.328625
O O12 0.290617 0.350546 0.484665
O O13 0.297336 0.277008 0.273436
O O14 0.140390 0.996334 0.441523
O O15 0.158124 0.898144 0.140058
O O16 0.250000 0.000000 0.022629
O O17 0.173689 0.159464 0.106142
#
# Coordination Sequence:
#
# PCOD9420499 Si02
#       8
#     8   8   8   8   8   8   8   8
#     4  10  18  34  56  88 125 168 207 263 314 399
#     4  10  21  37  56  86 122 162 210 266 322 388
#     4   9  20  35  56  85 126 162 212 257 323 392
#     4  11  25  43  65  90 125 170 225 281 328 391
#     4   8  18  31  50  86 122 168 209 249 324 390
#     4  10  17  31  57  85 129 165 205 266 328 400
#     4  10  22  36  58  91 123 164 212 260 336 387
#     4  10  21  36  59  91 123 167 217 264 332 384
#
# _framework density 24.693598999999999
#
# number of rings (size 3 to 8) (size 9 to 14) (size 15 to 20)
#    0.750    1.500    0.000    3.000    1.750    1.000 
#    0.000    4.375    0.000    3.000    6.500    0.000 
#    0.000    0.000    0.000    0.000    0.000    0.000 
#
# Total GULP energy -356725.565856 kJ/mol
# GULP energy per Si atom -5573.836966 kJ/mol
# Density = 2.463739 g / cm^3
# Si number density = 24.693599 Si / 1000 Ang^3
#
#
#
# Elastic Constant Matrix: (Units=GPa)
#
#
# Indices 1 2 3 4 5 6 
#
# 1 60.5582 1.7883 10.2779 0.0000 0.0000 0.0000
# 2 1.7883 43.5131 8.8827 0.0000 0.0000 0.0000
# 3 10.2779 8.8827 103.1699 0.0000 0.0000 0.0000
# 4 0.0000 0.0000 0.0000 -28.9020 0.0000 0.0000
# 5 0.0000 0.0000 0.0000 0.0000 7.3793 0.0000
# 6 0.0000 0.0000 0.0000 0.0000 0.0000 11.1752
#
#
#
# Elastic Compliance Matrix: (Units=1/GPa)
#
#
# Indices 1 2 3 4 5 6 
#
# 1 0.016802 -0.000355 -0.001643 0.000000 0.000000 0.000000
# 2 -0.000355 0.023400 -0.001979 0.000000 0.000000 0.000000
# 3 -0.001643 -0.001979 0.010027 0.000000 0.000000 0.000000
# 4 0.000000 0.000000 0.000000 -0.034600 0.000000 0.000000
# 5 0.000000 0.000000 0.000000 0.000000 0.135513 0.000000
# 6 0.000000 0.000000 0.000000 0.000000 0.000000 0.089484
#
#
# Mechanical properties :
#
#
# Convention : Reuss Voigt Hill
#
# Bulk Modulus (GPa) = 23.65515 27.68210 25.66863
# Shear Modulus (GPa) = 19.03501 10.35000 14.69250
#
# Velocity S-wave (km/s) = 2.77943 2.04950 2.44189
# Velocity P-wave (km/s) = 4.46100 4.10307 4.28578
#
# Compressibility (1/GPa) = 0.04227409
#
# Stress axis : x y z
#
# Youngs Moduli (GPa) = 59.51520 42.73462 99.73195
#
# Poissons Ratio (x) = 0.01517 0.16389
# Poissons Ratio (y) = 0.02113 0.19740
# Poissons Ratio (z) = 0.09780 0.08459
#
# Static dielectric constant tensor:
#      x y z
#    x 2.264480 0.000000 0.000000 
#    y 0.000000 2.051130 0.000000 
#    z 0.000000 0.000000 2.026390 
# 
# From -- ./inp_files/10072.got.cif
#   From: 2010.05.17/outbox.cif.g08.bks.cpg/sg54_6_cif.got.tgz:10072.got - 2010.06.03 13:09:01.
