data_PCOD9420247
_publ_section_title
;
Structure prediction by ZEFSAII (Michael W. Deem and Ramdas Pophale) SiO2 
 PCOD9420247
Probable space group: P M N A
;
_chemical_formula_sum "Si O2"
_cell_formula_units_Z 64
_cell_length_a 9.000000
_cell_length_b 12.000000
_cell_length_c 30.000000
_cell_angle_alpha 90.000000
_cell_angle_beta 90.000000
_cell_angle_gamma 90.000000
_cell_volume 3240.000000
_symmetry_space_group_name_H-M "P M N A"
_symmetry_group_IT_number 53
_symmetry_cell_setting 'orthorhombic'
loop_
_space_group_symop_operation_xyz
x,y,z
1/2-x,-y,1/2+z
x,-y,-z
1/2-x,y,1/2-z
-x,-y,-z
1/2+x,y,1/2-z
-x,y,z
1/2+x,-y,1/2+z
loop_
_atom_site_type_symbol
_atom_site_label
_atom_site_fract_x
_atom_site_fract_y
_atom_site_fract_z
Si Si1 0.827912 0.760033 0.953493
Si Si2 0.833452 0.240160 0.293649
Si Si3 0.170436 0.027311 0.705049
Si Si4 0.829892 0.381852 0.525349
Si Si5 0.673210 0.012148 0.053262
Si Si6 0.322219 0.385577 0.618782
Si Si7 0.322246 0.861559 0.376954
Si Si8 0.828053 0.376313 0.134784
O O1 0.762215 0.875347 0.935051
O O2 0.822372 0.664143 0.916122
O O3 0.000000 0.775670 0.966761
O O4 0.727421 0.715697 0.993465
O O5 0.750000 0.280553 0.250000
O O6 0.832788 0.106620 0.293434
O O7 0.756379 0.286102 0.336959
O O8 0.000000 0.280661 0.292255
O O9 0.250000 0.067609 0.750000
O O10 0.000000 0.066369 0.701838
O O11 0.266137 0.062067 0.662881
O O12 0.824838 0.500000 0.500000
O O13 0.724432 0.389040 0.567504
O O14 0.000000 0.361037 0.538981
O O15 0.500000 0.022027 0.065920
O O16 0.746119 0.908334 0.078530
O O17 0.683004 0.000000 0.000000
O O18 0.500000 0.390776 0.622119
O O19 0.274559 0.264333 0.634899
O O20 0.264289 0.499516 0.640277
O O21 0.500000 0.864908 0.381968
O O22 0.000000 0.375676 0.148509
#
# Coordination Sequence:
#
# PCOD9420247 Si02
#       8
#     8   8   8   8   8   8   8   8
#     4  11  22  36  59  84 111 148 191 239 287 341
#     4  10  21  37  60  88 116 146 179 224 281 340
#     4  10  21  39  64  92 121 152 190 241 297 355
#     4  11  22  35  54  82 115 152 194 241 288 340
#     4  11  24  40  57  81 118 157 196 245 299 353
#     4  10  22  40  59  81 114 156 198 241 284 339
#     4  11  23  39  61  87 117 156 202 246 296 356
#     4  10  21  37  57  83 113 145 184 230 280 332
#
# _framework density 19.753086
#
# number of rings (size 3 to 8) (size 9 to 14) (size 15 to 20)
#    0.000    1.500    1.250    3.750    0.000    9.500 
#    0.000    0.625    0.000    0.000    0.000    0.000 
#    0.000    0.000    0.000    0.000    0.000    0.000 
#
# Total GULP energy -357282.946698 kJ/mol
# GULP energy per Si atom -5582.546042 kJ/mol
# Density = 1.970813 g / cm^3
# Si number density = 19.753086 Si / 1000 Ang^3
#
#
#
# Elastic Constant Matrix: (Units=GPa)
#
#
# Indices 1 2 3 4 5 6 
#
# 1 10.1755 40.0815 0.5190 0.0000 0.0000 0.0000
# 2 40.0815 45.9631 -7.6024 0.0000 0.0000 0.0000
# 3 0.5190 -7.6024 34.6907 0.0000 0.0000 0.0000
# 4 0.0000 0.0000 0.0000 4.9596 0.0000 0.0000
# 5 0.0000 0.0000 0.0000 0.0000 18.3395 0.0000
# 6 0.0000 0.0000 0.0000 0.0000 0.0000 -6.0154
#
#
#
# Elastic Compliance Matrix: (Units=1/GPa)
#
#
# Indices 1 2 3 4 5 6 
#
# 1 -0.038015 0.034495 0.008128 0.000000 0.000000 0.000000
# 2 0.034495 -0.008726 -0.002428 0.000000 0.000000 0.000000
# 3 0.008128 -0.002428 0.028172 0.000000 0.000000 0.000000
# 4 0.000000 0.000000 0.000000 0.201630 0.000000 0.000000
# 5 0.000000 0.000000 0.000000 0.000000 0.054527 0.000000
# 6 0.000000 0.000000 0.000000 0.000000 0.000000 -0.166240
#
#
# Mechanical properties :
#
#
# Convention : Reuss Voigt Hill
#
# Bulk Modulus (GPa) = 16.17569 17.42505 16.80037
# Shear Modulus (GPa) = 432.28177 7.31216 219.79697
#
# Velocity S-wave (km/s) = 14.80938 1.92609 10.56001
# Velocity P-wave (km/s) = 17.33870 3.71309 12.53829
#
# Compressibility (1/GPa) = 0.06182115
#
# Stress axis : x y z
#
# Youngs Moduli (GPa) = -26.30553 -114.60382 35.49570
#
# Poissons Ratio (x) = 3.95323 -0.28852
# Poissons Ratio (y) = 0.90740 0.08619
# Poissons Ratio (z) = 0.21382 -0.27829
#
# Static dielectric constant tensor:
#      x y z
#    x 1.671260 0.000000 0.000000 
#    y 0.000000 1.719830 0.000000 
#    z 0.000000 0.000000 1.668330 
# 
# From -- ./inp_files/38110.got.cif
#   From: 2010.05.17/outbox.ucp.g08.bks.cvg/sg53_20_cif.got.tgz:38110.got - 2010.06.11 16:32:34.
