data_PCOD9420719
_publ_section_title
;
Structure prediction by ZEFSAII (Michael W. Deem and Ramdas Pophale) SiO2 
 PCOD9420719
Probable space group: P C C A
;
_chemical_formula_sum "Si O2"
_cell_formula_units_Z 52
_cell_length_a 19.576927
_cell_length_b 8.527723
_cell_length_c 14.925993
_cell_angle_alpha 90.000000
_cell_angle_beta 90.000000
_cell_angle_gamma 90.000000
_cell_volume 2491.843942
_symmetry_space_group_name_H-M "P C C A"
_symmetry_group_IT_number 54
_symmetry_cell_setting 'orthorhombic'
loop_
_space_group_symop_operation_xyz
x,y,z
1/2-x,-y,z
1/2+x,-y,1/2-z
-x,y,1/2-z
-x,-y,-z
1/2+x,y,-z
1/2-x,y,1/2+z
x,-y,1/2+z
loop_
_atom_site_type_symbol
_atom_site_label
_atom_site_fract_x
_atom_site_fract_y
_atom_site_fract_z
Si Si1 0.456796 0.466059 0.325940
Si Si2 0.750000 0.500000 0.117054
Si Si3 0.073281 0.947499 0.202694
Si Si4 0.018687 0.754815 0.040559
Si Si5 0.437041 0.738361 0.122809
Si Si6 0.330328 0.662382 0.741604
Si Si7 0.352603 0.461918 0.046584
O O1 0.500000 0.375866 0.250000
O O2 0.461482 0.349559 0.408814
O O3 0.504166 0.617489 0.342179
O O4 0.383154 0.470064 0.281072
O O5 0.730525 0.360001 0.187032
O O6 0.690787 0.533930 0.043969
O O7 0.055876 0.871533 0.106980
O O8 0.129997 0.830011 0.244908
O O9 0.000000 0.955561 0.250000
O O10 0.092135 0.130041 0.188596
O O11 0.078794 0.631638 0.020363
O O12 0.980412 0.821685 0.955655
O O13 0.377269 0.631143 0.082121
O O14 0.319591 0.620246 0.636143
#
# Coordination Sequence:
#
# PCOD9420719 Si02
#       7
#     8   4   8   8   8   8   8
#     4  11  16  35  60  91 125 156 200 262 324 383
#     4  12  24  40  66  90 112 172 242 268 308 358
#     4  11  21  35  58  96 133 164 190 247 347 407
#     4  10  18  35  56  89 130 159 195 253 326 390
#     4  11  21  32  60  98 129 159 200 262 333 397
#     4  11  21  40  64  88 131 167 211 274 317 376
#     4  10  22  38  62  92 121 163 223 274 307 370
#
# _framework density 20.868081
#
# number of rings (size 3 to 8) (size 9 to 14) (size 15 to 20)
#    0.000    1.231    6.154    5.077    0.000    0.000 
#    0.000    0.000    0.000   12.000    0.000    0.000 
#    0.000    0.000    0.000    0.000    0.000    0.000 
#
# Total GULP energy -289472.518241 kJ/mol
# GULP energy per Si atom -5566.779197 kJ/mol
# Density = 2.082058 g / cm^3
# Si number density = 20.868081 Si / 1000 Ang^3
#
#
#
# Elastic Constant Matrix: (Units=GPa)
#
#
# Indices 1 2 3 4 5 6 
#
# 1 42.6727 30.6934 38.3492 0.0000 0.0000 0.0000
# 2 30.6934 117.5700 33.1655 0.0000 0.0000 0.0000
# 3 38.3492 33.1655 107.8345 0.0000 0.0000 0.0000
# 4 0.0000 0.0000 0.0000 25.4337 0.0000 0.0000
# 5 0.0000 0.0000 0.0000 0.0000 44.1446 0.0000
# 6 0.0000 0.0000 0.0000 0.0000 0.0000 7.0804
#
#
#
# Elastic Compliance Matrix: (Units=1/GPa)
#
#
# Indices 1 2 3 4 5 6 
#
# 1 0.038898 -0.006847 -0.011728 0.000000 0.000000 0.000000
# 2 -0.006847 0.010519 -0.000800 0.000000 0.000000 0.000000
# 3 -0.011728 -0.000800 0.013690 0.000000 0.000000 0.000000
# 4 0.000000 0.000000 0.000000 0.039318 0.000000 0.000000
# 5 0.000000 0.000000 0.000000 0.000000 0.022653 0.000000
# 6 0.000000 0.000000 0.000000 0.000000 0.000000 0.141235
#
#
# Mechanical properties :
#
#
# Convention : Reuss Voigt Hill
#
# Bulk Modulus (GPa) = 41.05403 52.49927 46.77665
# Shear Modulus (GPa) = 15.96517 26.38967 21.17742
#
# Velocity S-wave (km/s) = 2.76896 3.55997 3.18909
# Velocity P-wave (km/s) = 5.47162 6.48924 6.00204
#
# Compressibility (1/GPa) = 0.02435814
#
# Stress axis : x y z
#
# Youngs Moduli (GPa) = 25.70808 95.06833 73.04451
#
# Poissons Ratio (x) = 0.65091 0.85664
# Poissons Ratio (y) = 0.17602 0.05845
# Poissons Ratio (z) = 0.30149 0.07608
#
# Static dielectric constant tensor:
#      x y z
#    x 1.948310 0.000000 0.000000 
#    y 0.000000 1.799870 0.000000 
#    z 0.000000 0.000000 1.894270 
# 
# From -- ./inp_files/14628.got.cif
#   From: 2010.05.17/outbox.cif.g08.bks.cpg/sg54_8_cif.got.tgz:14628.got - 2010.06.03 13:09:01.
