data_PCOD9420298
_publ_section_title
;
Structure prediction by ZEFSAII (Michael W. Deem and Ramdas Pophale) SiO2 
 PCOD9420298
Probable space group: P M N A
;
_chemical_formula_sum "Si O2"
_cell_formula_units_Z 34
_cell_length_a 21.000000
_cell_length_b 9.000000
_cell_length_c 9.000000
_cell_angle_alpha 90.000000
_cell_angle_beta 90.000000
_cell_angle_gamma 90.000000
_cell_volume 1701.000000
_symmetry_space_group_name_H-M "P M N A"
_symmetry_group_IT_number 53
_symmetry_cell_setting 'orthorhombic'
loop_
_space_group_symop_operation_xyz
x,y,z
1/2-x,-y,1/2+z
x,-y,-z
1/2-x,y,1/2-z
-x,-y,-z
1/2+x,y,1/2-z
-x,y,z
1/2+x,-y,1/2+z
loop_
_atom_site_type_symbol
_atom_site_label
_atom_site_fract_x
_atom_site_fract_y
_atom_site_fract_z
Si Si1 0.924397 0.668364 0.035743
Si Si2 0.000000 0.000000 0.500000
Si Si3 0.123051 0.865067 0.309216
Si Si4 0.714921 0.679743 0.970597
Si Si5 0.838104 0.814651 0.818969
O O1 0.896741 0.749859 0.180181
O O2 0.000000 0.661442 0.050550
O O3 0.901054 0.500000 0.000000
O O4 0.903377 0.771071 0.898347
O O5 0.941148 0.917443 0.399336
O O6 0.174517 0.772957 0.407914
O O7 0.155797 0.015630 0.240003
O O8 0.781207 0.768090 0.933768
O O9 0.675013 0.706142 0.819610
O O10 0.722687 0.500000 0.000000
#
# Coordination Sequence:
#
# PCOD9420298 Si02
#       5
#     8   2   8   8   8
#     4  11  25  43  67 101 138 181 231 289 350 412
#     4  12  24  48  70 108 138 192 242 296 362 428
#     4  12  25  47  72 102 142 187 240 289 357 436
#     4  11  25  47  70  99 139 182 229 289 356 428
#     4  11  25  43  68 103 135 179 234 288 353 414
#
# _framework density 19.988242
#
# number of rings (size 3 to 8) (size 9 to 14) (size 15 to 20)
#    0.000    0.706    3.529    2.824    1.647   11.294 
#    0.000    0.588    0.000    0.000    0.000    0.000 
#    0.000    0.000    0.000    0.000    0.000    0.000 
#
# Total GULP energy -189330.273790 kJ/mol
# GULP energy per Si atom -5568.537464 kJ/mol
# Density = 1.994275 g / cm^3
# Si number density = 19.988242 Si / 1000 Ang^3
#
#
#
# Elastic Constant Matrix: (Units=GPa)
#
#
# Indices 1 2 3 4 5 6 
#
# 1 98.3038 73.5660 50.1330 0.0000 0.0000 0.0000
# 2 73.5660 194.2236 78.3056 0.0000 0.0000 0.0000
# 3 50.1330 78.3056 103.0331 0.0000 0.0000 0.0000
# 4 0.0000 0.0000 0.0000 53.9947 0.0000 0.0000
# 5 0.0000 0.0000 0.0000 0.0000 43.7482 0.0000
# 6 0.0000 0.0000 0.0000 0.0000 0.0000 35.0482
#
#
#
# Elastic Compliance Matrix: (Units=1/GPa)
#
#
# Indices 1 2 3 4 5 6 
#
# 1 0.015486 -0.004077 -0.004437 0.000000 0.000000 0.000000
# 2 -0.004077 0.008497 -0.004474 0.000000 0.000000 0.000000
# 3 -0.004437 -0.004474 0.015264 0.000000 0.000000 0.000000
# 4 0.000000 0.000000 0.000000 0.018520 0.000000 0.000000
# 5 0.000000 0.000000 0.000000 0.000000 0.022858 0.000000
# 6 0.000000 0.000000 0.000000 0.000000 0.000000 0.028532
#
#
# Mechanical properties :
#
#
# Convention : Reuss Voigt Hill
#
# Bulk Modulus (GPa) = 75.34342 88.84107 82.09225
# Shear Modulus (GPa) = 35.82777 39.46195 37.64486
#
# Velocity S-wave (km/s) = 4.23832 4.44808 4.34447
# Velocity P-wave (km/s) = 7.85664 8.42162 8.14403
#
# Compressibility (1/GPa) = 0.01327256
#
# Stress axis : x y z
#
# Youngs Moduli (GPa) = 64.57384 117.69375 65.51188
#
# Poissons Ratio (x) = 0.47983 0.29065
# Poissons Ratio (y) = 0.26327 0.29308
# Poissons Ratio (z) = 0.28649 0.52653
#
# Static dielectric constant tensor:
#      x y z
#    x 1.742320 0.000000 0.000000 
#    y 0.000000 1.692990 0.000000 
#    z 0.000000 0.000000 1.769210 
# 
# From -- ./inp_files/10585.got.cif
#   From: 2010.05.17/outbox.ucp.g08.bks.cvg/sg53_6_cif.got.tgz:10585.got - 2010.06.11 16:32:34.
