data_PCOD9420031
_publ_section_title
;
Structure prediction by ZEFSAII (Michael W. Deem and Ramdas Pophale) SiO2 
 PCOD9420031
Probable space group: P M N A
;
_chemical_formula_sum "Si O2"
_cell_formula_units_Z 18
_cell_length_a 30.084110
_cell_length_b 4.942962
_cell_length_c 5.113576
_cell_angle_alpha 90.000000
_cell_angle_beta 90.000000
_cell_angle_gamma 90.000000
_cell_volume 760.412338
_symmetry_space_group_name_H-M "P M N A"
_symmetry_group_IT_number 53
_symmetry_cell_setting 'orthorhombic'
loop_
_space_group_symop_operation_xyz
x,y,z
1/2-x,-y,1/2+z
x,-y,-z
1/2-x,y,1/2-z
-x,-y,-z
1/2+x,y,1/2-z
-x,y,z
1/2+x,-y,1/2+z
loop_
_atom_site_type_symbol
_atom_site_label
_atom_site_fract_x
_atom_site_fract_y
_atom_site_fract_z
Si Si1 0.000000 0.500000 0.500000
Si Si2 0.340791 0.500000 0.500000
Si Si3 0.082646 0.191576 0.253812
Si Si4 0.779402 0.000000 0.000000
O O1 0.960962 0.635063 0.685881
O O2 0.374706 0.621521 0.710949
O O3 0.310012 0.251641 0.584562
O O4 0.089430 0.000000 0.500000
O O5 0.076824 0.000000 0.000000
O O6 0.750000 0.080816 0.250000
#
# Coordination Sequence:
#
# PCOD9420031 Si02
#       4
#     2   4   8   4
#     4  12  28  46  82 118 168 216 280 320 404 454
#     4  12  28  55  83 120 164 212 269 329 420 472
#     4  12  28  50  79 119 167 213 274 331 395 484
#     4  12  30  52  86 119 160 205 270 340 410 494
#
# _framework density 23.67137
#
# number of rings (size 3 to 8) (size 9 to 14) (size 15 to 20)
#    0.000    0.000    2.222    5.333    3.111    9.778 
#    0.000    0.000    0.000    0.000    0.000    0.000 
#    0.000    0.000    0.000    0.000    0.000    0.000 
#
# Total GULP energy -100442.678605 kJ/mol
# GULP energy per Si atom -5580.148811 kJ/mol
# Density = 2.361749 g / cm^3
# Si number density = 23.671370 Si / 1000 Ang^3
#
#
#
# Elastic Constant Matrix: (Units=GPa)
#
#
# Indices 1 2 3 4 5 6 
#
# 1 182.6722 71.2636 57.4022 0.0000 0.0000 0.0000
# 2 71.2636 129.9966 62.3515 0.0000 0.0000 0.0000
# 3 57.4022 62.3515 184.2476 0.0000 0.0000 0.0000
# 4 0.0000 0.0000 0.0000 44.0685 0.0000 0.0000
# 5 0.0000 0.0000 0.0000 0.0000 58.4871 0.0000
# 6 0.0000 0.0000 0.0000 0.0000 0.0000 -152.6510
#
#
#
# Elastic Compliance Matrix: (Units=1/GPa)
#
#
# Indices 1 2 3 4 5 6 
#
# 1 0.007137 -0.003398 -0.001074 0.000000 0.000000 0.000000
# 2 -0.003398 0.010800 -0.002596 0.000000 0.000000 0.000000
# 3 -0.001074 -0.002596 0.006641 0.000000 0.000000 0.000000
# 4 0.000000 0.000000 0.000000 0.022692 0.000000 0.000000
# 5 0.000000 0.000000 0.000000 0.000000 0.017098 0.000000
# 6 0.000000 0.000000 0.000000 0.000000 0.000000 -0.006551
#
#
# Mechanical properties :
#
#
# Convention : Reuss Voigt Hill
#
# Bulk Modulus (GPa) = 95.76139 97.66121 96.71130
# Shear Modulus (GPa) = 66.28349 10.37421 38.32885
#
# Velocity S-wave (km/s) = 5.29739 2.09574 4.02830
# Velocity P-wave (km/s) = 8.82943 6.87043 7.91080
#
# Compressibility (1/GPa) = 0.01044262
#
# Stress axis : x y z
#
# Youngs Moduli (GPa) = 140.11205 92.58927 150.58640
#
# Poissons Ratio (x) = 0.31457 0.16170
# Poissons Ratio (y) = 0.47603 0.39100
# Poissons Ratio (z) = 0.15045 0.24041
#
# Static dielectric constant tensor:
#      x y z
#    x 1.833930 0.000000 0.000000 
#    y 0.000000 1.947760 0.000000 
#    z 0.000000 0.000000 1.897020 
# 
# From -- ./inp_files/4021.got.cif
#   From: 2010.05.17/outbox.cif.g08.bks.cpg/sg53_3_cif.got.tgz:4021.got - 2010.06.03 12:45:16.
