data_PCOD9420465
_publ_section_title
;
Structure prediction by ZEFSAII (Michael W. Deem and Ramdas Pophale) SiO2 
 PCOD9420465
Probable space group: P C C A
;
_chemical_formula_sum "Si O2"
_cell_formula_units_Z 64
_cell_length_a 11.644660
_cell_length_b 13.058473
_cell_length_c 24.149362
_cell_angle_alpha 90.000000
_cell_angle_beta 90.000000
_cell_angle_gamma 90.000000
_cell_volume 3672.187683
_symmetry_space_group_name_H-M "P C C A"
_symmetry_group_IT_number 54
_symmetry_cell_setting 'orthorhombic'
loop_
_space_group_symop_operation_xyz
x,y,z
1/2-x,-y,z
1/2+x,-y,1/2-z
-x,y,1/2-z
-x,-y,-z
1/2+x,y,-z
1/2-x,y,1/2+z
x,-y,1/2+z
loop_
_atom_site_type_symbol
_atom_site_label
_atom_site_fract_x
_atom_site_fract_y
_atom_site_fract_z
Si Si1 0.035263 0.273840 0.457986
Si Si2 0.278143 0.115802 0.001156
Si Si3 0.754227 0.886032 0.288203
Si Si4 0.960408 0.126915 0.370889
Si Si5 0.404413 0.253563 0.439994
Si Si6 0.414860 0.102013 0.111093
Si Si7 0.710134 0.383742 0.618054
Si Si8 0.112427 0.245104 0.289187
O O1 0.114313 0.175026 0.473782
O O2 0.113698 0.357990 0.428253
O O3 0.950673 0.221172 0.413532
O O4 0.978687 0.314306 0.514202
O O5 0.311951 0.112923 0.066088
O O6 0.250000 0.000000 0.984287
O O7 0.171435 0.180918 0.979688
O O8 0.648924 0.879320 0.331212
O O9 0.866121 0.880573 0.327113
O O10 0.720475 0.799947 0.244433
O O11 0.750000 0.000000 0.262636
O O12 0.068453 0.158552 0.332628
O O13 0.965260 0.012896 0.395773
O O14 0.489575 0.184276 0.404294
O O15 0.320089 0.317796 0.401564
O O16 0.750000 0.500000 0.621371
O O17 0.655148 0.340523 0.674673
O O18 0.000000 0.265195 0.250000
#
# Coordination Sequence:
#
# PCOD9420465 Si02
#       8
#     8   8   8   8   8   8   8   8
#     4   9  18  31  50  73  99 132 164 196 240 292
#     4  10  17  26  44  73 109 141 163 186 224 285
#     4   9  17  29  48  73 102 134 165 196 234 283
#     4   9  16  29  49  73 103 136 164 191 229 288
#     4  10  20  32  48  74 104 133 163 196 240 292
#     4  10  18  28  46  75 108 137 163 193 231 281
#     4  10  22  39  55  72  94 122 165 217 259 295
#     4   9  19  36  55  72  93 127 168 206 247 293
#
# _framework density 17.428303
#
# number of rings (size 3 to 8) (size 9 to 14) (size 15 to 20)
#    0.000    2.500    0.000    3.375    0.000    3.500 
#    0.000    4.375    0.000    0.000    0.000    2.625 
#    0.000    0.000    0.000    0.000    0.000    0.000 
#
# Total GULP energy -356376.700277 kJ/mol
# GULP energy per Si atom -5568.385942 kJ/mol
# Density = 1.738864 g / cm^3
# Si number density = 17.428303 Si / 1000 Ang^3
#
#
#
# Elastic Constant Matrix: (Units=GPa)
#
#
# Indices 1 2 3 4 5 6 
#
# 1 60.3909 38.8254 23.7764 0.0000 0.0000 0.0000
# 2 38.8254 93.3722 43.1225 0.0000 0.0000 0.0000
# 3 23.7764 43.1225 69.3311 0.0000 0.0000 0.0000
# 4 0.0000 0.0000 0.0000 13.0952 0.0000 0.0000
# 5 0.0000 0.0000 0.0000 0.0000 18.1076 0.0000
# 6 0.0000 0.0000 0.0000 0.0000 0.0000 16.2123
#
#
#
# Elastic Compliance Matrix: (Units=1/GPa)
#
#
# Indices 1 2 3 4 5 6 
#
# 1 0.022959 -0.008292 -0.002716 0.000000 0.000000 0.000000
# 2 -0.008292 0.018021 -0.008365 0.000000 0.000000 0.000000
# 3 -0.002716 -0.008365 0.020558 0.000000 0.000000 0.000000
# 4 0.000000 0.000000 0.000000 0.076364 0.000000 0.000000
# 5 0.000000 0.000000 0.000000 0.000000 0.055225 0.000000
# 6 0.000000 0.000000 0.000000 0.000000 0.000000 0.061682
#
#
# Mechanical properties :
#
#
# Convention : Reuss Voigt Hill
#
# Bulk Modulus (GPa) = 43.87594 48.28252 46.07923
# Shear Modulus (GPa) = 16.60284 17.30768 16.95526
#
# Velocity S-wave (km/s) = 3.08983 3.15473 3.12245
# Velocity P-wave (km/s) = 6.16110 6.40574 6.28461
#
# Compressibility (1/GPa) = 0.02279153
#
# Stress axis : x y z
#
# Youngs Moduli (GPa) = 43.55536 55.49024 48.64341
#
# Poissons Ratio (x) = 0.46015 0.13211
# Poissons Ratio (y) = 0.36118 0.40690
# Poissons Ratio (z) = 0.11829 0.46418
#
# Static dielectric constant tensor:
#      x y z
#    x 1.633550 0.000000 0.000000 
#    y 0.000000 1.558530 0.000000 
#    z 0.000000 0.000000 1.654010 
# 
# From -- ./inp_files/24252.got.cif
#   From: 2010.05.17/outbox.cif.g08.bks.cpg/sg54_13_cif.got.tgz:24252.got - 2010.06.03 13:09:01.
