data_PCOD9420878
_publ_section_title
;
Structure prediction by ZEFSAII (Michael W. Deem and Ramdas Pophale) SiO2 
 PCOD9420878
Probable space group: P C C A
;
_chemical_formula_sum "Si O2"
_cell_formula_units_Z 40
_cell_length_a 17.524636
_cell_length_b 5.255429
_cell_length_c 20.110571
_cell_angle_alpha 90.000000
_cell_angle_beta 90.000000
_cell_angle_gamma 90.000000
_cell_volume 1852.173137
_symmetry_space_group_name_H-M "P C C A"
_symmetry_group_IT_number 54
_symmetry_cell_setting 'orthorhombic'
loop_
_space_group_symop_operation_xyz
x,y,z
1/2-x,-y,z
1/2+x,-y,1/2-z
-x,y,1/2-z
-x,-y,-z
1/2+x,y,-z
1/2-x,y,1/2+z
x,-y,1/2+z
loop_
_atom_site_type_symbol
_atom_site_label
_atom_site_fract_x
_atom_site_fract_y
_atom_site_fract_z
Si Si1 0.407461 0.160889 0.752318
Si Si2 0.832662 0.607996 0.475655
Si Si3 0.110017 0.101415 0.099062
Si Si4 0.932240 0.339903 0.696018
Si Si5 0.533222 0.364356 0.565354
O O1 0.500000 0.196331 0.750000
O O2 0.392207 0.932701 0.803298
O O3 0.381627 0.096122 0.678239
O O4 0.379267 0.433963 0.776613
O O5 0.750000 0.500000 0.492937
O O6 0.863857 0.372096 0.430975
O O7 0.880210 0.671620 0.542255
O O8 0.845343 0.865640 0.433021
O O9 0.018883 0.118903 0.081874
O O10 0.967381 0.447309 0.628178
O O11 0.000000 0.302603 0.750000
O O12 0.500000 0.500000 0.500000
#
# Coordination Sequence:
#
# PCOD9420878 Si02
#       5
#     8   8   8   8   8
#     4  10  19  31  59  89 126 148 197 255 330 357
#     4  11  25  41  61  87 132 172 212 262 322 382
#     4  11  21  40  64  94 121 167 217 263 316 388
#     4  10  19  33  54  89 131 154 189 259 333 363
#     4  10  22  37  63  98 123 161 216 266 315 385
#
# _framework density 21.596253000000001
#
# number of rings (size 3 to 8) (size 9 to 14) (size 15 to 20)
#    0.000    1.600    4.000    2.400    8.400    3.200 
#    0.000    0.000    0.000    7.200    0.000    0.000 
#    0.000    0.000    0.000    0.000    0.000    0.000 
#
# Total GULP energy -222984.516788 kJ/mol
# GULP energy per Si atom -5574.612920 kJ/mol
# Density = 2.154710 g / cm^3
# Si number density = 21.596253 Si / 1000 Ang^3
#
#
#
# Elastic Constant Matrix: (Units=GPa)
#
#
# Indices 1 2 3 4 5 6 
#
# 1 46.7616 -4.2002 0.8986 0.0000 0.0000 0.0000
# 2 -4.2002 125.8931 -14.3567 0.0000 0.0000 0.0000
# 3 0.8986 -14.3567 85.7520 0.0000 0.0000 0.0000
# 4 0.0000 0.0000 0.0000 -8.7976 0.0000 0.0000
# 5 0.0000 0.0000 0.0000 0.0000 5.3590 0.0000
# 6 0.0000 0.0000 0.0000 0.0000 0.0000 17.2224
#
#
#
# Elastic Compliance Matrix: (Units=1/GPa)
#
#
# Indices 1 2 3 4 5 6 
#
# 1 0.021450 0.000703 -0.000107 0.000000 0.000000 0.000000
# 2 0.000703 0.008121 0.001352 0.000000 0.000000 0.000000
# 3 -0.000107 0.001352 0.011889 0.000000 0.000000 0.000000
# 4 0.000000 0.000000 0.000000 -0.113667 0.000000 0.000000
# 5 0.000000 0.000000 0.000000 0.000000 0.186603 0.000000
# 6 0.000000 0.000000 0.000000 0.000000 0.000000 0.058064
#
#
# Mechanical properties :
#
#
# Convention : Reuss Voigt Hill
#
# Bulk Modulus (GPa) = 22.04702 24.78782 23.41742
# Shear Modulus (GPa) = 27.22094 21.16108 24.19101
#
# Velocity S-wave (km/s) = 3.55413 3.13365 3.35049
# Velocity P-wave (km/s) = 5.20320 4.95941 5.08277
#
# Compressibility (1/GPa) = 0.04535759
#
# Stress axis : x y z
#
# Youngs Moduli (GPa) = 46.61938 123.13875 84.11101
#
# Poissons Ratio (x) = -0.08662 0.00900
# Poissons Ratio (y) = -0.03279 -0.11374
# Poissons Ratio (z) = 0.00499 -0.16651
#
# Static dielectric constant tensor:
#      x y z
#    x 1.987700 0.000000 0.000000 
#    y 0.000000 1.882500 0.000000 
#    z 0.000000 0.000000 1.841050 
# 
# From -- ./inp_files/18793.got.cif
#   From: 2010.05.17/outbox.cif.g08.bks.cpg/sg54_10_cif.got.tgz:18793.got - 2010.06.03 13:09:01.
