data_PCOD9420120
_publ_section_title
;
Structure prediction by ZEFSAII (Michael W. Deem and Ramdas Pophale) SiO2 
 PCOD9420120
Probable space group: P M N A
;
_chemical_formula_sum "Si O2"
_cell_formula_units_Z 64
_cell_length_a 9.000000
_cell_length_b 15.000000
_cell_length_c 24.000000
_cell_angle_alpha 90.000000
_cell_angle_beta 90.000000
_cell_angle_gamma 90.000000
_cell_volume 3240.000000
_symmetry_space_group_name_H-M "P M N A"
_symmetry_group_IT_number 53
_symmetry_cell_setting 'orthorhombic'
loop_
_space_group_symop_operation_xyz
x,y,z
1/2-x,-y,1/2+z
x,-y,-z
1/2-x,y,1/2-z
-x,-y,-z
1/2+x,y,1/2-z
-x,y,z
1/2+x,-y,1/2+z
loop_
_atom_site_type_symbol
_atom_site_label
_atom_site_fract_x
_atom_site_fract_y
_atom_site_fract_z
Si Si1 0.328756 0.468833 0.886494
Si Si2 0.676025 0.132043 0.636738
Si Si3 0.824094 0.159801 0.526999
Si Si4 0.174453 0.829485 0.598188
Si Si5 0.330424 0.643351 0.606340
Si Si6 0.174128 0.971387 0.695384
Si Si7 0.173038 0.299326 0.690506
Si Si8 0.329205 0.651195 0.474225
O O1 0.500000 0.476099 0.904647
O O2 0.267495 0.564483 0.868723
O O3 0.319632 0.395876 0.837841
O O4 0.230258 0.427848 0.936132
O O5 0.500000 0.131951 0.638288
O O6 0.736215 0.109566 0.575163
O O7 0.740931 0.228086 0.652943
O O8 0.743196 0.062278 0.680057
O O9 0.783450 0.136534 0.463538
O O10 0.777703 0.263627 0.532323
O O11 0.000000 0.148211 0.535492
O O12 0.265632 0.741798 0.614081
O O13 0.191656 0.905040 0.643798
O O14 0.000000 0.804530 0.594305
O O15 0.500000 0.637935 0.625415
O O16 0.327503 0.628504 0.539428
O O17 0.250000 0.931986 0.750000
O O18 0.000000 0.987645 0.704495
O O19 0.250000 0.300128 0.750000
O O20 0.000000 0.273072 0.694483
O O21 0.500000 0.674487 0.459194
#
# Coordination Sequence:
#
# PCOD9420120 Si02
#       8
#     8   8   8   8   8   8   8   8
#     4  11  22  35  55  82 115 156 201 243 290 351
#     4  12  24  39  62  91 123 158 194 242 298 360
#     4  10  19  35  59  89 123 159 197 239 294 359
#     4   9  21  41  64  88 120 159 199 246 301 358
#     4  10  21  35  56  86 120 154 195 245 294 347
#     4  11  24  44  67  91 118 153 200 251 299 356
#     4  11  24  41  60  84 116 157 202 250 300 357
#     4  10  19  32  52  83 120 157 194 237 291 348
#
# _framework density 19.753086
#
# number of rings (size 3 to 8) (size 9 to 14) (size 15 to 20)
#    0.000    1.500    1.250    4.125    0.000    6.500 
#    0.000    3.125    0.000    0.000    0.000    0.000 
#    0.000    0.000    0.000    0.000    0.000    0.000 
#
# Total GULP energy -357630.987562 kJ/mol
# GULP energy per Si atom -5587.984181 kJ/mol
# Density = 1.970813 g / cm^3
# Si number density = 19.753086 Si / 1000 Ang^3
#
#
#
# Elastic Constant Matrix: (Units=GPa)
#
#
# Indices 1 2 3 4 5 6 
#
# 1 117.0092 38.6238 54.5853 0.0000 0.0000 0.0000
# 2 38.6238 20.4177 39.7711 0.0000 0.0000 0.0000
# 3 54.5853 39.7711 41.3156 0.0000 0.0000 0.0000
# 4 0.0000 0.0000 0.0000 5.6263 0.0000 0.0000
# 5 0.0000 0.0000 0.0000 0.0000 528.0454 0.0000
# 6 0.0000 0.0000 0.0000 0.0000 0.0000 14.8976
#
#
#
# Elastic Compliance Matrix: (Units=1/GPa)
#
#
# Indices 1 2 3 4 5 6 
#
# 1 0.017941 -0.013979 -0.010247 0.000000 0.000000 0.000000
# 2 -0.013979 -0.045079 0.061862 0.000000 0.000000 0.000000
# 3 -0.010247 0.061862 -0.021807 0.000000 0.000000 0.000000
# 4 0.000000 0.000000 0.000000 0.177738 0.000000 0.000000
# 5 0.000000 0.000000 0.000000 0.000000 0.001894 0.000000
# 6 0.000000 0.000000 0.000000 0.000000 0.000000 0.067125
#
#
# Mechanical properties :
#
#
# Convention : Reuss Voigt Hill
#
# Bulk Modulus (GPa) = 37.98334 49.41144 43.69739
# Shear Modulus (GPa) = 38.07652 112.76468 75.42060
#
# Velocity S-wave (km/s) = 4.39523 7.56380 6.18584
# Velocity P-wave (km/s) = 6.71031 10.06729 8.55507
#
# Compressibility (1/GPa) = 0.02632733
#
# Stress axis : x y z
#
# Youngs Moduli (GPa) = 55.73880 -22.18345 -45.85582
#
# Poissons Ratio (x) = -0.31010 -0.46988
# Poissons Ratio (y) = 0.77916 2.83673
# Poissons Ratio (z) = 0.57115 1.37231
#
# Static dielectric constant tensor:
#      x y z
#    x 1.667610 0.000000 0.000000 
#    y 0.000000 1.680130 0.000000 
#    z 0.000000 0.000000 1.749250 
# 
# From -- ./inp_files/34177.got.cif
#   From: 2010.05.17/outbox.ucp.g08.bks.cvg/sg53_18_cif.got.tgz:34177.got - 2010.06.11 16:32:34.
