data_PCOD9420567
_publ_section_title
;
Structure prediction by ZEFSAII (Michael W. Deem and Ramdas Pophale) SiO2 
 PCOD9420567
Probable space group: P C C A
;
_chemical_formula_sum "Si O2"
_cell_formula_units_Z 56
_cell_length_a 14.590213
_cell_length_b 8.846429
_cell_length_c 21.685115
_cell_angle_alpha 90.000000
_cell_angle_beta 90.000000
_cell_angle_gamma 90.000000
_cell_volume 2798.925624
_symmetry_space_group_name_H-M "P C C A"
_symmetry_group_IT_number 54
_symmetry_cell_setting 'orthorhombic'
loop_
_space_group_symop_operation_xyz
x,y,z
1/2-x,-y,z
1/2+x,-y,1/2-z
-x,y,1/2-z
-x,-y,-z
1/2+x,y,-z
1/2-x,y,1/2+z
x,-y,1/2+z
loop_
_atom_site_type_symbol
_atom_site_label
_atom_site_fract_x
_atom_site_fract_y
_atom_site_fract_z
Si Si1 0.190274 0.359350 0.041433
Si Si2 0.956038 0.588462 0.856235
Si Si3 0.701996 0.344714 0.771673
Si Si4 0.345817 0.359687 0.870617
Si Si5 0.337702 0.287152 0.410728
Si Si6 0.997717 0.239061 0.823857
Si Si7 0.302044 0.154888 0.136984
O O1 0.250000 0.500000 0.017459
O O2 0.108911 0.420057 0.084475
O O3 0.259457 0.265770 0.085175
O O4 0.146225 0.271760 0.983615
O O5 0.895615 0.668982 0.804343
O O6 0.978751 0.420173 0.831562
O O7 0.047636 0.679302 0.871977
O O8 0.750000 0.500000 0.793509
O O9 0.686929 0.357130 0.699854
O O10 0.767579 0.215463 0.796462
O O11 0.270699 0.255456 0.903132
O O12 0.344826 0.532909 0.894732
O O13 0.408360 0.211602 0.362674
O O14 0.911654 0.157471 0.857075
O O15 0.000000 0.206780 0.750000
O O16 0.250000 0.000000 0.125581
#
# Coordination Sequence:
#
# PCOD9420567 Si02
#       7
#     8   8   8   8   8   8   8
#     4  11  20  39  57  88 120 151 202 253 296 357
#     4  10  19  29  54  87 117 153 182 242 305 358
#     4  11  17  34  57  86 113 143 190 249 298 358
#     4  10  18  30  51  91 121 137 179 243 313 348
#     4  10  20  31  55  91 121 147 187 250 302 357
#     4  11  20  35  60  90 119 152 200 245 310 369
#     4  11  24  40  59  82 118 166 204 243 301 359
#
# _framework density 20.007676
#
# number of rings (size 3 to 8) (size 9 to 14) (size 15 to 20)
#    0.000    1.429    5.714    3.857    0.000    3.429 
#    0.000    3.571    0.000    3.429    0.000    0.000 
#    0.000    0.000    0.000    0.000    0.000    0.000 
#
# Total GULP energy -312151.468719 kJ/mol
# GULP energy per Si atom -5574.133370 kJ/mol
# Density = 1.996214 g / cm^3
# Si number density = 20.007676 Si / 1000 Ang^3
#
#
#
# Elastic Constant Matrix: (Units=GPa)
#
#
# Indices 1 2 3 4 5 6 
#
# 1 101.6482 18.7353 21.5573 0.0000 0.0000 0.0000
# 2 18.7353 23.6611 1.9114 0.0000 0.0000 0.0000
# 3 21.5573 1.9114 115.2686 0.0000 0.0000 0.0000
# 4 0.0000 0.0000 0.0000 42.7142 0.0000 0.0000
# 5 0.0000 0.0000 0.0000 0.0000 -1.1693 0.0000
# 6 0.0000 0.0000 0.0000 0.0000 0.0000 9.6183
#
#
#
# Elastic Compliance Matrix: (Units=1/GPa)
#
#
# Indices 1 2 3 4 5 6 
#
# 1 0.012001 -0.009334 -0.002090 0.000000 0.000000 0.000000
# 2 -0.009334 0.049580 0.000924 0.000000 0.000000 0.000000
# 3 -0.002090 0.000924 0.009051 0.000000 0.000000 0.000000
# 4 0.000000 0.000000 0.000000 0.023411 0.000000 0.000000
# 5 0.000000 0.000000 0.000000 0.000000 -0.855203 0.000000
# 6 0.000000 0.000000 0.000000 0.000000 0.000000 0.103968
#
#
# Mechanical properties :
#
#
# Convention : Reuss Voigt Hill
#
# Bulk Modulus (GPa) = 20.14851 36.10952 28.12901
# Shear Modulus (GPa) = -8.06912 23.45758 7.69423
#
# Velocity S-wave (km/s) = -2.01041 3.42779 1.96316
# Velocity P-wave (km/s) = 2.16869 5.80976 4.38501
#
# Compressibility (1/GPa) = 0.04963147
#
# Stress axis : x y z
#
# Youngs Moduli (GPa) = 83.32327 20.16952 110.48639
#
# Poissons Ratio (x) = 0.18827 0.23088
# Poissons Ratio (y) = 0.77775 -0.10204
# Poissons Ratio (z) = 0.17412 -0.01863
#
# Static dielectric constant tensor:
#      x y z
#    x 2.784040 0.000000 0.000000 
#    y 0.000000 1.767120 0.000000 
#    z 0.000000 0.000000 1.712700 
# 
# From -- ./inp_files/21629.got.cif
#   From: 2010.05.17/outbox.cif.g08.bks.cpg/sg54_11_cif.got.tgz:21629.got - 2010.06.03 13:09:01.
