data_PCOD9420058
_publ_section_title
;
Structure prediction by ZEFSAII (Michael W. Deem and Ramdas Pophale) SiO2 
 PCOD9420058
Probable space group: P M N A
;
_chemical_formula_sum "Si O2"
_cell_formula_units_Z 56
_cell_length_a 7.472719
_cell_length_b 27.429249
_cell_length_c 14.511018
_cell_angle_alpha 90.000000
_cell_angle_beta 90.000000
_cell_angle_gamma 90.000000
_cell_volume 2974.338889
_symmetry_space_group_name_H-M "P M N A"
_symmetry_group_IT_number 53
_symmetry_cell_setting 'orthorhombic'
loop_
_space_group_symop_operation_xyz
x,y,z
1/2-x,-y,1/2+z
x,-y,-z
1/2-x,y,1/2-z
-x,-y,-z
1/2+x,y,1/2-z
-x,y,z
1/2+x,-y,1/2+z
loop_
_atom_site_type_symbol
_atom_site_label
_atom_site_fract_x
_atom_site_fract_y
_atom_site_fract_z
Si Si1 0.713533 0.520799 0.642577
Si Si2 0.286106 0.074799 0.357005
Si Si3 0.714406 0.669676 0.356858
Si Si4 0.714392 0.779428 0.356681
Si Si5 0.719271 0.128211 0.530597
Si Si6 0.719037 0.575743 0.463583
Si Si7 0.713747 0.033509 0.641854
O O1 0.750000 0.529237 0.750000
O O2 0.500000 0.519892 0.633825
O O3 0.776335 0.560324 0.566722
O O4 0.775823 0.468001 0.605180
O O5 0.250000 0.083544 0.250000
O O6 0.500000 0.072225 0.367219
O O7 0.223989 0.116423 0.426487
O O8 0.217029 0.020555 0.382949
O O9 0.750000 0.657025 0.250000
O O10 0.500000 0.671554 0.367402
O O11 0.784003 0.724567 0.373139
O O12 0.781553 0.627379 0.424172
O O13 0.750000 0.792133 0.250000
O O14 0.500000 0.777435 0.367425
O O15 0.782534 0.821913 0.423205
O O16 0.500000 0.129673 0.534073
O O17 0.779183 0.080655 0.587868
O O18 0.500000 0.576726 0.462885
O O19 0.750000 0.039800 0.750000
O O20 0.500000 0.032277 0.626985
#
# Coordination Sequence:
#
# PCOD9420058 Si02
#       7
#     8   8   8   8   8   8   8
#     4   9  16  27  42  60  83 110 138 168 201 236
#     4   9  17  29  43  58  77 102 133 165 194 228
#     4   9  16  27  43  62  83 107 134 163 196 235
#     4   9  17  28  43  63  84 105 130 161 197 237
#     4   9  16  27  43  60  79 105 133 158 191 238
#     4   8  15  27  42  59  82 112 139 162 197 244
#     4   9  16  26  41  60  81 104 128 156 192 234
#
# _framework density 18.827712999999999
#
# number of rings (size 3 to 8) (size 9 to 14) (size 15 to 20)
#    0.000    3.143    0.000    2.143    0.000    1.714 
#    0.000    3.571    0.000    4.286    0.000    0.000 
#    0.000    0.000    0.000    0.000    0.000    0.000 
#
# Total GULP energy -312174.174686 kJ/mol
# GULP energy per Si atom -5574.538834 kJ/mol
# Density = 1.878486 g / cm^3
# Si number density = 18.827713 Si / 1000 Ang^3
#
#
#
# Elastic Constant Matrix: (Units=GPa)
#
#
# Indices 1 2 3 4 5 6 
#
# 1 53.1946 8.1250 -1.4390 0.0000 0.0000 0.0000
# 2 8.1250 152.3004 113.6052 0.0000 0.0000 0.0000
# 3 -1.4390 113.6052 144.2492 0.0000 0.0000 0.0000
# 4 0.0000 0.0000 0.0000 31.5743 0.0000 0.0000
# 5 0.0000 0.0000 0.0000 0.0000 19.0390 0.0000
# 6 0.0000 0.0000 0.0000 0.0000 0.0000 2.9132
#
#
#
# Elastic Compliance Matrix: (Units=1/GPa)
#
#
# Indices 1 2 3 4 5 6 
#
# 1 0.019299 -0.002844 0.002432 0.000000 0.000000 0.000000
# 2 -0.002844 0.016335 -0.012893 0.000000 0.000000 0.000000
# 3 0.002432 -0.012893 0.017111 0.000000 0.000000 0.000000
# 4 0.000000 0.000000 0.000000 0.031671 0.000000 0.000000
# 5 0.000000 0.000000 0.000000 0.000000 0.052524 0.000000
# 6 0.000000 0.000000 0.000000 0.000000 0.000000 0.343262
#
#
# Mechanical properties :
#
#
# Convention : Reuss Voigt Hill
#
# Bulk Modulus (GPa) = 38.26235 65.59183 51.92709
# Shear Modulus (GPa) = 9.69887 26.00217 17.85052
#
# Velocity S-wave (km/s) = 2.27213 3.72029 3.08246
# Velocity P-wave (km/s) = 5.22014 7.30532 6.34892
#
# Compressibility (1/GPa) = 0.02613535
#
# Stress axis : x y z
#
# Youngs Moduli (GPa) = 51.81600 61.21746 58.44186
#
# Poissons Ratio (x) = 0.17409 -0.14214
# Poissons Ratio (y) = 0.14736 0.75351
# Poissons Ratio (z) = -0.12603 0.78930
#
# Static dielectric constant tensor:
#      x y z
#    x 1.741310 0.000000 0.000000 
#    y 0.000000 1.661360 0.000000 
#    z 0.000000 0.000000 1.647820 
# 
# From -- ./inp_files/15030.got.cif
#   From: 2010.05.17/outbox.cif.g08.bks.cpg/sg53_8_cif.got.tgz:15030.got - 2010.06.03 12:45:16.
