data_PCOD9420080
_publ_section_title
;
Structure prediction by ZEFSAII (Michael W. Deem and Ramdas Pophale) SiO2 
 PCOD9420080
Probable space group: P M N A
;
_chemical_formula_sum "Si O2"
_cell_formula_units_Z 48
_cell_length_a 18.000000
_cell_length_b 15.000000
_cell_length_c 9.000000
_cell_angle_alpha 90.000000
_cell_angle_beta 90.000000
_cell_angle_gamma 90.000000
_cell_volume 2430.000000
_symmetry_space_group_name_H-M "P M N A"
_symmetry_group_IT_number 53
_symmetry_cell_setting 'orthorhombic'
loop_
_space_group_symop_operation_xyz
x,y,z
1/2-x,-y,1/2+z
x,-y,-z
1/2-x,y,1/2-z
-x,-y,-z
1/2+x,y,1/2-z
-x,y,z
1/2+x,-y,1/2+z
loop_
_atom_site_type_symbol
_atom_site_label
_atom_site_fract_x
_atom_site_fract_y
_atom_site_fract_z
Si Si1 0.580939 0.715516 0.634973
Si Si2 0.856883 0.137045 0.957754
Si Si3 0.217960 0.412325 0.092276
Si Si4 0.660356 0.983102 0.742804
Si Si5 0.586742 0.836869 0.932417
Si Si6 0.282817 0.746704 0.085676
O O1 0.500000 0.674806 0.639540
O O2 0.589112 0.781601 0.493658
O O3 0.644021 0.643436 0.620413
O O4 0.591175 0.774099 0.784493
O O5 0.774338 0.178014 0.972788
O O6 0.863763 0.082753 0.804853
O O7 0.864254 0.072167 0.097796
O O8 0.250000 0.438419 0.250000
O O9 0.204085 0.500000 0.000000
O O10 0.272125 0.343343 0.007546
O O11 0.750000 0.983307 0.750000
O O12 0.624276 0.930125 0.879637
O O13 0.500000 0.848835 0.969547
O O14 0.636059 0.786459 0.055459
O O15 0.250000 0.730424 0.250000
#
# Coordination Sequence:
#
# PCOD9420080 Si02
#       6
#     8   8   8   8   8   8
#     4   9  19  36  60  89 124 164 199 245 310 370
#     4   9  19  30  54  85 119 164 210 254 293 358
#     4  11  22  39  65  94 123 155 202 253 302 374
#     4  10  17  31  55  86 123 163 215 258 299 352
#     4  10  20  36  61  89 123 167 207 253 311 365
#     4  11  21  38  60  88 122 162 211 255 306 365
#
# _framework density 19.753086
#
# number of rings (size 3 to 8) (size 9 to 14) (size 15 to 20)
#    0.000    2.000    3.333    1.000    0.000    1.000 
#    0.000    6.667    0.000   11.000    0.000    0.000 
#    0.000    0.000    0.000    0.000    0.000    0.000 
#
# Total GULP energy -267637.849042 kJ/mol
# GULP energy per Si atom -5575.788522 kJ/mol
# Density = 1.970813 g / cm^3
# Si number density = 19.753086 Si / 1000 Ang^3
#
#
#
# Elastic Constant Matrix: (Units=GPa)
#
#
# Indices 1 2 3 4 5 6 
#
# 1 99.2797 15.9949 29.5729 0.0000 0.0000 0.0000
# 2 15.9949 31.2412 5.1324 0.0000 0.0000 0.0000
# 3 29.5729 5.1324 56.7958 0.0000 0.0000 0.0000
# 4 0.0000 0.0000 0.0000 84.2586 0.0000 0.0000
# 5 0.0000 0.0000 0.0000 0.0000 7.7211 0.0000
# 6 0.0000 0.0000 0.0000 0.0000 0.0000 -11.0847
#
#
#
# Elastic Compliance Matrix: (Units=1/GPa)
#
#
# Indices 1 2 3 4 5 6 
#
# 1 0.012802 -0.005541 -0.006165 0.000000 0.000000 0.000000
# 2 -0.005541 0.034890 -0.000268 0.000000 0.000000 0.000000
# 3 -0.006165 -0.000268 0.020841 0.000000 0.000000 0.000000
# 4 0.000000 0.000000 0.000000 0.011868 0.000000 0.000000
# 5 0.000000 0.000000 0.000000 0.000000 0.129515 0.000000
# 6 0.000000 0.000000 0.000000 0.000000 0.000000 -0.090215
#
#
# Mechanical properties :
#
#
# Convention : Reuss Voigt Hill
#
# Bulk Modulus (GPa) = 22.42904 32.07969 27.25436
# Shear Modulus (GPa) = 31.54357 25.28678 28.41518
#
# Velocity S-wave (km/s) = 4.00045 3.58179 3.79690
# Velocity P-wave (km/s) = 5.71992 5.77765 5.74886
#
# Compressibility (1/GPa) = 0.04458506
#
# Stress axis : x y z
#
# Youngs Moduli (GPa) = 78.11461 28.66151 47.98205
#
# Poissons Ratio (x) = 0.15882 0.29581
# Poissons Ratio (y) = 0.43286 0.01284
# Poissons Ratio (z) = 0.48157 0.00767
#
# Static dielectric constant tensor:
#      x y z
#    x 1.707480 0.000000 0.000000 
#    y 0.000000 1.702970 0.000000 
#    z 0.000000 0.000000 1.796300 
# 
# From -- ./inp_files/9985.got.cif
#   From: 2010.05.17/outbox.ucp.g08.bks.cvg/sg53_5_cif.got.tgz:9985.got - 2010.06.11 16:32:34.
