data_PCOD9420449
_publ_section_title
;
Structure prediction by ZEFSAII (Michael W. Deem and Ramdas Pophale) SiO2 
 PCOD9420449
Probable space group: P C C A
;
_chemical_formula_sum "Si O2"
_cell_formula_units_Z 28
_cell_length_a 12.634900
_cell_length_b 16.505074
_cell_length_c 5.270486
_cell_angle_alpha 90.000000
_cell_angle_beta 90.000000
_cell_angle_gamma 90.000000
_cell_volume 1099.106937
_symmetry_space_group_name_H-M "P C C A"
_symmetry_group_IT_number 54
_symmetry_cell_setting 'orthorhombic'
loop_
_space_group_symop_operation_xyz
x,y,z
1/2-x,-y,z
1/2+x,-y,1/2-z
-x,y,1/2-z
-x,-y,-z
1/2+x,y,-z
1/2-x,y,1/2+z
x,-y,1/2+z
loop_
_atom_site_type_symbol
_atom_site_label
_atom_site_fract_x
_atom_site_fract_y
_atom_site_fract_z
Si Si1 0.116584 0.464752 0.970361
Si Si2 0.000000 0.317862 0.750000
Si Si3 0.677381 0.783999 0.999759
Si Si4 0.369461 0.032367 0.888294
O O1 0.159897 0.473372 0.254675
O O2 0.091184 0.375040 0.875676
O O3 0.000000 0.500000 0.000000
O O4 0.070108 0.266988 0.551207
O O5 0.758629 0.770539 0.763121
O O6 0.639622 0.877407 0.006044
O O7 0.250000 0.000000 0.840628
O O8 0.413477 0.971795 0.102891
#
# Coordination Sequence:
#
# PCOD9420449 Si02
#       4
#     8   4   8   8
#     4   8  16  34  62  80 111 168 187 226 308 352
#     4  10  24  40  62  96 124 148 212 250 290 372
#     4  12  24  39  62  90 122 162 196 255 313 338
#     4  10  16  34  60  73 110 164 194 233 297 357
#
# _framework density 25.475227
#
# number of rings (size 3 to 8) (size 9 to 14) (size 15 to 20)
#    0.000    2.286    5.714    0.000    0.000   10.286 
#    0.000    1.429    0.000   46.286    0.000    0.000 
#    0.000    0.000    0.000    0.000    0.000    0.000 
#
# Total GULP energy -156121.250433 kJ/mol
# GULP energy per Si atom -5575.758944 kJ/mol
# Density = 2.541724 g / cm^3
# Si number density = 25.475227 Si / 1000 Ang^3
#
#
#
# Elastic Constant Matrix: (Units=GPa)
#
#
# Indices 1 2 3 4 5 6 
#
# 1 54.9960 17.9999 12.1768 0.0000 0.0000 0.0000
# 2 17.9999 134.1644 27.6988 0.0000 0.0000 0.0000
# 3 12.1768 27.6988 209.1949 0.0000 0.0000 0.0000
# 4 0.0000 0.0000 0.0000 -9.3248 0.0000 0.0000
# 5 0.0000 0.0000 0.0000 0.0000 14.9499 0.0000
# 6 0.0000 0.0000 0.0000 0.0000 0.0000 21.3315
#
#
#
# Elastic Compliance Matrix: (Units=1/GPa)
#
#
# Indices 1 2 3 4 5 6 
#
# 1 0.019146 -0.002404 -0.000796 0.000000 0.000000 0.000000
# 2 -0.002404 0.007965 -0.000915 0.000000 0.000000 0.000000
# 3 -0.000796 -0.000915 0.004948 0.000000 0.000000 0.000000
# 4 0.000000 0.000000 0.000000 -0.107241 0.000000 0.000000
# 5 0.000000 0.000000 0.000000 0.000000 0.066890 0.000000
# 6 0.000000 0.000000 0.000000 0.000000 0.000000 0.046879
#
#
# Mechanical properties :
#
#
# Convention : Reuss Voigt Hill
#
# Bulk Modulus (GPa) = 41.96619 57.12290 49.54454
# Shear Modulus (GPa) = 91.30698 28.08998 59.69848
#
# Velocity S-wave (km/s) = 5.99327 3.32420 4.84611
# Velocity P-wave (km/s) = 8.02505 6.09962 7.12765
#
# Compressibility (1/GPa) = 0.02382871
#
# Stress axis : x y z
#
# Youngs Moduli (GPa) = 52.22925 125.55002 202.11498
#
# Poissons Ratio (x) = 0.30187 0.16091
# Poissons Ratio (y) = 0.12558 0.18487
# Poissons Ratio (z) = 0.04158 0.11484
#
# Static dielectric constant tensor:
#      x y z
#    x 3.271180 0.000000 0.000000 
#    y 0.000000 1.991150 0.000000 
#    z 0.000000 0.000000 1.723840 
# 
# From -- ./inp_files/330.got.cif
#   From: 2010.05.17/outbox.cif.g08.bks.cpg/sg54_1_cif.got.tgz:330.got - 2010.06.03 13:09:01.
