data_PCOD9420854
_publ_section_title
;
Structure prediction by ZEFSAII (Michael W. Deem and Ramdas Pophale) SiO2 
 PCOD9420854
Probable space group: P C C A
;
_chemical_formula_sum "Si O2"
_cell_formula_units_Z 56
_cell_length_a 26.246484
_cell_length_b 5.471032
_cell_length_c 15.488017
_cell_angle_alpha 90.000000
_cell_angle_beta 90.000000
_cell_angle_gamma 90.000000
_cell_volume 2224.007282
_symmetry_space_group_name_H-M "P C C A"
_symmetry_group_IT_number 54
_symmetry_cell_setting 'orthorhombic'
loop_
_space_group_symop_operation_xyz
x,y,z
1/2-x,-y,z
1/2+x,-y,1/2-z
-x,y,1/2-z
-x,-y,-z
1/2+x,y,-z
1/2-x,y,1/2+z
x,-y,1/2+z
loop_
_atom_site_type_symbol
_atom_site_label
_atom_site_fract_x
_atom_site_fract_y
_atom_site_fract_z
Si Si1 0.393028 0.711913 0.302693
Si Si2 0.277579 0.242306 0.787326
Si Si3 0.452956 0.799915 0.624639
Si Si4 0.429372 0.208438 0.325710
Si Si5 0.197967 0.038942 0.475115
Si Si6 0.688560 0.461489 0.965392
Si Si7 0.913278 0.698170 0.886538
O O1 0.336271 0.720870 0.267048
O O2 0.405593 0.465697 0.352884
O O3 0.427274 0.711844 0.215927
O O4 0.401403 0.961651 0.354100
O O5 0.250000 0.500000 0.772903
O O6 0.284029 0.177306 0.888697
O O7 0.250000 0.000000 0.749587
O O8 0.512610 0.812177 0.645319
O O9 0.425812 0.789937 0.720062
O O10 0.440876 0.543619 0.579405
O O11 0.433165 0.044155 0.578299
O O12 0.168571 0.261315 0.519753
O O13 0.250000 0.000000 0.529978
O O14 0.183258 0.755187 0.462055
O O15 0.750000 0.500000 0.946921
O O16 0.646768 0.343684 0.901818
#
# Coordination Sequence:
#
# PCOD9420854 Si02
#       7
#     8   8   8   8   8   8   8
#     4  10  20  32  49  76 104 130 161 196 246 304
#     4  11  21  35  53  73 100 131 165 204 241 284
#     4   9  17  30  49  71  99 131 164 204 241 281
#     4   9  17  31  49  71  99 130 166 204 239 282
#     4   9  18  33  51  69  89 124 173 211 232 265
#     4  10  19  32  50  72  99 129 162 201 240 284
#     4  10  19  31  48  76 105 129 160 196 247 306
#
# _framework density 25.179774999999999
#
# number of rings (size 3 to 8) (size 9 to 14) (size 15 to 20)
#    0.000    2.286    0.000    4.714    0.000    4.000 
#    0.000    2.143    0.000    0.000    0.000   20.000 
#    0.000    0.000    0.000    0.000    0.000    0.000 
#
# Total GULP energy -311816.335434 kJ/mol
# GULP energy per Si atom -5568.148847 kJ/mol
# Density = 2.512246 g / cm^3
# Si number density = 25.179775 Si / 1000 Ang^3
#
#
#
# Elastic Constant Matrix: (Units=GPa)
#
#
# Indices 1 2 3 4 5 6 
#
# 1 70.0579 60.7794 -6.3938 0.0000 0.0000 0.0000
# 2 60.7794 289.1906 5.4753 0.0000 0.0000 0.0000
# 3 -6.3938 5.4753 26.7662 0.0000 0.0000 0.0000
# 4 0.0000 0.0000 0.0000 -1.4100 0.0000 0.0000
# 5 0.0000 0.0000 0.0000 0.0000 22.3534 0.0000
# 6 0.0000 0.0000 0.0000 0.0000 0.0000 46.0648
#
#
#
# Elastic Compliance Matrix: (Units=1/GPa)
#
#
# Indices 1 2 3 4 5 6 
#
# 1 0.018133 -0.003908 0.005131 0.000000 0.000000 0.000000
# 2 -0.003908 0.004314 -0.001816 0.000000 0.000000 0.000000
# 3 0.005131 -0.001816 0.038958 0.000000 0.000000 0.000000
# 4 0.000000 0.000000 0.000000 -0.709206 0.000000 0.000000
# 5 0.000000 0.000000 0.000000 0.000000 0.044736 0.000000
# 6 0.000000 0.000000 0.000000 0.000000 0.000000 0.021709
#
#
# Mechanical properties :
#
#
# Convention : Reuss Voigt Hill
#
# Bulk Modulus (GPa) = 16.60640 56.19293 36.39967
# Shear Modulus (GPa) = -8.92700 35.14524 13.10912
#
# Velocity S-wave (km/s) = -1.88494 3.74006 2.28419
# Velocity P-wave (km/s) = 1.36825 6.40436 4.63076
#
# Compressibility (1/GPa) = 0.06021773
#
# Stress axis : x y z
#
# Youngs Moduli (GPa) = 55.14900 231.82069 25.66888
#
# Poissons Ratio (x) = 0.90598 -0.13170
# Poissons Ratio (y) = 0.21553 0.04661
# Poissons Ratio (z) = -0.28296 0.42098
#
# Static dielectric constant tensor:
#      x y z
#    x 1.981280 0.000000 0.000000 
#    y 0.000000 2.089170 0.000000 
#    z 0.000000 0.000000 2.088330 
# 
# From -- ./inp_files/22298.got.cif
#   From: 2010.05.17/outbox.cif.g08.bks.cpg/sg54_12_cif.got.tgz:22298.got - 2010.06.03 13:09:01.
