data_PCOD9420241
_publ_section_title
;
Structure prediction by ZEFSAII (Michael W. Deem and Ramdas Pophale) SiO2 
 PCOD9420241
Probable space group: P M N A
;
_chemical_formula_sum "Si O2"
_cell_formula_units_Z 48
_cell_length_a 9.000000
_cell_length_b 9.000000
_cell_length_c 30.000000
_cell_angle_alpha 90.000000
_cell_angle_beta 90.000000
_cell_angle_gamma 90.000000
_cell_volume 2430.000000
_symmetry_space_group_name_H-M "P M N A"
_symmetry_group_IT_number 53
_symmetry_cell_setting 'orthorhombic'
loop_
_space_group_symop_operation_xyz
x,y,z
1/2-x,-y,1/2+z
x,-y,-z
1/2-x,y,1/2-z
-x,-y,-z
1/2+x,y,1/2-z
-x,y,z
1/2+x,-y,1/2+z
loop_
_atom_site_type_symbol
_atom_site_label
_atom_site_fract_x
_atom_site_fract_y
_atom_site_fract_z
Si Si1 0.168578 0.276678 0.886256
Si Si2 0.169204 0.999762 0.051092
Si Si3 0.820209 0.686647 0.296594
Si Si4 0.669857 0.502724 0.948576
Si Si5 0.180562 0.354401 0.202961
Si Si6 0.830081 0.780465 0.615159
O O1 0.162960 0.161372 0.926992
O O2 0.264841 0.236201 0.842409
O O3 0.237333 0.415364 0.911782
O O4 0.000000 0.303133 0.870561
O O5 0.000000 0.061485 0.048931
O O6 0.261844 0.082886 0.088762
O O7 0.226407 0.000000 0.000000
O O8 0.750000 0.746212 0.250000
O O9 0.751858 0.519857 0.300947
O O10 0.000000 0.682416 0.294154
O O11 0.500000 0.443216 0.950096
O O12 0.666416 0.662413 0.925532
O O13 0.724647 0.500000 0.000000
O O14 0.250000 0.295146 0.250000
O O15 0.234802 0.268662 0.158407
O O16 0.000000 0.359804 0.205437
O O17 0.000000 0.802411 0.630186
#
# Coordination Sequence:
#
# PCOD9420241 Si02
#       6
#     8   8   8   8   8   8
#     4  11  22  37  59  87 117 156 200 244 298 356
#     4  10  23  42  61  84 119 162 205 249 299 357
#     4  11  21  36  59  88 121 154 193 242 296 355
#     4  10  21  36  56  84 117 151 194 250 300 350
#     4  11  21  36  60  89 122 156 194 242 296 354
#     4  11  22  37  59  88 120 157 200 245 297 356
#
# _framework density 19.753086
#
# number of rings (size 3 to 8) (size 9 to 14) (size 15 to 20)
#    0.000    1.333    1.667    6.000    0.000    2.667 
#    0.000    0.833    0.000    4.000    0.000    0.000 
#    0.000    0.000    0.000    0.000    0.000    0.000 
#
# Total GULP energy -267557.295978 kJ/mol
# GULP energy per Si atom -5574.110333 kJ/mol
# Density = 1.970813 g / cm^3
# Si number density = 19.753086 Si / 1000 Ang^3
#
#
#
# Elastic Constant Matrix: (Units=GPa)
#
#
# Indices 1 2 3 4 5 6 
#
# 1 98.6782 -17.9883 10.6227 0.0000 0.0000 0.0000
# 2 -17.9883 3.2192 -23.2351 0.0000 0.0000 0.0000
# 3 10.6227 -23.2351 138.6089 0.0000 0.0000 0.0000
# 4 0.0000 0.0000 0.0000 24.2337 0.0000 0.0000
# 5 0.0000 0.0000 0.0000 0.0000 45.2174 0.0000
# 6 0.0000 0.0000 0.0000 0.0000 0.0000 15.2624
#
#
#
# Elastic Compliance Matrix: (Units=1/GPa)
#
#
# Indices 1 2 3 4 5 6 
#
# 1 0.002055 -0.049291 -0.008420 0.000000 0.000000 0.000000
# 2 -0.049291 -0.297628 -0.046114 0.000000 0.000000 0.000000
# 3 -0.008420 -0.046114 0.000130 0.000000 0.000000 0.000000
# 4 0.000000 0.000000 0.000000 0.041265 0.000000 0.000000
# 5 0.000000 0.000000 0.000000 0.000000 0.022115 0.000000
# 6 0.000000 0.000000 0.000000 0.000000 0.000000 0.065520
#
#
# Mechanical properties :
#
#
# Convention : Reuss Voigt Hill
#
# Bulk Modulus (GPa) = -1.98770 19.92277 8.96754
# Shear Modulus (GPa) = -39.49760 35.01651 -2.24054
#
# Velocity S-wave (km/s) = -4.47650 4.21493 -1.06618
# Velocity P-wave (km/s) = 5.26566 5.81337 1.74184
#
# Compressibility (1/GPa) = -0.50309452
#
# Stress axis : x y z
#
# Youngs Moduli (GPa) = 486.63694 -3.35990 7707.07055
#
# Poissons Ratio (x) = -0.16561 64.89517
# Poissons Ratio (y) = 23.98699 355.40341
# Poissons Ratio (z) = 4.09759 -0.15494
#
# Static dielectric constant tensor:
#      x y z
#    x 1.722870 0.000000 0.000000 
#    y 0.000000 1.792460 0.000000 
#    z 0.000000 0.000000 1.667680 
# 
# From -- ./inp_files/37765.got.cif
#   From: 2010.05.17/outbox.ucp.g08.bks.cvg/sg53_19_cif.got.tgz:37765.got - 2010.06.11 16:32:34.
