data_PCOD9420216
_publ_section_title
;
Structure prediction by ZEFSAII (Michael W. Deem and Ramdas Pophale) SiO2 
 PCOD9420216
Probable space group: P M N A
;
_chemical_formula_sum "Si O2"
_cell_formula_units_Z 64
_cell_length_a 18.000000
_cell_length_b 15.000000
_cell_length_c 12.000000
_cell_angle_alpha 90.000000
_cell_angle_beta 90.000000
_cell_angle_gamma 90.000000
_cell_volume 3240.000000
_symmetry_space_group_name_H-M "P M N A"
_symmetry_group_IT_number 53
_symmetry_cell_setting 'orthorhombic'
loop_
_space_group_symop_operation_xyz
x,y,z
1/2-x,-y,1/2+z
x,-y,-z
1/2-x,y,1/2-z
-x,-y,-z
1/2+x,y,1/2-z
-x,y,z
1/2+x,-y,1/2+z
loop_
_atom_site_type_symbol
_atom_site_label
_atom_site_fract_x
_atom_site_fract_y
_atom_site_fract_z
Si Si1 0.910859 0.498707 0.131158
Si Si2 0.085937 0.821427 0.354468
Si Si3 0.169765 0.671530 0.220324
Si Si4 0.413452 0.117142 0.233131
Si Si5 0.588518 0.697870 0.667239
Si Si6 0.672463 0.801983 0.483555
Si Si7 0.692512 0.095770 0.039758
Si Si8 0.582819 0.947221 0.362233
O O1 0.879264 0.588116 0.183980
O O2 0.884001 0.403387 0.181201
O O3 0.000000 0.501273 0.140712
O O4 0.892097 0.500000 0.000000
O O5 0.124953 0.731592 0.309254
O O6 0.134957 0.862853 0.451655
O O7 0.085266 0.894379 0.255305
O O8 0.000000 0.805455 0.386270
O O9 0.250000 0.633785 0.250000
O O10 0.189945 0.742089 0.123289
O O11 0.500000 0.109138 0.198454
O O12 0.395446 0.221508 0.247987
O O13 0.354744 0.078938 0.148637
O O14 0.406407 0.051809 0.339300
O O15 0.500000 0.692154 0.661633
O O16 0.617257 0.740737 0.553159
O O17 0.743094 0.832009 0.554173
O O18 0.638758 0.893281 0.437318
O O19 0.721029 0.000000 0.000000
O O20 0.500000 0.933236 0.407172
#
# Coordination Sequence:
#
# PCOD9420216 Si02
#       8
#     8   8   8   8   8   8   8   8
#     4  10  20  38  66  92 113 148 198 247 298 358
#     4  10  20  36  61  86 111 154 203 244 284 336
#     4  11  21  39  60  89 126 150 188 247 304 355
#     4  10  22  40  60  83 117 158 202 246 289 344
#     4  10  22  41  63  89 117 151 196 249 301 355
#     4  11  23  37  57  87 123 154 190 241 303 359
#     4  12  24  38  56  83 122 165 204 242 285 346
#     4   9  19  35  58  85 113 151 195 239 288 347
#
# _framework density 19.753086
#
# number of rings (size 3 to 8) (size 9 to 14) (size 15 to 20)
#    0.000    1.625    3.750    1.125    1.750    2.000 
#    2.250    1.875    0.000    0.000    0.000    3.500 
#    0.000    0.000    0.000    0.000    0.000    0.000 
#
# Total GULP energy -356818.771514 kJ/mol
# GULP energy per Si atom -5575.293305 kJ/mol
# Density = 1.970813 g / cm^3
# Si number density = 19.753086 Si / 1000 Ang^3
#
#
#
# Elastic Constant Matrix: (Units=GPa)
#
#
# Indices 1 2 3 4 5 6 
#
# 1 -128.7543 102.1465 53.0739 0.0000 0.0000 0.0000
# 2 102.1465 95.7871 -19.1812 0.0000 0.0000 0.0000
# 3 53.0739 -19.1812 -3.0671 0.0000 0.0000 0.0000
# 4 0.0000 0.0000 0.0000 16.4860 0.0000 0.0000
# 5 0.0000 0.0000 0.0000 0.0000 1.2172 0.0000
# 6 0.0000 0.0000 0.0000 0.0000 0.0000 49.9415
#
#
#
# Elastic Compliance Matrix: (Units=1/GPa)
#
#
# Indices 1 2 3 4 5 6 
#
# 1 0.001835 0.001954 0.019532 0.000000 0.000000 0.000000
# 2 0.001954 0.006717 -0.008186 0.000000 0.000000 0.000000
# 3 0.019532 -0.008186 0.063138 0.000000 0.000000 0.000000
# 4 0.000000 0.000000 0.000000 0.060657 0.000000 0.000000
# 5 0.000000 0.000000 0.000000 0.000000 0.821525 0.000000
# 6 0.000000 0.000000 0.000000 0.000000 0.000000 0.020023
#
#
# Mechanical properties :
#
#
# Convention : Reuss Voigt Hill
#
# Bulk Modulus (GPa) = 10.17388 26.22713 18.20050
# Shear Modulus (GPa) = 5.10174 2.05739 3.57957
#
# Velocity S-wave (km/s) = 1.60884 1.02167 1.34762
# Velocity P-wave (km/s) = 2.93477 3.83380 3.41401
#
# Compressibility (1/GPa) = 0.09829092
#
# Stress axis : x y z
#
# Youngs Moduli (GPa) = 544.93865 148.88556 15.83840
#
# Poissons Ratio (x) = -0.29097 -0.30936
# Poissons Ratio (y) = -1.06500 0.12965
# Poissons Ratio (z) = -10.64377 1.21872
#
# Static dielectric constant tensor:
#      x y z
#    x 1.688530 0.000000 0.000000 
#    y 0.000000 1.791680 0.000000 
#    z 0.000000 0.000000 1.743810 
# 
# From -- ./inp_files/17104.got.cif
#   From: 2010.05.17/outbox.ucp.g08.bks.cvg/sg53_9_cif.got.tgz:17104.got - 2010.06.11 16:32:34.
