data_PCOD9420683
_publ_section_title
;
Structure prediction by ZEFSAII (Michael W. Deem and Ramdas Pophale) SiO2 
 PCOD9420683
Probable space group: P C C A
;
_chemical_formula_sum "Si O2"
_cell_formula_units_Z 48
_cell_length_a 10.783564
_cell_length_b 12.257528
_cell_length_c 16.646136
_cell_angle_alpha 90.000000
_cell_angle_beta 90.000000
_cell_angle_gamma 90.000000
_cell_volume 2200.283554
_symmetry_space_group_name_H-M "P C C A"
_symmetry_group_IT_number 54
_symmetry_cell_setting 'orthorhombic'
loop_
_space_group_symop_operation_xyz
x,y,z
1/2-x,-y,z
1/2+x,-y,1/2-z
-x,y,1/2-z
-x,-y,-z
1/2+x,y,-z
1/2-x,y,1/2+z
x,-y,1/2+z
loop_
_atom_site_type_symbol
_atom_site_label
_atom_site_fract_x
_atom_site_fract_y
_atom_site_fract_z
Si Si1 0.409663 0.730825 0.589099
Si Si2 0.684748 0.672831 0.090094
Si Si3 0.059346 0.459655 0.915370
Si Si4 0.798889 0.118863 0.406192
Si Si5 0.589230 0.070287 0.060402
Si Si6 0.062999 0.129008 0.336385
O O1 0.371886 0.704706 0.496802
O O2 0.458241 0.618355 0.625469
O O3 0.290727 0.788637 0.626154
O O4 0.514011 0.824341 0.588429
O O5 0.820625 0.620078 0.074850
O O6 0.605349 0.570802 0.124523
O O7 0.663230 0.776720 0.147428
O O8 0.000000 0.500000 0.000000
O O9 0.798141 0.108381 0.503651
O O10 0.938701 0.152088 0.388078
O O11 0.750000 0.000000 0.377097
O O12 0.611546 0.987869 0.133118
O O13 0.500000 0.000000 0.000000
O O14 0.000000 0.121938 0.250000
#
# Coordination Sequence:
#
# PCOD9420683 Si02
#       6
#     8   8   8   8   8   8
#     4  11  18  33  63  92 120 149 200 258 315 370
#     4  10  19  38  60  89 123 158 204 256 321 374
#     4   9  21  35  59  95 123 147 198 271 318 366
#     4  11  19  35  60  87 123 156 204 255 312 372
#     4  10  18  34  57  89 114 155 197 250 307 363
#     4  11  23  40  61  86 123 172 211 250 311 393
#
# _framework density 21.815370000000001
#
# number of rings (size 3 to 8) (size 9 to 14) (size 15 to 20)
#    0.000    1.667    6.667    1.000    2.333    0.000 
#    0.000    4.167    7.333    0.000    0.000    0.000 
#    0.000    0.000    0.000    0.000    0.000    0.000 
#
# Total GULP energy -267503.131516 kJ/mol
# GULP energy per Si atom -5572.981907 kJ/mol
# Density = 2.176572 g / cm^3
# Si number density = 21.815370 Si / 1000 Ang^3
#
#
#
# Elastic Constant Matrix: (Units=GPa)
#
#
# Indices 1 2 3 4 5 6 
#
# 1 85.1119 44.3238 -2.7551 0.0000 0.0000 0.0000
# 2 44.3238 132.5948 11.6117 0.0000 0.0000 0.0000
# 3 -2.7551 11.6117 47.2208 0.0000 0.0000 0.0000
# 4 0.0000 0.0000 0.0000 5.3107 0.0000 0.0000
# 5 0.0000 0.0000 0.0000 0.0000 15.4424 0.0000
# 6 0.0000 0.0000 0.0000 0.0000 0.0000 51.3665
#
#
#
# Elastic Compliance Matrix: (Units=1/GPa)
#
#
# Indices 1 2 3 4 5 6 
#
# 1 0.014421 -0.005002 0.002071 0.000000 0.000000 0.000000
# 2 -0.005002 0.009443 -0.002614 0.000000 0.000000 0.000000
# 3 0.002071 -0.002614 0.021941 0.000000 0.000000 0.000000
# 4 0.000000 0.000000 0.000000 0.188298 0.000000 0.000000
# 5 0.000000 0.000000 0.000000 0.000000 0.064757 0.000000
# 6 0.000000 0.000000 0.000000 0.000000 0.000000 0.019468
#
#
# Mechanical properties :
#
#
# Convention : Reuss Voigt Hill
#
# Bulk Modulus (GPa) = 28.80543 41.25425 35.02984
# Shear Modulus (GPa) = 14.66324 28.54040 21.60182
#
# Velocity S-wave (km/s) = 2.59540 3.62093 3.15018
# Velocity P-wave (km/s) = 4.71321 6.03599 5.41514
#
# Compressibility (1/GPa) = 0.03471568
#
# Stress axis : x y z
#
# Youngs Moduli (GPa) = 69.34205 105.90087 45.57737
#
# Poissons Ratio (x) = 0.52973 -0.09441
# Poissons Ratio (y) = 0.34686 0.11913
# Poissons Ratio (z) = -0.14364 0.27681
#
# Static dielectric constant tensor:
#      x y z
#    x 1.950650 0.000000 0.000000 
#    y 0.000000 1.871070 0.000000 
#    z 0.000000 0.000000 1.880550 
# 
# From -- ./inp_files/17311.got.cif
#   From: 2010.05.17/outbox.cif.g08.bks.cpg/sg54_9_cif.got.tgz:17311.got - 2010.06.03 13:09:01.
