data_PCOD9420025
_publ_section_title
;
Structure prediction by ZEFSAII (Michael W. Deem and Ramdas Pophale) SiO2 
 PCOD9420025
Probable space group: P M N A
;
_chemical_formula_sum "Si O2"
_cell_formula_units_Z 40
_cell_length_a 31.729980
_cell_length_b 7.147937
_cell_length_c 7.611717
_cell_angle_alpha 90.000000
_cell_angle_beta 90.000000
_cell_angle_gamma 90.000000
_cell_volume 1726.367086
_symmetry_space_group_name_H-M "P M N A"
_symmetry_group_IT_number 53
_symmetry_cell_setting 'orthorhombic'
loop_
_space_group_symop_operation_xyz
x,y,z
1/2-x,-y,1/2+z
x,-y,-z
1/2-x,y,1/2-z
-x,-y,-z
1/2+x,y,1/2-z
-x,y,z
1/2+x,-y,1/2+z
loop_
_atom_site_type_symbol
_atom_site_label
_atom_site_fract_x
_atom_site_fract_y
_atom_site_fract_z
Si Si1 0.201734 0.430281 0.304525
Si Si2 0.136165 0.280373 0.846652
Si Si3 0.135844 0.865771 0.748607
Si Si4 0.545063 0.279100 0.643966
Si Si5 0.954840 0.841362 0.742122
O O1 0.201014 0.500000 0.500000
O O2 0.250000 0.415646 0.250000
O O3 0.173512 0.575555 0.190093
O O4 0.177411 0.235291 0.312449
O O5 0.089913 0.365859 0.805379
O O6 0.140941 0.088245 0.739425
O O7 0.133408 0.204797 0.047171
O O8 0.091184 0.806771 0.661093
O O9 0.500000 0.360970 0.701431
O O10 0.544002 0.260281 0.431977
O O11 0.546163 0.063822 0.711889
O O12 0.000000 0.804648 0.650989
#
# Coordination Sequence:
#
# PCOD9420025 Si02
#       5
#     8   8   8   8   8
#     4  12  26  42  59  78 105 141 182 231 281 332
#     4   9  18  35  60  87 114 144 180 224 271 319
#     4   9  18  35  60  87 114 144 180 224 271 319
#     4   7  10  20  44  79 113 142 174 213 256 303
#     4   7  10  20  44  79 113 142 174 213 256 303
#
# _framework density 23.170041999999999
#
# number of rings (size 3 to 8) (size 9 to 14) (size 15 to 20)
#    0.000    3.200    0.000    5.400    0.000    1.600 
#    0.000    1.000    0.000    7.200    0.000    5.600 
#    0.000    0.000    0.000    0.000    0.000    0.000 
#
# Total GULP energy -223236.728233 kJ/mol
# GULP energy per Si atom -5580.918206 kJ/mol
# Density = 2.311731 g / cm^3
# Si number density = 23.170042 Si / 1000 Ang^3
#
#
#
# Elastic Constant Matrix: (Units=GPa)
#
#
# Indices 1 2 3 4 5 6 
#
# 1 258.0455 71.7259 21.8034 0.0000 0.0000 0.0000
# 2 71.7259 100.0580 8.6436 0.0000 0.0000 0.0000
# 3 21.8034 8.6436 36.6754 0.0000 0.0000 0.0000
# 4 0.0000 0.0000 0.0000 35.2880 0.0000 0.0000
# 5 0.0000 0.0000 0.0000 0.0000 -5.4306 0.0000
# 6 0.0000 0.0000 0.0000 0.0000 0.0000 -8.9657
#
#
#
# Elastic Compliance Matrix: (Units=1/GPa)
#
#
# Indices 1 2 3 4 5 6 
#
# 1 0.005004 -0.003399 -0.002174 0.000000 0.000000 0.000000
# 2 -0.003399 0.012511 -0.000928 0.000000 0.000000 0.000000
# 3 -0.002174 -0.000928 0.028777 0.000000 0.000000 0.000000
# 4 0.000000 0.000000 0.000000 0.028338 0.000000 0.000000
# 5 0.000000 0.000000 0.000000 0.000000 -0.184140 0.000000
# 6 0.000000 0.000000 0.000000 0.000000 0.000000 -0.111537
#
#
# Mechanical properties :
#
#
# Convention : Reuss Voigt Hill
#
# Bulk Modulus (GPa) = 30.03835 66.56941 48.30388
# Shear Modulus (GPa) = -25.38729 23.68541 -0.85094
#
# Velocity S-wave (km/s) = -3.31372 3.20072 -0.60668
# Velocity P-wave (km/s) = 1.28395 6.51557 4.51687
#
# Compressibility (1/GPa) = 0.03329077
#
# Stress axis : x y z
#
# Youngs Moduli (GPa) = 199.84961 79.92966 34.74981
#
# Poissons Ratio (x) = 0.27169 0.07553
# Poissons Ratio (y) = 0.67932 0.03224
# Poissons Ratio (z) = 0.43440 0.07416
#
# Static dielectric constant tensor:
#      x y z
#    x 1.776450 0.000000 0.000000 
#    y 0.000000 1.960450 0.000000 
#    z 0.000000 0.000000 1.989580 
# 
# From -- ./inp_files/12257.got.cif
#   From: 2010.05.17/outbox.cif.g08.bks.cpg/sg53_7_cif.got.tgz:12257.got - 2010.06.03 12:45:16.
