data_PCOD9420772
_publ_section_title
;
Structure prediction by ZEFSAII (Michael W. Deem and Ramdas Pophale) SiO2 
 PCOD9420772
Probable space group: P C C A
;
_chemical_formula_sum "Si O2"
_cell_formula_units_Z 44
_cell_length_a 10.120195
_cell_length_b 14.266968
_cell_length_c 16.063994
_cell_angle_alpha 90.000000
_cell_angle_beta 90.000000
_cell_angle_gamma 90.000000
_cell_volume 2319.391713
_symmetry_space_group_name_H-M "P C C A"
_symmetry_group_IT_number 54
_symmetry_cell_setting 'orthorhombic'
loop_
_space_group_symop_operation_xyz
x,y,z
1/2-x,-y,z
1/2+x,-y,1/2-z
-x,y,1/2-z
-x,-y,-z
1/2+x,y,-z
1/2-x,y,1/2+z
x,-y,1/2+z
loop_
_atom_site_type_symbol
_atom_site_label
_atom_site_fract_x
_atom_site_fract_y
_atom_site_fract_z
Si Si1 0.493135 0.287904 0.924807
Si Si2 0.750000 0.000000 0.389562
Si Si3 0.060846 0.896839 0.504626
Si Si4 0.701040 0.325951 0.428811
Si Si5 0.750000 0.500000 0.815029
Si Si6 0.500000 0.609979 0.250000
Si Si7 0.558610 0.845647 0.839680
O O1 0.644780 0.310600 0.950397
O O2 0.611257 0.669006 0.010952
O O3 0.479253 0.326265 0.831820
O O4 0.482438 0.175822 0.937162
O O5 0.697724 0.918317 0.450655
O O6 0.860313 0.944298 0.337695
O O7 0.052856 0.857162 0.411546
O O8 0.000000 0.000000 0.500000
O O9 0.691363 0.419296 0.374195
O O10 0.649296 0.239516 0.372353
O O11 0.630416 0.453065 0.764068
O O12 0.500000 0.825341 0.750000
#
# Coordination Sequence:
#
# PCOD9420772 Si02
#       7
#     8   4   8   8   4   4   8
#     4  10  21  43  61  95 122 169 205 259 315 374
#     4  10  18  38  58  80 124 158 208 252 304 378
#     4   9  19  37  59  82 121 164 201 249 309 370
#     4  10  22  41  65  88 128 161 209 252 320 376
#     4  10  24  42  62  98 122 168 206 260 318 376
#     4  10  24  42  66  92 128 160 216 266 314 378
#     4  10  21  37  58  90 119 159 205 259 307 368
#
# _framework density 18.970492
#
# number of rings (size 3 to 8) (size 9 to 14) (size 15 to 20)
#    0.000    2.182    1.818    0.000    1.273    5.818 
#   16.364    0.000    0.000    0.000    0.000    0.000 
#    0.000    0.000    0.000    0.000    0.000    0.000 
#
# Total GULP energy -245229.071631 kJ/mol
# GULP energy per Si atom -5573.387992 kJ/mol
# Density = 1.892731 g / cm^3
# Si number density = 18.970492 Si / 1000 Ang^3
#
#
#
# Elastic Constant Matrix: (Units=GPa)
#
#
# Indices 1 2 3 4 5 6 
#
# 1 89.1790 40.4211 76.4238 0.0000 0.0000 0.0000
# 2 40.4211 112.9778 71.7600 0.0000 0.0000 0.0000
# 3 76.4238 71.7600 145.4553 0.0000 0.0000 0.0000
# 4 0.0000 0.0000 0.0000 27.8040 0.0000 0.0000
# 5 0.0000 0.0000 0.0000 0.0000 33.1311 0.0000
# 6 0.0000 0.0000 0.0000 0.0000 0.0000 25.1068
#
#
#
# Elastic Compliance Matrix: (Units=1/GPa)
#
#
# Indices 1 2 3 4 5 6 
#
# 1 0.020437 -0.000716 -0.010385 0.000000 0.000000 0.000000
# 2 -0.000716 0.012916 -0.005996 0.000000 0.000000 0.000000
# 3 -0.010385 -0.005996 0.015289 0.000000 0.000000 0.000000
# 4 0.000000 0.000000 0.000000 0.035966 0.000000 0.000000
# 5 0.000000 0.000000 0.000000 0.000000 0.030183 0.000000
# 6 0.000000 0.000000 0.000000 0.000000 0.000000 0.039830
#
#
# Mechanical properties :
#
#
# Convention : Reuss Voigt Hill
#
# Bulk Modulus (GPa) = 69.20743 80.53576 74.87160
# Shear Modulus (GPa) = 25.82229 27.80885 26.81557
#
# Velocity S-wave (km/s) = 3.69342 3.83286 3.76379
# Velocity P-wave (km/s) = 7.39928 7.88246 7.64469
#
# Compressibility (1/GPa) = 0.01444931
#
# Stress axis : x y z
#
# Youngs Moduli (GPa) = 48.92986 77.42459 65.40534
#
# Poissons Ratio (x) = 0.05543 0.67922
# Poissons Ratio (y) = 0.03503 0.39216
# Poissons Ratio (z) = 0.50813 0.46422
#
# Static dielectric constant tensor:
#      x y z
#    x 1.736030 0.000000 0.000000 
#    y 0.000000 1.559980 0.000000 
#    z 0.000000 0.000000 1.642530 
# 
# From -- ./inp_files/17259.got.cif
#   From: 2010.05.17/outbox.cif.g08.bks.cpg/sg54_9_cif.got.tgz:17259.got - 2010.06.03 13:09:01.
