data_PCOD9420933
_publ_section_title
;
Structure prediction by ZEFSAII (Michael W. Deem and Ramdas Pophale) SiO2 
 PCOD9420933
Probable space group: P C C A
;
_chemical_formula_sum "Si O2"
_cell_formula_units_Z 36
_cell_length_a 5.089449
_cell_length_b 15.820722
_cell_length_c 28.619301
_cell_angle_alpha 90.000000
_cell_angle_beta 90.000000
_cell_angle_gamma 90.000000
_cell_volume 2304.390565
_symmetry_space_group_name_H-M "P C C A"
_symmetry_group_IT_number 54
_symmetry_cell_setting 'orthorhombic'
loop_
_space_group_symop_operation_xyz
x,y,z
1/2-x,-y,z
1/2+x,-y,1/2-z
-x,y,1/2-z
-x,-y,-z
1/2+x,y,-z
1/2-x,y,1/2+z
x,-y,1/2+z
loop_
_atom_site_type_symbol
_atom_site_label
_atom_site_fract_x
_atom_site_fract_y
_atom_site_fract_z
Si Si1 0.749647 0.157532 0.602479
Si Si2 0.250000 0.000000 0.966926
Si Si3 0.000000 0.943877 0.250000
Si Si4 0.750000 0.500000 0.033640
Si Si5 0.291237 0.314218 0.965601
Si Si6 0.750053 0.101486 0.844907
O O1 0.709540 0.243561 0.574149
O O2 0.533778 0.138964 0.642640
O O3 0.039706 0.149075 0.623272
O O4 0.727134 0.081587 0.565546
O O5 0.500000 0.000000 0.000000
O O6 0.138465 0.894186 0.207859
O O7 0.250000 0.000000 0.268620
O O8 0.500000 0.500000 0.000000
O O9 0.733928 0.591862 0.057187
O O10 0.549224 0.305685 0.998043
O O11 0.750000 0.000000 0.855303
#
# Coordination Sequence:
#
# PCOD9420933 Si02
#       6
#     8   4   4   4   8   8
#     4  12  21  32  48  67  97 127 165 199 232 279
#     4  12  22  32  42  60  92 136 166 190 218 266
#     4  10  20  34  54  70  88 122 164 202 250 298
#     4   8  16  30  50  66  88 120 160 206 242 276
#     4  10  19  33  48  69  94 128 166 200 240 275
#     4  11  20  35  48  69  93 124 159 200 244 281
#
# _framework density 15.622354
#
# number of rings (size 3 to 8) (size 9 to 14) (size 15 to 20)
#    0.000    1.333    2.222    6.667    0.000    0.000 
#    0.000    0.000    0.000    0.000    0.000    0.000 
#    0.000    3.556    0.000    2.889    0.000    0.000 
#
# Total GULP energy -200724.718737 kJ/mol
# GULP energy per Si atom -5575.686632 kJ/mol
# Density = 1.558680 g / cm^3
# Si number density = 15.622354 Si / 1000 Ang^3
#
#
#
# Elastic Constant Matrix: (Units=GPa)
#
#
# Indices 1 2 3 4 5 6 
#
# 1 91.8824 -0.8953 6.5072 0.0000 0.0000 0.0000
# 2 -0.8953 118.9215 30.1490 0.0000 0.0000 0.0000
# 3 6.5072 30.1490 58.3425 0.0000 0.0000 0.0000
# 4 0.0000 0.0000 0.0000 -33.3735 0.0000 0.0000
# 5 0.0000 0.0000 0.0000 0.0000 33.2242 0.0000
# 6 0.0000 0.0000 0.0000 0.0000 0.0000 16.8243
#
#
#
# Elastic Compliance Matrix: (Units=1/GPa)
#
#
# Indices 1 2 3 4 5 6 
#
# 1 0.010991 0.000453 -0.001460 0.000000 0.000000 0.000000
# 2 0.000453 0.009695 -0.005061 0.000000 0.000000 0.000000
# 3 -0.001460 -0.005061 0.019918 0.000000 0.000000 0.000000
# 4 0.000000 0.000000 0.000000 -0.029964 0.000000 0.000000
# 5 0.000000 0.000000 0.000000 0.000000 0.030099 0.000000
# 6 0.000000 0.000000 0.000000 0.000000 0.000000 0.059438
#
#
# Mechanical properties :
#
#
# Convention : Reuss Voigt Hill
#
# Bulk Modulus (GPa) = 35.12556 37.85202 36.48879
# Shear Modulus (GPa) = 41.05014 18.89403 29.97209
#
# Velocity S-wave (km/s) = 5.13163 3.48145 4.38486
# Velocity P-wave (km/s) = 7.59239 6.35945 7.00311
#
# Compressibility (1/GPa) = 0.02846929
#
# Stress axis : x y z
#
# Youngs Moduli (GPa) = 90.98119 103.14284 50.20555
#
# Poissons Ratio (x) = -0.04671 0.07330
# Poissons Ratio (y) = -0.04120 0.25407
# Poissons Ratio (z) = 0.13283 0.52197
#
# Static dielectric constant tensor:
#      x y z
#    x 1.545330 0.000000 0.000000 
#    y 0.000000 1.538230 0.000000 
#    z 0.000000 0.000000 1.511390 
# 
# From -- ./inp_files/22805.got.cif
#   From: 2010.05.17/outbox.cif.g08.bks.cpg/sg54_12_cif.got.tgz:22805.got - 2010.06.03 13:09:01.
