data_PCOD9420280
_publ_section_title
;
Structure prediction by ZEFSAII (Michael W. Deem and Ramdas Pophale) SiO2 
 PCOD9420280
Probable space group: P M N A
;
_chemical_formula_sum "Si O2"
_cell_formula_units_Z 48
_cell_length_a 9.000000
_cell_length_b 18.000000
_cell_length_c 15.000000
_cell_angle_alpha 90.000000
_cell_angle_beta 90.000000
_cell_angle_gamma 90.000000
_cell_volume 2430.000000
_symmetry_space_group_name_H-M "P M N A"
_symmetry_group_IT_number 53
_symmetry_cell_setting 'orthorhombic'
loop_
_space_group_symop_operation_xyz
x,y,z
1/2-x,-y,1/2+z
x,-y,-z
1/2-x,y,1/2-z
-x,-y,-z
1/2+x,y,1/2-z
-x,y,z
1/2+x,-y,1/2+z
loop_
_atom_site_type_symbol
_atom_site_label
_atom_site_fract_x
_atom_site_fract_y
_atom_site_fract_z
Si Si1 0.178258 0.319924 0.339459
Si Si2 0.822030 0.587689 0.997804
Si Si3 0.831124 0.853941 0.412160
Si Si4 0.331648 0.846727 0.878079
Si Si5 0.822552 0.296705 0.843299
Si Si6 0.177458 0.003369 0.843713
O O1 0.250000 0.350935 0.250000
O O2 0.236903 0.368549 0.420610
O O3 0.226358 0.233135 0.346549
O O4 0.000000 0.320026 0.337073
O O5 0.792717 0.637348 0.085925
O O6 0.000000 0.590804 0.981760
O O7 0.781157 0.500000 0.000000
O O8 0.842710 0.837577 0.516347
O O9 0.747574 0.783366 0.369946
O O10 0.744506 0.932205 0.405983
O O11 0.000000 0.861418 0.375677
O O12 0.500000 0.859858 0.842265
O O13 0.233760 0.919432 0.860343
O O14 0.750000 0.318016 0.750000
O O15 0.000000 0.287771 0.836388
O O16 0.250000 0.025265 0.750000
O O17 0.000000 0.005802 0.844116
#
# Coordination Sequence:
#
# PCOD9420280 Si02
#       6
#     8   8   8   8   8   8
#     4  11  23  41  66  97 130 170 214 260 317 378
#     4  10  23  44  68  96 130 166 208 261 319 380
#     4  11  22  40  63  88 123 162 208 259 313 372
#     4  10  22  40  62  89 122 163 208 259 315 370
#     4  11  23  40  65  94 128 167 211 260 314 376
#     4  12  25  39  57  85 121 163 212 260 311 367
#
# _framework density 19.753086
#
# number of rings (size 3 to 8) (size 9 to 14) (size 15 to 20)
#    0.000    1.167    1.667    4.500    0.000    7.667 
#    0.000    1.667    0.000    0.000    0.000    0.000 
#    0.000    0.000    0.000    0.000    0.000    0.000 
#
# Total GULP energy -268107.522573 kJ/mol
# GULP energy per Si atom -5585.573387 kJ/mol
# Density = 1.970813 g / cm^3
# Si number density = 19.753086 Si / 1000 Ang^3
#
#
#
# Elastic Constant Matrix: (Units=GPa)
#
#
# Indices 1 2 3 4 5 6 
#
# 1 110.4600 71.5897 49.4306 0.0000 0.0000 0.0000
# 2 71.5897 145.8868 41.0665 0.0000 0.0000 0.0000
# 3 49.4306 41.0665 106.7388 0.0000 0.0000 0.0000
# 4 0.0000 0.0000 0.0000 -9.9523 0.0000 0.0000
# 5 0.0000 0.0000 0.0000 0.0000 26.2501 0.0000
# 6 0.0000 0.0000 0.0000 0.0000 0.0000 70.9577
#
#
#
# Elastic Compliance Matrix: (Units=1/GPa)
#
#
# Indices 1 2 3 4 5 6 
#
# 1 0.015078 -0.006093 -0.004638 0.000000 0.000000 0.000000
# 2 -0.006093 0.010150 -0.001083 0.000000 0.000000 0.000000
# 3 -0.004638 -0.001083 0.011933 0.000000 0.000000 0.000000
# 4 0.000000 0.000000 0.000000 -0.100479 0.000000 0.000000
# 5 0.000000 0.000000 0.000000 0.000000 0.038095 0.000000
# 6 0.000000 0.000000 0.000000 0.000000 0.000000 0.014093
#
#
# Mechanical properties :
#
#
# Convention : Reuss Voigt Hill
#
# Bulk Modulus (GPa) = 73.90190 76.36214 75.13202
# Shear Modulus (GPa) = 293.95091 30.85101 162.40096
#
# Velocity S-wave (km/s) = 12.21211 3.95629 9.07711
# Velocity P-wave (km/s) = 15.37341 7.72087 12.16457
#
# Compressibility (1/GPa) = 0.01353145
#
# Stress axis : x y z
#
# Youngs Moduli (GPa) = 66.32290 98.52546 83.79907
#
# Poissons Ratio (x) = 0.60035 0.38867
# Poissons Ratio (y) = 0.40413 0.09077
# Poissons Ratio (z) = 0.30762 0.10672
#
# Static dielectric constant tensor:
#      x y z
#    x 1.691050 0.000000 0.000000 
#    y 0.000000 1.676950 0.000000 
#    z 0.000000 0.000000 1.716630 
# 
# From -- ./inp_files/20166.got.cif
#   From: 2010.05.17/outbox.ucp.g08.bks.cvg/sg53_11_cif.got.tgz:20166.got - 2010.06.11 16:32:34.
