data_PCOD9420038
_publ_section_title
;
Structure prediction by ZEFSAII (Michael W. Deem and Ramdas Pophale) SiO2 
 PCOD9420038
Probable space group: P M N A
;
_chemical_formula_sum "Si O2"
_cell_formula_units_Z 48
_cell_length_a 7.384657
_cell_length_b 19.049407
_cell_length_c 14.976391
_cell_angle_alpha 90.000000
_cell_angle_beta 90.000000
_cell_angle_gamma 90.000000
_cell_volume 2106.778894
_symmetry_space_group_name_H-M "P M N A"
_symmetry_group_IT_number 53
_symmetry_cell_setting 'orthorhombic'
loop_
_space_group_symop_operation_xyz
x,y,z
1/2-x,-y,1/2+z
x,-y,-z
1/2-x,y,1/2-z
-x,-y,-z
1/2+x,y,1/2-z
-x,y,z
1/2+x,-y,1/2+z
loop_
_atom_site_type_symbol
_atom_site_label
_atom_site_fract_x
_atom_site_fract_y
_atom_site_fract_z
Si Si1 0.721381 0.823649 0.032574
Si Si2 0.778178 0.329668 0.541311
Si Si3 0.283913 0.886136 0.852308
Si Si4 0.784145 0.044552 0.646442
Si Si5 0.707800 0.525345 0.103741
Si Si6 0.216388 0.621780 0.653540
O O1 0.500000 0.823251 0.035482
O O2 0.778871 0.748052 0.068911
O O3 0.778239 0.834461 0.929785
O O4 0.784383 0.891872 0.086443
O O5 0.714084 0.396358 0.599071
O O6 0.722367 0.341380 0.437645
O O7 0.000000 0.332409 0.542978
O O8 0.250000 0.866288 0.750000
O O9 0.500000 0.890010 0.861081
O O10 0.213501 0.965546 0.869182
O O11 0.750000 0.060337 0.750000
O O12 0.000000 0.041229 0.631119
O O13 0.500000 0.532375 0.135021
O O14 0.791070 0.458274 0.152741
O O15 0.703116 0.500000 0.000000
O O16 0.250000 0.655278 0.750000
O O17 0.000000 0.616667 0.644130
#
# Coordination Sequence:
#
# PCOD9420038 Si02
#       6
#     8   8   8   8   8   8
#     4   9  16  27  45  66  87 115 149 181 215 258
#     4   8  14  25  42  62  81 105 140 175 203 240
#     4   9  17  29  45  66  90 115 145 180 217 258
#     4   9  17  30  47  65  86 113 146 184 221 257
#     4   7  11  22  39  56  74  99 132 164 190 224
#     4   9  16  26  42  63  84 106 134 169 207 247
#
# _framework density 22.783598000000001
#
# number of rings (size 3 to 8) (size 9 to 14) (size 15 to 20)
#    0.000    3.500    0.000    2.500    0.000    2.667 
#    0.000    1.667    0.000    9.500    0.000    0.000 
#    0.000    0.000    0.000    0.000    0.000    0.000 
#
# Total GULP energy -267575.803467 kJ/mol
# GULP energy per Si atom -5574.495906 kJ/mol
# Density = 2.273174 g / cm^3
# Si number density = 22.783598 Si / 1000 Ang^3
#
#
#
# Elastic Constant Matrix: (Units=GPa)
#
#
# Indices 1 2 3 4 5 6 
#
# 1 79.4201 3.0395 -7.1150 0.0000 0.0000 0.0000
# 2 3.0395 76.5017 4.7370 0.0000 0.0000 0.0000
# 3 -7.1150 4.7370 12.9525 0.0000 0.0000 0.0000
# 4 0.0000 0.0000 0.0000 14.8940 0.0000 0.0000
# 5 0.0000 0.0000 0.0000 0.0000 12.8653 0.0000
# 6 0.0000 0.0000 0.0000 0.0000 0.0000 -10.0870
#
#
#
# Elastic Compliance Matrix: (Units=1/GPa)
#
#
# Indices 1 2 3 4 5 6 
#
# 1 0.013318 -0.001005 0.007683 0.000000 0.000000 0.000000
# 2 -0.001005 0.013450 -0.005471 0.000000 0.000000 0.000000
# 3 0.007683 -0.005471 0.083427 0.000000 0.000000 0.000000
# 4 0.000000 0.000000 0.000000 0.067141 0.000000 0.000000
# 5 0.000000 0.000000 0.000000 0.000000 0.077728 0.000000
# 6 0.000000 0.000000 0.000000 0.000000 0.000000 -0.099138
#
#
# Mechanical properties :
#
#
# Convention : Reuss Voigt Hill
#
# Bulk Modulus (GPa) = 8.88021 18.91080 13.89551
# Shear Modulus (GPa) = 26.17128 14.74864 20.45996
#
# Velocity S-wave (km/s) = 3.39291 2.54704 2.99994
# Velocity P-wave (km/s) = 4.38808 4.11923 4.25578
#
# Compressibility (1/GPa) = 0.11260992
#
# Stress axis : x y z
#
# Youngs Moduli (GPa) = 75.08604 74.34774 11.98655
#
# Poissons Ratio (x) = 0.07471 -0.09210
# Poissons Ratio (y) = 0.07545 0.06558
# Poissons Ratio (z) = -0.57691 0.40676
#
# Static dielectric constant tensor:
#      x y z
#    x 1.963870 0.000000 0.000000 
#    y 0.000000 1.866890 0.000000 
#    z 0.000000 0.000000 1.825980 
# 
# From -- ./inp_files/14893.got.cif
#   From: 2010.05.17/outbox.cif.g08.bks.cpg/sg53_8_cif.got.tgz:14893.got - 2010.06.03 12:45:16.
