data_PCOD9420829
_publ_section_title
;
Structure prediction by ZEFSAII (Michael W. Deem and Ramdas Pophale) SiO2 
 PCOD9420829
Probable space group: P C C A
;
_chemical_formula_sum "Si O2"
_cell_formula_units_Z 48
_cell_length_a 19.455568
_cell_length_b 5.512668
_cell_length_c 18.687122
_cell_angle_alpha 90.000000
_cell_angle_beta 90.000000
_cell_angle_gamma 90.000000
_cell_volume 2004.232837
_symmetry_space_group_name_H-M "P C C A"
_symmetry_group_IT_number 54
_symmetry_cell_setting 'orthorhombic'
loop_
_space_group_symop_operation_xyz
x,y,z
1/2-x,-y,z
1/2+x,-y,1/2-z
-x,y,1/2-z
-x,-y,-z
1/2+x,y,-z
1/2-x,y,1/2+z
x,-y,1/2+z
loop_
_atom_site_type_symbol
_atom_site_label
_atom_site_fract_x
_atom_site_fract_y
_atom_site_fract_z
Si Si1 0.990808 0.466831 0.914254
Si Si2 0.143838 0.380520 0.852016
Si Si3 0.207224 0.250703 0.712430
Si Si4 0.010808 0.964352 0.585483
Si Si5 0.646410 0.878667 0.095155
Si Si6 0.791952 0.250057 0.952916
O O1 0.067440 0.433734 0.882163
O O2 0.952578 0.714927 0.894144
O O3 0.957776 0.215812 0.891107
O O4 0.000000 0.500000 0.000000
O O5 0.148034 0.282121 0.771521
O O6 0.175986 0.651051 0.860231
O O7 0.175786 0.151935 0.896154
O O8 0.250000 0.500000 0.721143
O O9 0.187054 0.251807 0.629525
O O10 0.250000 0.000000 0.725480
O O11 0.933465 0.925908 0.614285
O O12 0.000000 0.000000 0.500000
O O13 0.651020 0.781317 0.014058
O O14 0.750000 0.500000 0.966473
O O15 0.750000 0.000000 0.961122
#
# Coordination Sequence:
#
# PCOD9420829 Si02
#       6
#     8   8   8   8   8   8
#     4   8  14  25  41  64  92 116 142 185 234 279
#     4  10  19  30  48  73  95 122 162 205 243 287
#     4  10  21  35  48  65  96 134 166 201 247 294
#     4   8  14  25  41  64  92 116 142 185 234 279
#     4  10  19  30  48  73  95 122 162 205 243 287
#     4  10  21  35  48  65  96 134 166 201 247 294
#
# _framework density 23.949313
#
# number of rings (size 3 to 8) (size 9 to 14) (size 15 to 20)
#    0.000    2.667    0.000    2.000    0.000    4.000 
#    0.000    0.000    0.000    0.000    0.000   18.667 
#    0.000   53.333    0.000    0.000    0.000    0.000 
#
# Total GULP energy -267344.228078 kJ/mol
# GULP energy per Si atom -5569.671418 kJ/mol
# Density = 2.389480 g / cm^3
# Si number density = 23.949313 Si / 1000 Ang^3
#
#
#
# Elastic Constant Matrix: (Units=GPa)
#
#
# Indices 1 2 3 4 5 6 
#
# 1 53.2114 31.1555 2.9731 0.0000 0.0000 0.0000
# 2 31.1555 308.2779 19.1584 0.0000 0.0000 0.0000
# 3 2.9731 19.1584 67.0590 0.0000 0.0000 0.0000
# 4 0.0000 0.0000 0.0000 16.1641 0.0000 0.0000
# 5 0.0000 0.0000 0.0000 0.0000 24.5226 0.0000
# 6 0.0000 0.0000 0.0000 0.0000 0.0000 4.7665
#
#
#
# Elastic Compliance Matrix: (Units=1/GPa)
#
#
# Indices 1 2 3 4 5 6 
#
# 1 0.019981 -0.002000 -0.000315 0.000000 0.000000 0.000000
# 2 -0.002000 0.003503 -0.000912 0.000000 0.000000 0.000000
# 3 -0.000315 -0.000912 0.015187 0.000000 0.000000 0.000000
# 4 0.000000 0.000000 0.000000 0.061865 0.000000 0.000000
# 5 0.000000 0.000000 0.000000 0.000000 0.040779 0.000000
# 6 0.000000 0.000000 0.000000 0.000000 0.000000 0.209796
#
#
# Mechanical properties :
#
#
# Convention : Reuss Voigt Hill
#
# Bulk Modulus (GPa) = 31.03853 59.45802 45.24828
# Shear Modulus (GPa) = 13.57577 34.10806 23.84192
#
# Velocity S-wave (km/s) = 2.38345 3.77792 3.15860
# Velocity P-wave (km/s) = 4.53461 6.62652 5.67774
#
# Compressibility (1/GPa) = 0.03221802
#
# Stress axis : x y z
#
# Youngs Moduli (GPa) = 50.04637 285.50106 65.84689
#
# Poissons Ratio (x) = 0.57096 0.02071
# Poissons Ratio (y) = 0.10008 0.06005
# Poissons Ratio (z) = 0.01574 0.26038
#
# Static dielectric constant tensor:
#      x y z
#    x 1.762400 0.000000 0.000000 
#    y 0.000000 2.031070 0.000000 
#    z 0.000000 0.000000 1.811790 
# 
# From -- ./inp_files/19039.got.cif
#   From: 2010.05.17/outbox.cif.g08.bks.cpg/sg54_10_cif.got.tgz:19039.got - 2010.06.03 13:09:01.
