data_PCOD9420425
_publ_section_title
;
Structure prediction by ZEFSAII (Michael W. Deem and Ramdas Pophale) SiO2 
 PCOD9420425
Probable space group: P C C A
;
_chemical_formula_sum "Si O2"
_cell_formula_units_Z 40
_cell_length_a 31.992028
_cell_length_b 7.444572
_cell_length_c 8.781841
_cell_angle_alpha 90.000000
_cell_angle_beta 90.000000
_cell_angle_gamma 90.000000
_cell_volume 2091.544338
_symmetry_space_group_name_H-M "P C C A"
_symmetry_group_IT_number 54
_symmetry_cell_setting 'orthorhombic'
loop_
_space_group_symop_operation_xyz
x,y,z
1/2-x,-y,z
1/2+x,-y,1/2-z
-x,y,1/2-z
-x,-y,-z
1/2+x,y,-z
1/2-x,y,1/2+z
x,-y,1/2+z
loop_
_atom_site_type_symbol
_atom_site_label
_atom_site_fract_x
_atom_site_fract_y
_atom_site_fract_z
Si Si1 0.500000 0.936050 0.750000
Si Si2 0.361254 0.073653 0.929585
Si Si3 0.558278 0.871066 0.491584
Si Si4 0.641250 0.741843 0.398881
Si Si5 0.750000 0.500000 0.677535
Si Si6 0.190311 0.628969 0.079731
O O1 0.530064 0.825961 0.637030
O O2 0.471299 0.059774 0.642236
O O3 0.355380 0.153924 0.761936
O O4 0.341375 0.210054 0.050681
O O5 0.410321 0.034595 0.960615
O O6 0.342385 0.877017 0.968846
O O7 0.591815 0.724044 0.436792
O O8 0.664727 0.555295 0.398008
O O9 0.718289 0.392917 0.570989
O O10 0.776744 0.366521 0.783213
#
# Coordination Sequence:
#
# PCOD9420425 Si02
#       6
#     4   8   8   8   4   8
#     4  10  16  30  56  88 120 150 180 254 280 344
#     4  10  21  38  61  90 110 160 201 233 283 364
#     4   9  18  32  58  87 114 154 198 223 302 334
#     4  10  21  38  61  90 110 160 201 233 283 364
#     4  10  24  38  58  90 112 162 180 246 306 338
#     4  11  22  42  62  79 126 146 200 239 292 344
#
# _framework density 19.124624000000001
#
# number of rings (size 3 to 8) (size 9 to 14) (size 15 to 20)
#    1.200    0.800    4.000    0.000    2.800    0.000 
#    0.000    6.000    0.000    7.200    0.000    0.000 
#    0.000    0.000    0.000    0.000    0.000    0.000 
#
# Total GULP energy -222729.998043 kJ/mol
# GULP energy per Si atom -5568.249951 kJ/mol
# Density = 1.908110 g / cm^3
# Si number density = 19.124624 Si / 1000 Ang^3
#
#
#
# Elastic Constant Matrix: (Units=GPa)
#
#
# Indices 1 2 3 4 5 6 
#
# 1 87.8612 21.1131 34.5410 0.0000 0.0000 0.0000
# 2 21.1131 30.9372 -4.0268 0.0000 0.0000 0.0000
# 3 34.5410 -4.0268 83.7635 0.0000 0.0000 0.0000
# 4 0.0000 0.0000 0.0000 16.1704 0.0000 0.0000
# 5 0.0000 0.0000 0.0000 0.0000 44.0271 0.0000
# 6 0.0000 0.0000 0.0000 0.0000 0.0000 12.2930
#
#
#
# Elastic Compliance Matrix: (Units=1/GPa)
#
#
# Indices 1 2 3 4 5 6 
#
# 1 0.017622 -0.013053 -0.007894 0.000000 0.000000 0.000000
# 2 -0.013053 0.042197 0.007411 0.000000 0.000000 0.000000
# 3 -0.007894 0.007411 0.015550 0.000000 0.000000 0.000000
# 4 0.000000 0.000000 0.000000 0.061841 0.000000 0.000000
# 5 0.000000 0.000000 0.000000 0.000000 0.022713 0.000000
# 6 0.000000 0.000000 0.000000 0.000000 0.000000 0.081347
#
#
# Mechanical properties :
#
#
# Convention : Reuss Voigt Hill
#
# Bulk Modulus (GPa) = 20.70577 33.97961 27.34269
# Shear Modulus (GPa) = 17.57832 24.56039 21.06936
#
# Velocity S-wave (km/s) = 3.03503 3.58750 3.32277
# Velocity P-wave (km/s) = 4.80959 5.91323 5.38973
#
# Compressibility (1/GPa) = 0.04829571
#
# Stress axis : x y z
#
# Youngs Moduli (GPa) = 56.74806 23.69861 64.30910
#
# Poissons Ratio (x) = 0.30935 0.50766
# Poissons Ratio (y) = 0.74076 -0.47661
# Poissons Ratio (z) = 0.44797 -0.17564
#
# Static dielectric constant tensor:
#      x y z
#    x 1.678360 0.000000 0.000000 
#    y 0.000000 1.615350 0.000000 
#    z 0.000000 0.000000 1.710310 
# 
# From -- ./inp_files/5748.got.cif
#   From: 2010.05.17/outbox.cif.g08.bks.cpg/sg54_3_cif.got.tgz:5748.got - 2010.06.03 13:09:01.
