data_PCOD9420141
_publ_section_title
;
Structure prediction by ZEFSAII (Michael W. Deem and Ramdas Pophale) SiO2 
 PCOD9420141
Probable space group: P M N A
;
_chemical_formula_sum "Si O2"
_cell_formula_units_Z 64
_cell_length_a 15.000000
_cell_length_b 9.000000
_cell_length_c 24.000000
_cell_angle_alpha 90.000000
_cell_angle_beta 90.000000
_cell_angle_gamma 90.000000
_cell_volume 3240.000000
_symmetry_space_group_name_H-M "P M N A"
_symmetry_group_IT_number 53
_symmetry_cell_setting 'orthorhombic'
loop_
_space_group_symop_operation_xyz
x,y,z
1/2-x,-y,1/2+z
x,-y,-z
1/2-x,y,1/2-z
-x,-y,-z
1/2+x,y,1/2-z
-x,y,z
1/2+x,-y,1/2+z
loop_
_atom_site_type_symbol
_atom_site_label
_atom_site_fract_x
_atom_site_fract_y
_atom_site_fract_z
Si Si1 0.898659 0.044862 0.321185
Si Si2 0.902711 0.827104 0.480575
Si Si3 0.700867 0.352261 0.393777
Si Si4 0.893878 0.660935 0.106706
Si Si5 0.296945 0.825484 0.489260
Si Si6 0.401675 0.675013 0.901173
Si Si7 0.892664 0.862471 0.804704
Si Si8 0.772324 0.150327 0.814320
O O1 0.897332 0.166939 0.369431
O O2 0.880977 0.133588 0.262865
O O3 0.000000 0.983814 0.316832
O O4 0.822328 0.923240 0.332739
O O5 0.801101 0.803845 0.459932
O O6 0.904554 0.717209 0.533761
O O7 0.000000 0.805823 0.450969
O O8 0.903228 0.000000 0.500000
O O9 0.636700 0.491941 0.403402
O O10 0.701383 0.252650 0.450108
O O11 0.805977 0.398293 0.386816
O O12 0.660674 0.260192 0.341047
O O13 0.870013 0.756534 0.051758
O O14 0.824015 0.719845 0.153589
O O15 0.000000 0.671789 0.120222
O O16 0.309746 0.000000 0.500000
O O17 0.500000 0.607289 0.886961
O O18 0.000000 0.857041 0.815737
O O19 0.844899 0.017424 0.819719
O O20 0.750000 0.188858 0.750000
#
# Coordination Sequence:
#
# PCOD9420141 Si02
#       8
#     8   8   8   8   8   8   8   8
#     4   9  18  33  60  94 120 149 198 260 314 360
#     4   8  15  28  51  85 119 150 187 242 307 364
#     4  11  22  39  61  90 129 173 210 254 313 379
#     4  12  27  44  62  87 128 171 209 258 316 372
#     4  10  22  39  65  94 122 163 215 263 310 366
#     4   9  17  32  55  86 122 157 199 257 312 365
#     4  10  19  34  60  89 118 157 211 259 302 358
#     4  10  21  40  61  89 118 159 201 258 311 362
#
# _framework density 19.753086
#
# number of rings (size 3 to 8) (size 9 to 14) (size 15 to 20)
#    0.000    2.125    1.250    1.875    3.500    2.250 
#    2.250    1.250    0.000    3.000    0.000    0.000 
#    0.000    0.000    0.000    0.000    0.000    0.000 
#
# Total GULP energy -356678.713303 kJ/mol
# GULP energy per Si atom -5573.104895 kJ/mol
# Density = 1.970813 g / cm^3
# Si number density = 19.753086 Si / 1000 Ang^3
#
#
#
# Elastic Constant Matrix: (Units=GPa)
#
#
# Indices 1 2 3 4 5 6 
#
# 1 168.2781 28.9729 28.9535 0.0000 0.0000 0.0000
# 2 28.9729 65.7586 25.7925 0.0000 0.0000 0.0000
# 3 28.9535 25.7925 60.2744 0.0000 0.0000 0.0000
# 4 0.0000 0.0000 0.0000 15.2945 0.0000 0.0000
# 5 0.0000 0.0000 0.0000 0.0000 27.6819 0.0000
# 6 0.0000 0.0000 0.0000 0.0000 0.0000 28.6461
#
#
#
# Elastic Compliance Matrix: (Units=1/GPa)
#
#
# Indices 1 2 3 4 5 6 
#
# 1 0.006696 -0.002029 -0.002348 0.000000 0.000000 0.000000
# 2 -0.002029 0.018889 -0.007108 0.000000 0.000000 0.000000
# 3 -0.002348 -0.007108 0.020761 0.000000 0.000000 0.000000
# 4 0.000000 0.000000 0.000000 0.065383 0.000000 0.000000
# 5 0.000000 0.000000 0.000000 0.000000 0.036125 0.000000
# 6 0.000000 0.000000 0.000000 0.000000 0.000000 0.034909
#
#
# Mechanical properties :
#
#
# Convention : Reuss Voigt Hill
#
# Bulk Modulus (GPa) = 42.78178 51.30544 47.04361
# Shear Modulus (GPa) = 23.41648 28.36399 25.89023
#
# Velocity S-wave (km/s) = 3.44679 3.79347 3.62428
# Velocity P-wave (km/s) = 6.12746 6.72436 6.43284
#
# Compressibility (1/GPa) = 0.02337443
#
# Stress axis : x y z
#
# Youngs Moduli (GPa) = 149.34452 52.94011 48.16836
#
# Poissons Ratio (x) = 0.10742 0.11311
# Poissons Ratio (y) = 0.30305 0.34240
# Poissons Ratio (z) = 0.35068 0.37632
#
# Static dielectric constant tensor:
#      x y z
#    x 1.738970 0.000000 0.000000 
#    y 0.000000 1.677750 0.000000 
#    z 0.000000 0.000000 1.727810 
# 
# From -- ./inp_files/35375.got.cif
#   From: 2010.05.17/outbox.ucp.g08.bks.cvg/sg53_18_cif.got.tgz:35375.got - 2010.06.11 16:32:34.
