data_PCOD9420807
_publ_section_title
;
Structure prediction by ZEFSAII (Michael W. Deem and Ramdas Pophale) SiO2 
 PCOD9420807
Probable space group: P C C A
;
_chemical_formula_sum "Si O2"
_cell_formula_units_Z 52
_cell_length_a 28.073567
_cell_length_b 5.222698
_cell_length_c 16.953823
_cell_angle_alpha 90.000000
_cell_angle_beta 90.000000
_cell_angle_gamma 90.000000
_cell_volume 2485.765497
_symmetry_space_group_name_H-M "P C C A"
_symmetry_group_IT_number 54
_symmetry_cell_setting 'orthorhombic'
loop_
_space_group_symop_operation_xyz
x,y,z
1/2-x,-y,z
1/2+x,-y,1/2-z
-x,y,1/2-z
-x,-y,-z
1/2+x,y,-z
1/2-x,y,1/2+z
x,-y,1/2+z
loop_
_atom_site_type_symbol
_atom_site_label
_atom_site_fract_x
_atom_site_fract_y
_atom_site_fract_z
Si Si1 0.846594 0.275680 0.975643
Si Si2 0.480164 0.542438 0.158413
Si Si3 0.417348 0.960509 0.645663
Si Si4 0.795745 0.898211 0.095682
Si Si5 0.887686 0.879271 0.179936
Si Si6 0.076929 0.398054 0.404721
Si Si7 0.750000 0.500000 0.973585
O O1 0.878351 0.093222 0.921238
O O2 0.887731 0.443218 0.020550
O O3 0.799059 0.394175 0.933281
O O4 0.821597 0.118269 0.045693
O O5 0.500000 0.563632 0.250000
O O6 0.458172 0.260747 0.143758
O O7 0.519929 0.615675 0.092608
O O8 0.439869 0.758499 0.147147
O O9 0.391447 0.922622 0.728501
O O10 0.835092 0.797265 0.153770
O O11 0.774684 0.705988 0.031390
O O12 0.750000 0.000000 0.141328
O O13 0.918506 0.640774 0.152413
O O14 0.905780 0.135637 0.136366
#
# Coordination Sequence:
#
# PCOD9420807 Si02
#       7
#     8   8   8   8   8   8   4
#     4  10  24  39  63  96 124 166 203 269 316 378
#     4  12  23  41  64  92 126 175 208 255 313 377
#     4  12  25  39  65  94 133 160 211 260 322 363
#     4   9  20  38  64  88 118 164 214 248 313 379
#     4  11  20  39  62  93 119 164 206 261 293 376
#     4  11  22  39  66  88 126 165 216 245 307 375
#     4  10  18  42  66  84 124 166 208 248 330 378
#
# _framework density 20.919111000000001
#
# number of rings (size 3 to 8) (size 9 to 14) (size 15 to 20)
#    0.000    1.231    4.615    1.385    2.154    1.231 
#    0.000    3.077    0.000    0.000    0.000    0.000 
#    0.000    0.000    0.000    0.000    0.000    0.000 
#
# Total GULP energy -289686.740908 kJ/mol
# GULP energy per Si atom -5570.898864 kJ/mol
# Density = 2.087150 g / cm^3
# Si number density = 20.919111 Si / 1000 Ang^3
#
#
#
# Elastic Constant Matrix: (Units=GPa)
#
#
# Indices 1 2 3 4 5 6 
#
# 1 85.8020 -11.5324 16.8417 0.0000 0.0000 0.0000
# 2 -11.5324 58.3794 -8.5724 0.0000 0.0000 0.0000
# 3 16.8417 -8.5724 31.1263 0.0000 0.0000 0.0000
# 4 0.0000 0.0000 0.0000 24.0117 0.0000 0.0000
# 5 0.0000 0.0000 0.0000 0.0000 20.8965 0.0000
# 6 0.0000 0.0000 0.0000 0.0000 0.0000 27.5964
#
#
#
# Elastic Compliance Matrix: (Units=1/GPa)
#
#
# Indices 1 2 3 4 5 6 
#
# 1 0.013185 0.001623 -0.006687 0.000000 0.000000 0.000000
# 2 0.001623 0.018051 0.004093 0.000000 0.000000 0.000000
# 3 -0.006687 0.004093 0.036873 0.000000 0.000000 0.000000
# 4 0.000000 0.000000 0.000000 0.041646 0.000000 0.000000
# 5 0.000000 0.000000 0.000000 0.000000 0.047855 0.000000
# 6 0.000000 0.000000 0.000000 0.000000 0.000000 0.036237
#
#
# Mechanical properties :
#
#
# Convention : Reuss Voigt Hill
#
# Bulk Modulus (GPa) = 15.11339 18.75352 16.93346
# Shear Modulus (GPa) = 22.95206 26.40565 24.67886
#
# Velocity S-wave (km/s) = 3.31597 3.55670 3.43844
# Velocity P-wave (km/s) = 4.67987 5.08440 4.88632
#
# Compressibility (1/GPa) = 0.06616648
#
# Stress axis : x y z
#
# Youngs Moduli (GPa) = 75.84094 55.39881 27.12019
#
# Poissons Ratio (x) = -0.08990 0.18136
# Poissons Ratio (y) = -0.12307 -0.11101
# Poissons Ratio (z) = 0.50718 -0.22677
#
# Static dielectric constant tensor:
#      x y z
#    x 1.914670 0.000000 0.000000 
#    y 0.000000 1.774660 0.000000 
#    z 0.000000 0.000000 1.739740 
# 
# From -- ./inp_files/19199.got.cif
#   From: 2010.05.17/outbox.cif.g08.bks.cpg/sg54_10_cif.got.tgz:19199.got - 2010.06.03 13:09:01.
