data_PCOD9420604
_publ_section_title
;
Structure prediction by ZEFSAII (Michael W. Deem and Ramdas Pophale) SiO2 
 PCOD9420604
Probable space group: P C C A
;
_chemical_formula_sum "Si O2"
_cell_formula_units_Z 36
_cell_length_a 5.549916
_cell_length_b 9.421608
_cell_length_c 28.315621
_cell_angle_alpha 90.000000
_cell_angle_beta 90.000000
_cell_angle_gamma 90.000000
_cell_volume 1480.599272
_symmetry_space_group_name_H-M "P C C A"
_symmetry_group_IT_number 54
_symmetry_cell_setting 'orthorhombic'
loop_
_space_group_symop_operation_xyz
x,y,z
1/2-x,-y,z
1/2+x,-y,1/2-z
-x,y,1/2-z
-x,-y,-z
1/2+x,y,-z
1/2-x,y,1/2+z
x,-y,1/2+z
loop_
_atom_site_type_symbol
_atom_site_label
_atom_site_fract_x
_atom_site_fract_y
_atom_site_fract_z
Si Si1 0.500000 0.586082 0.250000
Si Si2 0.500440 0.510034 0.081359
Si Si3 0.455665 0.202501 0.376901
Si Si4 0.197172 0.839502 0.483711
Si Si5 0.539356 0.763518 0.344396
O O1 0.250000 0.500000 0.259648
O O2 0.559104 0.681407 0.295421
O O3 0.750000 0.500000 0.054264
O O4 0.515061 0.374534 0.117234
O O5 0.488177 0.649101 0.113274
O O6 0.250000 0.500000 0.054870
O O7 0.395476 0.153572 0.430028
O O8 0.713247 0.156489 0.356638
O O9 0.222152 0.163483 0.346356
O O10 0.467062 0.775083 0.488607
O O11 0.250000 0.000000 0.501399
#
# Coordination Sequence:
#
# PCOD9420604 Si02
#       5
#     4   8   8   8   8
#     4  12  20  30  48  78 114 146 184 220 254 288
#     4   8  14  25  41  62  90 128 161 188 227 280
#     4  10  18  32  51  71 101 138 169 207 264 316
#     4  10  21  37  57  80 101 123 165 227 281 324
#     4  10  19  30  48  74 106 143 175 208 246 301
#
# _framework density 24.314481000000001
#
# number of rings (size 3 to 8) (size 9 to 14) (size 15 to 20)
#    0.000    2.222    0.000    6.667    0.000    0.000 
#    0.000    0.000    0.000   36.000    0.000    3.111 
#    0.000    0.000    0.000    0.000    0.000    0.000 
#
# Total GULP energy -200921.854495 kJ/mol
# GULP energy per Si atom -5581.162625 kJ/mol
# Density = 2.425914 g / cm^3
# Si number density = 24.314481 Si / 1000 Ang^3
#
#
#
# Elastic Constant Matrix: (Units=GPa)
#
#
# Indices 1 2 3 4 5 6 
#
# 1 345.8547 32.3545 59.6033 0.0000 0.0000 0.0000
# 2 32.3545 69.0590 6.4795 0.0000 0.0000 0.0000
# 3 59.6033 6.4795 119.6798 0.0000 0.0000 0.0000
# 4 0.0000 0.0000 0.0000 -17.0712 0.0000 0.0000
# 5 0.0000 0.0000 0.0000 0.0000 34.6550 0.0000
# 6 0.0000 0.0000 0.0000 0.0000 0.0000 0.5839
#
#
#
# Elastic Compliance Matrix: (Units=1/GPa)
#
#
# Indices 1 2 3 4 5 6 
#
# 1 0.003291 -0.001395 -0.001564 0.000000 0.000000 0.000000
# 2 -0.001395 0.015146 -0.000125 0.000000 0.000000 0.000000
# 3 -0.001564 -0.000125 0.009141 0.000000 0.000000 0.000000
# 4 0.000000 0.000000 0.000000 -0.058578 0.000000 0.000000
# 5 0.000000 0.000000 0.000000 0.000000 0.028856 0.000000
# 6 0.000000 0.000000 0.000000 0.000000 0.000000 1.712569
#
#
# Mechanical properties :
#
#
# Convention : Reuss Voigt Hill
#
# Bulk Modulus (GPa) = 46.70665 81.27422 63.99043
# Shear Modulus (GPa) = 2.90069 32.71061 17.80565
#
# Velocity S-wave (km/s) = 1.09342 3.67183 2.70905
# Velocity P-wave (km/s) = 4.56565 7.17463 6.01334
#
# Compressibility (1/GPa) = 0.02141023
#
# Stress axis : x y z
#
# Youngs Moduli (GPa) = 303.82289 66.02477 109.39566
#
# Poissons Ratio (x) = 0.09213 0.17106
# Poissons Ratio (y) = 0.42393 0.01368
# Poissons Ratio (z) = 0.47507 0.00826
#
# Static dielectric constant tensor:
#      x y z
#    x 2.132580 0.000000 0.000000 
#    y 0.000000 2.002540 0.000000 
#    z 0.000000 0.000000 1.828840 
# 
# From -- ./inp_files/22704.got.cif
#   From: 2010.05.17/outbox.cif.g08.bks.cpg/sg54_12_cif.got.tgz:22704.got - 2010.06.03 13:09:01.
