data_PCOD9420743
_publ_section_title
;
Structure prediction by ZEFSAII (Michael W. Deem and Ramdas Pophale) SiO2 
 PCOD9420743
Probable space group: P C C A
;
_chemical_formula_sum "Si O2"
_cell_formula_units_Z 64
_cell_length_a 15.469957
_cell_length_b 9.736472
_cell_length_c 22.691327
_cell_angle_alpha 90.000000
_cell_angle_beta 90.000000
_cell_angle_gamma 90.000000
_cell_volume 3417.831280
_symmetry_space_group_name_H-M "P C C A"
_symmetry_group_IT_number 54
_symmetry_cell_setting 'orthorhombic'
loop_
_space_group_symop_operation_xyz
x,y,z
1/2-x,-y,z
1/2+x,-y,1/2-z
-x,y,1/2-z
-x,-y,-z
1/2+x,y,-z
1/2-x,y,1/2+z
x,-y,1/2+z
loop_
_atom_site_type_symbol
_atom_site_label
_atom_site_fract_x
_atom_site_fract_y
_atom_site_fract_z
Si Si1 0.134327 0.749806 0.496958
Si Si2 0.590114 0.110166 0.231294
Si Si3 0.152433 0.964589 0.394910
Si Si4 0.070831 0.189790 0.207157
Si Si5 0.762903 0.835071 0.315550
Si Si6 0.216403 0.653182 0.078017
Si Si7 0.525281 0.208900 0.582875
Si Si8 0.092858 0.546740 0.976429
O O1 0.157303 0.858609 0.448016
O O2 0.204880 0.735159 0.547969
O O3 0.137340 0.599314 0.466583
O O4 0.043554 0.787690 0.528907
O O5 0.500000 0.179533 0.250000
O O6 0.601622 0.092549 0.161861
O O7 0.675482 0.174363 0.259155
O O8 0.584804 0.959315 0.262193
O O9 0.250000 0.000000 0.375868
O O10 0.097906 0.092996 0.418926
O O11 0.169792 0.234312 0.197315
O O12 0.000000 0.261208 0.250000
O O13 0.027299 0.187291 0.143053
O O14 0.808623 0.749665 0.367671
O O15 0.750000 0.000000 0.329633
O O16 0.250000 0.500000 0.095320
O O17 0.144056 0.626289 0.028173
O O18 0.575192 0.353814 0.577957
O O19 0.000000 0.500000 0.000000
#
# Coordination Sequence:
#
# PCOD9420743 Si02
#       8
#     8   8   8   8   8   8   8   8
#     4  10  22  39  58  89 126 154 199 252 302 359
#     4  10  21  38  57  85 120 160 194 250 310 349
#     4  12  23  37  60  90 128 158 198 250 308 365
#     4  10  18  36  60  86 119 154 197 249 299 359
#     4  10  21  36  64  89 114 154 211 248 298 356
#     4  10  20  39  61  82 120 159 196 248 301 364
#     4  11  20  37  62  88 117 159 209 241 300 372
#     4   9  21  38  57  84 119 161 193 240 311 356
#
# _framework density 18.725325000000002
#
# number of rings (size 3 to 8) (size 9 to 14) (size 15 to 20)
#    0.000    1.750    3.750    2.250    0.000    3.500 
#    0.000    0.000    2.750    0.000    0.000    0.000 
#    0.000    0.000    0.000    0.000    0.000    0.000 
#
# Total GULP energy -356495.334728 kJ/mol
# GULP energy per Si atom -5570.239605 kJ/mol
# Density = 1.868271 g / cm^3
# Si number density = 18.725325 Si / 1000 Ang^3
#
#
#
# Elastic Constant Matrix: (Units=GPa)
#
#
# Indices 1 2 3 4 5 6 
#
# 1 87.5374 11.5299 9.2173 0.0000 0.0000 0.0000
# 2 11.5299 42.0983 30.5997 0.0000 0.0000 0.0000
# 3 9.2173 30.5997 50.4037 0.0000 0.0000 0.0000
# 4 0.0000 0.0000 0.0000 -1.2973 0.0000 0.0000
# 5 0.0000 0.0000 0.0000 0.0000 20.4558 0.0000
# 6 0.0000 0.0000 0.0000 0.0000 0.0000 21.0550
#
#
#
# Elastic Compliance Matrix: (Units=1/GPa)
#
#
# Indices 1 2 3 4 5 6 
#
# 1 0.011855 -0.002991 -0.000352 0.000000 0.000000 0.000000
# 2 -0.002991 0.043269 -0.025721 0.000000 0.000000 0.000000
# 3 -0.000352 -0.025721 0.035519 0.000000 0.000000 0.000000
# 4 0.000000 0.000000 0.000000 -0.770847 0.000000 0.000000
# 5 0.000000 0.000000 0.000000 0.000000 0.048886 0.000000
# 6 0.000000 0.000000 0.000000 0.000000 0.000000 0.047495
#
#
# Mechanical properties :
#
#
# Convention : Reuss Voigt Hill
#
# Bulk Modulus (GPa) = 30.75550 31.41480 31.08515
# Shear Modulus (GPa) = -9.71143 16.62221 3.45539
#
# Velocity S-wave (km/s) = -2.27981 2.98264 1.35989
# Velocity P-wave (km/s) = 3.08710 5.35486 4.37063
#
# Compressibility (1/GPa) = 0.03251450
#
# Stress axis : x y z
#
# Youngs Moduli (GPa) = 84.35478 23.11136 28.15371
#
# Poissons Ratio (x) = 0.06912 0.00992
# Poissons Ratio (y) = 0.25229 0.72415
# Poissons Ratio (z) = 0.02971 0.59445
#
# Static dielectric constant tensor:
#      x y z
#    x 1.718410 0.000000 0.000000 
#    y 0.000000 1.663230 0.000000 
#    z 0.000000 0.000000 1.622360 
# 
# From -- ./inp_files/18241.got.cif
#   From: 2010.05.17/outbox.cif.g08.bks.cpg/sg54_10_cif.got.tgz:18241.got - 2010.06.03 13:09:01.
