data_PCOD9420954
_publ_section_title
;
Structure prediction by ZEFSAII (Michael W. Deem and Ramdas Pophale) SiO2 
 PCOD9420954
Probable space group: P C C A
;
_chemical_formula_sum "Si O2"
_cell_formula_units_Z 40
_cell_length_a 9.503768
_cell_length_b 9.750970
_cell_length_c 22.277047
_cell_angle_alpha 90.000000
_cell_angle_beta 90.000000
_cell_angle_gamma 90.000000
_cell_volume 2064.435257
_symmetry_space_group_name_H-M "P C C A"
_symmetry_group_IT_number 54
_symmetry_cell_setting 'orthorhombic'
loop_
_space_group_symop_operation_xyz
x,y,z
1/2-x,-y,z
1/2+x,-y,1/2-z
-x,y,1/2-z
-x,-y,-z
1/2+x,y,-z
1/2-x,y,1/2+z
x,-y,1/2+z
loop_
_atom_site_type_symbol
_atom_site_label
_atom_site_fract_x
_atom_site_fract_y
_atom_site_fract_z
Si Si1 0.982628 0.741059 0.863727
Si Si2 0.880375 0.603428 0.523488
Si Si3 0.917606 0.026121 0.809908
Si Si4 0.089618 0.522929 0.199198
Si Si5 0.844320 0.737493 0.399217
O O1 0.984370 0.620442 0.815032
O O2 0.822715 0.742630 0.888430
O O3 0.081520 0.689981 0.917403
O O4 0.996077 0.888680 0.833068
O O5 0.750000 0.500000 0.532749
O O6 0.863270 0.711673 0.469209
O O7 0.000000 0.500000 0.500000
O O8 0.913015 0.133732 0.865134
O O9 0.000000 0.071900 0.750000
O O10 0.750000 0.000000 0.796445
O O11 0.250000 0.500000 0.219180
O O12 0.098922 0.606276 0.137436
O O13 0.000000 0.596931 0.250000
#
# Coordination Sequence:
#
# PCOD9420954 Si02
#       5
#     8   8   8   8   8
#     4  10  21  38  59  85 118 157 194 248 307 353
#     4  12  21  39  63  90 120 153 200 253 301 362
#     4  10  22  42  62  85 123 162 201 249 302 364
#     4  10  19  33  53  80 111 147 195 243 295 353
#     4  10  20  38  60  82 118 159 192 245 309 354
#
# _framework density 19.375758000000001
#
# number of rings (size 3 to 8) (size 9 to 14) (size 15 to 20)
#    0.000    1.600    4.000    1.800    0.000    1.600 
#    3.600    0.000    0.000    0.000    0.000    0.000 
#    0.000    0.000    0.000    0.000    0.000    0.000 
#
# Total GULP energy -223060.619033 kJ/mol
# GULP energy per Si atom -5576.515476 kJ/mol
# Density = 1.933166 g / cm^3
# Si number density = 19.375758 Si / 1000 Ang^3
#
#
#
# Elastic Constant Matrix: (Units=GPa)
#
#
# Indices 1 2 3 4 5 6 
#
# 1 45.8815 25.9766 51.0429 0.0000 0.0000 0.0000
# 2 25.9766 111.4710 42.6228 0.0000 0.0000 0.0000
# 3 51.0429 42.6228 138.3316 0.0000 0.0000 0.0000
# 4 0.0000 0.0000 0.0000 -215.2481 0.0000 0.0000
# 5 0.0000 0.0000 0.0000 0.0000 22.3007 0.0000
# 6 0.0000 0.0000 0.0000 0.0000 0.0000 10.9662
#
#
#
# Elastic Compliance Matrix: (Units=1/GPa)
#
#
# Indices 1 2 3 4 5 6 
#
# 1 0.038493 -0.004012 -0.012967 0.000000 0.000000 0.000000
# 2 -0.004012 0.010587 -0.001782 0.000000 0.000000 0.000000
# 3 -0.012967 -0.001782 0.012563 0.000000 0.000000 0.000000
# 4 0.000000 0.000000 0.000000 -0.004646 0.000000 0.000000
# 5 0.000000 0.000000 0.000000 0.000000 0.044842 0.000000
# 6 0.000000 0.000000 0.000000 0.000000 0.000000 0.091189
#
#
# Mechanical properties :
#
#
# Convention : Reuss Voigt Hill
#
# Bulk Modulus (GPa) = 41.45801 59.44096 50.44949
# Shear Modulus (GPa) = 20.95651 -24.66012 -1.85181
#
# Velocity S-wave (km/s) = 3.29231 -3.57141 -0.97868
# Velocity P-wave (km/s) = 5.99130 3.70648 4.98165
#
# Compressibility (1/GPa) = 0.02412079
#
# Stress axis : x y z
#
# Youngs Moduli (GPa) = 25.97898 94.45421 79.60019
#
# Poissons Ratio (x) = 0.37894 1.03219
# Poissons Ratio (y) = 0.10422 0.14183
# Poissons Ratio (z) = 0.33688 0.16830
#
# Static dielectric constant tensor:
#      x y z
#    x 9.927880 0.000000 0.000000 
#    y 0.000000 1.743130 0.000000 
#    z 0.000000 0.000000 1.681920 
# 
# From -- ./inp_files/23216.got.cif
#   From: 2010.05.17/outbox.cif.g08.bks.cpg/sg54_12_cif.got.tgz:23216.got - 2010.06.03 13:09:01.
