data_PCOD9420228
_publ_section_title
;
Structure prediction by ZEFSAII (Michael W. Deem and Ramdas Pophale) SiO2 
 PCOD9420228
Probable space group: P M N A
;
_chemical_formula_sum "Si O2"
_cell_formula_units_Z 64
_cell_length_a 15.000000
_cell_length_b 12.000000
_cell_length_c 18.000000
_cell_angle_alpha 90.000000
_cell_angle_beta 90.000000
_cell_angle_gamma 90.000000
_cell_volume 3240.000000
_symmetry_space_group_name_H-M "P M N A"
_symmetry_group_IT_number 53
_symmetry_cell_setting 'orthorhombic'
loop_
_space_group_symop_operation_xyz
x,y,z
1/2-x,-y,1/2+z
x,-y,-z
1/2-x,y,1/2-z
-x,-y,-z
1/2+x,y,1/2-z
-x,y,z
1/2+x,-y,1/2+z
loop_
_atom_site_type_symbol
_atom_site_label
_atom_site_fract_x
_atom_site_fract_y
_atom_site_fract_z
Si Si1 0.797179 0.481239 0.910006
Si Si2 0.643849 0.761705 0.864024
Si Si3 0.601028 0.874316 0.714874
Si Si4 0.099232 0.999428 0.586808
Si Si5 0.597011 0.514025 0.910381
Si Si6 0.655357 0.724948 0.589341
Si Si7 0.274800 0.915218 0.327233
Si Si8 0.605394 0.743248 0.416823
O O1 0.693703 0.466870 0.885579
O O2 0.841766 0.596493 0.884288
O O3 0.855891 0.375387 0.889804
O O4 0.794176 0.500000 0.000000
O O5 0.641233 0.790567 0.776712
O O6 0.602701 0.643678 0.886545
O O7 0.742466 0.762400 0.898697
O O8 0.595045 0.869134 0.895075
O O9 0.500000 0.909732 0.735830
O O10 0.597501 0.803134 0.640527
O O11 0.666937 0.977334 0.698896
O O12 0.182393 0.050531 0.632116
O O13 0.000000 0.049455 0.600228
O O14 0.119466 0.000000 0.500000
O O15 0.500000 0.469436 0.884305
O O16 0.596714 0.500000 0.000000
O O17 0.624566 0.738823 0.505052
O O18 0.250000 0.855273 0.250000
O O19 0.336755 0.840576 0.379579
O O20 0.500000 0.755386 0.403222
#
# Coordination Sequence:
#
# PCOD9420228 Si02
#       8
#     8   8   8   8   8   8   8   8
#     4   8  18  36  60  87 120 159 204 257 315 375
#     4  11  20  38  59  89 130 168 207 261 325 382
#     4  12  23  37  61  94 128 171 213 262 324 385
#     4  11  23  39  62  89 119 164 216 263 319 387
#     4   9  17  31  57  90 123 160 203 257 318 376
#     4  10  20  38  63  94 126 158 208 267 322 379
#     4  12  25  43  62  88 128 168 212 267 322 389
#     4  11  24  42  65  91 123 168 212 263 324 388
#
# _framework density 19.753086
#
# number of rings (size 3 to 8) (size 9 to 14) (size 15 to 20)
#    0.000    1.500    2.500    3.750    0.000    3.250 
#    0.000    5.625    0.000    1.500    0.000    0.000 
#    0.000    0.000    0.000    0.000    0.000    0.000 
#
# Total GULP energy -356854.581065 kJ/mol
# GULP energy per Si atom -5575.852829 kJ/mol
# Density = 1.970813 g / cm^3
# Si number density = 19.753086 Si / 1000 Ang^3
#
#
#
# Elastic Constant Matrix: (Units=GPa)
#
#
# Indices 1 2 3 4 5 6 
#
# 1 168.0541 43.9966 39.4614 0.0000 0.0000 0.0000
# 2 43.9966 77.2815 42.0415 0.0000 0.0000 0.0000
# 3 39.4614 42.0415 77.6391 0.0000 0.0000 0.0000
# 4 0.0000 0.0000 0.0000 28.4756 0.0000 0.0000
# 5 0.0000 0.0000 0.0000 0.0000 20.0453 0.0000
# 6 0.0000 0.0000 0.0000 0.0000 0.0000 13.7430
#
#
#
# Elastic Compliance Matrix: (Units=1/GPa)
#
#
# Indices 1 2 3 4 5 6 
#
# 1 0.007215 -0.002995 -0.002045 0.000000 0.000000 0.000000
# 2 -0.002995 0.019586 -0.009084 0.000000 0.000000 0.000000
# 3 -0.002045 -0.009084 0.018839 0.000000 0.000000 0.000000
# 4 0.000000 0.000000 0.000000 0.035118 0.000000 0.000000
# 5 0.000000 0.000000 0.000000 0.000000 0.049887 0.000000
# 6 0.000000 0.000000 0.000000 0.000000 0.000000 0.072764
#
#
# Mechanical properties :
#
#
# Convention : Reuss Voigt Hill
#
# Bulk Modulus (GPa) = 57.49846 63.77486 60.63666
# Shear Modulus (GPa) = 21.05674 25.61780 23.33727
#
# Velocity S-wave (km/s) = 3.26850 3.60516 3.44095
# Velocity P-wave (km/s) = 6.58908 7.04881 6.82282
#
# Compressibility (1/GPa) = 0.01739177
#
# Stress axis : x y z
#
# Youngs Moduli (GPa) = 138.60469 51.05622 53.08240
#
# Poissons Ratio (x) = 0.15290 0.10858
# Poissons Ratio (y) = 0.41508 0.48219
# Poissons Ratio (z) = 0.28350 0.46379
#
# Static dielectric constant tensor:
#      x y z
#    x 1.794470 0.000000 0.000000 
#    y 0.000000 1.705280 0.000000 
#    z 0.000000 0.000000 2.268490 
# 
# From -- ./inp_files/28587.got.cif
#   From: 2010.05.17/outbox.ucp.g08.bks.cvg/sg53_15_cif.got.tgz:28587.got - 2010.06.11 16:32:34.
