data_PCOD9420826
_publ_section_title
;
Structure prediction by ZEFSAII (Michael W. Deem and Ramdas Pophale) SiO2 
 PCOD9420826
Probable space group: P C C A
;
_chemical_formula_sum "Si O2"
_cell_formula_units_Z 44
_cell_length_a 5.104998
_cell_length_b 29.364059
_cell_length_c 14.557399
_cell_angle_alpha 90.000000
_cell_angle_beta 90.000000
_cell_angle_gamma 90.000000
_cell_volume 2182.204515
_symmetry_space_group_name_H-M "P C C A"
_symmetry_group_IT_number 54
_symmetry_cell_setting 'orthorhombic'
loop_
_space_group_symop_operation_xyz
x,y,z
1/2-x,-y,z
1/2+x,-y,1/2-z
-x,y,1/2-z
-x,-y,-z
1/2+x,y,-z
1/2-x,y,1/2+z
x,-y,1/2+z
loop_
_atom_site_type_symbol
_atom_site_label
_atom_site_fract_x
_atom_site_fract_y
_atom_site_fract_z
Si Si1 0.451216 0.080358 0.436142
Si Si2 0.000983 0.471725 0.860491
Si Si3 0.462709 0.371777 0.060627
Si Si4 0.104736 0.722576 0.434927
Si Si5 0.421310 0.820327 0.933407
Si Si6 0.750000 0.000000 0.192196
O O1 0.739575 0.077458 0.480574
O O2 0.425374 0.130003 0.387687
O O3 0.375594 0.039816 0.369088
O O4 0.250000 0.500000 0.892701
O O5 0.006024 0.419604 0.890788
O O6 0.750000 0.500000 0.892048
O O7 0.000000 0.471888 0.750000
O O8 0.540041 0.325249 0.113991
O O9 0.164879 0.370612 0.025278
O O10 0.391078 0.722222 0.481641
O O11 0.073574 0.771140 0.384125
O O12 0.665811 0.820272 0.002603
O O13 0.500000 0.982215 0.250000
#
# Coordination Sequence:
#
# PCOD9420826 Si02
#       6
#     8   8   8   8   8   4
#     4  10  19  34  55  76  97 130 176 213 238 286
#     4  10  21  35  48  64  90 124 157 190 231 278
#     4  10  19  30  48  72  95 119 150 192 235 278
#     4   8  14  25  41  67  96 116 142 187 239 278
#     4   8  14  25  45  70  93 118 153 197 236 272
#     4  12  24  36  50  74 108 140 164 204 264 306
#
# _framework density 20.163097
#
# number of rings (size 3 to 8) (size 9 to 14) (size 15 to 20)
#    0.000    2.545    0.000    2.727    0.000    2.182 
#    0.000    0.000    0.000    1.091    0.000    3.818 
#    0.000    0.000    0.000    0.000    0.000    0.000 
#
# Total GULP energy -245069.893418 kJ/mol
# GULP energy per Si atom -5569.770305 kJ/mol
# Density = 2.011720 g / cm^3
# Si number density = 20.163097 Si / 1000 Ang^3
#
#
#
# Elastic Constant Matrix: (Units=GPa)
#
#
# Indices 1 2 3 4 5 6 
#
# 1 106.4182 -5.3513 -0.8515 0.0000 0.0000 0.0000
# 2 -5.3513 188.1805 20.9366 0.0000 0.0000 0.0000
# 3 -0.8515 20.9366 22.6509 0.0000 0.0000 0.0000
# 4 0.0000 0.0000 0.0000 -22.6929 0.0000 0.0000
# 5 0.0000 0.0000 0.0000 0.0000 394.5608 0.0000
# 6 0.0000 0.0000 0.0000 0.0000 0.0000 30.1746
#
#
#
# Elastic Compliance Matrix: (Units=1/GPa)
#
#
# Indices 1 2 3 4 5 6 
#
# 1 0.009411 0.000254 0.000119 0.000000 0.000000 0.000000
# 2 0.000254 0.005930 -0.005472 0.000000 0.000000 0.000000
# 3 0.000119 -0.005472 0.049210 0.000000 0.000000 0.000000
# 4 0.000000 0.000000 0.000000 -0.044067 0.000000 0.000000
# 5 0.000000 0.000000 0.000000 0.000000 0.002534 0.000000
# 6 0.000000 0.000000 0.000000 0.000000 0.000000 0.033140
#
#
# Mechanical properties :
#
#
# Convention : Reuss Voigt Hill
#
# Bulk Modulus (GPa) = 18.39798 38.52413 28.46105
# Shear Modulus (GPa) = 59.18930 100.57621 79.88276
#
# Velocity S-wave (km/s) = 5.42393 7.07033 6.30114
# Velocity P-wave (km/s) = 6.95483 9.26286 8.19055
#
# Compressibility (1/GPa) = 0.05435380
#
# Stress axis : x y z
#
# Youngs Moduli (GPa) = 106.26277 168.63267 20.32089
#
# Poissons Ratio (x) = -0.04290 -0.00241
# Poissons Ratio (y) = -0.02703 0.11119
# Poissons Ratio (z) = -0.01260 0.92270
#
# Static dielectric constant tensor:
#      x y z
#    x 1.687410 0.000000 0.000000 
#    y 0.000000 1.815740 0.000000 
#    z 0.000000 0.000000 1.674560 
# 
# From -- ./inp_files/10958.got.cif
#   From: 2010.05.17/outbox.cif.g08.bks.cpg/sg54_6_cif.got.tgz:10958.got - 2010.06.03 13:09:01.
