data_PCOD9420945
_publ_section_title
;
Structure prediction by ZEFSAII (Michael W. Deem and Ramdas Pophale) SiO2 
 PCOD9420945
Probable space group: P C C A
;
_chemical_formula_sum "Si O2"
_cell_formula_units_Z 40
_cell_length_a 14.419658
_cell_length_b 5.005089
_cell_length_c 25.733386
_cell_angle_alpha 90.000000
_cell_angle_beta 90.000000
_cell_angle_gamma 90.000000
_cell_volume 1857.221485
_symmetry_space_group_name_H-M "P C C A"
_symmetry_group_IT_number 54
_symmetry_cell_setting 'orthorhombic'
loop_
_space_group_symop_operation_xyz
x,y,z
1/2-x,-y,z
1/2+x,-y,1/2-z
-x,y,1/2-z
-x,-y,-z
1/2+x,y,-z
1/2-x,y,1/2+z
x,-y,1/2+z
loop_
_atom_site_type_symbol
_atom_site_label
_atom_site_fract_x
_atom_site_fract_y
_atom_site_fract_z
Si Si1 0.595311 0.990480 0.282631
Si Si2 0.652219 0.112561 0.077459
Si Si3 0.839461 0.311278 0.690031
Si Si4 0.959539 0.490596 0.837909
Si Si5 0.958458 0.609629 0.553085
O O1 0.500000 0.983832 0.250000
O O2 0.662169 0.135863 0.241998
O O3 0.579804 0.195886 0.329767
O O4 0.604633 0.698798 0.306895
O O5 0.652162 0.115789 0.140292
O O6 0.629916 0.417407 0.063751
O O7 0.750000 0.000000 0.059270
O O8 0.574225 0.915076 0.055252
O O9 0.750000 0.500000 0.685278
O O10 0.935789 0.481486 0.686932
O O11 0.974158 0.563358 0.897763
O O12 0.000000 0.500000 0.500000
#
# Coordination Sequence:
#
# PCOD9420945 Si02
#       5
#     8   8   8   8   8
#     4  10  19  33  52  77 114 155 184 220 285 356
#     4  11  22  37  58  90 123 147 184 253 318 360
#     4  10  21  35  59  91 123 156 197 248 308 369
#     4  10  20  35  53  79 114 151 190 239 288 341
#     4  11  22  38  61  87 114 155 206 250 298 362
#
# _framework density 21.537548999999999
#
# number of rings (size 3 to 8) (size 9 to 14) (size 15 to 20)
#    0.000    1.600    0.000    9.000    0.000    3.200 
#    0.000    0.000    0.000    4.800    0.000    4.200 
#    0.000    0.000    0.000    0.000    0.000    0.000 
#
# Total GULP energy -223533.086043 kJ/mol
# GULP energy per Si atom -5588.327151 kJ/mol
# Density = 2.148853 g / cm^3
# Si number density = 21.537549 Si / 1000 Ang^3
#
#
#
# Elastic Constant Matrix: (Units=GPa)
#
#
# Indices 1 2 3 4 5 6 
#
# 1 39.0819 11.0055 25.4328 0.0000 0.0000 0.0000
# 2 11.0055 96.7970 13.5331 0.0000 0.0000 0.0000
# 3 25.4328 13.5331 102.9181 0.0000 0.0000 0.0000
# 4 0.0000 0.0000 0.0000 33.4882 0.0000 0.0000
# 5 0.0000 0.0000 0.0000 0.0000 9.2569 0.0000
# 6 0.0000 0.0000 0.0000 0.0000 0.0000 38.8517
#
#
#
# Elastic Compliance Matrix: (Units=1/GPa)
#
#
# Indices 1 2 3 4 5 6 
#
# 1 0.031076 -0.002506 -0.007350 0.000000 0.000000 0.000000
# 2 -0.002506 0.010726 -0.000791 0.000000 0.000000 0.000000
# 3 -0.007350 -0.000791 0.011637 0.000000 0.000000 0.000000
# 4 0.000000 0.000000 0.000000 0.029861 0.000000 0.000000
# 5 0.000000 0.000000 0.000000 0.000000 0.108028 0.000000
# 6 0.000000 0.000000 0.000000 0.000000 0.000000 0.025739
#
#
# Mechanical properties :
#
#
# Convention : Reuss Voigt Hill
#
# Bulk Modulus (GPa) = 31.10858 37.63776 34.37317
# Shear Modulus (GPa) = 20.07420 28.90773 24.49096
#
# Velocity S-wave (km/s) = 3.05627 3.66758 3.37579
# Velocity P-wave (km/s) = 5.18938 5.95384 5.58470
#
# Compressibility (1/GPa) = 0.03214547
#
# Stress axis : x y z
#
# Youngs Moduli (GPa) = 32.17928 93.22781 85.93430
#
# Poissons Ratio (x) = 0.23360 0.63161
# Poissons Ratio (y) = 0.08063 0.06800
# Poissons Ratio (z) = 0.23651 0.07377
#
# Static dielectric constant tensor:
#      x y z
#    x 1.832450 0.000000 0.000000 
#    y 0.000000 1.797320 0.000000 
#    z 0.000000 0.000000 1.783140 
# 
# From -- ./inp_files/24317.got.cif
#   From: 2010.05.17/outbox.cif.g08.bks.cpg/sg54_13_cif.got.tgz:24317.got - 2010.06.03 13:09:01.
