data_PCOD9420350
_publ_section_title
;
Structure prediction by ZEFSAII (Michael W. Deem and Ramdas Pophale) SiO2 
 PCOD9420350
Probable space group: P C C A
;
_chemical_formula_sum "Si O2"
_cell_formula_units_Z 52
_cell_length_a 19.039547
_cell_length_b 23.391205
_cell_length_c 5.573669
_cell_angle_alpha 90.000000
_cell_angle_beta 90.000000
_cell_angle_gamma 90.000000
_cell_volume 2482.277783
_symmetry_space_group_name_H-M "P C C A"
_symmetry_group_IT_number 54
_symmetry_cell_setting 'orthorhombic'
loop_
_space_group_symop_operation_xyz
x,y,z
1/2-x,-y,z
1/2+x,-y,1/2-z
-x,y,1/2-z
-x,-y,-z
1/2+x,y,-z
1/2-x,y,1/2+z
x,-y,1/2+z
loop_
_atom_site_type_symbol
_atom_site_label
_atom_site_fract_x
_atom_site_fract_y
_atom_site_fract_z
Si Si1 0.500000 0.534876 0.250000
Si Si2 0.000000 0.283716 0.750000
Si Si3 0.878451 0.628110 0.749997
Si Si4 0.673742 0.794860 0.749963
Si Si5 0.500000 0.276257 0.750000
Si Si6 0.348065 0.662952 0.750004
Si Si7 0.667617 0.840797 0.249962
Si Si8 0.668777 0.022774 0.750002
O O1 0.500000 0.500000 0.500000
O O2 0.430904 0.574725 0.250004
O O3 0.932490 0.324799 0.749999
O O4 0.000000 0.247829 0.507800
O O5 0.930549 0.683470 0.750000
O O6 0.835192 0.631995 0.502692
O O7 0.835193 0.631992 0.997305
O O8 0.683255 0.726652 0.749983
O O9 0.639242 0.814869 0.499712
O O10 0.750393 0.823201 0.749956
O O11 0.639241 0.814874 0.000205
O O12 0.665392 0.908967 0.249978
O O13 0.750000 0.000000 0.750011
O O14 0.637593 0.999996 0.500009
#
# Coordination Sequence:
#
# PCOD9420350 Si02
#       8
#     4   4   8   8   4   8   8   8
#     4  11  20  31  48  68  92 126 148 175 224 263
#     4   8  14  23  36  55  74  96 140 172 192 230
#     4   9  17  28  40  60  84 107 148 176 194 251
#     4  10  18  28  42  58  84 123 150 174 224 256
#     4   7  12  22  36  49  72 100 122 165 192 209
#     4  10  17  28  44  60  82 120 150 178 209 250
#     4  10  19  30  40  62  93 117 145 187 217 267
#     4  10  16  25  41  58  79 116 146 171 218 268
#
# _framework density 20.948502999999999
#
# number of rings (size 3 to 8) (size 9 to 14) (size 15 to 20)
#    0.000    2.462    0.000    7.385    0.000    1.231 
#    0.000    0.000    0.000    0.000    0.000    0.000 
#    0.000    0.000    0.000  245.077    0.000    0.000 
#
# Total GULP energy -289846.947517 kJ/mol
# GULP energy per Si atom -5573.979760 kJ/mol
# Density = 2.090082 g / cm^3
# Si number density = 20.948503 Si / 1000 Ang^3
#
#
#
# Elastic Constant Matrix: (Units=GPa)
#
#
# Indices 1 2 3 4 5 6 
#
# 1 41.6408 11.9715 7.3524 0.0000 0.0000 0.0000
# 2 11.9715 129.4790 82.4524 0.0000 0.0000 0.0000
# 3 7.3524 82.4524 315.5289 0.0000 0.0000 0.0000
# 4 0.0000 0.0000 0.0000 37.9145 0.0000 0.0000
# 5 0.0000 0.0000 0.0000 0.0000 -6.5521 0.0000
# 6 0.0000 0.0000 0.0000 0.0000 0.0000 34.3220
#
#
#
# Elastic Compliance Matrix: (Units=1/GPa)
#
#
# Indices 1 2 3 4 5 6 
#
# 1 0.024671 -0.002297 0.000025 0.000000 0.000000 0.000000
# 2 -0.002297 0.009479 -0.002423 0.000000 0.000000 0.000000
# 3 0.000025 -0.002423 0.003802 0.000000 0.000000 0.000000
# 4 0.000000 0.000000 0.000000 0.026375 0.000000 0.000000
# 5 0.000000 0.000000 0.000000 0.000000 -0.152623 0.000000
# 6 0.000000 0.000000 0.000000 0.000000 0.000000 0.029136
#
#
# Mechanical properties :
#
#
# Convention : Reuss Voigt Hill
#
# Bulk Modulus (GPa) = 35.01251 76.68904 55.85077
# Shear Modulus (GPa) = -124.22456 38.79505 -42.71476
#
# Velocity S-wave (km/s) = -7.70900 4.30807 -4.52047
# Velocity P-wave (km/s) = 7.90496 7.83797 0.72616
#
# Compressibility (1/GPa) = 0.02856122
#
# Stress axis : x y z
#
# Youngs Moduli (GPa) = 40.53368 105.49731 263.02132
#
# Poissons Ratio (x) = 0.24235 -0.00669
# Poissons Ratio (y) = 0.09311 0.63742
# Poissons Ratio (z) = -0.00103 0.25567
#
# Static dielectric constant tensor:
#      x y z
#    x 1.751010 0.000000 0.000000 
#    y 0.000000 1.694370 0.000000 
#    z 0.000000 0.000000 1.947400 
# 
# From -- ./inp_files/1976.got.cif
#   From: 2010.05.17/outbox.cif.g08.bks.cpg/sg54_1_cif.got.tgz:1976.got - 2010.06.03 13:09:01.
