data_PCOD9420657
_publ_section_title
;
Structure prediction by ZEFSAII (Michael W. Deem and Ramdas Pophale) SiO2 
 PCOD9420657
Probable space group: P C C A
;
_chemical_formula_sum "Si O2"
_cell_formula_units_Z 52
_cell_length_a 14.280708
_cell_length_b 9.102175
_cell_length_c 18.746873
_cell_angle_alpha 90.000000
_cell_angle_beta 90.000000
_cell_angle_gamma 90.000000
_cell_volume 2436.821723
_symmetry_space_group_name_H-M "P C C A"
_symmetry_group_IT_number 54
_symmetry_cell_setting 'orthorhombic'
loop_
_space_group_symop_operation_xyz
x,y,z
1/2-x,-y,z
1/2+x,-y,1/2-z
-x,y,1/2-z
-x,-y,-z
1/2+x,y,-z
1/2-x,y,1/2+z
x,-y,1/2+z
loop_
_atom_site_type_symbol
_atom_site_label
_atom_site_fract_x
_atom_site_fract_y
_atom_site_fract_z
Si Si1 0.155003 0.406247 0.000029
Si Si2 0.534603 0.875048 0.874003
Si Si3 0.511569 0.432633 0.401333
Si Si4 0.167832 0.880904 0.581835
Si Si5 0.500000 0.570113 0.250000
Si Si6 0.635550 0.123224 0.221282
Si Si7 0.175125 0.215672 0.244085
O O1 0.250000 0.500000 0.003120
O O2 0.171665 0.235585 0.018331
O O3 0.080565 0.454782 0.060593
O O4 0.094292 0.438897 0.929789
O O5 0.551337 0.729201 0.919154
O O6 0.427685 0.866269 0.848514
O O7 0.586622 0.855273 0.798098
O O8 0.572490 0.023472 0.909561
O O9 0.513361 0.468838 0.318444
O O10 0.182419 0.799138 0.658045
O O11 0.250000 0.000000 0.575520
O O12 0.409004 0.674322 0.260649
O O13 0.722050 0.236414 0.222630
O O14 0.655144 0.948587 0.227397
#
# Coordination Sequence:
#
# PCOD9420657 Si02
#       7
#     8   8   8   8   4   8   8
#     4  11  26  47  66  92 140 179 222 285 340 417
#     4  10  19  36  60  91 131 165 222 277 329 397
#     4  11  26  43  65 100 132 181 222 275 353 402
#     4  11  19  39  70  95 124 181 238 274 334 402
#     4  12  22  38  68 100 134 176 230 280 338 430
#     4   9  18  32  57  92 136 166 205 293 331 381
#     4  10  18  33  58  99 129 171 224 270 347 397
#
# _framework density 21.339271
#
# number of rings (size 3 to 8) (size 9 to 14) (size 15 to 20)
#    0.000    1.538    4.615    3.692    0.000    1.846 
#    0.000    2.308    3.385    0.000    0.000    0.000 
#    0.000    0.000    0.000    0.000    0.000    0.000 
#
# Total GULP energy -290107.913518 kJ/mol
# GULP energy per Si atom -5578.998337 kJ/mol
# Density = 2.129070 g / cm^3
# Si number density = 21.339271 Si / 1000 Ang^3
#
#
#
# Elastic Constant Matrix: (Units=GPa)
#
#
# Indices 1 2 3 4 5 6 
#
# 1 107.6014 37.8980 13.1692 0.0000 0.0000 0.0000
# 2 37.8980 80.5712 14.3981 0.0000 0.0000 0.0000
# 3 13.1692 14.3981 35.0382 0.0000 0.0000 0.0000
# 4 0.0000 0.0000 0.0000 14.0113 0.0000 0.0000
# 5 0.0000 0.0000 0.0000 0.0000 4.8708 0.0000
# 6 0.0000 0.0000 0.0000 0.0000 0.0000 20.4305
#
#
#
# Elastic Compliance Matrix: (Units=1/GPa)
#
#
# Indices 1 2 3 4 5 6 
#
# 1 0.011298 -0.004916 -0.002226 0.000000 0.000000 0.000000
# 2 -0.004916 0.015534 -0.004536 0.000000 0.000000 0.000000
# 3 -0.002226 -0.004536 0.031241 0.000000 0.000000 0.000000
# 4 0.000000 0.000000 0.000000 0.071371 0.000000 0.000000
# 5 0.000000 0.000000 0.000000 0.000000 0.205305 0.000000
# 6 0.000000 0.000000 0.000000 0.000000 0.000000 0.048946
#
#
# Mechanical properties :
#
#
# Convention : Reuss Voigt Hill
#
# Bulk Modulus (GPa) = 28.80450 39.34905 34.07677
# Shear Modulus (GPa) = 11.94392 18.37889 15.16140
#
# Velocity S-wave (km/s) = 2.36840 2.93793 2.66840
# Velocity P-wave (km/s) = 4.58331 5.47616 5.04951
#
# Compressibility (1/GPa) = 0.03471680
#
# Stress axis : x y z
#
# Youngs Moduli (GPa) = 88.51505 64.37360 32.00949
#
# Poissons Ratio (x) = 0.31647 0.07125
# Poissons Ratio (y) = 0.43516 0.14518
# Poissons Ratio (z) = 0.19704 0.29198
#
# Static dielectric constant tensor:
#      x y z
#    x 1.882700 0.000000 0.000000 
#    y 0.000000 1.779930 0.000000 
#    z 0.000000 0.000000 1.745870 
# 
# From -- ./inp_files/21553.got.cif
#   From: 2010.05.17/outbox.cif.g08.bks.cpg/sg54_11_cif.got.tgz:21553.got - 2010.06.03 13:09:01.
