data_PCOD9420551
_publ_section_title
;
Structure prediction by ZEFSAII (Michael W. Deem and Ramdas Pophale) SiO2 
 PCOD9420551
Probable space group: P C C A
;
_chemical_formula_sum "Si O2"
_cell_formula_units_Z 40
_cell_length_a 7.957432
_cell_length_b 8.181648
_cell_length_c 24.998401
_cell_angle_alpha 90.000000
_cell_angle_beta 90.000000
_cell_angle_gamma 90.000000
_cell_volume 1627.518587
_symmetry_space_group_name_H-M "P C C A"
_symmetry_group_IT_number 54
_symmetry_cell_setting 'orthorhombic'
loop_
_space_group_symop_operation_xyz
x,y,z
1/2-x,-y,z
1/2+x,-y,1/2-z
-x,y,1/2-z
-x,-y,-z
1/2+x,y,-z
1/2-x,y,1/2+z
x,-y,1/2+z
loop_
_atom_site_type_symbol
_atom_site_label
_atom_site_fract_x
_atom_site_fract_y
_atom_site_fract_z
Si Si1 0.020768 0.688799 0.013912
Si Si2 0.681902 0.313343 0.721107
Si Si3 0.186231 0.313156 0.673160
Si Si4 0.323645 0.681190 0.883781
Si Si5 0.171192 0.824353 0.571765
O O1 0.885445 0.747481 0.058816
O O2 0.199472 0.704040 0.042091
O O3 0.999776 0.792983 0.959722
O O4 0.000000 0.500000 0.000000
O O5 0.750000 0.500000 0.714007
O O6 0.500000 0.315235 0.750000
O O7 0.801294 0.241625 0.767338
O O8 0.699447 0.242114 0.661215
O O9 0.250000 0.500000 0.674669
O O10 0.311102 0.218422 0.633544
O O11 0.000778 0.318880 0.648708
O O12 0.250000 0.500000 0.895689
O O13 0.250000 0.000000 0.562902
#
# Coordination Sequence:
#
# PCOD9420551 Si02
#       5
#     8   8   8   8   8
#     4  11  22  38  60  87 116 154 201 246 293 358
#     4  10  18  29  49  80 111 142 184 242 298 347
#     4  10  19  33  54  79 108 146 188 234 285 348
#     4  10  18  30  51  81 112 143 184 241 296 344
#     4  11  23  38  57  83 117 153 190 239 298 353
#
# _framework density 24.577294999999999
#
# number of rings (size 3 to 8) (size 9 to 14) (size 15 to 20)
#    0.000    1.600    0.000   10.200    0.000    1.600 
#    0.000    0.000    0.000    6.000    0.000    0.000 
#    0.000    0.000    0.000    0.000    0.000    0.000 
#
# Total GULP energy -223363.507592 kJ/mol
# GULP energy per Si atom -5584.087690 kJ/mol
# Density = 2.452136 g / cm^3
# Si number density = 24.577295 Si / 1000 Ang^3
#
#
#
# Elastic Constant Matrix: (Units=GPa)
#
#
# Indices 1 2 3 4 5 6 
#
# 1 111.4298 -16.5731 17.2550 0.0000 0.0000 0.0000
# 2 -16.5731 38.8972 -5.0579 0.0000 0.0000 0.0000
# 3 17.2550 -5.0579 152.6535 0.0000 0.0000 0.0000
# 4 0.0000 0.0000 0.0000 -17.1011 0.0000 0.0000
# 5 0.0000 0.0000 0.0000 0.0000 40.6467 0.0000
# 6 0.0000 0.0000 0.0000 0.0000 0.0000 15.4810
#
#
#
# Elastic Compliance Matrix: (Units=1/GPa)
#
#
# Indices 1 2 3 4 5 6 
#
# 1 0.009721 0.004016 -0.000966 0.000000 0.000000 0.000000
# 2 0.004016 0.027479 0.000457 0.000000 0.000000 0.000000
# 3 -0.000966 0.000457 0.006675 0.000000 0.000000 0.000000
# 4 0.000000 0.000000 0.000000 -0.058476 0.000000 0.000000
# 5 0.000000 0.000000 0.000000 0.000000 0.024602 0.000000
# 6 0.000000 0.000000 0.000000 0.000000 0.000000 0.064596
#
#
# Mechanical properties :
#
#
# Convention : Reuss Voigt Hill
#
# Bulk Modulus (GPa) = 19.65027 32.69205 26.17116
# Shear Modulus (GPa) = 59.13882 28.29573 43.71728
#
# Velocity S-wave (km/s) = 4.91066 3.39676 4.22212
# Velocity P-wave (km/s) = 6.33762 5.35859 5.86856
#
# Compressibility (1/GPa) = 0.05088989
#
# Stress axis : x y z
#
# Youngs Moduli (GPa) = 102.86839 36.39085 149.81114
#
# Poissons Ratio (x) = -0.14616 0.14468
# Poissons Ratio (y) = -0.41316 -0.06839
# Poissons Ratio (z) = 0.09934 -0.01661
#
# Static dielectric constant tensor:
#      x y z
#    x 2.081800 0.000000 0.000000 
#    y 0.000000 1.970850 0.000000 
#    z 0.000000 0.000000 2.045560 
# 
# From -- ./inp_files/27581.got.cif
#   From: 2010.05.17/outbox.cif.g08.bks.cpg/sg54_14_cif.got.tgz:27581.got - 2010.06.03 13:09:01.
