data_PCOD9420026
_publ_section_title
;
Structure prediction by ZEFSAII (Michael W. Deem and Ramdas Pophale) SiO2 
 PCOD9420026
Probable space group: P M N A
;
_chemical_formula_sum "Si O2"
_cell_formula_units_Z 40
_cell_length_a 23.040043
_cell_length_b 7.580811
_cell_length_c 9.357855
_cell_angle_alpha 90.000000
_cell_angle_beta 90.000000
_cell_angle_gamma 90.000000
_cell_volume 1634.463648
_symmetry_space_group_name_H-M "P M N A"
_symmetry_group_IT_number 53
_symmetry_cell_setting 'orthorhombic'
loop_
_space_group_symop_operation_xyz
x,y,z
1/2-x,-y,1/2+z
x,-y,-z
1/2-x,y,1/2-z
-x,-y,-z
1/2+x,y,1/2-z
-x,y,z
1/2+x,-y,1/2+z
loop_
_atom_site_type_symbol
_atom_site_label
_atom_site_fract_x
_atom_site_fract_y
_atom_site_fract_z
Si Si1 0.159813 0.183347 0.080430
Si Si2 0.931104 0.625435 0.723629
Si Si3 0.257251 0.621137 0.110299
Si Si4 0.432205 0.242426 0.902966
Si Si5 0.325680 0.959441 0.159302
O O1 0.107982 0.300388 0.147465
O O2 0.188840 0.099667 0.221941
O O3 0.203450 0.296518 0.980053
O O4 0.141706 0.000000 0.000000
O O5 0.923030 0.416868 0.693312
O O6 0.916681 0.711947 0.568067
O O7 0.000000 0.654770 0.748938
O O8 0.250000 0.500528 0.250000
O O9 0.297358 0.769868 0.179134
O O10 0.291225 0.500000 0.000000
O O11 0.500000 0.200371 0.900151
O O12 0.393831 0.083431 0.845028
O O13 0.305356 0.000000 0.000000
#
# Coordination Sequence:
#
# PCOD9420026 Si02
#       5
#     8   8   8   8   8
#     4  12  26  48  71 105 151 186 234 299 363 424
#     4   9  20  41  72 107 147 195 239 288 349 424
#     4  12  31  50  72 100 140 194 246 298 362 437
#     4   9  20  41  71 108 147 190 244 289 342 426
#     4  12  26  43  73 109 144 189 238 298 357 420
#
# _framework density 24.472861000000002
#
# number of rings (size 3 to 8) (size 9 to 14) (size 15 to 20)
#    0.000    1.200    4.000    1.800    8.400    1.600 
#    0.000    0.000    0.000    3.000    0.000    0.000 
#    0.000    0.000    0.000    0.000    0.000    0.000 
#
# Total GULP energy -223616.601350 kJ/mol
# GULP energy per Si atom -5590.415034 kJ/mol
# Density = 2.441716 g / cm^3
# Si number density = 24.472861 Si / 1000 Ang^3
#
#
#
# Elastic Constant Matrix: (Units=GPa)
#
#
# Indices 1 2 3 4 5 6 
#
# 1 125.2662 48.9002 58.0306 0.0000 0.0000 0.0000
# 2 48.9002 97.8617 43.7348 0.0000 0.0000 0.0000
# 3 58.0306 43.7348 165.7338 0.0000 0.0000 0.0000
# 4 0.0000 0.0000 0.0000 48.6668 0.0000 0.0000
# 5 0.0000 0.0000 0.0000 0.0000 33.8758 0.0000
# 6 0.0000 0.0000 0.0000 0.0000 0.0000 20.3255
#
#
#
# Elastic Compliance Matrix: (Units=1/GPa)
#
#
# Indices 1 2 3 4 5 6 
#
# 1 0.010884 -0.004235 -0.002693 0.000000 0.000000 0.000000
# 2 -0.004235 0.013232 -0.002009 0.000000 0.000000 0.000000
# 3 -0.002693 -0.002009 0.007507 0.000000 0.000000 0.000000
# 4 0.000000 0.000000 0.000000 0.020548 0.000000 0.000000
# 5 0.000000 0.000000 0.000000 0.000000 0.029520 0.000000
# 6 0.000000 0.000000 0.000000 0.000000 0.000000 0.049199
#
#
# Mechanical properties :
#
#
# Convention : Reuss Voigt Hill
#
# Bulk Modulus (GPa) = 72.73390 76.68811 74.71100
# Shear Modulus (GPa) = 32.60562 36.45335 34.52949
#
# Velocity S-wave (km/s) = 3.65405 3.86365 3.76031
# Velocity P-wave (km/s) = 6.89837 7.16294 7.03190
#
# Compressibility (1/GPa) = 0.01374875
#
# Stress axis : x y z
#
# Youngs Moduli (GPa) = 91.87876 75.57176 133.20876
#
# Poissons Ratio (x) = 0.32003 0.35879
# Poissons Ratio (y) = 0.38909 0.26762
# Poissons Ratio (z) = 0.24747 0.15183
#
# Static dielectric constant tensor:
#      x y z
#    x 2.000180 0.000000 0.000000 
#    y 0.000000 2.114860 0.000000 
#    z 0.000000 0.000000 2.520080 
# 
# From -- ./inp_files/11568.got.cif
#   From: 2010.05.17/outbox.cif.g08.bks.cpg/sg53_6_cif.got.tgz:11568.got - 2010.06.03 12:45:16.
