data_PCOD9420877
_publ_section_title
;
Structure prediction by ZEFSAII (Michael W. Deem and Ramdas Pophale) SiO2 
 PCOD9420877
Probable space group: P C C A
;
_chemical_formula_sum "Si O2"
_cell_formula_units_Z 48
_cell_length_a 8.194735
_cell_length_b 12.471903
_cell_length_c 19.421151
_cell_angle_alpha 90.000000
_cell_angle_beta 90.000000
_cell_angle_gamma 90.000000
_cell_volume 1984.918152
_symmetry_space_group_name_H-M "P C C A"
_symmetry_group_IT_number 54
_symmetry_cell_setting 'orthorhombic'
loop_
_space_group_symop_operation_xyz
x,y,z
1/2-x,-y,z
1/2+x,-y,1/2-z
-x,y,1/2-z
-x,-y,-z
1/2+x,y,-z
1/2-x,y,1/2+z
x,-y,1/2+z
loop_
_atom_site_type_symbol
_atom_site_label
_atom_site_fract_x
_atom_site_fract_y
_atom_site_fract_z
Si Si1 0.185573 0.901018 0.223717
Si Si2 0.769487 0.387044 0.007348
Si Si3 0.234269 0.660381 0.202527
Si Si4 0.790689 0.120544 0.128334
Si Si5 0.944006 0.290451 0.410769
Si Si6 0.887293 0.659114 0.146616
O O1 0.209054 0.787534 0.190644
O O2 0.305588 0.898297 0.289825
O O3 0.000000 0.908906 0.250000
O O4 0.250000 0.000000 0.179889
O O5 0.750000 0.500000 0.969635
O O6 0.662485 0.396195 0.076690
O O7 0.943268 0.361034 0.039412
O O8 0.719032 0.289897 0.956964
O O9 0.398223 0.646093 0.159377
O O10 0.222759 0.640640 0.284379
O O11 0.066072 0.620594 0.169162
O O12 0.648943 0.213721 0.127473
O O13 0.951899 0.182502 0.102113
O O14 0.750000 0.000000 0.100344
#
# Coordination Sequence:
#
# PCOD9420877 Si02
#       6
#     8   8   8   8   8   8
#     4  10  19  31  56  94 135 169 209 251 303 373
#     4  11  24  45  65  88 117 163 219 274 327 395
#     4  10  19  36  58  93 128 163 199 263 319 371
#     4   9  19  35  55  90 129 165 210 252 304 377
#     4  11  24  39  67  90 123 167 213 265 319 389
#     4   9  19  39  61  89 129 164 208 257 320 379
#
# _framework density 24.182355999999999
#
# number of rings (size 3 to 8) (size 9 to 14) (size 15 to 20)
#    0.000    2.000    3.333    1.500    4.667    5.333 
#    0.000    7.500    0.000    5.000    0.000    0.000 
#    0.000    0.000    0.000    0.000    0.000    0.000 
#
# Total GULP energy -267379.009881 kJ/mol
# GULP energy per Si atom -5570.396039 kJ/mol
# Density = 2.412732 g / cm^3
# Si number density = 24.182356 Si / 1000 Ang^3
#
#
#
# Elastic Constant Matrix: (Units=GPa)
#
#
# Indices 1 2 3 4 5 6 
#
# 1 88.4794 30.8974 50.2348 0.0000 0.0000 0.0000
# 2 30.8974 111.7523 26.0028 0.0000 0.0000 0.0000
# 3 50.2348 26.0028 107.7655 0.0000 0.0000 0.0000
# 4 0.0000 0.0000 0.0000 -3.0421 0.0000 0.0000
# 5 0.0000 0.0000 0.0000 0.0000 46.4793 0.0000
# 6 0.0000 0.0000 0.0000 0.0000 0.0000 17.9126
#
#
#
# Elastic Compliance Matrix: (Units=1/GPa)
#
#
# Indices 1 2 3 4 5 6 
#
# 1 0.016202 -0.002884 -0.006857 0.000000 0.000000 0.000000
# 2 -0.002884 0.009994 -0.001067 0.000000 0.000000 0.000000
# 3 -0.006857 -0.001067 0.012733 0.000000 0.000000 0.000000
# 4 0.000000 0.000000 0.000000 -0.328716 0.000000 0.000000
# 5 0.000000 0.000000 0.000000 0.000000 0.021515 0.000000
# 6 0.000000 0.000000 0.000000 0.000000 0.000000 0.055827
#
#
# Mechanical properties :
#
#
# Convention : Reuss Voigt Hill
#
# Bulk Modulus (GPa) = 57.75817 58.02968 57.89393
# Shear Modulus (GPa) = -27.01853 25.66076 -0.67889
#
# Velocity S-wave (km/s) = -3.34620 3.26104 -0.53042
# Velocity P-wave (km/s) = 3.00114 6.18288 4.85977
#
# Compressibility (1/GPa) = 0.01731357
#
# Stress axis : x y z
#
# Youngs Moduli (GPa) = 61.72012 100.05943 78.53544
#
# Poissons Ratio (x) = 0.28859 0.53849
# Poissons Ratio (y) = 0.17801 0.08380
# Poissons Ratio (z) = 0.42320 0.10677
#
# Static dielectric constant tensor:
#      x y z
#    x 2.339340 0.000000 0.000000 
#    y 0.000000 2.097850 0.000000 
#    z 0.000000 0.000000 1.951520 
# 
# From -- ./inp_files/20410.got.cif
#   From: 2010.05.17/outbox.cif.g08.bks.cpg/sg54_11_cif.got.tgz:20410.got - 2010.06.03 13:09:01.
