data_PCOD9420789
_publ_section_title
;
Structure prediction by ZEFSAII (Michael W. Deem and Ramdas Pophale) SiO2 
 PCOD9420789
Probable space group: P C C A
;
_chemical_formula_sum "Si O2"
_cell_formula_units_Z 28
_cell_length_a 13.617121
_cell_length_b 7.336538
_cell_length_c 12.395520
_cell_angle_alpha 90.000000
_cell_angle_beta 90.000000
_cell_angle_gamma 90.000000
_cell_volume 1238.343755
_symmetry_space_group_name_H-M "P C C A"
_symmetry_group_IT_number 54
_symmetry_cell_setting 'orthorhombic'
loop_
_space_group_symop_operation_xyz
x,y,z
1/2-x,-y,z
1/2+x,-y,1/2-z
-x,y,1/2-z
-x,-y,-z
1/2+x,y,-z
1/2-x,y,1/2+z
x,-y,1/2+z
loop_
_atom_site_type_symbol
_atom_site_label
_atom_site_fract_x
_atom_site_fract_y
_atom_site_fract_z
Si Si1 0.957893 0.363663 0.635373
Si Si2 0.838494 0.861318 0.754830
Si Si3 0.502570 0.216380 0.587176
Si Si4 0.250000 0.500000 0.302749
O O1 0.001557 0.567480 0.619023
O O2 0.000000 0.298530 0.750000
O O3 0.989866 0.228437 0.540403
O O4 0.840331 0.402550 0.634598
O O5 0.915481 0.884668 0.850742
O O6 0.796256 0.658756 0.767489
O O7 0.897431 0.856559 0.641175
O O8 0.750000 0.000000 0.754676
#
# Coordination Sequence:
#
# PCOD9420789 Si02
#       4
#     8   8   8   4
#     4  10  18  38  66  97 137 180 225 290 345 429
#     4  10  20  41  65  95 137 169 229 293 335 420
#     4   9  19  39  63 100 135 174 232 283 356 413
#     4  10  20  38  64 100 126 184 222 268 362 408
#
# _framework density 22.610845000000001
#
# number of rings (size 3 to 8) (size 9 to 14) (size 15 to 20)
#    0.000    2.286    5.714    0.000    0.000    1.143 
#   10.286    2.857    0.000    1.714    0.000    0.000 
#    0.000    0.000    0.000    0.000    0.000    0.000 
#
# Total GULP energy -156448.090779 kJ/mol
# GULP energy per Si atom -5587.431814 kJ/mol
# Density = 2.255938 g / cm^3
# Si number density = 22.610845 Si / 1000 Ang^3
#
#
#
# Elastic Constant Matrix: (Units=GPa)
#
#
# Indices 1 2 3 4 5 6 
#
# 1 173.8251 58.3778 75.6668 0.0000 0.0000 0.0000
# 2 58.3778 72.4622 33.3205 0.0000 0.0000 0.0000
# 3 75.6668 33.3205 175.8895 0.0000 0.0000 0.0000
# 4 0.0000 0.0000 0.0000 -0.7837 0.0000 0.0000
# 5 0.0000 0.0000 0.0000 0.0000 -1.5463 0.0000
# 6 0.0000 0.0000 0.0000 0.0000 0.0000 48.9365
#
#
#
# Elastic Compliance Matrix: (Units=1/GPa)
#
#
# Indices 1 2 3 4 5 6 
#
# 1 0.008933 -0.005947 -0.002716 0.000000 0.000000 0.000000
# 2 -0.005947 0.019077 -0.001055 0.000000 0.000000 0.000000
# 3 -0.002716 -0.001055 0.007054 0.000000 0.000000 0.000000
# 4 0.000000 0.000000 0.000000 -1.275927 0.000000 0.000000
# 5 0.000000 0.000000 0.000000 0.000000 -0.646694 0.000000
# 6 0.000000 0.000000 0.000000 0.000000 0.000000 0.020435
#
#
# Mechanical properties :
#
#
# Convention : Reuss Voigt Hill
#
# Bulk Modulus (GPa) = 63.99760 84.10076 74.04918
# Shear Modulus (GPa) = -2.71374 26.30874 11.79750
#
# Velocity S-wave (km/s) = -1.09672 3.41478 2.28669
# Velocity P-wave (km/s) = 5.17317 7.26796 6.30813
#
# Compressibility (1/GPa) = 0.01562558
#
# Stress axis : x y z
#
# Youngs Moduli (GPa) = 111.94893 52.41902 141.76817
#
# Poissons Ratio (x) = 0.31176 0.38506
# Poissons Ratio (y) = 0.66581 0.14962
# Poissons Ratio (z) = 0.30406 0.05532
#
# Static dielectric constant tensor:
#      x y z
#    x 1.872670 0.000000 0.000000 
#    y 0.000000 1.868000 0.000000 
#    z 0.000000 0.000000 1.832590 
# 
# From -- ./inp_files/12103.got.cif
#   From: 2010.05.17/outbox.cif.g08.bks.cpg/sg54_7_cif.got.tgz:12103.got - 2010.06.03 13:09:01.
