data_PCOD9420784
_publ_section_title
;
Structure prediction by ZEFSAII (Michael W. Deem and Ramdas Pophale) SiO2 
 PCOD9420784
Probable space group: P C C A
;
_chemical_formula_sum "Si O2"
_cell_formula_units_Z 52
_cell_length_a 10.525567
_cell_length_b 8.238616
_cell_length_c 24.531905
_cell_angle_alpha 90.000000
_cell_angle_beta 90.000000
_cell_angle_gamma 90.000000
_cell_volume 2127.311242
_symmetry_space_group_name_H-M "P C C A"
_symmetry_group_IT_number 54
_symmetry_cell_setting 'orthorhombic'
loop_
_space_group_symop_operation_xyz
x,y,z
1/2-x,-y,z
1/2+x,-y,1/2-z
-x,y,1/2-z
-x,-y,-z
1/2+x,y,-z
1/2-x,y,1/2+z
x,-y,1/2+z
loop_
_atom_site_type_symbol
_atom_site_label
_atom_site_fract_x
_atom_site_fract_y
_atom_site_fract_z
Si Si1 0.422037 0.340746 0.441976
Si Si2 0.962708 0.978151 0.601549
Si Si3 0.250000 0.000000 0.082352
Si Si4 0.678875 0.664432 0.759372
Si Si5 0.011560 0.533228 0.330672
Si Si6 0.842292 0.750924 0.508056
Si Si7 0.402883 0.826827 0.289489
O O1 0.441654 0.464683 0.392170
O O2 0.540991 0.350121 0.483224
O O3 0.281132 0.335219 0.466738
O O4 0.436971 0.163070 0.414177
O O5 0.115538 0.958953 0.611087
O O6 0.909680 0.870837 0.551460
O O7 0.889027 0.920452 0.654744
O O8 0.214483 0.853220 0.042065
O O9 0.750000 0.500000 0.744236
O O10 0.583490 0.661584 0.708368
O O11 0.626170 0.614542 0.818966
O O12 0.779007 0.802157 0.747399
O O13 0.033362 0.350663 0.306939
O O14 0.500000 0.916177 0.250000
#
# Coordination Sequence:
#
# PCOD9420784 Si02
#       7
#     8   8   4   8   8   8   8
#     4  11  22  38  69  95 127 170 217 267 320 395
#     4  11  22  37  64  94 123 169 217 267 323 384
#     4  10  18  38  64  86 126 170 210 250 322 398
#     4   9  17  38  62  85 118 171 219 247 313 398
#     4  10  20  39  66  89 123 173 216 255 328 389
#     4  11  19  40  64  93 126 169 212 261 332 390
#     4  11  22  40  64  89 127 169 213 263 327 388
#
# _framework density 24.443999999999999
#
# number of rings (size 3 to 8) (size 9 to 14) (size 15 to 20)
#    0.000    1.538    6.154    1.846    0.000    2.462 
#    2.769    0.769    6.769    0.000    0.000    0.000 
#    0.000    0.000    0.000    0.000    0.000    0.000 
#
# Total GULP energy -290188.594642 kJ/mol
# GULP energy per Si atom -5580.549897 kJ/mol
# Density = 2.438836 g / cm^3
# Si number density = 24.444000 Si / 1000 Ang^3
#
#
#
# Elastic Constant Matrix: (Units=GPa)
#
#
# Indices 1 2 3 4 5 6 
#
# 1 119.8062 30.6520 20.8862 0.0000 0.0000 0.0000
# 2 30.6520 68.0649 14.6565 0.0000 0.0000 0.0000
# 3 20.8862 14.6565 85.6178 0.0000 0.0000 0.0000
# 4 0.0000 0.0000 0.0000 3.6067 0.0000 0.0000
# 5 0.0000 0.0000 0.0000 0.0000 32.3135 0.0000
# 6 0.0000 0.0000 0.0000 0.0000 0.0000 -1.2689
#
#
#
# Elastic Compliance Matrix: (Units=1/GPa)
#
#
# Indices 1 2 3 4 5 6 
#
# 1 0.009659 -0.003990 -0.001673 0.000000 0.000000 0.000000
# 2 -0.003990 0.016902 -0.001920 0.000000 0.000000 0.000000
# 3 -0.001673 -0.001920 0.012417 0.000000 0.000000 0.000000
# 4 0.000000 0.000000 0.000000 0.277260 0.000000 0.000000
# 5 0.000000 0.000000 0.000000 0.000000 0.030947 0.000000
# 6 0.000000 0.000000 0.000000 0.000000 0.000000 -0.788082
#
#
# Mechanical properties :
#
#
# Convention : Reuss Voigt Hill
#
# Bulk Modulus (GPa) = 41.99601 45.09759 43.54680
# Shear Modulus (GPa) = -11.96762 20.74989 4.39113
#
# Velocity S-wave (km/s) = -2.21508 2.91671 1.34175
# Velocity P-wave (km/s) = 3.26737 5.46189 4.50045
#
# Compressibility (1/GPa) = 0.02381178
#
# Stress axis : x y z
#
# Youngs Moduli (GPa) = 103.52767 59.16471 80.53650
#
# Poissons Ratio (x) = 0.23604 0.13477
# Poissons Ratio (y) = 0.41303 0.15464
# Poissons Ratio (z) = 0.17324 0.11360
#
# Static dielectric constant tensor:
#      x y z
#    x 3.191250 0.000000 0.000000 
#    y 0.000000 1.954020 0.000000 
#    z 0.000000 0.000000 1.968470 
# 
# From -- ./inp_files/26260.got.cif
#   From: 2010.05.17/outbox.cif.g08.bks.cpg/sg54_14_cif.got.tgz:26260.got - 2010.06.03 13:09:01.
