data_PCOD9420928
_publ_section_title
;
Structure prediction by ZEFSAII (Michael W. Deem and Ramdas Pophale) SiO2 
 PCOD9420928
Probable space group: P C C A
;
_chemical_formula_sum "Si O2"
_cell_formula_units_Z 48
_cell_length_a 12.678995
_cell_length_b 9.623922
_cell_length_c 22.056201
_cell_angle_alpha 90.000000
_cell_angle_beta 90.000000
_cell_angle_gamma 90.000000
_cell_volume 2691.334235
_symmetry_space_group_name_H-M "P C C A"
_symmetry_group_IT_number 54
_symmetry_cell_setting 'orthorhombic'
loop_
_space_group_symop_operation_xyz
x,y,z
1/2-x,-y,z
1/2+x,-y,1/2-z
-x,y,1/2-z
-x,-y,-z
1/2+x,y,-z
1/2-x,y,1/2+z
x,-y,1/2+z
loop_
_atom_site_type_symbol
_atom_site_label
_atom_site_fract_x
_atom_site_fract_y
_atom_site_fract_z
Si Si1 0.953935 0.842056 0.960635
Si Si2 0.469786 0.830321 0.819470
Si Si3 0.782997 0.657389 0.129966
Si Si4 0.223297 0.657532 0.516822
Si Si5 0.397760 0.134360 0.068013
Si Si6 0.850125 0.085961 0.124270
O O1 0.887253 0.703605 0.953850
O O2 0.059506 0.863338 0.921722
O O3 0.878300 0.971496 0.944416
O O4 0.993522 0.846685 0.029750
O O5 0.500000 0.815719 0.750000
O O6 0.394242 0.706361 0.842727
O O7 0.572120 0.838567 0.862736
O O8 0.405661 0.974459 0.831692
O O9 0.750000 0.500000 0.144839
O O10 0.699724 0.774519 0.151863
O O11 0.783755 0.669631 0.056373
O O12 0.250000 0.500000 0.531576
O O13 0.312642 0.761215 0.541434
O O14 0.750000 0.000000 0.096591
#
# Coordination Sequence:
#
# PCOD9420928 Si02
#       6
#     8   8   8   8   8   8
#     4  10  19  32  56  83 112 144 185 237 287 334
#     4  10  21  39  58  82 112 153 197 237 276 333
#     4  10  20  35  58  85 112 150 190 228 287 346
#     4  11  22  33  52  89 125 149 182 235 293 352
#     4  10  20  33  56  82 113 146 188 234 288 330
#     4   9  19  36  59  83 109 144 191 240 285 342
#
# _framework density 17.83502
#
# number of rings (size 3 to 8) (size 9 to 14) (size 15 to 20)
#    0.000    2.000    3.333    0.500    2.333    2.000 
#    0.000   11.667    0.000    0.000    0.000    0.000 
#    0.000    0.000    0.000    0.000    0.000    0.000 
#
# Total GULP energy -267543.611910 kJ/mol
# GULP energy per Si atom -5573.825248 kJ/mol
# Density = 1.779443 g / cm^3
# Si number density = 17.835020 Si / 1000 Ang^3
#
#
#
# Elastic Constant Matrix: (Units=GPa)
#
#
# Indices 1 2 3 4 5 6 
#
# 1 75.9659 50.7862 37.9008 0.0000 0.0000 0.0000
# 2 50.7862 125.4918 31.2075 0.0000 0.0000 0.0000
# 3 37.9008 31.2075 102.9655 0.0000 0.0000 0.0000
# 4 0.0000 0.0000 0.0000 13.2904 0.0000 0.0000
# 5 0.0000 0.0000 0.0000 0.0000 18.8471 0.0000
# 6 0.0000 0.0000 0.0000 0.0000 0.0000 24.4715
#
#
#
# Elastic Compliance Matrix: (Units=1/GPa)
#
#
# Indices 1 2 3 4 5 6 
#
# 1 0.020532 -0.006954 -0.005450 0.000000 0.000000 0.000000
# 2 -0.006954 0.010973 -0.000766 0.000000 0.000000 0.000000
# 3 -0.005450 -0.000766 0.011950 0.000000 0.000000 0.000000
# 4 0.000000 0.000000 0.000000 0.075242 0.000000 0.000000
# 5 0.000000 0.000000 0.000000 0.000000 0.053059 0.000000
# 6 0.000000 0.000000 0.000000 0.000000 0.000000 0.040864
#
#
# Mechanical properties :
#
#
# Convention : Reuss Voigt Hill
#
# Bulk Modulus (GPa) = 58.42691 60.46802 59.44746
# Shear Modulus (GPa) = 20.43604 23.62370 22.02987
#
# Velocity S-wave (km/s) = 3.38869 3.64341 3.51836
# Velocity P-wave (km/s) = 6.93843 7.18867 7.06466
#
# Compressibility (1/GPa) = 0.01711540
#
# Stress axis : x y z
#
# Youngs Moduli (GPa) = 48.70484 91.12944 83.67971
#
# Poissons Ratio (x) = 0.63370 0.45605
# Poissons Ratio (y) = 0.33869 0.06412
# Poissons Ratio (z) = 0.26544 0.06983
#
# Static dielectric constant tensor:
#      x y z
#    x 1.642420 0.000000 0.000000 
#    y 0.000000 1.630430 0.000000 
#    z 0.000000 0.000000 1.596500 
# 
# From -- ./inp_files/24072.got.cif
#   From: 2010.05.17/outbox.cif.g08.bks.cpg/sg54_13_cif.got.tgz:24072.got - 2010.06.03 13:09:01.
