data_PCOD9420753
_publ_section_title
;
Structure prediction by ZEFSAII (Michael W. Deem and Ramdas Pophale) SiO2 
 PCOD9420753
Probable space group: P C C A
;
_chemical_formula_sum "Si O2"
_cell_formula_units_Z 60
_cell_length_a 9.030572
_cell_length_b 11.854602
_cell_length_c 24.055947
_cell_angle_alpha 90.000000
_cell_angle_beta 90.000000
_cell_angle_gamma 90.000000
_cell_volume 2575.281426
_symmetry_space_group_name_H-M "P C C A"
_symmetry_group_IT_number 54
_symmetry_cell_setting 'orthorhombic'
loop_
_space_group_symop_operation_xyz
x,y,z
1/2-x,-y,z
1/2+x,-y,1/2-z
-x,y,1/2-z
-x,-y,-z
1/2+x,y,-z
1/2-x,y,1/2+z
x,-y,1/2+z
loop_
_atom_site_type_symbol
_atom_site_label
_atom_site_fract_x
_atom_site_fract_y
_atom_site_fract_z
Si Si1 0.123937 0.203172 0.097494
Si Si2 0.340586 0.739526 0.978293
Si Si3 0.250000 0.500000 0.478123
Si Si4 0.835610 0.606308 0.728802
Si Si5 0.074182 0.694151 0.116113
Si Si6 0.514133 0.552479 0.114760
Si Si7 0.875106 0.199065 0.709345
Si Si8 0.181115 0.113279 0.389339
O O1 0.290464 0.217707 0.119524
O O2 0.065967 0.329273 0.109389
O O3 0.995303 0.120793 0.120099
O O4 0.133343 0.182686 0.031264
O O5 0.286516 0.620155 0.004598
O O6 0.487076 0.719625 0.941508
O O7 0.224358 0.788377 0.933404
O O8 0.110055 0.473763 0.439465
O O9 0.750000 0.500000 0.754119
O O10 0.869605 0.574685 0.664676
O O11 0.736968 0.715606 0.739514
O O12 0.000000 0.623056 0.750000
O O13 0.088796 0.558363 0.120936
O O14 0.965651 0.722788 0.166665
O O15 0.771431 0.127488 0.668232
O O16 0.000000 0.147325 0.750000
O O17 0.250000 0.000000 0.414596
#
# Coordination Sequence:
#
# PCOD9420753 Si02
#       8
#     8   8   4   8   8   8   8   8
#     4  12  23  38  64  99 130 175 230 268 334 411
#     4  10  22  40  64  99 135 178 218 271 337 410
#     4  10  18  36  64  86 138 178 210 260 334 400
#     4  12  23  38  63  96 135 183 222 271 340 420
#     4  10  23  37  60  95 141 172 210 271 331 406
#     4  11  20  36  56  90 140 175 212 264 324 404
#     4  11  24  46  65  91 128 172 223 286 346 403
#     4  11  25  49  71  92 130 176 230 292 352 408
#
# _framework density 23.298424000000001
#
# number of rings (size 3 to 8) (size 9 to 14) (size 15 to 20)
#    0.000    1.067    4.667    2.400    3.733    1.600 
#    0.000    4.667    0.000    0.000    0.000    0.000 
#    0.000    0.000    0.000    0.000    0.000    0.000 
#
# Total GULP energy -335063.959904 kJ/mol
# GULP energy per Si atom -5584.399332 kJ/mol
# Density = 2.324540 g / cm^3
# Si number density = 23.298424 Si / 1000 Ang^3
#
#
#
# Elastic Constant Matrix: (Units=GPa)
#
#
# Indices 1 2 3 4 5 6 
#
# 1 126.4709 13.0653 6.6252 0.0000 0.0000 0.0000
# 2 13.0653 52.3617 -10.9806 0.0000 0.0000 0.0000
# 3 6.6252 -10.9806 54.1562 0.0000 0.0000 0.0000
# 4 0.0000 0.0000 0.0000 0.5069 0.0000 0.0000
# 5 0.0000 0.0000 0.0000 0.0000 25.9691 0.0000
# 6 0.0000 0.0000 0.0000 0.0000 0.0000 23.2559
#
#
#
# Elastic Compliance Matrix: (Units=1/GPa)
#
#
# Indices 1 2 3 4 5 6 
#
# 1 0.008229 -0.002365 -0.001486 0.000000 0.000000 0.000000
# 2 -0.002365 0.020626 0.004471 0.000000 0.000000 0.000000
# 3 -0.001486 0.004471 0.019554 0.000000 0.000000 0.000000
# 4 0.000000 0.000000 0.000000 1.972826 0.000000 0.000000
# 5 0.000000 0.000000 0.000000 0.000000 0.038507 0.000000
# 6 0.000000 0.000000 0.000000 0.000000 0.000000 0.043000
#
#
# Mechanical properties :
#
#
# Convention : Reuss Voigt Hill
#
# Bulk Modulus (GPa) = 20.14157 27.82319 23.98238
# Shear Modulus (GPa) = 2.36066 24.89829 13.62948
#
# Velocity S-wave (km/s) = 1.00768 3.27260 2.42129
# Velocity P-wave (km/s) = 3.16508 5.12327 4.25826
#
# Compressibility (1/GPa) = 0.04964856
#
# Stress axis : x y z
#
# Youngs Moduli (GPa) = 121.51939 48.48316 51.14169
#
# Poissons Ratio (x) = 0.11466 0.07601
# Poissons Ratio (y) = 0.28740 -0.22867
# Poissons Ratio (z) = 0.18061 -0.21678
#
# Static dielectric constant tensor:
#      x y z
#    x 1.939830 0.000000 0.000000 
#    y 0.000000 1.880330 0.000000 
#    z 0.000000 0.000000 1.965540 
# 
# From -- ./inp_files/25941.got.cif
#   From: 2010.05.17/outbox.cif.g08.bks.cpg/sg54_13_cif.got.tgz:25941.got - 2010.06.03 13:09:01.
