data_PCOD9420416
_publ_section_title
;
Structure prediction by ZEFSAII (Michael W. Deem and Ramdas Pophale) SiO2 
 PCOD9420416
Probable space group: P C C A
;
_chemical_formula_sum "Si O2"
_cell_formula_units_Z 56
_cell_length_a 5.369189
_cell_length_b 19.559216
_cell_length_c 25.481147
_cell_angle_alpha 90.000000
_cell_angle_beta 90.000000
_cell_angle_gamma 90.000000
_cell_volume 2675.956861
_symmetry_space_group_name_H-M "P C C A"
_symmetry_group_IT_number 54
_symmetry_cell_setting 'orthorhombic'
loop_
_space_group_symop_operation_xyz
x,y,z
1/2-x,-y,z
1/2+x,-y,1/2-z
-x,y,1/2-z
-x,-y,-z
1/2+x,y,-z
1/2-x,y,1/2+z
x,-y,1/2+z
loop_
_atom_site_type_symbol
_atom_site_label
_atom_site_fract_x
_atom_site_fract_y
_atom_site_fract_z
Si Si1 0.999909 0.044631 0.355633
Si Si2 0.234934 0.349724 0.780355
Si Si3 0.684545 0.709780 0.018727
Si Si4 0.321488 0.390413 0.894910
Si Si5 0.825501 0.571090 0.448916
Si Si6 0.514436 0.078382 0.976548
Si Si7 0.000000 0.219568 0.750000
Si Si8 0.000000 0.866668 0.750000
O O1 0.967284 0.078550 0.413384
O O2 0.037749 0.090499 0.303666
O O3 0.750000 0.000000 0.347161
O O4 0.250000 0.000000 0.360817
O O5 0.500000 0.342009 0.750000
O O6 0.291407 0.387505 0.833511
O O7 0.000000 0.383692 0.750000
O O8 0.111055 0.274721 0.791712
O O9 0.697962 0.685482 0.078590
O O10 0.428917 0.744478 0.003344
O O11 0.666481 0.636369 0.987140
O O12 0.594359 0.416244 0.910129
O O13 0.086733 0.430364 0.919100
O O14 0.750000 0.500000 0.475791
O O15 0.756977 0.109116 0.003594
O O16 0.500000 0.000000 0.000000
O O17 0.755239 0.175339 0.761582
#
# Coordination Sequence:
#
# PCOD9420416 Si02
#       8
#     8   8   8   8   8   8   4   4
#     4  12  21  34  53  84 124 161 181 219 264 313
#     4  10  20  38  63  77  94 124 181 249 268 316
#     4   8  16  27  42  71 107 131 168 198 247 308
#     4  10  19  31  52  78  98 135 182 213 260 308
#     4  10  19  30  48  78 119 145 165 201 256 333
#     4  10  16  30  50  72 109 147 207 224 228 284
#     4  10  22  43  58  80 102 131 184 238 300 322
#     4  12  24  37  56  86 120 141 180 230 290 350
#
# _framework density 20.927095000000001
#
# number of rings (size 3 to 8) (size 9 to 14) (size 15 to 20)
#    0.429    1.429    3.571    2.571    0.000    5.143 
#    0.000    0.000    0.000    8.571    0.000   18.000 
#    0.000    0.000    0.000    0.000    0.000    0.000 
#
# Total GULP energy -311938.580557 kJ/mol
# GULP energy per Si atom -5570.331796 kJ/mol
# Density = 2.087946 g / cm^3
# Si number density = 20.927095 Si / 1000 Ang^3
#
#
#
# Elastic Constant Matrix: (Units=GPa)
#
#
# Indices 1 2 3 4 5 6 
#
# 1 203.0868 22.6470 39.1518 0.0000 0.0000 0.0000
# 2 22.6470 39.4671 19.1526 0.0000 0.0000 0.0000
# 3 39.1518 19.1526 131.4333 0.0000 0.0000 0.0000
# 4 0.0000 0.0000 0.0000 15.2555 0.0000 0.0000
# 5 0.0000 0.0000 0.0000 0.0000 20.9746 0.0000
# 6 0.0000 0.0000 0.0000 0.0000 0.0000 21.4876
#
#
#
# Elastic Compliance Matrix: (Units=1/GPa)
#
#
# Indices 1 2 3 4 5 6 
#
# 1 0.005447 -0.002516 -0.001256 0.000000 0.000000 0.000000
# 2 -0.002516 0.028428 -0.003393 0.000000 0.000000 0.000000
# 3 -0.001256 -0.003393 0.008477 0.000000 0.000000 0.000000
# 4 0.000000 0.000000 0.000000 0.065550 0.000000 0.000000
# 5 0.000000 0.000000 0.000000 0.000000 0.047677 0.000000
# 6 0.000000 0.000000 0.000000 0.000000 0.000000 0.046538
#
#
# Mechanical properties :
#
#
# Convention : Reuss Voigt Hill
#
# Bulk Modulus (GPa) = 35.68662 59.54335 47.61498
# Shear Modulus (GPa) = 22.14473 31.07924 26.61199
#
# Velocity S-wave (km/s) = 3.25650 3.85791 3.56989
# Velocity P-wave (km/s) = 5.58835 6.95407 6.30828
#
# Compressibility (1/GPa) = 0.02802171
#
# Stress axis : x y z
#
# Youngs Moduli (GPa) = 183.59819 35.17675 117.96684
#
# Poissons Ratio (x) = 0.08850 0.14815
# Poissons Ratio (y) = 0.46193 0.40027
# Poissons Ratio (z) = 0.23057 0.11936
#
# Static dielectric constant tensor:
#      x y z
#    x 1.823910 0.000000 0.000000 
#    y 0.000000 1.830080 0.000000 
#    z 0.000000 0.000000 1.736840 
# 
# From -- ./inp_files/23007.got.cif
#   From: 2010.05.17/outbox.cif.g08.bks.cpg/sg54_12_cif.got.tgz:23007.got - 2010.06.03 13:09:01.
