data_PCOD9420417
_publ_section_title
;
Structure prediction by ZEFSAII (Michael W. Deem and Ramdas Pophale) SiO2 
 PCOD9420417
Probable space group: P C C A
;
_chemical_formula_sum "Si O2"
_cell_formula_units_Z 56
_cell_length_a 14.848710
_cell_length_b 11.134522
_cell_length_c 15.397637
_cell_angle_alpha 90.000000
_cell_angle_beta 90.000000
_cell_angle_gamma 90.000000
_cell_volume 2545.741955
_symmetry_space_group_name_H-M "P C C A"
_symmetry_group_IT_number 54
_symmetry_cell_setting 'orthorhombic'
loop_
_space_group_symop_operation_xyz
x,y,z
1/2-x,-y,z
1/2+x,-y,1/2-z
-x,y,1/2-z
-x,-y,-z
1/2+x,y,-z
1/2-x,y,1/2+z
x,-y,1/2+z
loop_
_atom_site_type_symbol
_atom_site_label
_atom_site_fract_x
_atom_site_fract_y
_atom_site_fract_z
Si Si1 0.481402 0.474577 0.102840
Si Si2 0.112092 0.303325 0.136080
Si Si3 0.214400 0.378701 0.578364
Si Si4 0.629993 0.854038 0.992379
Si Si5 0.431078 0.252971 0.442708
Si Si6 0.111499 0.022521 0.850836
Si Si7 0.602318 0.975612 0.336865
O O1 0.469211 0.602159 0.150995
O O2 0.383316 0.416020 0.113359
O O3 0.549907 0.365987 0.120450
O O4 0.500000 0.500000 0.000000
O O5 0.212339 0.351908 0.153321
O O6 0.102914 0.168336 0.166966
O O7 0.114346 0.295576 0.030947
O O8 0.250000 0.500000 0.531412
O O9 0.193475 0.259322 0.523973
O O10 0.527370 0.804132 0.976176
O O11 0.644276 0.958366 0.920256
O O12 0.640764 0.915347 0.085819
O O13 0.375290 0.148914 0.397499
O O14 0.144490 0.021489 0.752606
O O15 0.003075 0.009054 0.842998
#
# Coordination Sequence:
#
# PCOD9420417 Si02
#       7
#     8   8   8   8   8   8   8
#     4   8  16  28  52  81 100 135 181 229 271 331
#     4  10  16  30  50  77 109 136 176 220 277 338
#     4   9  19  31  52  79 100 142 187 220 282 341
#     4  10  17  33  54  76 107 140 182 230 273 326
#     4   9  15  30  52  79 103 136 175 223 271 318
#     4  10  18  31  53  81 109 138 184 228 273 334
#     4  10  19  30  53  81 108 144 179 229 285 331
#
# _framework density 21.997516000000001
#
# number of rings (size 3 to 8) (size 9 to 14) (size 15 to 20)
#    0.000    2.571    2.857    0.857    0.000    0.571 
#    0.000    0.000    6.286   16.286    0.000    0.000 
#    0.000    0.000    0.000    0.000    0.000    0.000 
#
# Total GULP energy -311963.556634 kJ/mol
# GULP energy per Si atom -5570.777797 kJ/mol
# Density = 2.194745 g / cm^3
# Si number density = 21.997516 Si / 1000 Ang^3
#
#
#
# Elastic Constant Matrix: (Units=GPa)
#
#
# Indices 1 2 3 4 5 6 
#
# 1 37.5668 -12.4705 -9.8771 0.0000 0.0000 0.0000
# 2 -12.4705 105.6919 3.1653 0.0000 0.0000 0.0000
# 3 -9.8771 3.1653 58.9236 0.0000 0.0000 0.0000
# 4 0.0000 0.0000 0.0000 5.9989 0.0000 0.0000
# 5 0.0000 0.0000 0.0000 0.0000 -3.6686 0.0000
# 6 0.0000 0.0000 0.0000 0.0000 0.0000 33.1523
#
#
#
# Elastic Compliance Matrix: (Units=1/GPa)
#
#
# Indices 1 2 3 4 5 6 
#
# 1 0.028935 0.003274 0.004674 0.000000 0.000000 0.000000
# 2 0.003274 0.009847 0.000020 0.000000 0.000000 0.000000
# 3 0.004674 0.000020 0.017754 0.000000 0.000000 0.000000
# 4 0.000000 0.000000 0.000000 0.166698 0.000000 0.000000
# 5 0.000000 0.000000 0.000000 0.000000 -0.272583 0.000000
# 6 0.000000 0.000000 0.000000 0.000000 0.000000 0.030164
#
#
# Mechanical properties :
#
#
# Convention : Reuss Voigt Hill
#
# Bulk Modulus (GPa) = 13.79838 18.20198 16.00018
# Shear Modulus (GPa) = -456.01926 21.85415 -217.08255
#
# Velocity S-wave (km/s) = -14.41371 3.15538 -9.94481
# Velocity P-wave (km/s) = 16.45358 4.64411 11.16137
#
# Compressibility (1/GPa) = 0.07247229
#
# Stress axis : x y z
#
# Youngs Moduli (GPa) = 34.56014 101.55202 56.32663
#
# Poissons Ratio (x) = -0.33249 -0.26329
# Poissons Ratio (y) = -0.11315 -0.00112
# Poissons Ratio (z) = -0.16155 -0.00201
#
# Static dielectric constant tensor:
#      x y z
#    x 1.961430 0.000000 0.000000 
#    y 0.000000 1.883000 0.000000 
#    z 0.000000 0.000000 1.838700 
# 
# From -- ./inp_files/18710.got.cif
#   From: 2010.05.17/outbox.cif.g08.bks.cpg/sg54_10_cif.got.tgz:18710.got - 2010.06.03 13:09:01.
