data_PCOD9420413
_publ_section_title
;
Structure prediction by ZEFSAII (Michael W. Deem and Ramdas Pophale) SiO2 
 PCOD9420413
Probable space group: P C C A
;
_chemical_formula_sum "Si O2"
_cell_formula_units_Z 40
_cell_length_a 5.228294
_cell_length_b 24.194690
_cell_length_c 16.979825
_cell_angle_alpha 90.000000
_cell_angle_beta 90.000000
_cell_angle_gamma 90.000000
_cell_volume 2147.896117
_symmetry_space_group_name_H-M "P C C A"
_symmetry_group_IT_number 54
_symmetry_cell_setting 'orthorhombic'
loop_
_space_group_symop_operation_xyz
x,y,z
1/2-x,-y,z
1/2+x,-y,1/2-z
-x,y,1/2-z
-x,-y,-z
1/2+x,y,-z
1/2-x,y,1/2+z
x,-y,1/2+z
loop_
_atom_site_type_symbol
_atom_site_label
_atom_site_fract_x
_atom_site_fract_y
_atom_site_fract_z
Si Si1 0.755828 0.354164 0.802350
Si Si2 0.570530 0.153663 0.949409
Si Si3 0.994784 0.024918 0.410879
Si Si4 0.746269 0.226201 0.302764
Si Si5 0.231810 0.436099 0.552402
O O1 0.500000 0.356985 0.750000
O O2 0.798269 0.290157 0.826922
O O3 0.734646 0.393910 0.876611
O O4 0.000000 0.370487 0.750000
O O5 0.548414 0.089835 0.921730
O O6 0.679425 0.189320 0.877412
O O7 0.283889 0.163673 0.982454
O O8 0.250000 0.000000 0.373755
O O9 0.750000 0.000000 0.368773
O O10 0.000000 0.000000 0.500000
O O11 0.500000 0.208762 0.250000
O O12 0.000000 0.225448 0.250000
O O13 0.250000 0.500000 0.579581
O O14 0.458793 0.428081 0.489407
#
# Coordination Sequence:
#
# PCOD9420413 Si02
#       5
#     8   8   8   8   8
#     4  10  21  38  59  79 108 154 198 231 275 340
#     4  12  21  33  59  89 104 139 194 232 267 333
#     4  10  16  30  49  79 111 132 163 226 268 309
#     4  10  23  41  55  78 119 155 181 232 298 338
#     4  10  21  36  56  85 119 149 181 237 301 337
#
# _framework density 18.622876000000002
#
# number of rings (size 3 to 8) (size 9 to 14) (size 15 to 20)
#    0.000    1.600    4.000    2.400    0.000    2.400 
#    0.000    0.000    0.000    2.400    0.000    0.000 
#    0.000    0.000    0.000    0.000    0.000    0.000 
#
# Total GULP energy -222999.793986 kJ/mol
# GULP energy per Si atom -5574.994850 kJ/mol
# Density = 1.858049 g / cm^3
# Si number density = 18.622876 Si / 1000 Ang^3
#
#
#
# Elastic Constant Matrix: (Units=GPa)
#
#
# Indices 1 2 3 4 5 6 
#
# 1 126.8630 10.8809 4.7486 0.0000 0.0000 0.0000
# 2 10.8809 94.5055 61.1391 0.0000 0.0000 0.0000
# 3 4.7486 61.1391 55.0300 0.0000 0.0000 0.0000
# 4 0.0000 0.0000 0.0000 23.7447 0.0000 0.0000
# 5 0.0000 0.0000 0.0000 0.0000 15.6634 0.0000
# 6 0.0000 0.0000 0.0000 0.0000 0.0000 -194.5625
#
#
#
# Elastic Compliance Matrix: (Units=1/GPa)
#
#
# Indices 1 2 3 4 5 6 
#
# 1 0.007983 -0.001683 0.001181 0.000000 0.000000 0.000000
# 2 -0.001683 0.037978 -0.042049 0.000000 0.000000 0.000000
# 3 0.001181 -0.042049 0.064787 0.000000 0.000000 0.000000
# 4 0.000000 0.000000 0.000000 0.042115 0.000000 0.000000
# 5 0.000000 0.000000 0.000000 0.000000 0.063843 0.000000
# 6 0.000000 0.000000 0.000000 0.000000 0.000000 -0.005140
#
#
# Mechanical properties :
#
#
# Convention : Reuss Voigt Hill
#
# Bulk Modulus (GPa) = 38.99258 47.77063 43.38161
# Shear Modulus (GPa) = 16.38176 -17.72222 -0.67023
#
# Velocity S-wave (km/s) = 2.96912 -3.08821 -0.60056
# Velocity P-wave (km/s) = 5.72169 3.60434 4.78168
#
# Compressibility (1/GPa) = 0.02564590
#
# Stress axis : x y z
#
# Youngs Moduli (GPa) = 125.27121 26.33074 15.43513
#
# Poissons Ratio (x) = 0.04433 -0.01824
# Poissons Ratio (y) = 0.21088 0.64904
# Poissons Ratio (z) = -0.14800 1.10719
#
# Static dielectric constant tensor:
#      x y z
#    x 1.605490 0.000000 0.000000 
#    y 0.000000 1.618990 0.000000 
#    z 0.000000 0.000000 1.627840 
# 
# From -- ./inp_files/15872.got.cif
#   From: 2010.05.17/outbox.cif.g08.bks.cpg/sg54_8_cif.got.tgz:15872.got - 2010.06.03 13:09:01.
