data_PCOD9420792
_publ_section_title
;
Structure prediction by ZEFSAII (Michael W. Deem and Ramdas Pophale) SiO2 
 PCOD9420792
Probable space group: P C C A
;
_chemical_formula_sum "Si O2"
_cell_formula_units_Z 40
_cell_length_a 15.373092
_cell_length_b 8.592245
_cell_length_c 12.840983
_cell_angle_alpha 90.000000
_cell_angle_beta 90.000000
_cell_angle_gamma 90.000000
_cell_volume 1696.157392
_symmetry_space_group_name_H-M "P C C A"
_symmetry_group_IT_number 54
_symmetry_cell_setting 'orthorhombic'
loop_
_space_group_symop_operation_xyz
x,y,z
1/2-x,-y,z
1/2+x,-y,1/2-z
-x,y,1/2-z
-x,-y,-z
1/2+x,y,-z
1/2-x,y,1/2+z
x,-y,1/2+z
loop_
_atom_site_type_symbol
_atom_site_label
_atom_site_fract_x
_atom_site_fract_y
_atom_site_fract_z
Si Si1 0.500000 0.695891 0.250000
Si Si2 0.852117 0.201947 0.796516
Si Si3 0.250000 0.000000 0.860794
Si Si4 0.778993 0.753139 0.984040
Si Si5 0.063674 0.048243 0.088988
Si Si6 0.648678 0.526426 0.650360
O O1 0.460751 0.810696 0.163865
O O2 0.422636 0.603284 0.314647
O O3 0.882859 0.335230 0.722330
O O4 0.819913 0.065858 0.719450
O O5 0.926516 0.116372 0.856322
O O6 0.780850 0.263747 0.881560
O O7 0.275274 0.157792 0.924578
O O8 0.831623 0.604669 0.034046
O O9 0.846309 0.890273 0.958776
O O10 0.000000 0.000000 0.000000
O O11 0.750000 0.500000 0.683035
#
# Coordination Sequence:
#
# PCOD9420792 Si02
#       6
#     4   8   4   8   8   8
#     4  12  32  52  72 114 160 202 254 314 396 464
#     4  11  23  45  77 107 146 193 257 313 373 445
#     4  10  18  38  74 106 140 180 254 312 360 432
#     4  11  23  43  77 108 145 193 261 306 377 456
#     4  12  28  44  77 108 149 196 255 324 367 455
#     4  11  29  48  77 108 159 204 240 314 396 465
#
# _framework density 23.582716000000001
#
# number of rings (size 3 to 8) (size 9 to 14) (size 15 to 20)
#    0.000    0.800    4.000    1.200   14.000    3.200 
#    0.000    0.000    0.000    0.000    0.000    0.000 
#    0.000    0.000    0.000    0.000    0.000    0.000 
#
# Total GULP energy -222804.456249 kJ/mol
# GULP energy per Si atom -5570.111406 kJ/mol
# Density = 2.352904 g / cm^3
# Si number density = 23.582716 Si / 1000 Ang^3
#
#
#
# Elastic Constant Matrix: (Units=GPa)
#
#
# Indices 1 2 3 4 5 6 
#
# 1 62.2049 38.6434 10.1542 0.0000 0.0000 0.0000
# 2 38.6434 69.3556 11.5988 0.0000 0.0000 0.0000
# 3 10.1542 11.5988 64.7284 0.0000 0.0000 0.0000
# 4 0.0000 0.0000 0.0000 -823.1368 0.0000 0.0000
# 5 0.0000 0.0000 0.0000 0.0000 21.2754 0.0000
# 6 0.0000 0.0000 0.0000 0.0000 0.0000 29.3254
#
#
#
# Elastic Compliance Matrix: (Units=1/GPa)
#
#
# Indices 1 2 3 4 5 6 
#
# 1 0.024718 -0.013529 -0.001453 0.000000 0.000000 0.000000
# 2 -0.013529 0.022269 -0.001868 0.000000 0.000000 0.000000
# 3 -0.001453 -0.001868 0.016012 0.000000 0.000000 0.000000
# 4 0.000000 0.000000 0.000000 -0.001215 0.000000 0.000000
# 5 0.000000 0.000000 0.000000 0.000000 0.047003 0.000000
# 6 0.000000 0.000000 0.000000 0.000000 0.000000 0.034100
#
#
# Mechanical properties :
#
#
# Convention : Reuss Voigt Hill
#
# Bulk Modulus (GPa) = 34.13233 35.23130 34.68181
# Shear Modulus (GPa) = 26.83072 -145.44770 -59.30849
#
# Velocity S-wave (km/s) = 3.37668 -7.86190 -5.02033
# Velocity P-wave (km/s) = 5.45046 8.21223 4.34357
#
# Compressibility (1/GPa) = 0.02929774
#
# Stress axis : x y z
#
# Youngs Moduli (GPa) = 40.45657 44.90546 62.45358
#
# Poissons Ratio (x) = 0.60753 0.09076
# Poissons Ratio (y) = 0.54734 0.11667
# Poissons Ratio (z) = 0.05879 0.08388
#
# Static dielectric constant tensor:
#      x y z
#    x 1.821020 0.000000 0.000000 
#    y 0.000000 1.611630 0.000000 
#    z 0.000000 0.000000 1.940060 
# 
# From -- ./inp_files/8768.got.cif
#   From: 2010.05.17/outbox.cif.g08.bks.cpg/sg54_5_cif.got.tgz:8768.got - 2010.06.03 13:09:01.
