data_PCOD9420119
_publ_section_title
;
Structure prediction by ZEFSAII (Michael W. Deem and Ramdas Pophale) SiO2 
 PCOD9420119
Probable space group: P M N A
;
_chemical_formula_sum "Si O2"
_cell_formula_units_Z 64
_cell_length_a 9.000000
_cell_length_b 12.000000
_cell_length_c 30.000000
_cell_angle_alpha 90.000000
_cell_angle_beta 90.000000
_cell_angle_gamma 90.000000
_cell_volume 3240.000000
_symmetry_space_group_name_H-M "P M N A"
_symmetry_group_IT_number 53
_symmetry_cell_setting 'orthorhombic'
loop_
_space_group_symop_operation_xyz
x,y,z
1/2-x,-y,1/2+z
x,-y,-z
1/2-x,y,1/2-z
-x,-y,-z
1/2+x,y,1/2-z
-x,y,z
1/2+x,-y,1/2+z
loop_
_atom_site_type_symbol
_atom_site_label
_atom_site_fract_x
_atom_site_fract_y
_atom_site_fract_z
Si Si1 0.666689 0.290678 0.436117
Si Si2 0.166867 0.341701 0.865351
Si Si3 0.174668 0.743582 0.480476
Si Si4 0.169878 0.107713 0.139035
Si Si5 0.673197 0.117205 0.596633
Si Si6 0.170141 0.528424 0.796414
Si Si7 0.327060 0.522749 0.063703
Si Si8 0.325199 0.740184 0.798126
O O1 0.500000 0.298114 0.454667
O O2 0.771736 0.227703 0.470752
O O3 0.662199 0.214211 0.393048
O O4 0.729339 0.414068 0.429301
O O5 0.184919 0.209772 0.864408
O O6 0.168826 0.411214 0.820823
O O7 0.295555 0.396844 0.894491
O O8 0.000000 0.360734 0.885917
O O9 0.250250 0.823387 0.444863
O O10 0.215475 0.611835 0.474669
O O11 0.000000 0.749486 0.474877
O O12 0.273980 0.148010 0.178200
O O13 0.000000 0.083379 0.153918
O O14 0.229659 0.001150 0.112721
O O15 0.500000 0.101708 0.585317
O O16 0.250000 0.511760 0.750000
O O17 0.259453 0.627512 0.820557
O O18 0.000000 0.566222 0.791646
O O19 0.500000 0.492256 0.059076
O O20 0.250000 0.740022 0.750000
O O21 0.500000 0.731374 0.796014
#
# Coordination Sequence:
#
# PCOD9420119 Si02
#       8
#     8   8   8   8   8   8   8   8
#     4  11  22  34  52  78 107 141 179 219 265 318
#     4   9  18  33  54  77 101 135 175 213 258 314
#     4  10  21  36  53  76 107 139 175 222 271 317
#     4  10  22  39  57  79 108 141 181 225 263 308
#     4   9  19  38  59  75 100 141 183 220 261 311
#     4  10  19  32  52  80 111 137 166 206 256 314
#     4  10  20  33  51  76 105 136 171 217 271 320
#     4  11  22  37  59  84 111 142 174 211 260 314
#
# _framework density 19.753086
#
# number of rings (size 3 to 8) (size 9 to 14) (size 15 to 20)
#    0.000    2.000    0.000    4.500    0.000    9.000 
#    0.000    3.125    0.000    1.500    0.000    0.000 
#    0.000    0.000    0.000    0.000    0.000    0.000 
#
# Total GULP energy -356505.922209 kJ/mol
# GULP energy per Si atom -5570.405035 kJ/mol
# Density = 1.970813 g / cm^3
# Si number density = 19.753086 Si / 1000 Ang^3
#
#
#
# Elastic Constant Matrix: (Units=GPa)
#
#
# Indices 1 2 3 4 5 6 
#
# 1 64.8818 31.0082 22.3713 0.0000 0.0000 0.0000
# 2 31.0082 52.0780 22.0576 0.0000 0.0000 0.0000
# 3 22.3713 22.0576 40.7683 0.0000 0.0000 0.0000
# 4 0.0000 0.0000 0.0000 22.7846 0.0000 0.0000
# 5 0.0000 0.0000 0.0000 0.0000 14.8653 0.0000
# 6 0.0000 0.0000 0.0000 0.0000 0.0000 13.6860
#
#
#
# Elastic Compliance Matrix: (Units=1/GPa)
#
#
# Indices 1 2 3 4 5 6 
#
# 1 0.022882 -0.010775 -0.006726 0.000000 0.000000 0.000000
# 2 -0.010775 0.029985 -0.010310 0.000000 0.000000 0.000000
# 3 -0.006726 -0.010310 0.033798 0.000000 0.000000 0.000000
# 4 0.000000 0.000000 0.000000 0.043889 0.000000 0.000000
# 5 0.000000 0.000000 0.000000 0.000000 0.067271 0.000000
# 6 0.000000 0.000000 0.000000 0.000000 0.000000 0.073067
#
#
# Mechanical properties :
#
#
# Convention : Reuss Voigt Hill
#
# Bulk Modulus (GPa) = 32.21551 34.28916 33.25233
# Shear Modulus (GPa) = 14.84286 15.75323 15.29805
#
# Velocity S-wave (km/s) = 2.74418 2.82708 2.78594
# Velocity P-wave (km/s) = 5.13665 5.29652 5.21720
#
# Compressibility (1/GPa) = 0.03104095
#
# Stress axis : x y z
#
# Youngs Moduli (GPa) = 43.70339 33.35038 29.58738
#
# Poissons Ratio (x) = 0.35936 0.19901
# Poissons Ratio (y) = 0.47091 0.30506
# Poissons Ratio (z) = 0.29396 0.34385
#
# Static dielectric constant tensor:
#      x y z
#    x 1.686630 0.000000 0.000000 
#    y 0.000000 1.712060 0.000000 
#    z 0.000000 0.000000 1.774280 
# 
# From -- ./inp_files/38162.got.cif
#   From: 2010.05.17/outbox.ucp.g08.bks.cvg/sg53_20_cif.got.tgz:38162.got - 2010.06.11 16:32:34.
