data_PCOD9420227
_publ_section_title
;
Structure prediction by ZEFSAII (Michael W. Deem and Ramdas Pophale) SiO2 
 PCOD9420227
Probable space group: P M N A
;
_chemical_formula_sum "Si O2"
_cell_formula_units_Z 48
_cell_length_a 9.000000
_cell_length_b 30.000000
_cell_length_c 9.000000
_cell_angle_alpha 90.000000
_cell_angle_beta 90.000000
_cell_angle_gamma 90.000000
_cell_volume 2430.000000
_symmetry_space_group_name_H-M "P M N A"
_symmetry_group_IT_number 53
_symmetry_cell_setting 'orthorhombic'
loop_
_space_group_symop_operation_xyz
x,y,z
1/2-x,-y,1/2+z
x,-y,-z
1/2-x,y,1/2-z
-x,-y,-z
1/2+x,y,1/2-z
-x,y,z
1/2+x,-y,1/2+z
loop_
_atom_site_type_symbol
_atom_site_label
_atom_site_fract_x
_atom_site_fract_y
_atom_site_fract_z
Si Si1 0.677331 0.118092 0.592907
Si Si2 0.329918 0.455839 0.401791
Si Si3 0.821354 0.695623 0.909233
Si Si4 0.322812 0.799211 0.594479
Si Si5 0.322628 0.380433 0.907590
Si Si6 0.668881 0.956249 0.899875
O O1 0.750000 0.108673 0.750000
O O2 0.500000 0.115367 0.603061
O O3 0.721249 0.167047 0.534444
O O4 0.739011 0.082569 0.477250
O O5 0.333521 0.500000 0.500000
O O6 0.250000 0.467463 0.250000
O O7 0.500000 0.440275 0.379712
O O8 0.233874 0.417844 0.479489
O O9 0.750000 0.683299 0.750000
O O10 0.786616 0.747698 0.934946
O O11 0.000000 0.689689 0.906140
O O12 0.745371 0.665654 0.033249
O O13 0.250000 0.812648 0.750000
O O14 0.500000 0.802115 0.611928
O O15 0.250000 0.391108 0.750000
O O16 0.500000 0.378916 0.898799
O O17 0.750000 0.968751 0.750000
O O18 0.500000 0.941171 0.873340
O O19 0.665491 0.000000 0.000000
#
# Coordination Sequence:
#
# PCOD9420227 Si02
#       6
#     8   8   8   8   8   8
#     4  11  23  39  59  86 119 155 196 241 292 347
#     4  11  24  42  65  92 122 157 197 241 291 347
#     4  10  20  38  61  87 119 155 197 242 292 347
#     4   9  20  37  59  86 116 152 194 241 291 347
#     4  12  25  41  61  87 120 157 198 244 295 349
#     4  11  24  41  62  88 118 153 193 238 289 345
#
# _framework density 19.753086
#
# number of rings (size 3 to 8) (size 9 to 14) (size 15 to 20)
#    0.000    1.333    0.000    5.500    0.000    9.333 
#    0.000    1.667    0.000    0.000    0.000    0.000 
#    0.000    0.000    0.000    0.000    0.000    0.000 
#
# Total GULP energy -268317.057874 kJ/mol
# GULP energy per Si atom -5589.938706 kJ/mol
# Density = 1.970813 g / cm^3
# Si number density = 19.753086 Si / 1000 Ang^3
#
#
#
# Elastic Constant Matrix: (Units=GPa)
#
#
# Indices 1 2 3 4 5 6 
#
# 1 122.8258 34.0938 52.6529 0.0000 0.0000 0.0000
# 2 34.0938 41.8679 24.5101 0.0000 0.0000 0.0000
# 3 52.6529 24.5101 96.7943 0.0000 0.0000 0.0000
# 4 0.0000 0.0000 0.0000 44.5200 0.0000 0.0000
# 5 0.0000 0.0000 0.0000 0.0000 23.0757 0.0000
# 6 0.0000 0.0000 0.0000 0.0000 0.0000 17.8524
#
#
#
# Elastic Compliance Matrix: (Units=1/GPa)
#
#
# Indices 1 2 3 4 5 6 
#
# 1 0.012181 -0.007091 -0.004830 0.000000 0.000000 0.000000
# 2 -0.007091 0.032170 -0.004289 0.000000 0.000000 0.000000
# 3 -0.004830 -0.004289 0.014045 0.000000 0.000000 0.000000
# 4 0.000000 0.000000 0.000000 0.022462 0.000000 0.000000
# 5 0.000000 0.000000 0.000000 0.000000 0.043336 0.000000
# 6 0.000000 0.000000 0.000000 0.000000 0.000000 0.056015
#
#
# Mechanical properties :
#
#
# Convention : Reuss Voigt Hill
#
# Bulk Modulus (GPa) = 38.49862 53.77794 46.13828
# Shear Modulus (GPa) = 22.59522 27.10502 24.85012
#
# Velocity S-wave (km/s) = 3.38580 3.70833 3.55073
# Velocity P-wave (km/s) = 5.90060 6.75424 6.34180
#
# Compressibility (1/GPa) = 0.02597496
#
# Stress axis : x y z
#
# Youngs Moduli (GPa) = 82.09780 31.08505 71.20165
#
# Poissons Ratio (x) = 0.22043 0.34392
# Poissons Ratio (y) = 0.58217 0.30536
# Poissons Ratio (z) = 0.39655 0.13331
#
# Static dielectric constant tensor:
#      x y z
#    x 1.657330 0.000000 0.000000 
#    y 0.000000 1.686470 0.000000 
#    z 0.000000 0.000000 1.640640 
# 
# From -- ./inp_files/6657.got.cif
#   From: 2010.05.17/outbox.ucp.g08.bks.cvg/sg53_4_cif.got.tgz:6657.got - 2010.06.11 16:32:34.
