data_PCOD9420036
_publ_section_title
;
Structure prediction by ZEFSAII (Michael W. Deem and Ramdas Pophale) SiO2 
 PCOD9420036
Probable space group: P M N A
;
_chemical_formula_sum "Si O2"
_cell_formula_units_Z 64
_cell_length_a 7.369705
_cell_length_b 22.595683
_cell_length_c 19.705902
_cell_angle_alpha 90.000000
_cell_angle_beta 90.000000
_cell_angle_gamma 90.000000
_cell_volume 3281.496126
_symmetry_space_group_name_H-M "P M N A"
_symmetry_group_IT_number 53
_symmetry_cell_setting 'orthorhombic'
loop_
_space_group_symop_operation_xyz
x,y,z
1/2-x,-y,1/2+z
x,-y,-z
1/2-x,y,1/2-z
-x,-y,-z
1/2+x,y,1/2-z
-x,y,z
1/2+x,-y,1/2+z
loop_
_atom_site_type_symbol
_atom_site_label
_atom_site_fract_x
_atom_site_fract_y
_atom_site_fract_z
Si Si1 0.777617 0.148211 0.593863
Si Si2 0.722383 0.810644 0.943826
Si Si3 0.277540 0.437745 0.969150
Si Si4 0.291874 0.270443 0.859271
Si Si5 0.291547 0.313602 0.016575
Si Si6 0.716796 0.100177 0.171180
Si Si7 0.216606 0.967107 0.329082
Si Si8 0.283445 0.604907 0.176720
O O1 0.725613 0.160151 0.515911
O O2 0.714710 0.204435 0.638917
O O3 0.715729 0.085968 0.623956
O O4 0.000000 0.149484 0.595247
O O5 0.500000 0.808469 0.943801
O O6 0.786263 0.742327 0.943020
O O7 0.783562 0.850917 0.881499
O O8 0.500000 0.436620 0.970227
O O9 0.220468 0.428601 0.890785
O O10 0.220042 0.500000 0.000000
O O11 0.214915 0.379695 0.010963
O O12 0.500000 0.264798 0.835275
O O13 0.207794 0.327752 0.823876
O O14 0.295354 0.290300 0.938557
O O15 0.500000 0.320468 0.039233
O O16 0.750000 0.114365 0.250000
O O17 0.500000 0.097757 0.162298
O O18 0.787143 0.033517 0.157870
O O19 0.250000 0.953576 0.250000
O O20 0.000000 0.969317 0.338898
O O21 0.250000 0.577146 0.250000
O O22 0.500000 0.610424 0.168614
#
# Coordination Sequence:
#
# PCOD9420036 Si02
#       8
#     8   8   8   8   8   8   8   8
#     4   8  13  22  37  57  78  98 124 160 196 223
#     4   8  13  22  38  58  76  94 122 163 200 225
#     4   8  13  22  38  59  80 103 132 163 192 223
#     4   7  11  20  33  51  75  98 118 145 184 224
#     4   7  10  18  33  54  76  93 115 152 191 220
#     4   9  17  28  41  57  76  99 128 160 196 237
#     4   9  17  27  38  53  75 102 128 156 191 231
#     4   9  16  25  38  57  80 104 130 159 189 223
#
# _framework density 19.503298000000001
#
# number of rings (size 3 to 8) (size 9 to 14) (size 15 to 20)
#    0.000    3.875    0.000    3.000    0.000    1.000 
#    0.000    2.500    0.000    1.875    0.000   10.500 
#    0.000    0.000    0.000    0.000    0.000    0.000 
#
# Total GULP energy -356303.455035 kJ/mol
# GULP energy per Si atom -5567.241485 kJ/mol
# Density = 1.945891 g / cm^3
# Si number density = 19.503298 Si / 1000 Ang^3
#
#
#
# Elastic Constant Matrix: (Units=GPa)
#
#
# Indices 1 2 3 4 5 6 
#
# 1 70.6406 9.0267 2.0860 0.0000 0.0000 0.0000
# 2 9.0267 195.0389 104.2873 0.0000 0.0000 0.0000
# 3 2.0860 104.2873 98.7200 0.0000 0.0000 0.0000
# 4 0.0000 0.0000 0.0000 21.1710 0.0000 0.0000
# 5 0.0000 0.0000 0.0000 0.0000 10.8577 0.0000
# 6 0.0000 0.0000 0.0000 0.0000 0.0000 -11.3783
#
#
#
# Elastic Compliance Matrix: (Units=1/GPa)
#
#
# Indices 1 2 3 4 5 6 
#
# 1 0.014276 -0.001148 0.000911 0.000000 0.000000 0.000000
# 2 -0.001148 0.011875 -0.012520 0.000000 0.000000 0.000000
# 3 0.000911 -0.012520 0.023337 0.000000 0.000000 0.000000
# 4 0.000000 0.000000 0.000000 0.047234 0.000000 0.000000
# 5 0.000000 0.000000 0.000000 0.000000 0.092100 0.000000
# 6 0.000000 0.000000 0.000000 0.000000 0.000000 -0.087887
#
#
# Mechanical properties :
#
#
# Convention : Reuss Voigt Hill
#
# Bulk Modulus (GPa) = 41.71336 66.13326 53.92331
# Shear Modulus (GPa) = 37.19097 20.73006 28.96052
#
# Velocity S-wave (km/s) = 4.37155 3.26375 3.85763
# Velocity P-wave (km/s) = 6.84945 6.94155 6.89565
#
# Compressibility (1/GPa) = 0.02397314
#
# Stress axis : x y z
#
# Youngs Moduli (GPa) = 70.04794 84.21097 42.85069
#
# Poissons Ratio (x) = 0.09665 -0.03903
# Poissons Ratio (y) = 0.08039 0.53651
# Poissons Ratio (z) = -0.06380 1.05435
#
# Static dielectric constant tensor:
#      x y z
#    x 1.775910 0.000000 0.000000 
#    y 0.000000 1.709620 0.000000 
#    z 0.000000 0.000000 1.669830 
# 
# From -- ./inp_files/27749.got.cif
#   From: 2010.05.17/outbox.cif.g08.bks.cpg/sg53_14_cif.got.tgz:27749.got - 2010.06.03 12:45:16.
