data_PCOD9420990
_publ_section_title
;
Structure prediction by ZEFSAII (Michael W. Deem and Ramdas Pophale) SiO2 
 PCOD9420990
Probable space group: P C C A
;
_chemical_formula_sum "Si O2"
_cell_formula_units_Z 60
_cell_length_a 19.104823
_cell_length_b 9.200034
_cell_length_c 14.204578
_cell_angle_alpha 90.000000
_cell_angle_beta 90.000000
_cell_angle_gamma 90.000000
_cell_volume 2496.667953
_symmetry_space_group_name_H-M "P C C A"
_symmetry_group_IT_number 54
_symmetry_cell_setting 'orthorhombic'
loop_
_space_group_symop_operation_xyz
x,y,z
1/2-x,-y,z
1/2+x,-y,1/2-z
-x,y,1/2-z
-x,-y,-z
1/2+x,y,-z
1/2-x,y,1/2+z
x,-y,1/2+z
loop_
_atom_site_type_symbol
_atom_site_label
_atom_site_fract_x
_atom_site_fract_y
_atom_site_fract_z
Si Si1 0.461469 0.063540 0.161421
Si Si2 0.183155 0.081937 0.604172
Si Si3 0.602242 0.520722 0.434205
Si Si4 0.420492 0.626679 0.744355
Si Si5 0.004623 0.250221 0.491517
Si Si6 0.672091 0.495922 0.615872
Si Si7 0.862147 0.176707 0.093581
Si Si8 0.750000 0.000000 0.714975
O O1 0.500000 0.992901 0.250000
O O2 0.389972 0.994006 0.120777
O O3 0.427411 0.210002 0.208824
O O4 0.506531 0.140171 0.078531
O O5 0.163115 0.184397 0.516505
O O6 0.215237 0.113387 0.708950
O O7 0.250000 0.000000 0.562028
O O8 0.619926 0.473047 0.329714
O O9 0.560413 0.671253 0.443648
O O10 0.549989 0.389101 0.469456
O O11 0.666645 0.522653 0.504689
O O12 0.500000 0.569697 0.750000
O O13 0.381009 0.611529 0.841259
O O14 0.054027 0.160796 0.419296
O O15 0.750000 0.500000 0.650964
O O16 0.645222 0.335246 0.637432
O O17 0.812618 0.067850 0.152115
#
# Coordination Sequence:
#
# PCOD9420990 Si02
#       8
#     8   8   8   8   8   8   8   4
#     4   9  16  29  55  85 114 148 195 243 284 354
#     4   9  20  35  59  82 104 155 205 242 300 352
#     4   9  16  33  51  78 121 158 187 233 287 364
#     4  10  19  33  57  86 118 157 196 236 293 369
#     4   8  15  29  57  81 111 152 195 231 295 355
#     4  11  24  35  54  90 129 161 192 243 311 371
#     4  10  19  39  58  83 114 153 202 250 297 363
#     4  10  20  36  62  82 106 158 202 258 294 350
#
# _framework density 24.032031
#
# number of rings (size 3 to 8) (size 9 to 14) (size 15 to 20)
#    0.400    2.133    0.667    4.800    1.867    0.533 
#    2.400    0.000    0.000    7.200    0.000    0.000 
#    0.000    0.000    0.000    0.000    0.000    0.000 
#
# Total GULP energy -334199.231647 kJ/mol
# GULP energy per Si atom -5569.987194 kJ/mol
# Density = 2.397733 g / cm^3
# Si number density = 24.032031 Si / 1000 Ang^3
#
#
#
# Elastic Constant Matrix: (Units=GPa)
#
#
# Indices 1 2 3 4 5 6 
#
# 1 38.9402 6.5809 -5.7125 0.0000 0.0000 0.0000
# 2 6.5809 66.3982 16.0782 0.0000 0.0000 0.0000
# 3 -5.7125 16.0782 95.8744 0.0000 0.0000 0.0000
# 4 0.0000 0.0000 0.0000 20.5191 0.0000 0.0000
# 5 0.0000 0.0000 0.0000 0.0000 48.5999 0.0000
# 6 0.0000 0.0000 0.0000 0.0000 0.0000 30.5346
#
#
#
# Elastic Compliance Matrix: (Units=1/GPa)
#
#
# Indices 1 2 3 4 5 6 
#
# 1 0.026520 -0.003139 0.002106 0.000000 0.000000 0.000000
# 2 -0.003139 0.016070 -0.002882 0.000000 0.000000 0.000000
# 3 0.002106 -0.002882 0.011039 0.000000 0.000000 0.000000
# 4 0.000000 0.000000 0.000000 0.048735 0.000000 0.000000
# 5 0.000000 0.000000 0.000000 0.000000 0.020576 0.000000
# 6 0.000000 0.000000 0.000000 0.000000 0.000000 0.032750
#
#
# Mechanical properties :
#
#
# Convention : Reuss Voigt Hill
#
# Bulk Modulus (GPa) = 21.83376 26.12289 23.97832
# Shear Modulus (GPa) = 27.96665 32.21512 30.09088
#
# Velocity S-wave (km/s) = 3.41504 3.66527 3.54236
# Velocity P-wave (km/s) = 4.96538 5.36711 5.17015
#
# Compressibility (1/GPa) = 0.04580064
#
# Stress axis : x y z
#
# Youngs Moduli (GPa) = 37.70761 62.22943 90.58701
#
# Poissons Ratio (x) = 0.19531 -0.19082
# Poissons Ratio (y) = 0.11835 0.26106
# Poissons Ratio (z) = -0.07943 0.17934
#
# Static dielectric constant tensor:
#      x y z
#    x 2.040600 0.000000 0.000000 
#    y 0.000000 2.012330 0.000000 
#    z 0.000000 0.000000 1.965150 
# 
# From -- ./inp_files/14755.got.cif
#   From: 2010.05.17/outbox.cif.g08.bks.cpg/sg54_8_cif.got.tgz:14755.got - 2010.06.03 13:09:01.
