data_PCOD9420868
_publ_section_title
;
Structure prediction by ZEFSAII (Michael W. Deem and Ramdas Pophale) SiO2 
 PCOD9420868
Probable space group: P C C A
;
_chemical_formula_sum "Si O2"
_cell_formula_units_Z 48
_cell_length_a 5.358333
_cell_length_b 13.649055
_cell_length_c 26.013047
_cell_angle_alpha 90.000000
_cell_angle_beta 90.000000
_cell_angle_gamma 90.000000
_cell_volume 1902.494935
_symmetry_space_group_name_H-M "P C C A"
_symmetry_group_IT_number 54
_symmetry_cell_setting 'orthorhombic'
loop_
_space_group_symop_operation_xyz
x,y,z
1/2-x,-y,z
1/2+x,-y,1/2-z
-x,y,1/2-z
-x,-y,-z
1/2+x,y,-z
1/2-x,y,1/2+z
x,-y,1/2+z
loop_
_atom_site_type_symbol
_atom_site_label
_atom_site_fract_x
_atom_site_fract_y
_atom_site_fract_z
Si Si1 0.404764 0.133510 0.136932
Si Si2 0.812153 0.111347 0.980878
Si Si3 0.905810 0.629859 0.694022
Si Si4 0.909062 0.130520 0.193276
Si Si5 0.002158 0.389999 0.978348
Si Si6 0.094939 0.369738 0.640234
O O1 0.423271 0.112443 0.076578
O O2 0.637481 0.099791 0.172117
O O3 0.402522 0.251473 0.142458
O O4 0.132580 0.100232 0.155602
O O5 0.750000 0.000000 0.996798
O O6 0.531129 0.153570 0.983292
O O7 0.899631 0.749654 0.694435
O O8 0.627673 0.598392 0.678293
O O9 0.000000 0.599176 0.750000
O O10 0.124553 0.599296 0.654624
O O11 0.000000 0.099509 0.250000
O O12 0.978680 0.395165 0.917537
O O13 0.257320 0.343033 0.997214
O O14 0.000000 0.500000 0.000000
#
# Coordination Sequence:
#
# PCOD9420868 Si02
#       6
#     8   8   8   8   8   8
#     4  10  19  31  51  77 103 134 169 213 258 302
#     4  10  21  36  52  71  98 136 177 215 259 306
#     4   9  17  30  49  77 109 135 161 205 260 308
#     4   9  17  30  49  75 107 136 164 203 259 315
#     4  10  21  36  52  73  99 136 173 205 252 307
#     4  10  19  31  51  79 105 131 170 211 254 309
#
# _framework density 25.230028000000001
#
# number of rings (size 3 to 8) (size 9 to 14) (size 15 to 20)
#    0.000    2.333    0.000    3.000    0.000    5.333 
#    0.000    0.000    0.000    2.000    0.000   46.667 
#    0.000    0.000    0.000    0.000    0.000    0.000 
#
# Total GULP energy -268668.580072 kJ/mol
# GULP energy per Si atom -5597.262085 kJ/mol
# Density = 2.517260 g / cm^3
# Si number density = 25.230028 Si / 1000 Ang^3
#
#
#
# Elastic Constant Matrix: (Units=GPa)
#
#
# Indices 1 2 3 4 5 6 
#
# 1 223.0668 26.5978 67.0809 0.0000 0.0000 0.0000
# 2 26.5978 83.3562 -21.5102 0.0000 0.0000 0.0000
# 3 67.0809 -21.5102 129.4602 0.0000 0.0000 0.0000
# 4 0.0000 0.0000 0.0000 27.8723 0.0000 0.0000
# 5 0.0000 0.0000 0.0000 0.0000 -1.7058 0.0000
# 6 0.0000 0.0000 0.0000 0.0000 0.0000 44.4248
#
#
#
# Elastic Compliance Matrix: (Units=1/GPa)
#
#
# Indices 1 2 3 4 5 6 
#
# 1 0.005867 -0.002775 -0.003501 0.000000 0.000000 0.000000
# 2 -0.002775 0.013847 0.003739 0.000000 0.000000 0.000000
# 3 -0.003501 0.003739 0.010160 0.000000 0.000000 0.000000
# 4 0.000000 0.000000 0.000000 0.035878 0.000000 0.000000
# 5 0.000000 0.000000 0.000000 0.000000 -0.586245 0.000000
# 6 0.000000 0.000000 0.000000 0.000000 0.000000 0.022510
#
#
# Mechanical properties :
#
#
# Convention : Reuss Voigt Hill
#
# Bulk Modulus (GPa) = 40.32535 64.46890 52.39713
# Shear Modulus (GPa) = -10.31689 38.36591 14.02451
#
# Velocity S-wave (km/s) = -2.02435 3.90378 2.36024
# Velocity P-wave (km/s) = 3.24866 6.77696 5.31418
#
# Compressibility (1/GPa) = 0.02479830
#
# Stress axis : x y z
#
# Youngs Moduli (GPa) = 170.45256 72.21718 98.42812
#
# Poissons Ratio (x) = 0.20043 0.34460
# Poissons Ratio (y) = 0.47308 -0.36801
# Poissons Ratio (z) = 0.59676 -0.27001
#
# Static dielectric constant tensor:
#      x y z
#    x 4.884170 0.000000 0.000000 
#    y 0.000000 2.046500 0.000000 
#    z 0.000000 0.000000 1.890480 
# 
# From -- ./inp_files/22929.got.cif
#   From: 2010.05.17/outbox.cif.g08.bks.cpg/sg54_12_cif.got.tgz:22929.got - 2010.06.03 13:09:01.
