data_PCOD9420584
_publ_section_title
;
Structure prediction by ZEFSAII (Michael W. Deem and Ramdas Pophale) SiO2 
 PCOD9420584
Probable space group: P C C A
;
_chemical_formula_sum "Si O2"
_cell_formula_units_Z 64
_cell_length_a 21.104786
_cell_length_b 9.344992
_cell_length_c 18.623795
_cell_angle_alpha 90.000000
_cell_angle_beta 90.000000
_cell_angle_gamma 90.000000
_cell_volume 3673.060394
_symmetry_space_group_name_H-M "P C C A"
_symmetry_group_IT_number 54
_symmetry_cell_setting 'orthorhombic'
loop_
_space_group_symop_operation_xyz
x,y,z
1/2-x,-y,z
1/2+x,-y,1/2-z
-x,y,1/2-z
-x,-y,-z
1/2+x,y,-z
1/2-x,y,1/2+z
x,-y,1/2+z
loop_
_atom_site_type_symbol
_atom_site_label
_atom_site_fract_x
_atom_site_fract_y
_atom_site_fract_z
Si Si1 0.683460 0.425652 0.136179
Si Si2 0.230148 0.837157 0.694473
Si Si3 0.860765 0.681497 0.538775
Si Si4 0.608412 0.659456 0.342247
Si Si5 0.506110 0.386450 0.564450
Si Si6 0.237351 0.838299 0.866397
Si Si7 0.807753 0.604776 0.389411
Si Si8 0.059639 0.507198 0.286899
O O1 0.750000 0.500000 0.161754
O O2 0.657308 0.523714 0.071182
O O3 0.705407 0.268652 0.113715
O O4 0.627658 0.423177 0.194964
O O5 0.162450 0.779592 0.665171
O O6 0.228135 0.828359 0.780775
O O7 0.280822 0.721899 0.665386
O O8 0.250000 0.000000 0.675062
O O9 0.823942 0.784178 0.592206
O O10 0.834563 0.683538 0.458920
O O11 0.935232 0.711309 0.541153
O O12 0.558662 0.683648 0.406943
O O13 0.640589 0.505245 0.358781
O O14 0.574720 0.627839 0.265488
O O15 0.500000 0.500000 0.500000
O O16 0.532022 0.462618 0.636306
O O17 0.250000 0.000000 0.886088
O O18 0.750000 0.500000 0.410860
O O19 0.000000 0.587808 0.250000
#
# Coordination Sequence:
#
# PCOD9420584 Si02
#       8
#     8   8   8   8   8   8   8   8
#     4   9  16  29  51  76 104 130 170 216 267 310
#     4  10  21  34  50  74 106 141 175 219 269 319
#     4  10  19  33  54  80 105 133 174 219 270 324
#     4  10  18  32  53  78 106 136 178 219 270 325
#     4  10  18  31  52  80 106 138 171 227 268 323
#     4  10  20  34  53  77 106 140 177 218 269 321
#     4  10  19  31  52  77 104 134 175 221 273 319
#     4   9  18  29  50  81 107 133 172 218 271 321
#
# _framework density 17.424161999999999
#
# number of rings (size 3 to 8) (size 9 to 14) (size 15 to 20)
#    0.000    2.250    1.250    4.125    0.000    3.500 
#    0.000    0.000    0.000    8.250    0.000    4.375 
#    0.000    0.000    0.000    0.000    0.000    0.000 
#
# Total GULP energy -356332.859720 kJ/mol
# GULP energy per Si atom -5567.700933 kJ/mol
# Density = 1.738450 g / cm^3
# Si number density = 17.424162 Si / 1000 Ang^3
#
#
#
# Elastic Constant Matrix: (Units=GPa)
#
#
# Indices 1 2 3 4 5 6 
#
# 1 96.5535 30.7039 29.3529 0.0000 0.0000 0.0000
# 2 30.7039 89.3630 19.6486 0.0000 0.0000 0.0000
# 3 29.3529 19.6486 79.4337 0.0000 0.0000 0.0000
# 4 0.0000 0.0000 0.0000 17.5012 0.0000 0.0000
# 5 0.0000 0.0000 0.0000 0.0000 24.9994 0.0000
# 6 0.0000 0.0000 0.0000 0.0000 0.0000 11.5222
#
#
#
# Elastic Compliance Matrix: (Units=1/GPa)
#
#
# Indices 1 2 3 4 5 6 
#
# 1 0.012626 -0.003503 -0.003799 0.000000 0.000000 0.000000
# 2 -0.003503 0.012806 -0.001873 0.000000 0.000000 0.000000
# 3 -0.003799 -0.001873 0.014456 0.000000 0.000000 0.000000
# 4 0.000000 0.000000 0.000000 0.057139 0.000000 0.000000
# 5 0.000000 0.000000 0.000000 0.000000 0.040001 0.000000
# 6 0.000000 0.000000 0.000000 0.000000 0.000000 0.086789
#
#
# Mechanical properties :
#
#
# Convention : Reuss Voigt Hill
#
# Bulk Modulus (GPa) = 46.43038 47.19566 46.81302
# Shear Modulus (GPa) = 20.05243 23.18088 21.61666
#
# Velocity S-wave (km/s) = 3.39608 3.65140 3.52606
# Velocity P-wave (km/s) = 6.48713 6.70240 6.59564
#
# Compressibility (1/GPa) = 0.02153762
#
# Stress axis : x y z
#
# Youngs Moduli (GPa) = 79.20305 78.09043 69.17367
#
# Poissons Ratio (x) = 0.27353 0.26280
# Poissons Ratio (y) = 0.27743 0.12958
# Poissons Ratio (z) = 0.30090 0.14628
#
# Static dielectric constant tensor:
#      x y z
#    x 1.633260 0.000000 0.000000 
#    y 0.000000 1.575910 0.000000 
#    z 0.000000 0.000000 1.614450 
# 
# From -- ./inp_files/18963.got.cif
#   From: 2010.05.17/outbox.cif.g08.bks.cpg/sg54_10_cif.got.tgz:18963.got - 2010.06.03 13:09:01.
