data_PCOD9420239
_publ_section_title
;
Structure prediction by ZEFSAII (Michael W. Deem and Ramdas Pophale) SiO2 
 PCOD9420239
Probable space group: P M N A
;
_chemical_formula_sum "Si O2"
_cell_formula_units_Z 48
_cell_length_a 9.000000
_cell_length_b 30.000000
_cell_length_c 9.000000
_cell_angle_alpha 90.000000
_cell_angle_beta 90.000000
_cell_angle_gamma 90.000000
_cell_volume 2430.000000
_symmetry_space_group_name_H-M "P M N A"
_symmetry_group_IT_number 53
_symmetry_cell_setting 'orthorhombic'
loop_
_space_group_symop_operation_xyz
x,y,z
1/2-x,-y,1/2+z
x,-y,-z
1/2-x,y,1/2-z
-x,-y,-z
1/2+x,y,1/2-z
-x,y,z
1/2+x,-y,1/2+z
loop_
_atom_site_type_symbol
_atom_site_label
_atom_site_fract_x
_atom_site_fract_y
_atom_site_fract_z
Si Si1 0.322586 0.455467 0.912596
Si Si2 0.663441 0.958892 0.610040
Si Si3 0.329565 0.717936 0.602087
Si Si4 0.827720 0.369635 0.907791
Si Si5 0.671464 0.892929 0.095525
Si Si6 0.328315 0.213165 0.904585
O O1 0.250000 0.458078 0.750000
O O2 0.500000 0.452044 0.902110
O O3 0.256158 0.410732 0.985071
O O4 0.283914 0.500000 0.000000
O O5 0.750000 0.976034 0.750000
O O6 0.500000 0.943638 0.652523
O O7 0.749618 0.918633 0.535476
O O8 0.654339 0.000000 0.500000
O O9 0.250000 0.703439 0.750000
O O10 0.500000 0.728603 0.630537
O O11 0.319185 0.676881 0.490448
O O12 0.249919 0.760680 0.535002
O O13 0.750000 0.363719 0.750000
O O14 0.000000 0.381672 0.888900
O O15 0.750000 0.904429 0.250000
O O16 0.500000 0.905691 0.104385
O O17 0.682640 0.839870 0.075754
O O18 0.250000 0.224894 0.750000
O O19 0.500000 0.225767 0.895771
#
# Coordination Sequence:
#
# PCOD9420239 Si02
#       6
#     8   8   8   8   8   8
#     4  10  21  36  56  82 110 143 182 224 272 326
#     4  11  24  40  60  86 116 152 192 235 284 337
#     4  11  24  39  57  83 114 149 188 233 284 334
#     4  10  21  37  58  82 108 143 185 227 274 329
#     4  10  21  38  61  88 117 150 189 233 281 334
#     4  10  21  38  61  87 115 150 190 231 278 335
#
# _framework density 19.753086
#
# number of rings (size 3 to 8) (size 9 to 14) (size 15 to 20)
#    0.000    1.667    0.000    5.000    0.000   11.333 
#    0.000    3.333    0.000    0.000    0.000    0.000 
#    0.000    0.000    0.000    0.000    0.000    0.000 
#
# Total GULP energy -267946.566886 kJ/mol
# GULP energy per Si atom -5582.220143 kJ/mol
# Density = 1.970813 g / cm^3
# Si number density = 19.753086 Si / 1000 Ang^3
#
#
#
# Elastic Constant Matrix: (Units=GPa)
#
#
# Indices 1 2 3 4 5 6 
#
# 1 142.6892 59.5892 51.9586 0.0000 0.0000 0.0000
# 2 59.5892 -1.8007 17.8930 0.0000 0.0000 0.0000
# 3 51.9586 17.8930 46.7845 0.0000 0.0000 0.0000
# 4 0.0000 0.0000 0.0000 35.6096 0.0000 0.0000
# 5 0.0000 0.0000 0.0000 0.0000 18.5118 0.0000
# 6 0.0000 0.0000 0.0000 0.0000 0.0000 84.1613
#
#
#
# Elastic Compliance Matrix: (Units=1/GPa)
#
#
# Indices 1 2 3 4 5 6 
#
# 1 0.003739 0.017178 -0.010722 0.000000 0.000000 0.000000
# 2 0.017178 -0.036757 -0.005020 0.000000 0.000000 0.000000
# 3 -0.010722 -0.005020 0.035202 0.000000 0.000000 0.000000
# 4 0.000000 0.000000 0.000000 0.028082 0.000000 0.000000
# 5 0.000000 0.000000 0.000000 0.000000 0.054020 0.000000
# 6 0.000000 0.000000 0.000000 0.000000 0.000000 0.011882
#
#
# Mechanical properties :
#
#
# Convention : Reuss Voigt Hill
#
# Bulk Modulus (GPa) = 197.77364 49.61716 123.69540
# Shear Modulus (GPa) = 52.64184 31.53869 42.09026
#
# Velocity S-wave (km/s) = 5.16796 4.00014 4.62109
# Velocity P-wave (km/s) = 11.65979 6.81968 9.55141
#
# Compressibility (1/GPa) = 0.00505629
#
# Stress axis : x y z
#
# Youngs Moduli (GPa) = 267.47661 -27.20583 28.40717
#
# Poissons Ratio (x) = 0.46735 0.30458
# Poissons Ratio (y) = -4.59478 0.14261
# Poissons Ratio (z) = 2.86789 -0.13658
#
# Static dielectric constant tensor:
#      x y z
#    x 1.706450 0.000000 0.000000 
#    y 0.000000 1.674970 0.000000 
#    z 0.000000 0.000000 1.671440 
# 
# From -- ./inp_files/6684.got.cif
#   From: 2010.05.17/outbox.ucp.g08.bks.cvg/sg53_4_cif.got.tgz:6684.got - 2010.06.11 16:32:34.
