data_PCOD9420861
_publ_section_title
;
Structure prediction by ZEFSAII (Michael W. Deem and Ramdas Pophale) SiO2 
 PCOD9420861
Probable space group: P C C A
;
_chemical_formula_sum "Si O2"
_cell_formula_units_Z 40
_cell_length_a 5.330724
_cell_length_b 24.364913
_cell_length_c 13.975773
_cell_angle_alpha 90.000000
_cell_angle_beta 90.000000
_cell_angle_gamma 90.000000
_cell_volume 1815.210104
_symmetry_space_group_name_H-M "P C C A"
_symmetry_group_IT_number 54
_symmetry_cell_setting 'orthorhombic'
loop_
_space_group_symop_operation_xyz
x,y,z
1/2-x,-y,z
1/2+x,-y,1/2-z
-x,y,1/2-z
-x,-y,-z
1/2+x,y,-z
1/2-x,y,1/2+z
x,-y,1/2+z
loop_
_atom_site_type_symbol
_atom_site_label
_atom_site_fract_x
_atom_site_fract_y
_atom_site_fract_z
Si Si1 0.003735 0.534248 0.865275
Si Si2 0.751999 0.821451 0.315820
Si Si3 0.881535 0.293621 0.891130
Si Si4 0.749167 0.058924 0.816002
Si Si5 0.392810 0.658480 0.394957
O O1 0.250000 0.500000 0.888834
O O2 0.062209 0.593867 0.908628
O O3 0.750000 0.500000 0.889438
O O4 0.000000 0.542300 0.750000
O O5 0.500000 0.813562 0.250000
O O6 0.814990 0.770356 0.383528
O O7 0.736639 0.881472 0.365550
O O8 0.000000 0.823212 0.250000
O O9 0.644427 0.322637 0.844117
O O10 0.139858 0.317401 0.850041
O O11 0.893344 0.313018 0.000914
O O12 0.500000 0.058475 0.750000
O O13 0.000000 0.059062 0.750000
O O14 0.750000 0.000000 0.869461
#
# Coordination Sequence:
#
# PCOD9420861 Si02
#       5
#     8   8   8   8   8
#     4  10  21  38  59  82 105 129 163 213 267 316
#     4  10  19  31  50  77 107 140 179 224 269 311
#     4  10  21  36  51  76 106 140 178 212 256 310
#     4   8  14  25  42  67 100 134 170 217 269 313
#     4  10  21  38  56  76 105 139 174 210 256 314
#
# _framework density 22.036014999999999
#
# number of rings (size 3 to 8) (size 9 to 14) (size 15 to 20)
#    0.000    2.400    0.000    2.400    0.000    2.400 
#    0.000   12.000    0.000    0.000    0.000    5.600 
#    0.000    0.000    0.000    0.000    0.000    0.000 
#
# Total GULP energy -222768.299224 kJ/mol
# GULP energy per Si atom -5569.207481 kJ/mol
# Density = 2.198586 g / cm^3
# Si number density = 22.036015 Si / 1000 Ang^3
#
#
#
# Elastic Constant Matrix: (Units=GPa)
#
#
# Indices 1 2 3 4 5 6 
#
# 1 222.1461 57.1668 23.4908 0.0000 0.0000 0.0000
# 2 57.1668 280.7051 40.5757 0.0000 0.0000 0.0000
# 3 23.4908 40.5757 71.4631 0.0000 0.0000 0.0000
# 4 0.0000 0.0000 0.0000 30.1930 0.0000 0.0000
# 5 0.0000 0.0000 0.0000 0.0000 2.0739 0.0000
# 6 0.0000 0.0000 0.0000 0.0000 0.0000 49.2818
#
#
#
# Elastic Compliance Matrix: (Units=1/GPa)
#
#
# Indices 1 2 3 4 5 6 
#
# 1 0.004832 -0.000822 -0.001122 0.000000 0.000000 0.000000
# 2 -0.000822 0.004021 -0.002013 0.000000 0.000000 0.000000
# 3 -0.001122 -0.002013 0.015505 0.000000 0.000000 0.000000
# 4 0.000000 0.000000 0.000000 0.033120 0.000000 0.000000
# 5 0.000000 0.000000 0.000000 0.000000 0.482172 0.000000
# 6 0.000000 0.000000 0.000000 0.000000 0.000000 0.020291
#
#
# Mechanical properties :
#
#
# Convention : Reuss Voigt Hill
#
# Bulk Modulus (GPa) = 60.80983 90.75344 75.78163
# Shear Modulus (GPa) = 8.72090 46.51516 27.61803
#
# Velocity S-wave (km/s) = 1.99152 4.59940 3.54406
# Velocity P-wave (km/s) = 5.73967 8.33544 7.15623
#
# Compressibility (1/GPa) = 0.01644471
#
# Stress axis : x y z
#
# Youngs Moduli (GPa) = 206.96909 248.70801 64.49644
#
# Poissons Ratio (x) = 0.20440 0.07234
# Poissons Ratio (y) = 0.17010 0.12982
# Poissons Ratio (z) = 0.23213 0.50059
#
# Static dielectric constant tensor:
#      x y z
#    x 1.798770 0.000000 0.000000 
#    y 0.000000 2.035300 0.000000 
#    z 0.000000 0.000000 1.762700 
# 
# From -- ./inp_files/15870.got.cif
#   From: 2010.05.17/outbox.cif.g08.bks.cpg/sg54_8_cif.got.tgz:15870.got - 2010.06.03 13:09:01.
