data_PCOD9420487
_publ_section_title
;
Structure prediction by ZEFSAII (Michael W. Deem and Ramdas Pophale) SiO2 
 PCOD9420487
Probable space group: P C C A
;
_chemical_formula_sum "Si O2"
_cell_formula_units_Z 52
_cell_length_a 18.530907
_cell_length_b 20.658418
_cell_length_c 5.659174
_cell_angle_alpha 90.000000
_cell_angle_beta 90.000000
_cell_angle_gamma 90.000000
_cell_volume 2166.440592
_symmetry_space_group_name_H-M "P C C A"
_symmetry_group_IT_number 54
_symmetry_cell_setting 'orthorhombic'
loop_
_space_group_symop_operation_xyz
x,y,z
1/2-x,-y,z
1/2+x,-y,1/2-z
-x,y,1/2-z
-x,-y,-z
1/2+x,y,-z
1/2-x,y,1/2+z
x,-y,1/2+z
loop_
_atom_site_type_symbol
_atom_site_label
_atom_site_fract_x
_atom_site_fract_y
_atom_site_fract_z
Si Si1 0.383487 0.167612 0.112623
Si Si2 0.896508 0.794390 0.887717
Si Si3 0.643281 0.477430 0.834396
Si Si4 0.255342 0.733483 0.629193
Si Si5 0.667237 0.975358 0.931537
Si Si6 0.000000 0.446062 0.750000
Si Si7 0.928065 0.643417 0.898491
O O1 0.418880 0.168964 0.372978
O O2 0.331234 0.229866 0.123734
O O3 0.338913 0.101584 0.089981
O O4 0.423386 0.177595 0.862360
O O5 0.808131 0.788732 0.871806
O O6 0.916042 0.719049 0.911097
O O7 0.673837 0.508245 0.594701
O O8 0.560547 0.506521 0.865532
O O9 0.634735 0.400746 0.790686
O O10 0.247757 0.697966 0.379728
O O11 0.750000 0.000000 0.938483
O O12 0.635153 0.003938 0.686565
O O13 0.945054 0.392744 0.639985
O O14 0.000000 0.632990 0.750000
#
# Coordination Sequence:
#
# PCOD9420487 Si02
#       7
#     8   8   8   8   8   4   8
#     4  10  20  36  48  71 113 133 167 204 261 304
#     4  10  22  30  50  70 101 151 167 205 249 316
#     4  10  17  30  48  71  94 140 154 214 274 308
#     4   8  16  29  48  60  92 135 162 190 249 288
#     4  10  21  28  51  80 101 134 165 195 254 321
#     4  10  18  32  50  70 106 140 160 224 276 300
#     4  11  20  32  49  73 109 135 187 205 258 318
#
# _framework density 24.002504999999999
#
# number of rings (size 3 to 8) (size 9 to 14) (size 15 to 20)
#    0.000    2.154    2.308    1.846   15.077    0.000 
#    0.000    0.000    0.000    0.000    0.000    0.000 
#    0.000  145.231    0.000    0.000    0.000    0.000 
#
# Total GULP energy -289687.502983 kJ/mol
# GULP energy per Si atom -5570.913519 kJ/mol
# Density = 2.394787 g / cm^3
# Si number density = 24.002505 Si / 1000 Ang^3
#
#
#
# Elastic Constant Matrix: (Units=GPa)
#
#
# Indices 1 2 3 4 5 6 
#
# 1 51.7239 4.4726 17.0504 0.0000 0.0000 0.0000
# 2 4.4726 113.5146 25.4890 0.0000 0.0000 0.0000
# 3 17.0504 25.4890 225.0038 0.0000 0.0000 0.0000
# 4 0.0000 0.0000 0.0000 19.4195 0.0000 0.0000
# 5 0.0000 0.0000 0.0000 0.0000 -7.5666 0.0000
# 6 0.0000 0.0000 0.0000 0.0000 0.0000 21.6152
#
#
#
# Elastic Compliance Matrix: (Units=1/GPa)
#
#
# Indices 1 2 3 4 5 6 
#
# 1 0.019852 -0.000456 -0.001453 0.000000 0.000000 0.000000
# 2 -0.000456 0.009050 -0.000991 0.000000 0.000000 0.000000
# 3 -0.001453 -0.000991 0.004667 0.000000 0.000000 0.000000
# 4 0.000000 0.000000 0.000000 0.051495 0.000000 0.000000
# 5 0.000000 0.000000 0.000000 0.000000 -0.132159 0.000000
# 6 0.000000 0.000000 0.000000 0.000000 0.000000 0.046264
#
#
# Mechanical properties :
#
#
# Convention : Reuss Voigt Hill
#
# Bulk Modulus (GPa) = 36.01058 53.80739 44.90899
# Shear Modulus (GPa) = 351.55187 29.57563 190.56375
#
# Velocity S-wave (km/s) = 12.11539 3.51406 8.91996
# Velocity P-wave (km/s) = 14.51708 6.23947 11.17310
#
# Compressibility (1/GPa) = 0.02776962
#
# Stress axis : x y z
#
# Youngs Moduli (GPa) = 50.37350 110.49904 214.28540
#
# Poissons Ratio (x) = 0.05039 0.31129
# Poissons Ratio (y) = 0.02297 0.21228
# Poissons Ratio (z) = 0.07318 0.10946
#
# Static dielectric constant tensor:
#      x y z
#    x 1.978790 0.000000 0.000000 
#    y 0.000000 1.830580 0.000000 
#    z 0.000000 0.000000 2.394310 
# 
# From -- ./inp_files/1962.got.cif
#   From: 2010.05.17/outbox.cif.g08.bks.cpg/sg54_1_cif.got.tgz:1962.got - 2010.06.03 13:09:01.
