data_PCOD9420475
_publ_section_title
;
Structure prediction by ZEFSAII (Michael W. Deem and Ramdas Pophale) SiO2 
 PCOD9420475
Probable space group: P C C A
;
_chemical_formula_sum "Si O2"
_cell_formula_units_Z 48
_cell_length_a 18.469134
_cell_length_b 10.600435
_cell_length_c 13.963334
_cell_angle_alpha 90.000000
_cell_angle_beta 90.000000
_cell_angle_gamma 90.000000
_cell_volume 2733.753462
_symmetry_space_group_name_H-M "P C C A"
_symmetry_group_IT_number 54
_symmetry_cell_setting 'orthorhombic'
loop_
_space_group_symop_operation_xyz
x,y,z
1/2-x,-y,z
1/2+x,-y,1/2-z
-x,y,1/2-z
-x,-y,-z
1/2+x,y,-z
1/2-x,y,1/2+z
x,-y,1/2+z
loop_
_atom_site_type_symbol
_atom_site_label
_atom_site_fract_x
_atom_site_fract_y
_atom_site_fract_z
Si Si1 0.812196 0.843353 0.845332
Si Si2 0.917386 0.644423 0.278298
Si Si3 0.147983 0.899907 0.230993
Si Si4 0.804658 0.608960 0.107210
Si Si5 0.298401 0.121255 0.428956
Si Si6 0.829937 0.559291 0.887534
O O1 0.730090 0.862373 0.804501
O O2 0.833442 0.696431 0.836649
O O3 0.859746 0.954360 0.798298
O O4 0.815523 0.872609 0.959131
O O5 0.901955 0.789030 0.310775
O O6 0.866325 0.622326 0.185849
O O7 0.888751 0.540854 0.352737
O O8 0.000000 0.628092 0.250000
O O9 0.141424 0.891711 0.346434
O O10 0.750000 0.500000 0.134993
O O11 0.763797 0.743026 0.095890
O O12 0.835476 0.580488 0.001711
O O13 0.250000 0.000000 0.412792
O O14 0.750000 0.500000 0.871029
#
# Coordination Sequence:
#
# PCOD9420475 Si02
#       6
#     8   8   8   8   8   8
#     4  10  18  30  53  81 103 129 174 229 266 305
#     4  11  23  37  53  76 114 151 178 216 275 333
#     4  10  19  31  52  78 107 139 171 221 266 316
#     4   9  21  34  55  81 106 136 180 232 264 312
#     4  10  17  28  48  81 110 122 164 221 277 305
#     4  10  19  35  57  82 107 134 182 231 268 314
#
# _framework density 17.558278000000001
#
# number of rings (size 3 to 8) (size 9 to 14) (size 15 to 20)
#    0.000    2.000    5.000    0.500    2.333    0.667 
#    0.000    0.833    0.000    9.000    0.000    0.000 
#    0.000    0.000    0.000    0.000    0.000    0.000 
#
# Total GULP energy -267210.445811 kJ/mol
# GULP energy per Si atom -5566.884288 kJ/mol
# Density = 1.751831 g / cm^3
# Si number density = 17.558278 Si / 1000 Ang^3
#
#
#
# Elastic Constant Matrix: (Units=GPa)
#
#
# Indices 1 2 3 4 5 6 
#
# 1 40.7448 24.1659 3.3861 0.0000 0.0000 0.0000
# 2 24.1659 135.5531 20.4278 0.0000 0.0000 0.0000
# 3 3.3861 20.4278 74.0168 0.0000 0.0000 0.0000
# 4 0.0000 0.0000 0.0000 31.6311 0.0000 0.0000
# 5 0.0000 0.0000 0.0000 0.0000 13.5661 0.0000
# 6 0.0000 0.0000 0.0000 0.0000 0.0000 14.5701
#
#
#
# Elastic Compliance Matrix: (Units=1/GPa)
#
#
# Indices 1 2 3 4 5 6 
#
# 1 0.027446 -0.004908 0.000099 0.000000 0.000000 0.000000
# 2 -0.004908 0.008575 -0.002142 0.000000 0.000000 0.000000
# 3 0.000099 -0.002142 0.014097 0.000000 0.000000 0.000000
# 4 0.000000 0.000000 0.000000 0.031614 0.000000 0.000000
# 5 0.000000 0.000000 0.000000 0.000000 0.073713 0.000000
# 6 0.000000 0.000000 0.000000 0.000000 0.000000 0.068634
#
#
# Mechanical properties :
#
#
# Convention : Reuss Voigt Hill
#
# Bulk Modulus (GPa) = 27.61226 38.47492 33.04359
# Shear Modulus (GPa) = 19.99577 25.44244 22.71910
#
# Velocity S-wave (km/s) = 3.37831 3.81074 3.60102
# Velocity P-wave (km/s) = 5.56574 6.42826 6.01249
#
# Compressibility (1/GPa) = 0.03621579
#
# Stress axis : x y z
#
# Youngs Moduli (GPa) = 36.43563 116.61884 70.93649
#
# Poissons Ratio (x) = 0.57234 -0.00702
# Poissons Ratio (y) = 0.17882 0.15195
# Poissons Ratio (z) = -0.00360 0.24981
#
# Static dielectric constant tensor:
#      x y z
#    x 1.550500 0.000000 0.000000 
#    y 0.000000 1.653410 0.000000 
#    z 0.000000 0.000000 1.636790 
# 
# From -- ./inp_files/14213.got.cif
#   From: 2010.05.17/outbox.cif.g08.bks.cpg/sg54_8_cif.got.tgz:14213.got - 2010.06.03 13:09:01.
