data_PCOD9420752
_publ_section_title
;
Structure prediction by ZEFSAII (Michael W. Deem and Ramdas Pophale) SiO2 
 PCOD9420752
Probable space group: P C C A
;
_chemical_formula_sum "Si O2"
_cell_formula_units_Z 40
_cell_length_a 13.497522
_cell_length_b 5.564497
_cell_length_c 22.200794
_cell_angle_alpha 90.000000
_cell_angle_beta 90.000000
_cell_angle_gamma 90.000000
_cell_volume 1667.433274
_symmetry_space_group_name_H-M "P C C A"
_symmetry_group_IT_number 54
_symmetry_cell_setting 'orthorhombic'
loop_
_space_group_symop_operation_xyz
x,y,z
1/2-x,-y,z
1/2+x,-y,1/2-z
-x,y,1/2-z
-x,-y,-z
1/2+x,y,-z
1/2-x,y,1/2+z
x,-y,1/2+z
loop_
_atom_site_type_symbol
_atom_site_label
_atom_site_fract_x
_atom_site_fract_y
_atom_site_fract_z
Si Si1 0.075357 0.736913 0.438963
Si Si2 0.250000 0.000000 0.871535
Si Si3 0.191102 0.245707 0.054269
Si Si4 0.934318 0.998895 0.855729
Si Si5 0.500000 0.707248 0.750000
Si Si6 0.109569 0.367521 0.340607
O O1 0.159140 0.915237 0.412460
O O2 0.096480 0.724611 0.509590
O O3 0.102707 0.488184 0.406452
O O4 0.971633 0.831287 0.411574
O O5 0.212320 0.772082 0.834018
O O6 0.250000 0.500000 0.052482
O O7 0.151400 0.172936 0.120194
O O8 0.250000 0.000000 0.036158
O O9 0.025477 0.832072 0.838041
O O10 0.926560 0.154715 0.795880
O O11 0.573729 0.559540 0.707417
#
# Coordination Sequence:
#
# PCOD9420752 Si02
#       6
#     8   4   8   8   4   8
#     4  10  21  40  69 104 142 177 231 291 355 428
#     4  10  18  36  64 108 130 172 228 294 352 416
#     4  12  27  44  72 106 154 186 227 293 368 445
#     4  10  24  43  72  98 135 189 248 288 362 423
#     4  10  22  44  72  90 134 194 240 304 344 432
#     4  10  21  38  72  96 139 174 241 296 353 424
#
# _framework density 23.988966000000001
#
# number of rings (size 3 to 8) (size 9 to 14) (size 15 to 20)
#    0.000    1.600    1.000    3.000    8.400    0.800 
#    0.000    0.000   52.800    0.000    0.000    0.000 
#    0.000    0.000    0.000    0.000    0.000    0.000 
#
# Total GULP energy -223425.497930 kJ/mol
# GULP energy per Si atom -5585.637448 kJ/mol
# Density = 2.393437 g / cm^3
# Si number density = 23.988966 Si / 1000 Ang^3
#
#
#
# Elastic Constant Matrix: (Units=GPa)
#
#
# Indices 1 2 3 4 5 6 
#
# 1 24.2035 15.6172 20.7802 0.0000 0.0000 0.0000
# 2 15.6172 117.1825 46.8202 0.0000 0.0000 0.0000
# 3 20.7802 46.8202 122.7720 0.0000 0.0000 0.0000
# 4 0.0000 0.0000 0.0000 -12.2428 0.0000 0.0000
# 5 0.0000 0.0000 0.0000 0.0000 3.0614 0.0000
# 6 0.0000 0.0000 0.0000 0.0000 0.0000 23.5443
#
#
#
# Elastic Compliance Matrix: (Units=1/GPa)
#
#
# Indices 1 2 3 4 5 6 
#
# 1 0.049775 -0.003855 -0.006955 0.000000 0.000000 0.000000
# 2 -0.003855 0.010366 -0.003301 0.000000 0.000000 0.000000
# 3 -0.006955 -0.003301 0.010581 0.000000 0.000000 0.000000
# 4 0.000000 0.000000 0.000000 -0.081681 0.000000 0.000000
# 5 0.000000 0.000000 0.000000 0.000000 0.326646 0.000000
# 6 0.000000 0.000000 0.000000 0.000000 0.000000 0.042473
#
#
# Mechanical properties :
#
#
# Convention : Reuss Voigt Hill
#
# Bulk Modulus (GPa) = 23.52862 47.84367 35.68615
# Shear Modulus (GPa) = 12.48287 14.93527 13.70907
#
# Velocity S-wave (km/s) = 2.28361 2.49788 2.39315
# Velocity P-wave (km/s) = 4.09665 5.32039 4.74811
#
# Compressibility (1/GPa) = 0.04250142
#
# Stress axis : x y z
#
# Youngs Moduli (GPa) = 20.09050 96.46656 94.50799
#
# Poissons Ratio (x) = 0.37187 0.65727
# Poissons Ratio (y) = 0.07745 0.31195
# Poissons Ratio (z) = 0.13972 0.31842
#
# Static dielectric constant tensor:
#      x y z
#    x 0.962140 0.000000 0.000000 
#    y 0.000000 2.019450 0.000000 
#    z 0.000000 0.000000 1.923130 
# 
# From -- ./inp_files/24373.got.cif
#   From: 2010.05.17/outbox.cif.g08.bks.cpg/sg54_13_cif.got.tgz:24373.got - 2010.06.03 13:09:01.
