data_PCOD9420709
_publ_section_title
;
Structure prediction by ZEFSAII (Michael W. Deem and Ramdas Pophale) SiO2 
 PCOD9420709
Probable space group: P C C A
;
_chemical_formula_sum "Si O2"
_cell_formula_units_Z 64
_cell_length_a 18.938113
_cell_length_b 9.236910
_cell_length_c 19.909025
_cell_angle_alpha 90.000000
_cell_angle_beta 90.000000
_cell_angle_gamma 90.000000
_cell_volume 3482.678683
_symmetry_space_group_name_H-M "P C C A"
_symmetry_group_IT_number 54
_symmetry_cell_setting 'orthorhombic'
loop_
_space_group_symop_operation_xyz
x,y,z
1/2-x,-y,z
1/2+x,-y,1/2-z
-x,y,1/2-z
-x,-y,-z
1/2+x,y,-z
1/2-x,y,1/2+z
x,-y,1/2+z
loop_
_atom_site_type_symbol
_atom_site_label
_atom_site_fract_x
_atom_site_fract_y
_atom_site_fract_z
Si Si1 0.576158 0.445130 0.283639
Si Si2 0.301730 0.127568 0.427266
Si Si3 0.875197 0.284154 0.371922
Si Si4 0.735740 0.847773 0.284832
Si Si5 0.743803 0.654227 0.967535
Si Si6 0.924779 0.046389 0.471024
Si Si7 0.298880 0.629185 0.817342
Si Si8 0.634373 0.787646 0.881199
O O1 0.500000 0.451774 0.250000
O O2 0.589647 0.584764 0.331182
O O3 0.635131 0.432766 0.224929
O O4 0.586332 0.301249 0.329420
O O5 0.257412 0.213206 0.483748
O O6 0.369884 0.068126 0.467297
O O7 0.320073 0.248694 0.371584
O O8 0.250000 0.000000 0.403037
O O9 0.840308 0.173371 0.318288
O O10 0.806273 0.342685 0.412007
O O11 0.921266 0.193164 0.425559
O O12 0.751000 0.714006 0.236895
O O13 0.796599 0.845199 0.341748
O O14 0.750000 0.000000 0.249592
O O15 0.750000 0.500000 0.002207
O O16 0.668339 0.674469 0.933333
O O17 0.899940 0.917442 0.421973
O O18 0.000000 0.000000 0.500000
O O19 0.250000 0.500000 0.844422
#
# Coordination Sequence:
#
# PCOD9420709 Si02
#       8
#     8   8   8   8   8   8   8   8
#     4  11  24  42  63  89 126 165 205 253 306 369
#     4  11  23  40  61  91 128 162 199 252 312 367
#     4  10  20  38  62  90 116 159 205 250 303 360
#     4  10  18  34  65  92 116 149 207 262 294 349
#     4  10  18  34  65  93 116 148 207 258 294 349
#     4  11  24  42  63  90 127 165 204 253 310 371
#     4  11  23  40  61  92 127 159 202 253 311 367
#     4  10  20  36  64  90 117 159 206 252 301 359
#
# _framework density 18.376659
#
# number of rings (size 3 to 8) (size 9 to 14) (size 15 to 20)
#    0.000    1.500    5.000    0.750    1.750    0.000 
#    2.250    1.250    0.000    0.000    0.000    0.000 
#    0.000    0.000    0.000    0.000    0.000    0.000 
#
# Total GULP energy -356837.202110 kJ/mol
# GULP energy per Si atom -5575.581283 kJ/mol
# Density = 1.833483 g / cm^3
# Si number density = 18.376659 Si / 1000 Ang^3
#
#
#
# Elastic Constant Matrix: (Units=GPa)
#
#
# Indices 1 2 3 4 5 6 
#
# 1 93.6428 57.5301 58.9891 0.0000 0.0000 0.0000
# 2 57.5301 113.5234 43.9466 0.0000 0.0000 0.0000
# 3 58.9891 43.9466 98.7301 0.0000 0.0000 0.0000
# 4 0.0000 0.0000 0.0000 39.1535 0.0000 0.0000
# 5 0.0000 0.0000 0.0000 0.0000 16.5915 0.0000
# 6 0.0000 0.0000 0.0000 0.0000 0.0000 19.5115
#
#
#
# Elastic Compliance Matrix: (Units=1/GPa)
#
#
# Indices 1 2 3 4 5 6 
#
# 1 0.020838 -0.006935 -0.009363 0.000000 0.000000 0.000000
# 2 -0.006935 0.012951 -0.001621 0.000000 0.000000 0.000000
# 3 -0.009363 -0.001621 0.016444 0.000000 0.000000 0.000000
# 4 0.000000 0.000000 0.000000 0.025540 0.000000 0.000000
# 5 0.000000 0.000000 0.000000 0.000000 0.060272 0.000000
# 6 0.000000 0.000000 0.000000 0.000000 0.000000 0.051252
#
#
# Mechanical properties :
#
#
# Convention : Reuss Voigt Hill
#
# Bulk Modulus (GPa) = 69.47203 69.64754 69.55979
# Shear Modulus (GPa) = 21.93618 24.74669 23.34143
#
# Velocity S-wave (km/s) = 3.45874 3.67364 3.56781
# Velocity P-wave (km/s) = 7.33738 7.48174 7.40991
#
# Compressibility (1/GPa) = 0.01439428
#
# Stress axis : x y z
#
# Youngs Moduli (GPa) = 47.98960 77.21483 60.81104
#
# Poissons Ratio (x) = 0.53551 0.56938
# Poissons Ratio (y) = 0.33283 0.09857
# Poissons Ratio (z) = 0.44933 0.12516
#
# Static dielectric constant tensor:
#      x y z
#    x 1.594240 0.000000 0.000000 
#    y 0.000000 1.684130 0.000000 
#    z 0.000000 0.000000 1.657300 
# 
# From -- ./inp_files/21935.got.cif
#   From: 2010.05.17/outbox.cif.g08.bks.cpg/sg54_11_cif.got.tgz:21935.got - 2010.06.03 13:09:01.
