data_PCOD9420484
_publ_section_title
;
Structure prediction by ZEFSAII (Michael W. Deem and Ramdas Pophale) SiO2 
 PCOD9420484
Probable space group: P C C A
;
_chemical_formula_sum "Si O2"
_cell_formula_units_Z 60
_cell_length_a 14.900772
_cell_length_b 11.093313
_cell_length_c 18.455522
_cell_angle_alpha 90.000000
_cell_angle_beta 90.000000
_cell_angle_gamma 90.000000
_cell_volume 3050.677997
_symmetry_space_group_name_H-M "P C C A"
_symmetry_group_IT_number 54
_symmetry_cell_setting 'orthorhombic'
loop_
_space_group_symop_operation_xyz
x,y,z
1/2-x,-y,z
1/2+x,-y,1/2-z
-x,y,1/2-z
-x,-y,-z
1/2+x,y,-z
1/2-x,y,1/2+z
x,-y,1/2+z
loop_
_atom_site_type_symbol
_atom_site_label
_atom_site_fract_x
_atom_site_fract_y
_atom_site_fract_z
Si Si1 0.445481 0.323382 0.458639
Si Si2 0.750000 0.000000 0.401586
Si Si3 0.320380 0.407360 0.675645
Si Si4 0.759660 0.637939 0.989902
Si Si5 0.362744 0.152314 0.710360
Si Si6 0.509622 0.565719 0.114019
Si Si7 0.062032 0.823884 0.853914
Si Si8 0.392184 0.832083 0.515001
O O1 0.341021 0.293235 0.470373
O O2 0.451106 0.434533 0.402718
O O3 0.475105 0.380204 0.536693
O O4 0.516451 0.215343 0.445706
O O5 0.800109 0.087971 0.346511
O O6 0.673411 0.071330 0.446950
O O7 0.250000 0.500000 0.707303
O O8 0.284993 0.374579 0.594784
O O9 0.324824 0.285645 0.718977
O O10 0.421647 0.452555 0.663625
O O11 0.750000 0.500000 0.016922
O O12 0.668584 0.711865 0.993943
O O13 0.378700 0.111268 0.792604
O O14 0.459580 0.158583 0.671454
O O15 0.569013 0.676358 0.144248
O O16 0.079726 0.871179 0.934281
#
# Coordination Sequence:
#
# PCOD9420484 Si02
#       8
#     8   4   8   8   8   8   8   8
#     4   9  16  29  50  84 124 147 175 239 307 346
#     4  12  26  38  60  86 116 154 220 256 296 354
#     4   9  15  27  52  80 110 145 185 229 288 351
#     4  10  17  29  54  87 119 147 186 241 304 365
#     4  10  21  40  58  84 113 160 202 242 299 376
#     4   8  14  26  51  83 110 144 180 224 289 368
#     4   9  20  39  62  82 114 155 197 245 310 364
#     4  11  22  36  56  91 120 153 201 260 296 354
#
# _framework density 19.667759
#
# number of rings (size 3 to 8) (size 9 to 14) (size 15 to 20)
#    0.000    2.400    1.333    4.800    0.000    1.067 
#    0.000    2.000    0.000    0.000    0.000    0.000 
#    0.000    0.000    0.000    0.000    0.000    0.000 
#
# Total GULP energy -334245.275808 kJ/mol
# GULP energy per Si atom -5570.754597 kJ/mol
# Density = 1.962299 g / cm^3
# Si number density = 19.667759 Si / 1000 Ang^3
#
#
#
# Elastic Constant Matrix: (Units=GPa)
#
#
# Indices 1 2 3 4 5 6 
#
# 1 73.0896 12.2430 19.1650 0.0000 0.0000 0.0000
# 2 12.2430 20.0322 21.1791 0.0000 0.0000 0.0000
# 3 19.1650 21.1791 62.0707 0.0000 0.0000 0.0000
# 4 0.0000 0.0000 0.0000 -5.4239 0.0000 0.0000
# 5 0.0000 0.0000 0.0000 0.0000 8.8636 0.0000
# 6 0.0000 0.0000 0.0000 0.0000 0.0000 18.7613
#
#
#
# Elastic Compliance Matrix: (Units=1/GPa)
#
#
# Indices 1 2 3 4 5 6 
#
# 1 0.015472 -0.006891 -0.002426 0.000000 0.000000 0.000000
# 2 -0.006891 0.081160 -0.025565 0.000000 0.000000 0.000000
# 3 -0.002426 -0.025565 0.025583 0.000000 0.000000 0.000000
# 4 0.000000 0.000000 0.000000 -0.184368 0.000000 0.000000
# 5 0.000000 0.000000 0.000000 0.000000 0.112821 0.000000
# 6 0.000000 0.000000 0.000000 0.000000 0.000000 0.053301
#
#
# Mechanical properties :
#
#
# Convention : Reuss Voigt Hill
#
# Bulk Modulus (GPa) = 19.06546 28.92961 23.99754
# Shear Modulus (GPa) = 26.14826 11.28054 18.71440
#
# Velocity S-wave (km/s) = 3.65018 2.39750 3.08803
# Velocity P-wave (km/s) = 5.24213 4.73340 4.99425
#
# Compressibility (1/GPa) = 0.05245086
#
# Stress axis : x y z
#
# Youngs Moduli (GPa) = 64.63170 12.32133 39.08905
#
# Poissons Ratio (x) = 0.08491 0.09482
# Poissons Ratio (y) = 0.44541 0.99930
# Poissons Ratio (z) = 0.15678 0.31499
#
# Static dielectric constant tensor:
#      x y z
#    x 1.718450 0.000000 0.000000 
#    y 0.000000 1.504420 0.000000 
#    z 0.000000 0.000000 1.707580 
# 
# From -- ./inp_files/18205.got.cif
#   From: 2010.05.17/outbox.cif.g08.bks.cpg/sg54_10_cif.got.tgz:18205.got - 2010.06.03 13:09:01.
