data_PCOD9420002
_publ_section_title
;
Structure prediction by ZEFSAII (Michael W. Deem and Ramdas Pophale) SiO2 
 PCOD9420002
Probable space group: P M N A
;
_chemical_formula_sum "Si O2"
_cell_formula_units_Z 22
_cell_length_a 29.777168
_cell_length_b 5.897438
_cell_length_c 5.287751
_cell_angle_alpha 90.000000
_cell_angle_beta 90.000000
_cell_angle_gamma 90.000000
_cell_volume 928.576676
_symmetry_space_group_name_H-M "P M N A"
_symmetry_group_IT_number 53
_symmetry_cell_setting 'orthorhombic'
loop_
_space_group_symop_operation_xyz
x,y,z
1/2-x,-y,1/2+z
x,-y,-z
1/2-x,y,1/2-z
-x,-y,-z
1/2+x,y,1/2-z
-x,y,z
1/2+x,-y,1/2+z
loop_
_atom_site_type_symbol
_atom_site_label
_atom_site_fract_x
_atom_site_fract_y
_atom_site_fract_z
Si Si1 0.250000 0.850326 0.750000
Si Si2 0.000000 0.500000 0.500000
Si Si3 0.847720 0.642379 0.753769
Si Si4 0.438034 0.139179 0.247614
O O1 0.295944 0.712570 0.725123
O O2 0.245340 0.000000 0.500000
O O3 0.960986 0.381870 0.312097
O O4 0.852916 0.500000 0.500000
O O5 0.884185 0.840461 0.747388
O O6 0.859816 0.500000 0.000000
O O7 0.450972 0.000000 0.500000
O O8 0.451877 0.000000 0.000000
#
# Coordination Sequence:
#
# PCOD9420002 Si02
#       4
#     4   2   8   8
#     4  12  24  42  68 106 144 186 242 292 358 442
#     4  12  28  50  76 108 146 192 254 306 374 436
#     4  12  24  45  71 103 144 191 240 296 365 437
#     4  12  27  48  74 107 145 192 245 306 371 438
#
# _framework density 23.692173
#
# number of rings (size 3 to 8) (size 9 to 14) (size 15 to 20)
#    0.000    0.000    1.818    8.727    0.000    1.455 
#    0.000    0.000    0.000    0.000    0.000    0.000 
#    0.000    0.000    0.000    0.000    0.000    0.000 
#
# Total GULP energy -122661.265235 kJ/mol
# GULP energy per Si atom -5575.512056 kJ/mol
# Density = 2.363825 g / cm^3
# Si number density = 23.692173 Si / 1000 Ang^3
#
#
#
# Elastic Constant Matrix: (Units=GPa)
#
#
# Indices 1 2 3 4 5 6 
#
# 1 176.0139 18.4475 3.9607 0.0000 0.0000 0.0000
# 2 18.4475 54.8385 67.5977 0.0000 0.0000 0.0000
# 3 3.9607 67.5977 213.5663 0.0000 0.0000 0.0000
# 4 0.0000 0.0000 0.0000 72.2893 0.0000 0.0000
# 5 0.0000 0.0000 0.0000 0.0000 85.5401 0.0000
# 6 0.0000 0.0000 0.0000 0.0000 0.0000 284.1751
#
#
#
# Elastic Compliance Matrix: (Units=1/GPa)
#
#
# Indices 1 2 3 4 5 6 
#
# 1 0.005984 -0.003077 0.000863 0.000000 0.000000 0.000000
# 2 -0.003077 0.031484 -0.009908 0.000000 0.000000 0.000000
# 3 0.000863 -0.009908 0.007803 0.000000 0.000000 0.000000
# 4 0.000000 0.000000 0.000000 0.013833 0.000000 0.000000
# 5 0.000000 0.000000 0.000000 0.000000 0.011690 0.000000
# 6 0.000000 0.000000 0.000000 0.000000 0.000000 0.003519
#
#
# Mechanical properties :
#
#
# Convention : Reuss Voigt Hill
#
# Bulk Modulus (GPa) = 47.55870 69.38118 58.46994
# Shear Modulus (GPa) = 47.36353 112.02842 79.69597
#
# Velocity S-wave (km/s) = 4.47600 6.88387 5.80613
# Velocity P-wave (km/s) = 6.84324 9.61933 8.34750
#
# Compressibility (1/GPa) = 0.02102665
#
# Stress axis : x y z
#
# Youngs Moduli (GPa) = 167.10056 31.76231 128.16403
#
# Poissons Ratio (x) = 0.09773 -0.11059
# Poissons Ratio (y) = 0.51413 1.26987
# Poissons Ratio (z) = -0.14419 0.31471
#
# Static dielectric constant tensor:
#      x y z
#    x 1.999230 0.000000 0.000000 
#    y 0.000000 2.085030 0.000000 
#    z 0.000000 0.000000 1.822560 
# 
# From -- ./inp_files/4788.got.cif
#   From: 2010.05.17/outbox.cif.g08.bks.cpg/sg53_3_cif.got.tgz:4788.got - 2010.06.03 12:45:16.
