data_PCOD9420963
_publ_section_title
;
Structure prediction by ZEFSAII (Michael W. Deem and Ramdas Pophale) SiO2 
 PCOD9420963
Probable space group: P C C A
;
_chemical_formula_sum "Si O2"
_cell_formula_units_Z 48
_cell_length_a 8.449068
_cell_length_b 17.976484
_cell_length_c 15.278681
_cell_angle_alpha 90.000000
_cell_angle_beta 90.000000
_cell_angle_gamma 90.000000
_cell_volume 2320.595370
_symmetry_space_group_name_H-M "P C C A"
_symmetry_group_IT_number 54
_symmetry_cell_setting 'orthorhombic'
loop_
_space_group_symop_operation_xyz
x,y,z
1/2-x,-y,z
1/2+x,-y,1/2-z
-x,y,1/2-z
-x,-y,-z
1/2+x,y,-z
1/2-x,y,1/2+z
x,-y,1/2+z
loop_
_atom_site_type_symbol
_atom_site_label
_atom_site_fract_x
_atom_site_fract_y
_atom_site_fract_z
Si Si1 0.139324 0.240661 0.619134
Si Si2 0.651937 0.074803 0.436423
Si Si3 0.213387 0.923775 0.371637
Si Si4 0.865344 0.660576 0.556236
Si Si5 0.132266 0.444272 0.034998
Si Si6 0.781342 0.234599 0.694603
O O1 0.200793 0.157754 0.595030
O O2 0.137816 0.294448 0.535780
O O3 0.229308 0.263948 0.707032
O O4 0.958216 0.238715 0.653473
O O5 0.468481 0.071961 0.406122
O O6 0.677114 0.078544 0.541467
O O7 0.750000 0.000000 0.409505
O O8 0.248726 0.853224 0.312279
O O9 0.250000 0.000000 0.322833
O O10 0.733653 0.596318 0.541162
O O11 0.825138 0.718277 0.630607
O O12 0.031746 0.621657 0.576609
O O13 0.250000 0.500000 0.086044
O O14 0.000000 0.500000 0.000000
#
# Coordination Sequence:
#
# PCOD9420963 Si02
#       6
#     8   8   8   8   8   8
#     4  10  21  36  58  88 120 160 204 247 301 357
#     4  10  19  33  54  78 114 157 204 253 302 348
#     4  10  19  33  54  78 114 157 205 253 301 349
#     4  11  18  38  65  86 125 155 191 249 296 352
#     4   9  20  36  64  96 116 153 194 226 292 371
#     4  10  21  36  58  88 120 162 204 244 305 354
#
# _framework density 20.684346000000001
#
# number of rings (size 3 to 8) (size 9 to 14) (size 15 to 20)
#    0.000    2.000    3.333    2.000    0.000    0.667 
#    3.000    0.833    0.000   15.000    0.000    0.000 
#    0.000    0.000    0.000    0.000    0.000    0.000 
#
# Total GULP energy -267456.235244 kJ/mol
# GULP energy per Si atom -5572.004901 kJ/mol
# Density = 2.063727 g / cm^3
# Si number density = 20.684346 Si / 1000 Ang^3
#
#
#
# Elastic Constant Matrix: (Units=GPa)
#
#
# Indices 1 2 3 4 5 6 
#
# 1 60.1472 49.4941 11.5859 0.0000 0.0000 0.0000
# 2 49.4941 130.1929 54.6516 0.0000 0.0000 0.0000
# 3 11.5859 54.6516 92.6066 0.0000 0.0000 0.0000
# 4 0.0000 0.0000 0.0000 -12.4661 0.0000 0.0000
# 5 0.0000 0.0000 0.0000 0.0000 11.9861 0.0000
# 6 0.0000 0.0000 0.0000 0.0000 0.0000 45.1868
#
#
#
# Elastic Compliance Matrix: (Units=1/GPa)
#
#
# Indices 1 2 3 4 5 6 
#
# 1 0.024926 -0.010856 0.003288 0.000000 0.000000 0.000000
# 2 -0.010856 0.014939 -0.007458 0.000000 0.000000 0.000000
# 3 0.003288 -0.007458 0.014788 0.000000 0.000000 0.000000
# 4 0.000000 0.000000 0.000000 -0.080218 0.000000 0.000000
# 5 0.000000 0.000000 0.000000 0.000000 0.083430 0.000000
# 6 0.000000 0.000000 0.000000 0.000000 0.000000 0.022130
#
#
# Mechanical properties :
#
#
# Convention : Reuss Voigt Hill
#
# Bulk Modulus (GPa) = 40.64822 57.15663 48.90243
# Shear Modulus (GPa) = 42.28460 20.08906 31.18683
#
# Velocity S-wave (km/s) = 4.52628 3.11982 3.88719
# Velocity P-wave (km/s) = 6.85643 6.37734 6.62122
#
# Compressibility (1/GPa) = 0.02460133
#
# Stress axis : x y z
#
# Youngs Moduli (GPa) = 40.11905 66.94088 67.62165
#
# Poissons Ratio (x) = 0.72672 -0.22236
# Poissons Ratio (y) = 0.43554 0.50431
# Poissons Ratio (z) = -0.13192 0.49923
#
# Static dielectric constant tensor:
#      x y z
#    x 1.811870 0.000000 0.000000 
#    y 0.000000 1.793430 0.000000 
#    z 0.000000 0.000000 1.695190 
# 
# From -- ./inp_files/11742.got.cif
#   From: 2010.05.17/outbox.cif.g08.bks.cpg/sg54_6_cif.got.tgz:11742.got - 2010.06.03 13:09:01.
