data_PCOD9420919
_publ_section_title
;
Structure prediction by ZEFSAII (Michael W. Deem and Ramdas Pophale) SiO2 
 PCOD9420919
Probable space group: P C C A
;
_chemical_formula_sum "Si O2"
_cell_formula_units_Z 48
_cell_length_a 5.002812
_cell_length_b 29.768360
_cell_length_c 15.162226
_cell_angle_alpha 90.000000
_cell_angle_beta 90.000000
_cell_angle_gamma 90.000000
_cell_volume 2258.042219
_symmetry_space_group_name_H-M "P C C A"
_symmetry_group_IT_number 54
_symmetry_cell_setting 'orthorhombic'
loop_
_space_group_symop_operation_xyz
x,y,z
1/2-x,-y,z
1/2+x,-y,1/2-z
-x,y,1/2-z
-x,-y,-z
1/2+x,y,-z
1/2-x,y,1/2+z
x,-y,1/2+z
loop_
_atom_site_type_symbol
_atom_site_label
_atom_site_fract_x
_atom_site_fract_y
_atom_site_fract_z
Si Si1 0.112598 0.668282 0.940220
Si Si2 0.986145 0.569799 0.562444
Si Si3 0.477825 0.141158 0.856057
Si Si4 0.750000 0.000000 0.435060
Si Si5 0.250000 0.500000 0.694894
Si Si6 0.470343 0.089778 0.144585
Si Si7 0.978243 0.235346 0.060598
O O1 0.028633 0.620704 0.899629
O O2 0.061548 0.715973 0.894232
O O3 0.918361 0.668532 0.026825
O O4 0.195328 0.563671 0.481312
O O5 0.093786 0.536117 0.635326
O O6 0.500000 0.138771 0.750000
O O7 0.769231 0.127711 0.889899
O O8 0.411999 0.191547 0.883158
O O9 0.263544 0.103946 0.888517
O O10 0.823633 0.956752 0.376983
O O11 0.500000 0.000000 0.500000
O O12 0.500000 0.520529 0.750000
O O13 0.500000 0.091353 0.250000
O O14 0.277070 0.234160 0.022611
#
# Coordination Sequence:
#
# PCOD9420919 Si02
#       7
#     8   8   8   4   4   8   8
#     4   8  16  30  51  78 104 134 181 229 267 321
#     4  10  19  36  59  78 103 148 198 231 268 342
#     4  10  21  37  56  80 109 144 185 221 260 327
#     4  12  26  40  60  90 116 136 180 240 282 316
#     4  12  24  36  52  82 118 144 180 242 304 342
#     4  10  23  41  59  78 109 152 186 216 269 337
#     4  10  19  32  54  82 109 140 176 224 280 324
#
# _framework density 21.257352999999998
#
# number of rings (size 3 to 8) (size 9 to 14) (size 15 to 20)
#    0.000    2.000    0.000    3.500    0.000    6.667 
#    0.000    0.833    0.000    3.000    0.000    0.000 
#    0.000    0.000    0.000    0.000    0.000    0.000 
#
# Total GULP energy -267548.326722 kJ/mol
# GULP energy per Si atom -5573.923473 kJ/mol
# Density = 2.120897 g / cm^3
# Si number density = 21.257353 Si / 1000 Ang^3
#
#
#
# Elastic Constant Matrix: (Units=GPa)
#
#
# Indices 1 2 3 4 5 6 
#
# 1 109.6662 6.5674 10.4216 0.0000 0.0000 0.0000
# 2 6.5674 120.4669 14.4584 0.0000 0.0000 0.0000
# 3 10.4216 14.4584 22.2300 0.0000 0.0000 0.0000
# 4 0.0000 0.0000 0.0000 -58.6586 0.0000 0.0000
# 5 0.0000 0.0000 0.0000 0.0000 1.8934 0.0000
# 6 0.0000 0.0000 0.0000 0.0000 0.0000 32.3288
#
#
#
# Elastic Compliance Matrix: (Units=1/GPa)
#
#
# Indices 1 2 3 4 5 6 
#
# 1 0.009544 0.000018 -0.004486 0.000000 0.000000 0.000000
# 2 0.000018 0.009004 -0.005865 0.000000 0.000000 0.000000
# 3 -0.004486 -0.005865 0.050902 0.000000 0.000000 0.000000
# 4 0.000000 0.000000 0.000000 -0.017048 0.000000 0.000000
# 5 0.000000 0.000000 0.000000 0.000000 0.528162 0.000000
# 6 0.000000 0.000000 0.000000 0.000000 0.000000 0.030932
#
#
# Mechanical properties :
#
#
# Convention : Reuss Voigt Hill
#
# Bulk Modulus (GPa) = 20.49836 35.02865 27.76351
# Shear Modulus (GPa) = 7.71102 9.84042 8.77572
#
# Velocity S-wave (km/s) = 1.90666 2.15389 2.03403
# Velocity P-wave (km/s) = 3.80933 4.76443 4.31340
#
# Compressibility (1/GPa) = 0.04878439
#
# Stress axis : x y z
#
# Youngs Moduli (GPa) = 104.78010 111.06271 19.64570
#
# Poissons Ratio (x) = -0.00201 0.08813
# Poissons Ratio (y) = -0.00190 0.11522
# Poissons Ratio (z) = 0.47004 0.65135
#
# Static dielectric constant tensor:
#      x y z
#    x 1.760520 0.000000 0.000000 
#    y 0.000000 1.862280 0.000000 
#    z 0.000000 0.000000 1.822270 
# 
# From -- ./inp_files/15928.got.cif
#   From: 2010.05.17/outbox.cif.g08.bks.cpg/sg54_8_cif.got.tgz:15928.got - 2010.06.03 13:09:01.
