data_PCOD9420308
_publ_section_title
;
Structure prediction by ZEFSAII (Michael W. Deem and Ramdas Pophale) SiO2 
 PCOD9420308
Probable space group: P C C A
;
_chemical_formula_sum "Si O2"
_cell_formula_units_Z 48
_cell_length_a 5.257397
_cell_length_b 30.718021
_cell_length_c 16.369491
_cell_angle_alpha 90.000000
_cell_angle_beta 90.000000
_cell_angle_gamma 90.000000
_cell_volume 2643.620929
_symmetry_space_group_name_H-M "P C C A"
_symmetry_group_IT_number 54
_symmetry_cell_setting 'orthorhombic'
loop_
_space_group_symop_operation_xyz
x,y,z
1/2-x,-y,z
1/2+x,-y,1/2-z
-x,y,1/2-z
-x,-y,-z
1/2+x,y,-z
1/2-x,y,1/2+z
x,-y,1/2+z
loop_
_atom_site_type_symbol
_atom_site_label
_atom_site_fract_x
_atom_site_fract_y
_atom_site_fract_z
Si Si1 0.013048 0.118512 0.052713
Si Si2 0.832349 0.208598 0.442713
Si Si3 0.496725 0.980744 0.094227
Si Si4 0.225584 0.549396 0.054296
Si Si5 0.748650 0.719819 0.805086
Si Si6 0.746976 0.620027 0.804965
O O1 0.107812 0.161609 0.099877
O O2 0.029920 0.071021 0.091644
O O3 0.221590 0.120170 0.978872
O O4 0.576561 0.211120 0.497281
O O5 0.798644 0.246431 0.377310
O O6 0.750000 0.000000 0.131996
O O7 0.250000 0.000000 0.135307
O O8 0.500000 0.000000 0.000000
O O9 0.250000 0.500000 0.087507
O O10 0.260549 0.585608 0.122680
O O11 0.450562 0.553920 0.987872
O O12 0.500000 0.730224 0.750000
O O13 0.718484 0.669954 0.835377
O O14 0.000000 0.720527 0.750000
O O15 0.500000 0.610737 0.750000
O O16 0.000000 0.617535 0.750000
#
# Coordination Sequence:
#
# PCOD9420308 Si02
#       6
#     8   8   8   8   8   8
#     4  10  16  25  37  60  92 124 152 194 241 298
#     4  10  21  33  51  76 104 133 167 217 266 307
#     4  10  14  20  34  53  82 125 154 176 236 302
#     4  10  21  36  54  80 113 145 174 213 266 323
#     4  10  21  38  56  75 104 139 179 219 264 321
#     4  10  21  36  56  80 103 136 181 226 262 306
#
# _framework density 18.156917
#
# number of rings (size 3 to 8) (size 9 to 14) (size 15 to 20)
#    0.000    2.000    3.333    2.000    0.000    2.000 
#    0.000    0.000    0.000    0.000    0.000    0.000 
#    0.000    2.667    0.000    0.000    0.000    0.000 
#
# Total GULP energy -267318.438059 kJ/mol
# GULP energy per Si atom -5569.134126 kJ/mol
# Density = 1.811559 g / cm^3
# Si number density = 18.156917 Si / 1000 Ang^3
#
#
#
# Elastic Constant Matrix: (Units=GPa)
#
#
# Indices 1 2 3 4 5 6 
#
# 1 133.3941 26.4132 12.7172 0.0000 0.0000 0.0000
# 2 26.4132 158.1548 60.4232 0.0000 0.0000 0.0000
# 3 12.7172 60.4232 28.6013 0.0000 0.0000 0.0000
# 4 0.0000 0.0000 0.0000 -62.5363 0.0000 0.0000
# 5 0.0000 0.0000 0.0000 0.0000 12.1409 0.0000
# 6 0.0000 0.0000 0.0000 0.0000 0.0000 37.7465
#
#
#
# Elastic Compliance Matrix: (Units=1/GPa)
#
#
# Indices 1 2 3 4 5 6 
#
# 1 0.007829 0.000116 -0.003727 0.000000 0.000000 0.000000
# 2 0.000116 0.032784 -0.069311 0.000000 0.000000 0.000000
# 3 -0.003727 -0.069311 0.183047 0.000000 0.000000 0.000000
# 4 0.000000 0.000000 0.000000 -0.015991 0.000000 0.000000
# 5 0.000000 0.000000 0.000000 0.000000 0.082366 0.000000
# 6 0.000000 0.000000 0.000000 0.000000 0.000000 0.026493
#
#
# Mechanical properties :
#
#
# Convention : Reuss Voigt Hill
#
# Bulk Modulus (GPa) = 12.85064 57.69528 35.27296
# Shear Modulus (GPa) = 10.23940 12.17665 11.20802
#
# Velocity S-wave (km/s) = 2.37732 2.59247 2.48722
# Velocity P-wave (km/s) = 3.82471 6.38797 5.26472
#
# Compressibility (1/GPa) = 0.07781712
#
# Stress axis : x y z
#
# Youngs Moduli (GPa) = 127.73290 30.50282 5.46307
#
# Poissons Ratio (x) = -0.00355 0.02036
# Poissons Ratio (y) = -0.01485 0.37865
# Poissons Ratio (z) = 0.47601 2.11418
#
# Static dielectric constant tensor:
#      x y z
#    x 1.632970 0.000000 0.000000 
#    y 0.000000 1.664090 0.000000 
#    z 0.000000 0.000000 1.569890 
# 
# From -- ./inp_files/10919.got.cif
#   From: 2010.05.17/outbox.cif.g08.bks.cpg/sg54_6_cif.got.tgz:10919.got - 2010.06.03 13:09:01.
