data_PCOD9420366
_publ_section_title
;
Structure prediction by ZEFSAII (Michael W. Deem and Ramdas Pophale) SiO2 
 PCOD9420366
Probable space group: P C C A
;
_chemical_formula_sum "Si O2"
_cell_formula_units_Z 52
_cell_length_a 5.333394
_cell_length_b 21.992892
_cell_length_c 22.792114
_cell_angle_alpha 90.000000
_cell_angle_beta 90.000000
_cell_angle_gamma 90.000000
_cell_volume 2673.441086
_symmetry_space_group_name_H-M "P C C A"
_symmetry_group_IT_number 54
_symmetry_cell_setting 'orthorhombic'
loop_
_space_group_symop_operation_xyz
x,y,z
1/2-x,-y,z
1/2+x,-y,1/2-z
-x,y,1/2-z
-x,-y,-z
1/2+x,y,-z
1/2-x,y,1/2+z
x,-y,1/2+z
loop_
_atom_site_type_symbol
_atom_site_label
_atom_site_fract_x
_atom_site_fract_y
_atom_site_fract_z
Si Si1 0.498863 0.526366 0.433576
Si Si2 0.727080 0.927682 0.971289
Si Si3 0.387230 0.158115 0.124306
Si Si4 0.750000 0.000000 0.211246
Si Si5 0.040897 0.329577 0.065654
Si Si6 0.615995 0.867774 0.185106
Si Si7 0.538858 0.279228 0.067622
O O1 0.250000 0.500000 0.404685
O O2 0.500000 0.500000 0.500000
O O3 0.493637 0.598829 0.438432
O O4 0.750000 0.500000 0.405395
O O5 0.620550 0.905905 0.909420
O O6 0.750000 0.000000 0.974397
O O7 0.510222 0.905244 0.016231
O O8 0.608326 0.158935 0.172323
O O9 0.460607 0.210027 0.077655
O O10 0.102558 0.162963 0.146673
O O11 0.657553 0.940620 0.176100
O O12 0.500000 0.017422 0.250000
O O13 0.309376 0.317544 0.094060
O O14 0.805856 0.296328 0.094708
O O15 0.063597 0.300321 0.000235
O O16 0.500000 0.863141 0.250000
#
# Coordination Sequence:
#
# PCOD9420366 Si02
#       7
#     8   8   8   4   8   8   8
#     4  10  16  25  43  67  94 134 189 216 254 301
#     4  10  23  39  55  77 109 140 175 221 268 312
#     4  12  24  36  61  79 102 143 184 216 274 334
#     4  10  20  38  62  82 100 124 150 208 292 356
#     4  10  19  32  47  68 107 145 179 231 247 283
#     4  11  24  41  59  82 107 126 167 227 290 350
#     4  10  20  31  47  69  97 136 184 209 255 292
#
# _framework density 19.450585
#
# number of rings (size 3 to 8) (size 9 to 14) (size 15 to 20)
#    0.000    1.538    0.000    8.769    6.462    0.000 
#    0.000    0.000    0.000    0.000    0.000    0.000 
#    0.000    0.000    0.000    0.000    0.000  655.385 
#
# Total GULP energy -289705.863472 kJ/mol
# GULP energy per Si atom -5571.266605 kJ/mol
# Density = 1.940631 g / cm^3
# Si number density = 19.450585 Si / 1000 Ang^3
#
#
#
# Elastic Constant Matrix: (Units=GPa)
#
#
# Indices 1 2 3 4 5 6 
#
# 1 158.6926 18.9938 14.4717 0.0000 0.0000 0.0000
# 2 18.9938 68.9661 14.2020 0.0000 0.0000 0.0000
# 3 14.4717 14.2020 24.1546 0.0000 0.0000 0.0000
# 4 0.0000 0.0000 0.0000 6.4549 0.0000 0.0000
# 5 0.0000 0.0000 0.0000 0.0000 17.8621 0.0000
# 6 0.0000 0.0000 0.0000 0.0000 0.0000 29.4453
#
#
#
# Elastic Compliance Matrix: (Units=1/GPa)
#
#
# Indices 1 2 3 4 5 6 
#
# 1 0.006747 -0.001167 -0.003356 0.000000 0.000000 0.000000
# 2 -0.001167 0.016699 -0.009119 0.000000 0.000000 0.000000
# 3 -0.003356 -0.009119 0.048773 0.000000 0.000000 0.000000
# 4 0.000000 0.000000 0.000000 0.154920 0.000000 0.000000
# 5 0.000000 0.000000 0.000000 0.000000 0.055985 0.000000
# 6 0.000000 0.000000 0.000000 0.000000 0.000000 0.033961
#
#
# Mechanical properties :
#
#
# Convention : Reuss Voigt Hill
#
# Bulk Modulus (GPa) = 22.25492 38.57203 30.41348
# Shear Modulus (GPa) = 13.91407 24.36219 19.13813
#
# Velocity S-wave (km/s) = 2.67751 3.54293 3.14018
# Velocity P-wave (km/s) = 4.58534 6.05065 5.36823
#
# Compressibility (1/GPa) = 0.04493388
#
# Stress axis : x y z
#
# Youngs Moduli (GPa) = 148.20858 59.88309 20.50328
#
# Poissons Ratio (x) = 0.06989 0.06881
# Poissons Ratio (y) = 0.17297 0.18697
# Poissons Ratio (z) = 0.49743 0.54609
#
# Static dielectric constant tensor:
#      x y z
#    x 1.741050 0.000000 0.000000 
#    y 0.000000 1.686840 0.000000 
#    z 0.000000 0.000000 1.455030 
# 
# From -- ./inp_files/19826.got.cif
#   From: 2010.05.17/outbox.cif.g08.bks.cpg/sg54_10_cif.got.tgz:19826.got - 2010.06.03 13:09:01.
