data_PCOD9420570
_publ_section_title
;
Structure prediction by ZEFSAII (Michael W. Deem and Ramdas Pophale) SiO2 
 PCOD9420570
Probable space group: P C C A
;
_chemical_formula_sum "Si O2"
_cell_formula_units_Z 44
_cell_length_a 5.433435
_cell_length_b 19.793376
_cell_length_c 21.290935
_cell_angle_alpha 90.000000
_cell_angle_beta 90.000000
_cell_angle_gamma 90.000000
_cell_volume 2289.755362
_symmetry_space_group_name_H-M "P C C A"
_symmetry_group_IT_number 54
_symmetry_cell_setting 'orthorhombic'
loop_
_space_group_symop_operation_xyz
x,y,z
1/2-x,-y,z
1/2+x,-y,1/2-z
-x,y,1/2-z
-x,-y,-z
1/2+x,y,-z
1/2-x,y,1/2+z
x,-y,1/2+z
loop_
_atom_site_type_symbol
_atom_site_label
_atom_site_fract_x
_atom_site_fract_y
_atom_site_fract_z
Si Si1 0.250000 0.000000 0.614270
Si Si2 0.130722 0.643537 0.318864
Si Si3 0.868370 0.776661 0.345668
Si Si4 0.750000 0.500000 0.707583
Si Si5 0.204089 0.860405 0.539280
Si Si6 0.500000 0.277803 0.750000
Si Si7 0.000000 0.119092 0.750000
Si Si8 0.250000 0.000000 0.303517
O O1 0.266838 0.066796 0.571699
O O2 0.506222 0.999187 0.653228
O O3 0.171634 0.565179 0.333638
O O4 0.394318 0.674810 0.304052
O O5 0.000000 0.641808 0.250000
O O6 0.993748 0.703260 0.356133
O O7 0.737254 0.804302 0.406648
O O8 0.693890 0.766571 0.285660
O O9 0.025718 0.836751 0.314114
O O10 0.500000 0.485057 0.750000
O O11 0.437333 0.853354 0.492609
O O12 0.776283 0.066139 0.740556
#
# Coordination Sequence:
#
# PCOD9420570 Si02
#       8
#     4   8   8   4   8   4   4   4
#     4  12  25  47  68  84 122 153 221 266 322 380
#     4   9  18  33  52  93 125 169 194 239 302 371
#     4  11  24  38  63  89 125 163 204 258 315 370
#     4  10  18  30  54  86 136 170 198 226 288 384
#     4  12  28  47  65  87 116 164 215 269 316 370
#     4  10  18  33  61  88 128 156 196 246 308 371
#     4  12  24  41  59  94 128 158 204 254 318 385
#     4  12  27  41  62  96 122 167 199 260 324 386
#
# _framework density 19.216027
#
# number of rings (size 3 to 8) (size 9 to 14) (size 15 to 20)
#    0.000    1.091    5.455    2.182    5.091    0.000 
#    0.000    0.000    0.000    0.000    0.000    1.273 
#    0.000    0.000    0.000    0.000    0.000    0.000 
#
# Total GULP energy -244961.944234 kJ/mol
# GULP energy per Si atom -5567.316914 kJ/mol
# Density = 1.917229 g / cm^3
# Si number density = 19.216027 Si / 1000 Ang^3
#
#
#
# Elastic Constant Matrix: (Units=GPa)
#
#
# Indices 1 2 3 4 5 6 
#
# 1 72.6252 8.9275 4.0361 0.0000 0.0000 0.0000
# 2 8.9275 135.4909 21.2818 0.0000 0.0000 0.0000
# 3 4.0361 21.2818 37.5575 0.0000 0.0000 0.0000
# 4 0.0000 0.0000 0.0000 -3.5206 0.0000 0.0000
# 5 0.0000 0.0000 0.0000 0.0000 19.8714 0.0000
# 6 0.0000 0.0000 0.0000 0.0000 0.0000 15.3828
#
#
#
# Elastic Compliance Matrix: (Units=1/GPa)
#
#
# Indices 1 2 3 4 5 6 
#
# 1 0.013921 -0.000749 -0.001072 0.000000 0.000000 0.000000
# 2 -0.000749 0.008142 -0.004533 0.000000 0.000000 0.000000
# 3 -0.001072 -0.004533 0.029310 0.000000 0.000000 0.000000
# 4 0.000000 0.000000 0.000000 -0.284040 0.000000 0.000000
# 5 0.000000 0.000000 0.000000 0.000000 0.050324 0.000000
# 6 0.000000 0.000000 0.000000 0.000000 0.000000 0.065008
#
#
# Mechanical properties :
#
#
# Convention : Reuss Voigt Hill
#
# Bulk Modulus (GPa) = 25.86303 34.90716 30.38510
# Shear Modulus (GPa) = -54.50155 20.44192 -17.02982
#
# Velocity S-wave (km/s) = -5.33143 3.26513 -2.98019
# Velocity P-wave (km/s) = 4.94070 5.69384 2.00116
#
# Compressibility (1/GPa) = 0.03866523
#
# Stress axis : x y z
#
# Youngs Moduli (GPa) = 71.83422 122.82077 34.11840
#
# Poissons Ratio (x) = 0.09198 0.03656
# Poissons Ratio (y) = 0.05380 0.15466
# Poissons Ratio (z) = 0.07698 0.55676
#
# Static dielectric constant tensor:
#      x y z
#    x 1.826130 0.000000 0.000000 
#    y 0.000000 1.772940 0.000000 
#    z 0.000000 0.000000 1.672970 
# 
# From -- ./inp_files/19774.got.cif
#   From: 2010.05.17/outbox.cif.g08.bks.cpg/sg54_10_cif.got.tgz:19774.got - 2010.06.03 13:09:01.
