data_PCOD9420369
_publ_section_title
;
Structure prediction by ZEFSAII (Michael W. Deem and Ramdas Pophale) SiO2 
 PCOD9420369
Probable space group: P C C A
;
_chemical_formula_sum "Si O2"
_cell_formula_units_Z 48
_cell_length_a 5.478544
_cell_length_b 21.115725
_cell_length_c 18.652218
_cell_angle_alpha 90.000000
_cell_angle_beta 90.000000
_cell_angle_gamma 90.000000
_cell_volume 2157.752527
_symmetry_space_group_name_H-M "P C C A"
_symmetry_group_IT_number 54
_symmetry_cell_setting 'orthorhombic'
loop_
_space_group_symop_operation_xyz
x,y,z
1/2-x,-y,z
1/2+x,-y,1/2-z
-x,y,1/2-z
-x,-y,-z
1/2+x,y,-z
1/2-x,y,1/2+z
x,-y,1/2+z
loop_
_atom_site_type_symbol
_atom_site_label
_atom_site_fract_x
_atom_site_fract_y
_atom_site_fract_z
Si Si1 0.827981 0.371887 0.865911
Si Si2 0.174894 0.726820 0.004192
Si Si3 0.750000 0.000000 0.296038
Si Si4 0.053447 0.180541 0.330872
Si Si5 0.333042 0.325448 0.847263
Si Si6 0.553917 0.867858 0.835347
Si Si7 0.750000 0.500000 0.953407
O O1 0.831387 0.316670 0.926227
O O2 0.584820 0.356260 0.822708
O O3 0.781701 0.438176 0.904371
O O4 0.088903 0.363180 0.828656
O O5 0.424706 0.764159 0.998809
O O6 0.166395 0.679472 0.935214
O O7 0.667508 0.061920 0.339852
O O8 0.500000 0.986502 0.250000
O O9 0.776343 0.176999 0.361549
O O10 0.000000 0.157710 0.250000
O O11 0.156569 0.251893 0.325923
O O12 0.279490 0.142027 0.365267
O O13 0.500000 0.856189 0.750000
O O14 0.500000 0.500000 0.000000
#
# Coordination Sequence:
#
# PCOD9420369 Si02
#       7
#     8   8   4   8   8   8   4
#     4  10  19  30  45  67  91 118 144 177 228 285
#     4   8  14  25  39  57  81 109 136 163 209 263
#     4  10  16  26  44  64  88 122 150 180 228 280
#     4  10  19  30  44  64  90 121 158 194 218 253
#     4  10  18  30  44  61  89 123 150 181 225 266
#     4   9  17  28  42  63  89 117 152 187 222 265
#     4  12  20  30  48  72 100 122 144 178 228 300
#
# _framework density 22.245367000000002
#
# number of rings (size 3 to 8) (size 9 to 14) (size 15 to 20)
#    0.000    2.333    0.000    7.500    0.000    0.000 
#    0.000    0.000    0.000    0.000    0.000    2.333 
#    0.000    0.000    0.000  135.000    0.000   12.833 
#
# Total GULP energy -267378.149726 kJ/mol
# GULP energy per Si atom -5570.378119 kJ/mol
# Density = 2.219474 g / cm^3
# Si number density = 22.245367 Si / 1000 Ang^3
#
#
#
# Elastic Constant Matrix: (Units=GPa)
#
#
# Indices 1 2 3 4 5 6 
#
# 1 269.5123 50.6093 -3.1851 0.0000 0.0000 0.0000
# 2 50.6093 122.3793 -1.4600 0.0000 0.0000 0.0000
# 3 -3.1851 -1.4600 31.6859 0.0000 0.0000 0.0000
# 4 0.0000 0.0000 0.0000 14.2965 0.0000 0.0000
# 5 0.0000 0.0000 0.0000 0.0000 15.5728 0.0000
# 6 0.0000 0.0000 0.0000 0.0000 0.0000 34.8047
#
#
#
# Elastic Compliance Matrix: (Units=1/GPa)
#
#
# Indices 1 2 3 4 5 6 
#
# 1 0.004026 -0.001661 0.000328 0.000000 0.000000 0.000000
# 2 -0.001661 0.008861 0.000241 0.000000 0.000000 0.000000
# 3 0.000328 0.000241 0.031604 0.000000 0.000000 0.000000
# 4 0.000000 0.000000 0.000000 0.069947 0.000000 0.000000
# 5 0.000000 0.000000 0.000000 0.000000 0.064215 0.000000
# 6 0.000000 0.000000 0.000000 0.000000 0.000000 0.028732
#
#
# Mechanical properties :
#
#
# Convention : Reuss Voigt Hill
#
# Bulk Modulus (GPa) = 23.63614 57.27843 40.45729
# Shear Modulus (GPa) = 22.35429 38.10901 30.23165
#
# Velocity S-wave (km/s) = 3.17345 4.14348 3.69047
# Velocity P-wave (km/s) = 4.90673 6.97822 6.03206
#
# Compressibility (1/GPa) = 0.04230809
#
# Stress axis : x y z
#
# Youngs Moduli (GPa) = 248.37266 112.85239 31.64163
#
# Poissons Ratio (x) = 0.18746 -0.01038
# Poissons Ratio (y) = 0.41257 -0.00764
# Poissons Ratio (z) = -0.08151 -0.02723
#
# Static dielectric constant tensor:
#      x y z
#    x 1.879000 0.000000 0.000000 
#    y 0.000000 1.796360 0.000000 
#    z 0.000000 0.000000 1.931420 
# 
# From -- ./inp_files/22976.got.cif
#   From: 2010.05.17/outbox.cif.g08.bks.cpg/sg54_12_cif.got.tgz:22976.got - 2010.06.03 13:09:01.
