data_PCOD9420523
_publ_section_title
;
Structure prediction by ZEFSAII (Michael W. Deem and Ramdas Pophale) SiO2 
 PCOD9420523
Probable space group: P C C A
;
_chemical_formula_sum "Si O2"
_cell_formula_units_Z 40
_cell_length_a 5.885205
_cell_length_b 11.468085
_cell_length_c 30.946872
_cell_angle_alpha 90.000000
_cell_angle_beta 90.000000
_cell_angle_gamma 90.000000
_cell_volume 2088.667250
_symmetry_space_group_name_H-M "P C C A"
_symmetry_group_IT_number 54
_symmetry_cell_setting 'orthorhombic'
loop_
_space_group_symop_operation_xyz
x,y,z
1/2-x,-y,z
1/2+x,-y,1/2-z
-x,y,1/2-z
-x,-y,-z
1/2+x,y,-z
1/2-x,y,1/2+z
x,-y,1/2+z
loop_
_atom_site_type_symbol
_atom_site_label
_atom_site_fract_x
_atom_site_fract_y
_atom_site_fract_z
Si Si1 0.982618 0.211033 0.332189
Si Si2 0.337687 0.374229 0.213038
Si Si3 0.750000 0.000000 0.645778
Si Si4 0.102778 0.166116 0.596308
Si Si5 0.750000 0.000000 0.976309
Si Si6 0.858457 0.378092 0.626922
O O1 0.859911 0.281990 0.294918
O O2 0.788902 0.177660 0.366401
O O3 0.154472 0.300961 0.354341
O O4 0.117723 0.092380 0.324728
O O5 0.250000 0.500000 0.227798
O O6 0.500000 0.327063 0.250000
O O7 0.470948 0.395885 0.167713
O O8 0.916337 0.074425 0.614549
O O9 0.986179 0.293576 0.592960
O O10 0.223721 0.112942 0.554585
O O11 0.500000 0.000000 0.000000
O O12 0.750000 0.500000 0.612100
#
# Coordination Sequence:
#
# PCOD9420523 Si02
#       6
#     8   8   4   8   4   8
#     4  10  20  34  60  87 118 155 211 250 318 369
#     4  11  22  34  53  89 124 156 202 266 325 372
#     4  10  17  36  62  86 119 158 210 262 307 374
#     4  10  21  36  60  94 120 160 201 259 310 378
#     4  12  25  40  66 100 135 160 212 270 339 394
#     4  10  20  36  59  89 119 160 210 256 310 375
#
# _framework density 19.150967999999999
#
# number of rings (size 3 to 8) (size 9 to 14) (size 15 to 20)
#    0.000    1.600    4.000    1.200    2.800    0.000 
#    0.000    0.000    0.000    1.200  187.200    0.000 
#    0.000    0.000    0.000    0.000    0.000    0.000 
#
# Total GULP energy -223101.168392 kJ/mol
# GULP energy per Si atom -5577.529210 kJ/mol
# Density = 1.910738 g / cm^3
# Si number density = 19.150968 Si / 1000 Ang^3
#
#
#
# Elastic Constant Matrix: (Units=GPa)
#
#
# Indices 1 2 3 4 5 6 
#
# 1 111.0175 59.9267 27.8257 0.0000 0.0000 0.0000
# 2 59.9267 157.9394 29.4046 0.0000 0.0000 0.0000
# 3 27.8257 29.4046 50.8270 0.0000 0.0000 0.0000
# 4 0.0000 0.0000 0.0000 -499.2766 0.0000 0.0000
# 5 0.0000 0.0000 0.0000 0.0000 15.0861 0.0000
# 6 0.0000 0.0000 0.0000 0.0000 0.0000 44.8390
#
#
#
# Elastic Compliance Matrix: (Units=1/GPa)
#
#
# Indices 1 2 3 4 5 6 
#
# 1 0.012172 -0.003786 -0.004474 0.000000 0.000000 0.000000
# 2 -0.003786 0.008273 -0.002714 0.000000 0.000000 0.000000
# 3 -0.004474 -0.002714 0.023694 0.000000 0.000000 0.000000
# 4 0.000000 0.000000 0.000000 -0.002003 0.000000 0.000000
# 5 0.000000 0.000000 0.000000 0.000000 0.066286 0.000000
# 6 0.000000 0.000000 0.000000 0.000000 0.000000 0.022302
#
#
# Mechanical properties :
#
#
# Convention : Reuss Voigt Hill
#
# Bulk Modulus (GPa) = 45.05931 61.56643 53.31287
# Shear Modulus (GPa) = 31.23664 -74.36183 -21.56259
#
# Velocity S-wave (km/s) = 4.04304 -6.23807 -3.35912
# Velocity P-wave (km/s) = 6.73605 4.43475 3.58520
#
# Compressibility (1/GPa) = 0.02219297
#
# Stress axis : x y z
#
# Youngs Moduli (GPa) = 82.15313 120.87295 42.20515
#
# Poissons Ratio (x) = 0.45758 0.18882
# Poissons Ratio (y) = 0.31100 0.11453
# Poissons Ratio (z) = 0.36754 0.32802
#
# Static dielectric constant tensor:
#      x y z
#    x 1.736760 0.000000 0.000000 
#    y 0.000000 1.690370 0.000000 
#    z 0.000000 0.000000 1.654710 
# 
# From -- ./inp_files/27092.got.cif
#   From: 2010.05.17/outbox.cif.g08.bks.cpg/sg54_14_cif.got.tgz:27092.got - 2010.06.03 13:09:01.
