data_PCOD9420795
_publ_section_title
;
Structure prediction by ZEFSAII (Michael W. Deem and Ramdas Pophale) SiO2 
 PCOD9420795
Probable space group: P C C A
;
_chemical_formula_sum "Si O2"
_cell_formula_units_Z 48
_cell_length_a 18.999501
_cell_length_b 9.696301
_cell_length_c 13.462158
_cell_angle_alpha 90.000000
_cell_angle_beta 90.000000
_cell_angle_gamma 90.000000
_cell_volume 2480.064449
_symmetry_space_group_name_H-M "P C C A"
_symmetry_group_IT_number 54
_symmetry_cell_setting 'orthorhombic'
loop_
_space_group_symop_operation_xyz
x,y,z
1/2-x,-y,z
1/2+x,-y,1/2-z
-x,y,1/2-z
-x,-y,-z
1/2+x,y,-z
1/2-x,y,1/2+z
x,-y,1/2+z
loop_
_atom_site_type_symbol
_atom_site_label
_atom_site_fract_x
_atom_site_fract_y
_atom_site_fract_z
Si Si1 0.250000 0.500000 0.818602
Si Si2 0.068957 0.519256 0.564862
Si Si3 0.670753 0.057703 0.401826
Si Si4 0.855912 0.259055 0.716111
Si Si5 0.842884 0.223051 0.487866
Si Si6 0.310061 0.682098 0.492869
Si Si7 0.000000 0.403650 0.750000
O O1 0.303807 0.607812 0.766756
O O2 0.204084 0.601031 0.890348
O O3 0.100253 0.664047 0.536097
O O4 0.130445 0.407967 0.545872
O O5 0.040992 0.500060 0.674455
O O6 0.000000 0.500000 0.500000
O O7 0.651392 0.147837 0.304908
O O8 0.664374 0.160254 0.496605
O O9 0.750000 0.000000 0.390124
O O10 0.634809 0.914359 0.430159
O O11 0.835983 0.200518 0.606856
O O12 0.936713 0.309634 0.707862
O O13 0.767933 0.296452 0.459245
#
# Coordination Sequence:
#
# PCOD9420795 Si02
#       7
#     4   8   8   8   8   8   4
#     4  10  20  36  68  98 120 170 228 280 310 382
#     4  12  21  40  67  95 128 169 220 270 322 393
#     4  10  23  38  63  95 132 169 207 273 331 392
#     4  11  22  40  64  97 131 171 224 269 328 388
#     4  10  22  42  66  94 130 174 213 270 330 390
#     4  10  18  39  64  94 123 162 217 264 327 369
#     4  12  24  38  64 100 130 172 214 276 326 388
#
# _framework density 19.354334999999999
#
# number of rings (size 3 to 8) (size 9 to 14) (size 15 to 20)
#    0.000    1.333    6.667    0.000    0.000    6.667 
#    0.000    5.833    0.000    0.000    0.000    0.000 
#    0.000    0.000    0.000    0.000    0.000    0.000 
#
# Total GULP energy -267203.952085 kJ/mol
# GULP energy per Si atom -5566.749002 kJ/mol
# Density = 1.931028 g / cm^3
# Si number density = 19.354335 Si / 1000 Ang^3
#
#
#
# Elastic Constant Matrix: (Units=GPa)
#
#
# Indices 1 2 3 4 5 6 
#
# 1 87.6161 60.6772 31.1866 0.0000 0.0000 0.0000
# 2 60.6772 167.7359 46.4235 0.0000 0.0000 0.0000
# 3 31.1866 46.4235 68.4791 0.0000 0.0000 0.0000
# 4 0.0000 0.0000 0.0000 34.0855 0.0000 0.0000
# 5 0.0000 0.0000 0.0000 0.0000 32.5808 0.0000
# 6 0.0000 0.0000 0.0000 0.0000 0.0000 16.5612
#
#
#
# Elastic Compliance Matrix: (Units=1/GPa)
#
#
# Indices 1 2 3 4 5 6 
#
# 1 0.016144 -0.004684 -0.004177 0.000000 0.000000 0.000000
# 2 -0.004684 0.008698 -0.003763 0.000000 0.000000 0.000000
# 3 -0.004177 -0.003763 0.019056 0.000000 0.000000 0.000000
# 4 0.000000 0.000000 0.000000 0.029338 0.000000 0.000000
# 5 0.000000 0.000000 0.000000 0.000000 0.030693 0.000000
# 6 0.000000 0.000000 0.000000 0.000000 0.000000 0.060382
#
#
# Mechanical properties :
#
#
# Convention : Reuss Voigt Hill
#
# Bulk Modulus (GPa) = 53.61946 66.71175 60.16561
# Shear Modulus (GPa) = 25.53940 29.01507 27.27724
#
# Velocity S-wave (km/s) = 3.63653 3.87609 3.75822
# Velocity P-wave (km/s) = 6.73771 7.38753 7.07009
#
# Compressibility (1/GPa) = 0.01864994
#
# Stress axis : x y z
#
# Youngs Moduli (GPa) = 61.94262 114.97360 52.47584
#
# Poissons Ratio (x) = 0.53853 0.21919
# Poissons Ratio (y) = 0.29013 0.19748
# Poissons Ratio (z) = 0.25873 0.43267
#
# Static dielectric constant tensor:
#      x y z
#    x 1.686800 0.000000 0.000000 
#    y 0.000000 1.674620 0.000000 
#    z 0.000000 0.000000 1.729910 
# 
# From -- ./inp_files/14189.got.cif
#   From: 2010.05.17/outbox.cif.g08.bks.cpg/sg54_8_cif.got.tgz:14189.got - 2010.06.03 13:09:01.
