data_PCOD9420238
_publ_section_title
;
Structure prediction by ZEFSAII (Michael W. Deem and Ramdas Pophale) SiO2 
 PCOD9420238
Probable space group: P M N A
;
_chemical_formula_sum "Si O2"
_cell_formula_units_Z 56
_cell_length_a 9.000000
_cell_length_b 21.000000
_cell_length_c 15.000000
_cell_angle_alpha 90.000000
_cell_angle_beta 90.000000
_cell_angle_gamma 90.000000
_cell_volume 2835.000000
_symmetry_space_group_name_H-M "P M N A"
_symmetry_group_IT_number 53
_symmetry_cell_setting 'orthorhombic'
loop_
_space_group_symop_operation_xyz
x,y,z
1/2-x,-y,1/2+z
x,-y,-z
1/2-x,y,1/2-z
-x,-y,-z
1/2+x,y,1/2-z
-x,y,z
1/2+x,-y,1/2+z
loop_
_atom_site_type_symbol
_atom_site_label
_atom_site_fract_x
_atom_site_fract_y
_atom_site_fract_z
Si Si1 0.668126 0.297163 0.604894
Si Si2 0.821259 0.429152 0.652032
Si Si3 0.677605 0.925171 0.992789
Si Si4 0.178740 0.161111 0.158593
Si Si5 0.167754 0.300341 0.103253
Si Si6 0.177867 0.430466 0.347700
Si Si7 0.676079 0.166538 0.839259
O O1 0.500000 0.302463 0.642508
O O2 0.751506 0.364773 0.613032
O O3 0.656755 0.284132 0.500374
O O4 0.753130 0.236405 0.644066
O O5 0.750000 0.431731 0.750000
O O6 0.786705 0.499427 0.610897
O O7 0.000000 0.423389 0.654697
O O8 0.500000 0.923381 0.974153
O O9 0.703367 0.883919 0.082116
O O10 0.764092 0.885780 0.917770
O O11 0.719659 0.000000 0.000000
O O12 0.250000 0.138280 0.250000
O O13 0.228797 0.235195 0.145549
O O14 0.000000 0.162046 0.160267
O O15 0.259969 0.365375 0.111010
O O16 0.000000 0.312586 0.138455
O O17 0.250000 0.431319 0.250000
O O18 0.000000 0.426723 0.343021
O O19 0.750000 0.140903 0.750000
O O20 0.500000 0.174376 0.829456
#
# Coordination Sequence:
#
# PCOD9420238 Si02
#       7
#     8   8   8   8   8   8   8
#     4  11  22  38  59  85 118 155 202 255 305 364
#     4  10  21  37  55  80 112 152 200 250 307 365
#     4  10  23  44  68  97 131 165 206 254 306 367
#     4  11  23  41  65  95 129 168 212 257 309 369
#     4  10  22  38  58  85 118 156 202 254 307 364
#     4  10  21  36  56  80 112 152 199 252 305 366
#     4  11  23  40  65  93 126 166 206 254 307 365
#
# _framework density 19.753086
#
# number of rings (size 3 to 8) (size 9 to 14) (size 15 to 20)
#    0.000    1.571    1.429    3.000    0.000    7.143 
#    0.000    4.286    0.000    0.000    0.000    0.000 
#    0.000    0.000    0.000    0.000    0.000    0.000 
#
# Total GULP energy -312476.476506 kJ/mol
# GULP energy per Si atom -5579.937080 kJ/mol
# Density = 1.970813 g / cm^3
# Si number density = 19.753086 Si / 1000 Ang^3
#
#
#
# Elastic Constant Matrix: (Units=GPa)
#
#
# Indices 1 2 3 4 5 6 
#
# 1 93.1099 73.1774 48.3238 0.0000 0.0000 0.0000
# 2 73.1774 159.2187 48.5626 0.0000 0.0000 0.0000
# 3 48.3238 48.5626 99.5885 0.0000 0.0000 0.0000
# 4 0.0000 0.0000 0.0000 471.6626 0.0000 0.0000
# 5 0.0000 0.0000 0.0000 0.0000 23.9452 0.0000
# 6 0.0000 0.0000 0.0000 0.0000 0.0000 33.1608
#
#
#
# Elastic Compliance Matrix: (Units=1/GPa)
#
#
# Indices 1 2 3 4 5 6 
#
# 1 0.019417 -0.007108 -0.005956 0.000000 0.000000 0.000000
# 2 -0.007108 0.009980 -0.001418 0.000000 0.000000 0.000000
# 3 -0.005956 -0.001418 0.013623 0.000000 0.000000 0.000000
# 4 0.000000 0.000000 0.000000 0.002120 0.000000 0.000000
# 5 0.000000 0.000000 0.000000 0.000000 0.041762 0.000000
# 6 0.000000 0.000000 0.000000 0.000000 0.000000 0.030156
#
#
# Mechanical properties :
#
#
# Convention : Reuss Voigt Hill
#
# Bulk Modulus (GPa) = 71.13799 76.89387 74.01593
# Shear Modulus (GPa) = 33.17720 117.87727 75.52724
#
# Velocity S-wave (km/s) = 4.10273 7.73336 6.19021
# Velocity P-wave (km/s) = 7.65082 10.89734 9.41507
#
# Compressibility (1/GPa) = 0.01405719
#
# Stress axis : x y z
#
# Youngs Moduli (GPa) = 51.50087 100.20335 73.40726
#
# Poissons Ratio (x) = 0.71220 0.43721
# Poissons Ratio (y) = 0.36605 0.10406
# Poissons Ratio (z) = 0.30674 0.14205
#
# Static dielectric constant tensor:
#      x y z
#    x 1.693270 0.000000 0.000000 
#    y 0.000000 1.684620 0.000000 
#    z 0.000000 0.000000 1.747260 
# 
# From -- ./inp_files/20611.got.cif
#   From: 2010.05.17/outbox.ucp.g08.bks.cvg/sg53_11_cif.got.tgz:20611.got - 2010.06.11 16:32:34.
