data_PCOD9420775
_publ_section_title
;
Structure prediction by ZEFSAII (Michael W. Deem and Ramdas Pophale) SiO2 
 PCOD9420775
Probable space group: P C C A
;
_chemical_formula_sum "Si O2"
_cell_formula_units_Z 32
_cell_length_a 9.357182
_cell_length_b 10.613814
_cell_length_c 13.791467
_cell_angle_alpha 90.000000
_cell_angle_beta 90.000000
_cell_angle_gamma 90.000000
_cell_volume 1369.704914
_symmetry_space_group_name_H-M "P C C A"
_symmetry_group_IT_number 54
_symmetry_cell_setting 'orthorhombic'
loop_
_space_group_symop_operation_xyz
x,y,z
1/2-x,-y,z
1/2+x,-y,1/2-z
-x,y,1/2-z
-x,-y,-z
1/2+x,y,-z
1/2-x,y,1/2+z
x,-y,1/2+z
loop_
_atom_site_type_symbol
_atom_site_label
_atom_site_fract_x
_atom_site_fract_y
_atom_site_fract_z
Si Si1 0.086236 0.383563 0.954595
Si Si2 0.000000 0.291693 0.750000
Si Si3 0.750000 0.000000 0.939196
Si Si4 0.368103 0.232230 0.938950
Si Si5 0.714133 0.867895 0.256418
O O1 0.042596 0.373491 0.842380
O O2 0.253830 0.347221 0.958550
O O3 0.000000 0.500000 0.000000
O O4 0.015208 0.269415 0.012910
O O5 0.137320 0.205621 0.724300
O O6 0.655736 0.078478 0.858765
O O7 0.820151 0.106038 0.005269
O O8 0.369015 0.212554 0.823077
O O9 0.750000 0.000000 0.204173
#
# Coordination Sequence:
#
# PCOD9420775 Si02
#       5
#     8   4   4   8   8
#     4  11  24  44  63  88 122 166 209 251 297 359
#     4  10  20  40  62  82 124 162 200 250 308 356
#     4  10  18  38  60  94 126 158 190 256 312 366
#     4  11  22  40  64  92 123 160 203 252 305 363
#     4   9  19  34  58  88 121 154 194 240 310 362
#
# _framework density 23.362697000000001
#
# number of rings (size 3 to 8) (size 9 to 14) (size 15 to 20)
#    0.750    1.000    3.750    0.750    0.000    3.000 
#    4.500    2.500    0.000    0.000    0.000    0.000 
#    0.000    0.000    0.000    0.000    0.000    0.000 
#
# Total GULP energy -178325.659480 kJ/mol
# GULP energy per Si atom -5572.676859 kJ/mol
# Density = 2.330952 g / cm^3
# Si number density = 23.362697 Si / 1000 Ang^3
#
#
#
# Elastic Constant Matrix: (Units=GPa)
#
#
# Indices 1 2 3 4 5 6 
#
# 1 84.7325 12.1058 26.3021 0.0000 0.0000 0.0000
# 2 12.1058 85.2230 29.6194 0.0000 0.0000 0.0000
# 3 26.3021 29.6194 135.3284 0.0000 0.0000 0.0000
# 4 0.0000 0.0000 0.0000 30.4725 0.0000 0.0000
# 5 0.0000 0.0000 0.0000 0.0000 -19.0601 0.0000
# 6 0.0000 0.0000 0.0000 0.0000 0.0000 15.0723
#
#
#
# Elastic Compliance Matrix: (Units=1/GPa)
#
#
# Indices 1 2 3 4 5 6 
#
# 1 0.012641 -0.001019 -0.002234 0.000000 0.000000 0.000000
# 2 -0.001019 0.012782 -0.002600 0.000000 0.000000 0.000000
# 3 -0.002234 -0.002600 0.008393 0.000000 0.000000 0.000000
# 4 0.000000 0.000000 0.000000 0.032817 0.000000 0.000000
# 5 0.000000 0.000000 0.000000 0.000000 -0.052466 0.000000
# 6 0.000000 0.000000 0.000000 0.000000 0.000000 0.066347
#
#
# Mechanical properties :
#
#
# Convention : Reuss Voigt Hill
#
# Bulk Modulus (GPa) = 45.22748 49.03761 47.13255
# Shear Modulus (GPa) = 50.20643 21.11404 35.66023
#
# Velocity S-wave (km/s) = 4.64076 3.00950 3.91112
# Velocity P-wave (km/s) = 6.93660 5.75425 6.37290
#
# Compressibility (1/GPa) = 0.02211045
#
# Stress axis : x y z
#
# Youngs Moduli (GPa) = 79.10860 78.23388 119.15342
#
# Poissons Ratio (x) = 0.07974 0.26616
# Poissons Ratio (y) = 0.08063 0.30974
# Poissons Ratio (z) = 0.17671 0.20337
#
# Static dielectric constant tensor:
#      x y z
#    x 1.937080 0.000000 0.000000 
#    y 0.000000 1.915890 0.000000 
#    z 0.000000 0.000000 1.852700 
# 
# From -- ./inp_files/11361.got.cif
#   From: 2010.05.17/outbox.cif.g08.bks.cpg/sg54_6_cif.got.tgz:11361.got - 2010.06.03 13:09:01.
