data_PCOD9420948
_publ_section_title
;
Structure prediction by ZEFSAII (Michael W. Deem and Ramdas Pophale) SiO2 
 PCOD9420948
Probable space group: P C C A
;
_chemical_formula_sum "Si O2"
_cell_formula_units_Z 64
_cell_length_a 37.356662
_cell_length_b 14.453012
_cell_length_c 5.307336
_cell_angle_alpha 90.000000
_cell_angle_beta 90.000000
_cell_angle_gamma 90.000000
_cell_volume 2865.517132
_symmetry_space_group_name_H-M "P C C A"
_symmetry_group_IT_number 54
_symmetry_cell_setting 'orthorhombic'
loop_
_space_group_symop_operation_xyz
x,y,z
1/2-x,-y,z
1/2+x,-y,1/2-z
-x,y,1/2-z
-x,-y,-z
1/2+x,y,-z
1/2-x,y,1/2+z
x,-y,1/2+z
loop_
_atom_site_type_symbol
_atom_site_label
_atom_site_fract_x
_atom_site_fract_y
_atom_site_fract_z
Si Si1 0.388763 0.363702 0.320260
Si Si2 0.271429 0.865921 0.300775
Si Si3 0.035761 0.443278 0.675575
Si Si4 0.354170 0.135870 0.815432
Si Si5 0.270305 0.639994 0.291827
Si Si6 0.604143 0.856120 0.682724
Si Si7 0.958290 0.033999 0.526439
Si Si8 0.149118 0.637734 0.818879
O O1 0.427562 0.394965 0.236031
O O2 0.390115 0.253135 0.323344
O O3 0.377457 0.395195 0.598591
O O4 0.361641 0.391680 0.099091
O O5 0.247868 0.893868 0.541821
O O6 0.312827 0.895999 0.322627
O O7 0.271544 0.752921 0.296074
O O8 0.034432 0.474244 0.385205
O O9 0.000000 0.387240 0.750000
O O10 0.373754 0.107202 0.557861
O O11 0.352461 0.249301 0.816117
O O12 0.377324 0.109665 0.060692
O O13 0.254215 0.611544 0.558980
O O14 0.310815 0.608394 0.256490
O O15 0.561603 0.877933 0.652162
O O16 0.945435 0.037710 0.239505
O O17 0.000000 0.000000 0.500000
#
# Coordination Sequence:
#
# PCOD9420948 Si02
#       8
#     8   8   8   8   8   8   8   8
#     4  10  19  33  53  78 106 138 177 216 267 314
#     4   9  15  23  37  61  98 138 171 204 254 314
#     4  10  21  38  58  78 107 138 170 217 270 319
#     4   9  17  28  45  71 103 140 173 215 263 308
#     4   9  15  23  37  61  98 142 176 202 255 315
#     4  10  19  33  53  76 106 138 176 216 262 313
#     4  10  21  38  57  76 105 138 169 216 265 301
#     4   9  17  28  45  71 107 139 173 222 261 304
#
# _framework density 22.334536
#
# number of rings (size 3 to 8) (size 9 to 14) (size 15 to 20)
#    0.000    2.500    0.000    3.000    0.000    6.000 
#    2.250    0.000    5.500    0.000    0.000    0.000 
#    0.000   70.000    0.000    0.000    0.000    0.000 
#
# Total GULP energy -356756.807879 kJ/mol
# GULP energy per Si atom -5574.325123 kJ/mol
# Density = 2.228370 g / cm^3
# Si number density = 22.334536 Si / 1000 Ang^3
#
#
#
# Elastic Constant Matrix: (Units=GPa)
#
#
# Indices 1 2 3 4 5 6 
#
# 1 135.0196 12.1610 53.3592 0.0000 0.0000 0.0000
# 2 12.1610 46.7377 6.1967 0.0000 0.0000 0.0000
# 3 53.3592 6.1967 175.4653 0.0000 0.0000 0.0000
# 4 0.0000 0.0000 0.0000 26.8196 0.0000 0.0000
# 5 0.0000 0.0000 0.0000 0.0000 42.5379 0.0000
# 6 0.0000 0.0000 0.0000 0.0000 0.0000 13.6109
#
#
#
# Elastic Compliance Matrix: (Units=1/GPa)
#
#
# Indices 1 2 3 4 5 6 
#
# 1 0.008582 -0.001896 -0.002543 0.000000 0.000000 0.000000
# 2 -0.001896 0.021915 -0.000197 0.000000 0.000000 0.000000
# 3 -0.002543 -0.000197 0.006479 0.000000 0.000000 0.000000
# 4 0.000000 0.000000 0.000000 0.037286 0.000000 0.000000
# 5 0.000000 0.000000 0.000000 0.000000 0.023508 0.000000
# 6 0.000000 0.000000 0.000000 0.000000 0.000000 0.073470
#
#
# Mechanical properties :
#
#
# Convention : Reuss Voigt Hill
#
# Bulk Modulus (GPa) = 36.09510 55.62848 45.86179
# Shear Modulus (GPa) = 26.35058 35.62739 30.98899
#
# Velocity S-wave (km/s) = 3.43857 3.99829 3.72895
# Velocity P-wave (km/s) = 5.65342 6.80266 6.25449
#
# Compressibility (1/GPa) = 0.02770459
#
# Stress axis : x y z
#
# Youngs Moduli (GPa) = 116.52280 45.62984 154.33566
#
# Poissons Ratio (x) = 0.08651 0.39245
# Poissons Ratio (y) = 0.22091 0.03047
# Poissons Ratio (z) = 0.29630 0.00901
#
# Static dielectric constant tensor:
#      x y z
#    x 1.814290 0.000000 0.000000 
#    y 0.000000 1.880240 0.000000 
#    z 0.000000 0.000000 1.802370 
# 
# From -- ./inp_files/2244.got.cif
#   From: 2010.05.17/outbox.cif.g08.bks.cpg/sg54_2_cif.got.tgz:2244.got - 2010.06.03 13:09:01.
