data_PCOD9420112
_publ_section_title
;
Structure prediction by ZEFSAII (Michael W. Deem and Ramdas Pophale) SiO2 
 PCOD9420112
Probable space group: P M N A
;
_chemical_formula_sum "Si O2"
_cell_formula_units_Z 64
_cell_length_a 9.000000
_cell_length_b 12.000000
_cell_length_c 30.000000
_cell_angle_alpha 90.000000
_cell_angle_beta 90.000000
_cell_angle_gamma 90.000000
_cell_volume 3240.000000
_symmetry_space_group_name_H-M "P M N A"
_symmetry_group_IT_number 53
_symmetry_cell_setting 'orthorhombic'
loop_
_space_group_symop_operation_xyz
x,y,z
1/2-x,-y,1/2+z
x,-y,-z
1/2-x,y,1/2-z
-x,-y,-z
1/2+x,y,1/2-z
-x,y,z
1/2+x,-y,1/2+z
loop_
_atom_site_type_symbol
_atom_site_label
_atom_site_fract_x
_atom_site_fract_y
_atom_site_fract_z
Si Si1 0.824545 0.054147 0.794982
Si Si2 0.821515 0.489421 0.386673
Si Si3 0.324384 0.296299 0.938013
Si Si4 0.834350 0.168235 0.312736
Si Si5 0.174668 0.906099 0.106038
Si Si6 0.833156 0.875763 0.585170
Si Si7 0.675963 0.344709 0.032817
Si Si8 0.827875 0.576062 0.707162
O O1 0.750000 0.098064 0.750000
O O2 0.767933 0.100334 0.842667
O O3 0.000000 0.069429 0.792619
O O4 0.785180 0.922358 0.798397
O O5 0.804948 0.617546 0.398205
O O6 0.759205 0.418395 0.427694
O O7 0.756970 0.460543 0.339143
O O8 0.000000 0.463836 0.384573
O O9 0.500000 0.277367 0.944432
O O10 0.247123 0.183296 0.925711
O O11 0.265285 0.353079 0.983136
O O12 0.828301 0.182271 0.366263
O O13 0.820421 0.289816 0.292685
O O14 0.000000 0.123076 0.302169
O O15 0.000000 0.890809 0.107739
O O16 0.215476 0.026993 0.087316
O O17 0.812089 0.783050 0.548061
O O18 0.000000 0.923566 0.580557
O O19 0.500000 0.374696 0.030566
O O20 0.750000 0.528455 0.750000
O O21 0.000000 0.544212 0.708081
#
# Coordination Sequence:
#
# PCOD9420112 Si02
#       8
#     8   8   8   8   8   8   8   8
#     4  10  20  33  51  74  99 133 175 218 262 309
#     4   9  17  33  55  80 109 136 170 220 269 309
#     4  10  20  34  57  82 102 135 183 225 260 307
#     4   9  16  28  48  74 106 139 165 201 254 312
#     4  10  22  38  52  72 109 146 175 213 263 316
#     4   9  16  30  54  80 107 137 170 210 258 312
#     4   9  16  30  56  87 109 129 168 223 273 311
#     4  10  19  31  49  75 107 140 171 206 257 314
#
# _framework density 19.753086
#
# number of rings (size 3 to 8) (size 9 to 14) (size 15 to 20)
#    0.000    2.500    1.250    1.500    0.000    5.000 
#    0.000    4.375    0.000    6.000    0.000    0.000 
#    0.000    0.000    0.000    0.000    0.000    0.000 
#
# Total GULP energy -356528.381686 kJ/mol
# GULP energy per Si atom -5570.755964 kJ/mol
# Density = 1.970813 g / cm^3
# Si number density = 19.753086 Si / 1000 Ang^3
#
#
#
# Elastic Constant Matrix: (Units=GPa)
#
#
# Indices 1 2 3 4 5 6 
#
# 1 -41.4611 77.8528 -22.0671 0.0000 0.0000 0.0000
# 2 77.8528 -65.9905 78.5652 0.0000 0.0000 0.0000
# 3 -22.0671 78.5652 53.9947 0.0000 0.0000 0.0000
# 4 0.0000 0.0000 0.0000 -256.4146 0.0000 0.0000
# 5 0.0000 0.0000 0.0000 0.0000 17.6520 0.0000
# 6 0.0000 0.0000 0.0000 0.0000 0.0000 -8.4525
#
#
#
# Elastic Compliance Matrix: (Units=1/GPa)
#
#
# Indices 1 2 3 4 5 6 
#
# 1 0.060310 0.036780 -0.028869 0.000000 0.000000 0.000000
# 2 0.036780 0.016885 -0.009536 0.000000 0.000000 0.000000
# 3 -0.028869 -0.009536 0.020598 0.000000 0.000000 0.000000
# 4 0.000000 0.000000 0.000000 -0.003900 0.000000 0.000000
# 5 0.000000 0.000000 0.000000 0.000000 0.056651 0.000000
# 6 0.000000 0.000000 0.000000 0.000000 0.000000 -0.118308
#
#
# Mechanical properties :
#
#
# Convention : Reuss Voigt Hill
#
# Bulk Modulus (GPa) = 10.57742 23.91611 17.24677
# Shear Modulus (GPa) = 74.62765 -61.96355 6.33205
#
# Velocity S-wave (km/s) = 6.15323 -5.60688 1.79236
# Velocity P-wave (km/s) = 7.47325 5.45732 3.61020
#
# Compressibility (1/GPa) = 0.09454097
#
# Stress axis : x y z
#
# Youngs Moduli (GPa) = 16.58110 59.22564 48.54941
#
# Poissons Ratio (x) = -2.17833 1.40159
# Poissons Ratio (y) = -0.60986 0.46298
# Poissons Ratio (z) = 0.47869 0.56479
#
# Static dielectric constant tensor:
#      x y z
#    x 1.686840 0.000000 0.000000 
#    y 0.000000 1.758290 0.000000 
#    z 0.000000 0.000000 1.715150 
# 
# From -- ./inp_files/38201.got.cif
#   From: 2010.05.17/outbox.ucp.g08.bks.cvg/sg53_20_cif.got.tgz:38201.got - 2010.06.11 16:32:34.
