data_PCOD9420965
_publ_section_title
;
Structure prediction by ZEFSAII (Michael W. Deem and Ramdas Pophale) SiO2 
 PCOD9420965
Probable space group: P C C A
;
_chemical_formula_sum "Si O2"
_cell_formula_units_Z 56
_cell_length_a 15.361506
_cell_length_b 21.693129
_cell_length_c 8.928456
_cell_angle_alpha 90.000000
_cell_angle_beta 90.000000
_cell_angle_gamma 90.000000
_cell_volume 2975.310921
_symmetry_space_group_name_H-M "P C C A"
_symmetry_group_IT_number 54
_symmetry_cell_setting 'orthorhombic'
loop_
_space_group_symop_operation_xyz
x,y,z
1/2-x,-y,z
1/2+x,-y,1/2-z
-x,y,1/2-z
-x,-y,-z
1/2+x,y,-z
1/2-x,y,1/2+z
x,-y,1/2+z
loop_
_atom_site_type_symbol
_atom_site_label
_atom_site_fract_x
_atom_site_fract_y
_atom_site_fract_z
Si Si1 0.348161 0.884952 0.626573
Si Si2 0.664139 0.134999 0.018815
Si Si3 0.001323 0.206959 0.567710
Si Si4 0.499098 0.654753 0.568467
Si Si5 0.347187 0.438373 0.074802
Si Si6 0.931002 0.981206 0.878907
Si Si7 0.159947 0.571193 0.436668
O O1 0.261980 0.862789 0.541017
O O2 0.335830 0.869725 0.801432
O O3 0.428090 0.847683 0.549713
O O4 0.370716 0.957885 0.635631
O O5 0.591152 0.187575 0.996973
O O6 0.625708 0.074963 0.936799
O O7 0.000000 0.210459 0.750000
O O8 0.020702 0.276126 0.514405
O O9 0.500000 0.656597 0.750000
O O10 0.423398 0.607486 0.527223
O O11 0.591932 0.625270 0.525318
O O12 0.338718 0.437883 0.256064
O O13 0.367200 0.506887 0.014718
O O14 0.256439 0.417708 0.000071
O O15 0.000000 0.964634 0.750000
O O16 0.000000 0.000000 0.000000
#
# Coordination Sequence:
#
# PCOD9420965 Si02
#       7
#     8   8   8   8   8   8   8
#     4  11  23  39  59  86 114 150 191 230 289 337
#     4  11  24  38  61  87 115 151 188 234 284 342
#     4   9  19  40  57  77 112 151 189 234 279 332
#     4   9  19  34  57  79 107 148 190 227 278 332
#     4  10  19  33  54  82 111 144 180 227 280 331
#     4  12  22  39  63  86 116 148 183 233 286 334
#     4  10  19  33  54  82 111 143 181 225 280 330
#
# _framework density 18.821562
#
# number of rings (size 3 to 8) (size 9 to 14) (size 15 to 20)
#    0.000    1.714    2.857    3.000    2.000    2.286 
#    0.000    2.143    0.000    8.571    0.000    0.000 
#    0.000    0.000    0.000    0.000    0.000    0.000 
#
# Total GULP energy -311922.990276 kJ/mol
# GULP energy per Si atom -5570.053398 kJ/mol
# Density = 1.877872 g / cm^3
# Si number density = 18.821562 Si / 1000 Ang^3
#
#
#
# Elastic Constant Matrix: (Units=GPa)
#
#
# Indices 1 2 3 4 5 6 
#
# 1 79.9617 39.9476 9.9681 0.0000 0.0000 0.0000
# 2 39.9476 78.8044 3.3913 0.0000 0.0000 0.0000
# 3 9.9681 3.3913 52.6198 0.0000 0.0000 0.0000
# 4 0.0000 0.0000 0.0000 15.0868 0.0000 0.0000
# 5 0.0000 0.0000 0.0000 0.0000 35.9498 0.0000
# 6 0.0000 0.0000 0.0000 0.0000 0.0000 10.7820
#
#
#
# Elastic Compliance Matrix: (Units=1/GPa)
#
#
# Indices 1 2 3 4 5 6 
#
# 1 0.017119 -0.008562 -0.002691 0.000000 0.000000 0.000000
# 2 -0.008562 0.017007 0.000526 0.000000 0.000000 0.000000
# 3 -0.002691 0.000526 0.019480 0.000000 0.000000 0.000000
# 4 0.000000 0.000000 0.000000 0.066283 0.000000 0.000000
# 5 0.000000 0.000000 0.000000 0.000000 0.027817 0.000000
# 6 0.000000 0.000000 0.000000 0.000000 0.000000 0.092748
#
#
# Mechanical properties :
#
#
# Convention : Reuss Voigt Hill
#
# Bulk Modulus (GPa) = 31.10260 35.33332 33.21796
# Shear Modulus (GPa) = 18.34016 22.90230 20.62123
#
# Velocity S-wave (km/s) = 3.12496 3.49207 3.31360
# Velocity P-wave (km/s) = 5.43888 5.92224 5.68570
#
# Compressibility (1/GPa) = 0.03215165
#
# Stress axis : x y z
#
# Youngs Moduli (GPa) = 58.41467 58.79809 51.33432
#
# Poissons Ratio (x) = 0.50344 0.13815
# Poissons Ratio (y) = 0.50016 -0.02700
# Poissons Ratio (z) = 0.15720 -0.03092
#
# Static dielectric constant tensor:
#      x y z
#    x 1.651370 0.000000 0.000000 
#    y 0.000000 1.710450 0.000000 
#    z 0.000000 0.000000 1.631230 
# 
# From -- ./inp_files/3678.got.cif
#   From: 2010.05.17/outbox.cif.g08.bks.cpg/sg54_2_cif.got.tgz:3678.got - 2010.06.03 13:09:01.
