data_PCOD9420816
_publ_section_title
;
Structure prediction by ZEFSAII (Michael W. Deem and Ramdas Pophale) SiO2 
 PCOD9420816
Probable space group: P C C A
;
_chemical_formula_sum "Si O2"
_cell_formula_units_Z 48
_cell_length_a 18.579114
_cell_length_b 21.633405
_cell_length_c 5.197963
_cell_angle_alpha 90.000000
_cell_angle_beta 90.000000
_cell_angle_gamma 90.000000
_cell_volume 2089.214658
_symmetry_space_group_name_H-M "P C C A"
_symmetry_group_IT_number 54
_symmetry_cell_setting 'orthorhombic'
loop_
_space_group_symop_operation_xyz
x,y,z
1/2-x,-y,z
1/2+x,-y,1/2-z
-x,y,1/2-z
-x,-y,-z
1/2+x,y,-z
1/2-x,y,1/2+z
x,-y,1/2+z
loop_
_atom_site_type_symbol
_atom_site_label
_atom_site_fract_x
_atom_site_fract_y
_atom_site_fract_z
Si Si1 0.000000 0.858236 0.750000
Si Si2 0.422441 0.976488 0.156398
Si Si3 0.575326 0.373848 0.409511
Si Si4 0.710538 0.760957 0.552374
Si Si5 0.075958 0.235166 0.615080
Si Si6 0.709987 0.610764 0.580207
Si Si7 0.000000 0.457255 0.250000
O O1 0.946601 0.906304 0.895973
O O2 0.945720 0.815782 0.590573
O O3 0.500000 0.006334 0.250000
O O4 0.384448 0.986770 0.430152
O O5 0.500000 0.373975 0.250000
O O6 0.596702 0.303592 0.484982
O O7 0.634725 0.402769 0.221460
O O8 0.564044 0.410899 0.672520
O O9 0.729527 0.780539 0.263718
O O10 0.635609 0.782252 0.675646
O O11 0.710186 0.685940 0.556566
O O12 0.000000 0.245397 0.750000
O O13 0.731444 0.589642 0.294946
O O14 0.000000 0.500000 0.500000
#
# Coordination Sequence:
#
# PCOD9420816 Si02
#       7
#     4   8   8   8   8   8   4
#     4  10  19  28  48  78 121 142 180 232 286 332
#     4   8  16  29  46  65 102 152 181 222 275 326
#     4  10  22  40  61  88 119 148 188 236 284 345
#     4   9  19  36  51  71 110 156 191 217 267 350
#     4  10  22  33  55  88 120 150 180 238 296 336
#     4   9  19  34  58  84 109 147 188 224 274 336
#     4  12  25  42  64  86 107 150 192 228 274 336
#
# _framework density 22.975142000000002
#
# number of rings (size 3 to 8) (size 9 to 14) (size 15 to 20)
#    0.500    2.000    0.833    0.500    7.000    0.000 
#    0.000    0.000    0.000    3.000    0.000    0.000 
#    0.000   16.000    0.000    0.000    0.000    0.000 
#
# Total GULP energy -267418.819647 kJ/mol
# GULP energy per Si atom -5571.225409 kJ/mol
# Density = 2.292285 g / cm^3
# Si number density = 22.975142 Si / 1000 Ang^3
#
#
#
# Elastic Constant Matrix: (Units=GPa)
#
#
# Indices 1 2 3 4 5 6 
#
# 1 72.8998 -8.6229 -5.0756 0.0000 0.0000 0.0000
# 2 -8.6229 67.5076 20.0383 0.0000 0.0000 0.0000
# 3 -5.0756 20.0383 95.6190 0.0000 0.0000 0.0000
# 4 0.0000 0.0000 0.0000 29.3141 0.0000 0.0000
# 5 0.0000 0.0000 0.0000 0.0000 33.7641 0.0000
# 6 0.0000 0.0000 0.0000 0.0000 0.0000 0.1138
#
#
#
# Elastic Compliance Matrix: (Units=1/GPa)
#
#
# Indices 1 2 3 4 5 6 
#
# 1 0.013942 0.001665 0.000391 0.000000 0.000000 0.000000
# 2 0.001665 0.015994 -0.003263 0.000000 0.000000 0.000000
# 3 0.000391 -0.003263 0.011163 0.000000 0.000000 0.000000
# 4 0.000000 0.000000 0.000000 0.034113 0.000000 0.000000
# 5 0.000000 0.000000 0.000000 0.000000 0.029617 0.000000
# 6 0.000000 0.000000 0.000000 0.000000 0.000000 8.785132
#
#
# Mechanical properties :
#
#
# Convention : Reuss Voigt Hill
#
# Bulk Modulus (GPa) = 25.85071 27.63399 26.74235
# Shear Modulus (GPa) = 0.56147 27.95084 14.25615
#
# Velocity S-wave (km/s) = 0.49488 3.49172 2.49369
# Velocity P-wave (km/s) = 3.40626 5.32072 4.46725
#
# Compressibility (1/GPa) = 0.03868365
#
# Stress axis : x y z
#
# Youngs Moduli (GPa) = 71.72781 62.52153 89.58292
#
# Poissons Ratio (x) = -0.10408 -0.03504
# Poissons Ratio (y) = -0.11940 0.29235
# Poissons Ratio (z) = -0.02806 0.20404
#
# Static dielectric constant tensor:
#      x y z
#    x 1.952350 0.000000 0.000000 
#    y 0.000000 1.903140 0.000000 
#    z 0.000000 0.000000 2.012320 
# 
# From -- ./inp_files/1031.got.cif
#   From: 2010.05.17/outbox.cif.g08.bks.cpg/sg54_1_cif.got.tgz:1031.got - 2010.06.03 13:09:01.
