data_PCOD9420503
_publ_section_title
;
Structure prediction by ZEFSAII (Michael W. Deem and Ramdas Pophale) SiO2 
 PCOD9420503
Probable space group: P C C A
;
_chemical_formula_sum "Si O2"
_cell_formula_units_Z 56
_cell_length_a 14.995164
_cell_length_b 10.282999
_cell_length_c 18.354793
_cell_angle_alpha 90.000000
_cell_angle_beta 90.000000
_cell_angle_gamma 90.000000
_cell_volume 2830.222013
_symmetry_space_group_name_H-M "P C C A"
_symmetry_group_IT_number 54
_symmetry_cell_setting 'orthorhombic'
loop_
_space_group_symop_operation_xyz
x,y,z
1/2-x,-y,z
1/2+x,-y,1/2-z
-x,y,1/2-z
-x,-y,-z
1/2+x,y,-z
1/2-x,y,1/2+z
x,-y,1/2+z
loop_
_atom_site_type_symbol
_atom_site_label
_atom_site_fract_x
_atom_site_fract_y
_atom_site_fract_z
Si Si1 0.407066 0.970864 0.213490
Si Si2 0.684806 0.102684 0.641916
Si Si3 0.804744 0.133827 0.898962
Si Si4 0.551768 0.128940 0.521839
Si Si5 0.823298 0.611384 0.666692
Si Si6 0.502736 0.399975 0.933439
Si Si7 0.852436 0.303495 0.334049
O O1 0.500000 0.002370 0.250000
O O2 0.372393 0.087173 0.163971
O O3 0.335625 0.942888 0.276691
O O4 0.409890 0.830312 0.174138
O O5 0.592335 0.100649 0.600429
O O6 0.717106 0.250224 0.641011
O O7 0.750000 0.000000 0.606106
O O8 0.738852 0.247750 0.870678
O O9 0.750000 0.000000 0.913048
O O10 0.865156 0.161630 0.968877
O O11 0.494813 0.258308 0.528646
O O12 0.500000 0.000000 0.500000
O O13 0.750000 0.500000 0.656886
O O14 0.914597 0.590628 0.619463
O O15 0.841829 0.635543 0.753148
O O16 0.591365 0.402241 0.883766
O O17 0.500000 0.500000 0.000000
#
# Coordination Sequence:
#
# PCOD9420503 Si02
#       7
#     8   8   8   8   8   8   8
#     4  10  17  32  57  86 119 154 196 247 299 360
#     4  10  20  35  57  85 115 151 191 238 296 352
#     4  10  20  34  57  90 122 158 203 253 309 366
#     4  11  22  37  58  88 121 158 198 245 303 365
#     4  10  22  40  63  88 117 157 206 255 308 371
#     4  11  25  41  60  87 122 162 202 253 317 377
#     4  10  20  39  62  84 117 164 209 251 310 381
#
# _framework density 19.786432000000001
#
# number of rings (size 3 to 8) (size 9 to 14) (size 15 to 20)
#    0.000    1.714    0.000    8.143    0.000    4.571 
#    0.000    1.429    0.000    0.000    0.000    0.000 
#    0.000    0.000    0.000    0.000    0.000    0.000 
#
# Total GULP energy -312390.468019 kJ/mol
# GULP energy per Si atom -5578.401215 kJ/mol
# Density = 1.974140 g / cm^3
# Si number density = 19.786432 Si / 1000 Ang^3
#
#
#
# Elastic Constant Matrix: (Units=GPa)
#
#
# Indices 1 2 3 4 5 6 
#
# 1 83.1127 42.1839 33.1633 0.0000 0.0000 0.0000
# 2 42.1839 98.4823 42.0681 0.0000 0.0000 0.0000
# 3 33.1633 42.0681 98.8384 0.0000 0.0000 0.0000
# 4 0.0000 0.0000 0.0000 33.2262 0.0000 0.0000
# 5 0.0000 0.0000 0.0000 0.0000 36.8325 0.0000
# 6 0.0000 0.0000 0.0000 0.0000 0.0000 27.7724
#
#
#
# Elastic Compliance Matrix: (Units=1/GPa)
#
#
# Indices 1 2 3 4 5 6 
#
# 1 0.016075 -0.005600 -0.003010 0.000000 0.000000 0.000000
# 2 -0.005600 0.014361 -0.004234 0.000000 0.000000 0.000000
# 3 -0.003010 -0.004234 0.012929 0.000000 0.000000 0.000000
# 4 0.000000 0.000000 0.000000 0.030097 0.000000 0.000000
# 5 0.000000 0.000000 0.000000 0.000000 0.027150 0.000000
# 6 0.000000 0.000000 0.000000 0.000000 0.000000 0.036007
#
#
# Mechanical properties :
#
#
# Convention : Reuss Voigt Hill
#
# Bulk Modulus (GPa) = 56.56578 57.25155 56.90866
# Shear Modulus (GPa) = 29.72660 30.43409 30.08035
#
# Velocity S-wave (km/s) = 3.88025 3.92615 3.90327
# Velocity P-wave (km/s) = 6.98035 7.03921 7.00984
#
# Compressibility (1/GPa) = 0.01767853
#
# Stress axis : x y z
#
# Youngs Moduli (GPa) = 62.20768 69.63239 77.34262
#
# Poissons Ratio (x) = 0.38992 0.23283
# Poissons Ratio (y) = 0.34835 0.32743
# Poissons Ratio (z) = 0.18726 0.29479
#
# Static dielectric constant tensor:
#      x y z
#    x 1.500730 0.000000 0.000000 
#    y 0.000000 1.713540 0.000000 
#    z 0.000000 0.000000 1.726820 
# 
# From -- ./inp_files/21602.got.cif
#   From: 2010.05.17/outbox.cif.g08.bks.cpg/sg54_11_cif.got.tgz:21602.got - 2010.06.03 13:09:01.
