data_PCOD9420721
_publ_section_title
;
Structure prediction by ZEFSAII (Michael W. Deem and Ramdas Pophale) SiO2 
 PCOD9420721
Probable space group: P C C A
;
_chemical_formula_sum "Si O2"
_cell_formula_units_Z 48
_cell_length_a 16.421187
_cell_length_b 14.251657
_cell_length_c 9.964266
_cell_angle_alpha 90.000000
_cell_angle_beta 90.000000
_cell_angle_gamma 90.000000
_cell_volume 2331.928450
_symmetry_space_group_name_H-M "P C C A"
_symmetry_group_IT_number 54
_symmetry_cell_setting 'orthorhombic'
loop_
_space_group_symop_operation_xyz
x,y,z
1/2-x,-y,z
1/2+x,-y,1/2-z
-x,y,1/2-z
-x,-y,-z
1/2+x,y,-z
1/2-x,y,1/2+z
x,-y,1/2+z
loop_
_atom_site_type_symbol
_atom_site_label
_atom_site_fract_x
_atom_site_fract_y
_atom_site_fract_z
Si Si1 0.695429 0.092224 0.006062
Si Si2 0.949635 0.199809 0.439915
Si Si3 0.409694 0.667369 0.811687
Si Si4 0.057730 0.529936 0.877826
Si Si5 0.775598 0.199747 0.762498
Si Si6 0.109538 0.735550 0.850444
O O1 0.601174 0.103481 0.957080
O O2 0.740235 0.163872 0.902660
O O3 0.750000 0.000000 0.992076
O O4 0.692505 0.117426 0.164343
O O5 0.919029 0.269185 0.556043
O O6 0.922981 0.248966 0.301595
O O7 0.047976 0.198775 0.436432
O O8 0.500000 0.663462 0.750000
O O9 0.386632 0.560394 0.846256
O O10 0.344345 0.721344 0.721440
O O11 0.099676 0.629436 0.901055
O O12 0.000000 0.544987 0.750000
O O13 0.000000 0.500000 0.000000
O O14 0.702881 0.239070 0.669053
#
# Coordination Sequence:
#
# PCOD9420721 Si02
#       6
#     8   8   8   8   8   8
#     4  10  21  40  61  84 113 147 192 244 298 352
#     4   9  18  36  57  81 111 154 195 226 291 357
#     4  10  21  34  54  84 118 151 193 239 288 338
#     4  11  19  31  55  81 114 155 193 230 273 338
#     4  10  23  36  61  84 115 152 188 244 299 348
#     4  10  18  35  58  81 116 156 197 227 286 350
#
# _framework density 20.583821
#
# number of rings (size 3 to 8) (size 9 to 14) (size 15 to 20)
#    0.000    2.000    3.333    0.500    2.333    0.667 
#    0.000    0.833    7.333    8.000    0.000    0.000 
#    0.000    0.000    0.000    0.000    0.000    0.000 
#
# Total GULP energy -267383.786066 kJ/mol
# GULP energy per Si atom -5570.495543 kJ/mol
# Density = 2.053697 g / cm^3
# Si number density = 20.583821 Si / 1000 Ang^3
#
#
#
# Elastic Constant Matrix: (Units=GPa)
#
#
# Indices 1 2 3 4 5 6 
#
# 1 82.1688 31.9324 -8.4918 0.0000 0.0000 0.0000
# 2 31.9324 77.2994 -5.3351 0.0000 0.0000 0.0000
# 3 -8.4918 -5.3351 64.0368 0.0000 0.0000 0.0000
# 4 0.0000 0.0000 0.0000 16.2290 0.0000 0.0000
# 5 0.0000 0.0000 0.0000 0.0000 13.9396 0.0000
# 6 0.0000 0.0000 0.0000 0.0000 0.0000 27.7441
#
#
#
# Elastic Compliance Matrix: (Units=1/GPa)
#
#
# Indices 1 2 3 4 5 6 
#
# 1 0.014629 -0.005944 0.001445 0.000000 0.000000 0.000000
# 2 -0.005944 0.015426 0.000497 0.000000 0.000000 0.000000
# 3 0.001445 0.000497 0.015849 0.000000 0.000000 0.000000
# 4 0.000000 0.000000 0.000000 0.061618 0.000000 0.000000
# 5 0.000000 0.000000 0.000000 0.000000 0.071738 0.000000
# 6 0.000000 0.000000 0.000000 0.000000 0.000000 0.036044
#
#
# Mechanical properties :
#
#
# Convention : Reuss Voigt Hill
#
# Bulk Modulus (GPa) = 26.38456 28.85732 27.62094
# Shear Modulus (GPa) = 21.19168 25.27583 23.23375
#
# Velocity S-wave (km/s) = 3.21211 3.50801 3.36332
# Velocity P-wave (km/s) = 5.15779 5.51888 5.34139
#
# Compressibility (1/GPa) = 0.03790095
#
# Stress axis : x y z
#
# Youngs Moduli (GPa) = 68.35654 64.82433 63.09538
#
# Poissons Ratio (x) = 0.38529 -0.09116
# Poissons Ratio (y) = 0.40628 -0.03136
# Poissons Ratio (z) = -0.09876 -0.03222
#
# Static dielectric constant tensor:
#      x y z
#    x 1.813240 0.000000 0.000000 
#    y 0.000000 1.770990 0.000000 
#    z 0.000000 0.000000 1.751530 
# 
# From -- ./inp_files/8368.got.cif
#   From: 2010.05.17/outbox.cif.g08.bks.cpg/sg54_5_cif.got.tgz:8368.got - 2010.06.03 13:09:01.
