data_PCOD9420169
_publ_section_title
;
Structure prediction by ZEFSAII (Michael W. Deem and Ramdas Pophale) SiO2 
 PCOD9420169
Probable space group: P M N A
;
_chemical_formula_sum "Si O2"
_cell_formula_units_Z 64
_cell_length_a 9.000000
_cell_length_b 12.000000
_cell_length_c 30.000000
_cell_angle_alpha 90.000000
_cell_angle_beta 90.000000
_cell_angle_gamma 90.000000
_cell_volume 3240.000000
_symmetry_space_group_name_H-M "P M N A"
_symmetry_group_IT_number 53
_symmetry_cell_setting 'orthorhombic'
loop_
_space_group_symop_operation_xyz
x,y,z
1/2-x,-y,1/2+z
x,-y,-z
1/2-x,y,1/2-z
-x,-y,-z
1/2+x,y,1/2-z
-x,y,z
1/2+x,-y,1/2+z
loop_
_atom_site_type_symbol
_atom_site_label
_atom_site_fract_x
_atom_site_fract_y
_atom_site_fract_z
Si Si1 0.832569 0.302399 0.028748
Si Si2 0.665783 0.501267 0.934528
Si Si3 0.166980 0.640206 0.657273
Si Si4 0.327043 0.771931 0.202781
Si Si5 0.675054 0.557786 0.298132
Si Si6 0.169599 0.729374 0.072004
Si Si7 0.325106 0.159911 0.383923
Si Si8 0.328356 0.926013 0.122625
O O1 0.725527 0.408250 0.030496
O O2 0.800077 0.215090 0.067579
O O3 0.000000 0.346197 0.036980
O O4 0.829735 0.246911 0.980862
O O5 0.500000 0.460982 0.944514
O O6 0.659803 0.576682 0.890031
O O7 0.771518 0.397010 0.925408
O O8 0.277897 0.561272 0.683707
O O9 0.231128 0.762678 0.649488
O O10 0.000000 0.641256 0.676267
O O11 0.250000 0.791304 0.250000
O O12 0.500000 0.743090 0.208585
O O13 0.247928 0.666425 0.178797
O O14 0.316830 0.881053 0.172943
O O15 0.750000 0.563982 0.250000
O O16 0.000000 0.570351 0.202816
O O17 0.272125 0.821105 0.094379
O O18 0.000000 0.736348 0.088649
O O19 0.500000 0.167442 0.373954
O O20 0.270237 0.034237 0.384107
O O21 0.500000 0.951107 0.112562
#
# Coordination Sequence:
#
# PCOD9420169 Si02
#       8
#     8   8   8   8   8   8   8   8
#     4   9  20  37  55  78 109 145 185 229 276 326
#     4  10  20  33  53  81 111 143 180 226 279 332
#     4  10  20  36  56  79 110 144 180 224 274 326
#     4  10  21  38  60  85 114 145 177 218 269 324
#     4  11  21  34  56  86 117 146 178 218 269 328
#     4  11  22  35  54  80 111 147 185 227 274 327
#     4  10  21  39  60  79 104 143 190 233 274 323
#     4  11  24  40  57  81 112 144 183 231 278 324
#
# _framework density 19.753086
#
# number of rings (size 3 to 8) (size 9 to 14) (size 15 to 20)
#    0.000    1.750    0.000    5.250    0.000   10.000 
#    0.000    3.125    0.000    1.500    0.000    0.000 
#    0.000    0.000    0.000    0.000    0.000    0.000 
#
# Total GULP energy -357152.897902 kJ/mol
# GULP energy per Si atom -5580.514030 kJ/mol
# Density = 1.970813 g / cm^3
# Si number density = 19.753086 Si / 1000 Ang^3
#
#
#
# Elastic Constant Matrix: (Units=GPa)
#
#
# Indices 1 2 3 4 5 6 
#
# 1 104.3690 35.0967 32.0152 0.0000 0.0000 0.0000
# 2 35.0967 82.1821 15.2944 0.0000 0.0000 0.0000
# 3 32.0152 15.2944 32.7557 0.0000 0.0000 0.0000
# 4 0.0000 0.0000 0.0000 11.6238 0.0000 0.0000
# 5 0.0000 0.0000 0.0000 0.0000 -43.5632 0.0000
# 6 0.0000 0.0000 0.0000 0.0000 0.0000 40.7189
#
#
#
# Elastic Compliance Matrix: (Units=1/GPa)
#
#
# Indices 1 2 3 4 5 6 
#
# 1 0.014778 -0.003968 -0.012591 0.000000 0.000000 0.000000
# 2 -0.003968 0.014391 -0.002842 0.000000 0.000000 0.000000
# 3 -0.012591 -0.002842 0.044162 0.000000 0.000000 0.000000
# 4 0.000000 0.000000 0.000000 0.086030 0.000000 0.000000
# 5 0.000000 0.000000 0.000000 0.000000 -0.022955 0.000000
# 6 0.000000 0.000000 0.000000 0.000000 0.000000 0.024559
#
#
# Mechanical properties :
#
#
# Convention : Reuss Voigt Hill
#
# Bulk Modulus (GPa) = 28.95988 42.67995 35.81991
# Shear Modulus (GPa) = 23.66559 10.88262 17.27411
#
# Velocity S-wave (km/s) = 3.46507 2.34974 2.96041
# Velocity P-wave (km/s) = 5.54091 5.38659 5.46430
#
# Compressibility (1/GPa) = 0.03453053
#
# Stress axis : x y z
#
# Youngs Moduli (GPa) = 67.66794 69.48580 22.64368
#
# Poissons Ratio (x) = 0.27571 0.28511
# Poissons Ratio (y) = 0.26849 0.06434
# Poissons Ratio (z) = 0.85203 0.19745
#
# Static dielectric constant tensor:
#      x y z
#    x 1.695970 0.000000 0.000000 
#    y 0.000000 1.664440 0.000000 
#    z 0.000000 0.000000 1.646170 
# 
# From -- ./inp_files/38199.got.cif
#   From: 2010.05.17/outbox.ucp.g08.bks.cvg/sg53_20_cif.got.tgz:38199.got - 2010.06.11 16:32:34.
