data_PCOD9420676
_publ_section_title
;
Structure prediction by ZEFSAII (Michael W. Deem and Ramdas Pophale) SiO2 
 PCOD9420676
Probable space group: P C C A
;
_chemical_formula_sum "Si O2"
_cell_formula_units_Z 60
_cell_length_a 24.519444
_cell_length_b 8.120830
_cell_length_c 14.910530
_cell_angle_alpha 90.000000
_cell_angle_beta 90.000000
_cell_angle_gamma 90.000000
_cell_volume 2968.958438
_symmetry_space_group_name_H-M "P C C A"
_symmetry_group_IT_number 54
_symmetry_cell_setting 'orthorhombic'
loop_
_space_group_symop_operation_xyz
x,y,z
1/2-x,-y,z
1/2+x,-y,1/2-z
-x,y,1/2-z
-x,-y,-z
1/2+x,y,-z
1/2-x,y,1/2+z
x,-y,1/2+z
loop_
_atom_site_type_symbol
_atom_site_label
_atom_site_fract_x
_atom_site_fract_y
_atom_site_fract_z
Si Si1 0.880168 0.775230 0.710506
Si Si2 0.696488 0.416806 0.830906
Si Si3 0.829913 0.895602 0.538450
Si Si4 0.619364 0.556537 0.594816
Si Si5 0.000000 0.284035 0.250000
Si Si6 0.716081 0.744487 0.523408
Si Si7 0.113052 0.652295 0.087115
Si Si8 0.997223 0.434529 0.601605
O O1 0.833865 0.737351 0.784114
O O2 0.862317 0.898946 0.632066
O O3 0.880917 0.598378 0.660192
O O4 0.941507 0.807240 0.745637
O O5 0.750000 0.500000 0.787533
O O6 0.652491 0.564191 0.842319
O O7 0.714851 0.350857 0.928998
O O8 0.778227 0.773044 0.552932
O O9 0.864085 0.816742 0.457625
O O10 0.808682 0.073807 0.512291
O O11 0.675726 0.653762 0.592402
O O12 0.613640 0.478606 0.495318
O O13 0.562080 0.647880 0.613934
O O14 0.001795 0.405717 0.164686
O O15 0.051186 0.670799 0.119364
O O16 0.000000 0.500000 0.500000
#
# Coordination Sequence:
#
# PCOD9420676 Si02
#       8
#     8   8   8   8   4   8   8   8
#     4  10  21  34  60  87 110 145 191 242 288 330
#     4  11  20  33  57  87 108 138 189 245 280 325
#     4  10  21  38  55  78 114 159 187 223 289 357
#     4   8  18  31  54  79 104 141 184 230 278 332
#     4  10  18  34  56  88 116 142 188 250 296 330
#     4  10  21  38  55  76 116 152 185 227 285 355
#     4   9  16  32  54  76 104 139 187 230 272 333
#     4   9  16  30  52  82 109 140 184 241 292 328
#
# _framework density 20.209106999999999
#
# number of rings (size 3 to 8) (size 9 to 14) (size 15 to 20)
#    0.000    2.400    2.667    0.800    1.867    0.000 
#    0.000    4.667    0.000    0.800    0.000    0.000 
#    0.000    0.000    0.000    0.000    0.000    0.000 
#
# Total GULP energy -334282.431498 kJ/mol
# GULP energy per Si atom -5571.373858 kJ/mol
# Density = 2.016311 g / cm^3
# Si number density = 20.209107 Si / 1000 Ang^3
#
#
#
# Elastic Constant Matrix: (Units=GPa)
#
#
# Indices 1 2 3 4 5 6 
#
# 1 111.9902 16.5814 -0.1366 0.0000 0.0000 0.0000
# 2 16.5814 32.0914 -6.1142 0.0000 0.0000 0.0000
# 3 -0.1366 -6.1142 42.3207 0.0000 0.0000 0.0000
# 4 0.0000 0.0000 0.0000 3.2427 0.0000 0.0000
# 5 0.0000 0.0000 0.0000 0.0000 22.5283 0.0000
# 6 0.0000 0.0000 0.0000 0.0000 0.0000 20.4062
#
#
#
# Elastic Compliance Matrix: (Units=1/GPa)
#
#
# Indices 1 2 3 4 5 6 
#
# 1 0.009690 -0.005142 -0.000712 0.000000 0.000000 0.000000
# 2 -0.005142 0.034772 0.005007 0.000000 0.000000 0.000000
# 3 -0.000712 0.005007 0.024350 0.000000 0.000000 0.000000
# 4 0.000000 0.000000 0.000000 0.308381 0.000000 0.000000
# 5 0.000000 0.000000 0.000000 0.000000 0.044389 0.000000
# 6 0.000000 0.000000 0.000000 0.000000 0.000000 0.049005
#
#
# Mechanical properties :
#
#
# Convention : Reuss Voigt Hill
#
# Bulk Modulus (GPa) = 14.89909 23.00703 18.95306
# Shear Modulus (GPa) = 10.10809 20.97356 15.54082
#
# Velocity S-wave (km/s) = 2.23889 3.22503 2.77610
# Velocity P-wave (km/s) = 3.75126 5.02762 4.43559
#
# Compressibility (1/GPa) = 0.06711820
#
# Stress axis : x y z
#
# Youngs Moduli (GPa) = 103.20073 28.75883 41.06745
#
# Poissons Ratio (x) = 0.14789 0.02922
# Poissons Ratio (y) = 0.53068 -0.20562
# Poissons Ratio (z) = 0.07344 -0.14400
#
# Static dielectric constant tensor:
#      x y z
#    x 1.808210 0.000000 0.000000 
#    y 0.000000 1.670500 0.000000 
#    z 0.000000 0.000000 1.759190 
# 
# From -- ./inp_files/14972.got.cif
#   From: 2010.05.17/outbox.cif.g08.bks.cpg/sg54_8_cif.got.tgz:14972.got - 2010.06.03 13:09:01.
