data_PCOD9420876
_publ_section_title
;
Structure prediction by ZEFSAII (Michael W. Deem and Ramdas Pophale) SiO2 
 PCOD9420876
Probable space group: P C C A
;
_chemical_formula_sum "Si O2"
_cell_formula_units_Z 64
_cell_length_a 20.738636
_cell_length_b 8.850516
_cell_length_c 14.993761
_cell_angle_alpha 90.000000
_cell_angle_beta 90.000000
_cell_angle_gamma 90.000000
_cell_volume 2752.069292
_symmetry_space_group_name_H-M "P C C A"
_symmetry_group_IT_number 54
_symmetry_cell_setting 'orthorhombic'
loop_
_space_group_symop_operation_xyz
x,y,z
1/2-x,-y,z
1/2+x,-y,1/2-z
-x,y,1/2-z
-x,-y,-z
1/2+x,y,-z
1/2-x,y,1/2+z
x,-y,1/2+z
loop_
_atom_site_type_symbol
_atom_site_label
_atom_site_fract_x
_atom_site_fract_y
_atom_site_fract_z
Si Si1 0.939217 0.918060 0.877099
Si Si2 0.458320 0.419356 0.421854
Si Si3 0.684400 0.917465 0.838531
Si Si4 0.179172 0.566036 0.956978
Si Si5 0.819682 0.431610 0.825757
Si Si6 0.938880 0.935943 0.084220
Si Si7 0.052425 0.396599 0.189390
Si Si8 0.813873 0.085880 0.057254
O O1 0.930494 0.737544 0.879752
O O2 0.880766 0.988809 0.822439
O O3 0.937229 0.981084 0.978859
O O4 0.010375 0.975321 0.856025
O O5 0.500000 0.500000 0.500000
O O6 0.385407 0.482351 0.423674
O O7 0.454306 0.240115 0.417381
O O8 0.504040 0.473412 0.342592
O O9 0.678618 0.746241 0.804257
O O10 0.750000 0.000000 0.809173
O O11 0.687626 0.913127 0.947901
O O12 0.250000 0.500000 0.934456
O O13 0.178146 0.737665 0.922248
O O14 0.174032 0.559434 0.065654
O O15 0.750000 0.500000 0.801772
O O16 0.879827 0.526081 0.786284
O O17 0.867913 0.988559 0.106741
O O18 0.000000 0.309200 0.250000
O O19 0.750000 0.000000 0.083901
#
# Coordination Sequence:
#
# PCOD9420876 Si02
#       8
#     8   8   8   8   8   8   8   8
#     4  10  19  33  53  81 115 147 190 240 292 351
#     4  12  21  36  60  87 118 152 198 249 298 350
#     4   9  17  29  51  82 113 145 186 242 296 350
#     4  10  19  32  57  90 120 153 196 252 309 356
#     4  10  19  35  60  87 118 154 199 249 300 358
#     4  10  19  31  56  82 110 147 192 243 301 341
#     4  12  25  40  57  87 123 165 202 246 303 363
#     4   9  17  28  46  79 121 149 182 237 302 360
#
# _framework density 23.255229
#
# number of rings (size 3 to 8) (size 9 to 14) (size 15 to 20)
#    0.000    1.750    2.500    3.000    3.500    4.000 
#    0.000    3.125    0.000    0.000    0.000    3.500 
#    0.000    0.000    0.000    0.000    0.000    0.000 
#
# Total GULP energy -356944.977012 kJ/mol
# GULP energy per Si atom -5577.265266 kJ/mol
# Density = 2.320230 g / cm^3
# Si number density = 23.255229 Si / 1000 Ang^3
#
#
#
# Elastic Constant Matrix: (Units=GPa)
#
#
# Indices 1 2 3 4 5 6 
#
# 1 220.8828 79.3528 13.2081 0.0000 0.0000 0.0000
# 2 79.3528 150.0206 5.3535 0.0000 0.0000 0.0000
# 3 13.2081 5.3535 51.7027 0.0000 0.0000 0.0000
# 4 0.0000 0.0000 0.0000 8.1983 0.0000 0.0000
# 5 0.0000 0.0000 0.0000 0.0000 25.5423 0.0000
# 6 0.0000 0.0000 0.0000 0.0000 0.0000 39.9143
#
#
#
# Elastic Compliance Matrix: (Units=1/GPa)
#
#
# Indices 1 2 3 4 5 6 
#
# 1 0.005655 -0.002951 -0.001139 0.000000 0.000000 0.000000
# 2 -0.002951 0.008230 -0.000098 0.000000 0.000000 0.000000
# 3 -0.001139 -0.000098 0.019643 0.000000 0.000000 0.000000
# 4 0.000000 0.000000 0.000000 0.121977 0.000000 0.000000
# 5 0.000000 0.000000 0.000000 0.000000 0.039151 0.000000
# 6 0.000000 0.000000 0.000000 0.000000 0.000000 0.025054
#
#
# Mechanical properties :
#
#
# Convention : Reuss Voigt Hill
#
# Bulk Modulus (GPa) = 39.75924 68.71498 54.23711
# Shear Modulus (GPa) = 21.14431 36.37709 28.76070
#
# Velocity S-wave (km/s) = 3.01861 3.95936 3.52055
# Velocity P-wave (km/s) = 5.41141 7.10734 6.31655
#
# Compressibility (1/GPa) = 0.02515138
#
# Stress axis : x y z
#
# Youngs Moduli (GPa) = 176.81922 121.50561 50.90981
#
# Poissons Ratio (x) = 0.35854 0.05800
# Poissons Ratio (y) = 0.52176 0.00501
# Poissons Ratio (z) = 0.20144 0.01195
#
# Static dielectric constant tensor:
#      x y z
#    x 2.110190 0.000000 0.000000 
#    y 0.000000 1.878890 0.000000 
#    z 0.000000 0.000000 1.663290 
# 
# From -- ./inp_files/21956.got.cif
#   From: 2010.05.17/outbox.cif.g08.bks.cpg/sg54_11_cif.got.tgz:21956.got - 2010.06.03 13:09:01.
