data_PCOD9420338
_publ_section_title
;
Structure prediction by ZEFSAII (Michael W. Deem and Ramdas Pophale) SiO2 
 PCOD9420338
Probable space group: P C C A
;
_chemical_formula_sum "Si O2"
_cell_formula_units_Z 60
_cell_length_a 18.969913
_cell_length_b 28.061854
_cell_length_c 5.512872
_cell_angle_alpha 90.000000
_cell_angle_beta 90.000000
_cell_angle_gamma 90.000000
_cell_volume 2934.672273
_symmetry_space_group_name_H-M "P C C A"
_symmetry_group_IT_number 54
_symmetry_cell_setting 'orthorhombic'
loop_
_space_group_symop_operation_xyz
x,y,z
1/2-x,-y,z
1/2+x,-y,1/2-z
-x,y,1/2-z
-x,-y,-z
1/2+x,y,-z
1/2-x,y,1/2+z
x,-y,1/2+z
loop_
_atom_site_type_symbol
_atom_site_label
_atom_site_fract_x
_atom_site_fract_y
_atom_site_fract_z
Si Si1 0.000000 0.799500 0.750000
Si Si2 0.218784 0.869523 0.240169
Si Si3 0.435739 0.880930 0.577471
Si Si4 0.418018 0.519394 0.005122
Si Si5 0.580471 0.982217 0.048935
Si Si6 0.044799 0.627026 0.501369
Si Si7 0.072824 0.269631 0.898194
Si Si8 0.219208 0.756841 0.214076
O O1 0.056960 0.766134 0.618082
O O2 0.959969 0.834163 0.564117
O O3 0.250030 0.889952 0.488918
O O4 0.134602 0.872603 0.230160
O O5 0.237061 0.813138 0.225318
O O6 0.500000 0.895060 0.750000
O O7 0.421478 0.925789 0.403884
O O8 0.386621 0.498304 0.251703
O O9 0.417114 0.576355 0.016631
O O10 0.500000 0.500000 0.000000
O O11 0.613079 0.992007 0.782669
O O12 0.500000 0.000000 0.000000
O O13 0.087203 0.676386 0.482267
O O14 0.000000 0.630901 0.750000
O O15 0.000000 0.624075 0.250000
O O16 0.136094 0.250605 0.737002
O O17 0.000000 0.270438 0.750000
O O18 0.252305 0.736516 0.462082
#
# Coordination Sequence:
#
# PCOD9420338 Si02
#       8
#     4   8   8   8   8   8   8   8
#     4  12  24  36  58  94 124 154 200 256 304 346
#     4  10  24  42  61  89 125 160 197 248 302 354
#     4  12  25  38  68  95 121 155 208 252 296 359
#     4  10  15  25  45  68 103 145 192 229 285 366
#     4  10  20  39  60  92 117 149 190 245 291 344
#     4  11  19  31  48  75 111 161 181 237 308 362
#     4  11  25  39  56  87 130 158 202 253 316 363
#     4  10  23  41  63  80 114 166 212 244 289 359
#
# _framework density 20.445214
#
# number of rings (size 3 to 8) (size 9 to 14) (size 15 to 20)
#    0.000    1.333    4.667    2.800    9.333    0.000 
#    0.000    0.000    0.000    2.400    0.000    0.000 
#    0.000    3.200    0.000    0.000    0.000    0.000 
#
# Total GULP energy -334950.133150 kJ/mol
# GULP energy per Si atom -5582.502219 kJ/mol
# Density = 2.039868 g / cm^3
# Si number density = 20.445214 Si / 1000 Ang^3
#
#
#
# Elastic Constant Matrix: (Units=GPa)
#
#
# Indices 1 2 3 4 5 6 
#
# 1 59.5804 -22.1826 34.3032 0.0000 0.0000 0.0000
# 2 -22.1826 95.2409 17.6036 0.0000 0.0000 0.0000
# 3 34.3032 17.6036 145.3710 0.0000 0.0000 0.0000
# 4 0.0000 0.0000 0.0000 107.0846 0.0000 0.0000
# 5 0.0000 0.0000 0.0000 0.0000 25.2896 0.0000
# 6 0.0000 0.0000 0.0000 0.0000 0.0000 1.1430
#
#
#
# Elastic Compliance Matrix: (Units=1/GPa)
#
#
# Indices 1 2 3 4 5 6 
#
# 1 0.022708 0.006423 -0.006136 0.000000 0.000000 0.000000
# 2 0.006423 0.012557 -0.003036 0.000000 0.000000 0.000000
# 3 -0.006136 -0.003036 0.008695 0.000000 0.000000 0.000000
# 4 0.000000 0.000000 0.000000 0.009338 0.000000 0.000000
# 5 0.000000 0.000000 0.000000 0.000000 0.039542 0.000000
# 6 0.000000 0.000000 0.000000 0.000000 0.000000 0.874889
#
#
# Mechanical properties :
#
#
# Convention : Reuss Voigt Hill
#
# Bulk Modulus (GPa) = 26.00016 39.96007 32.98012
# Shear Modulus (GPa) = 5.07075 44.73465 24.90270
#
# Velocity S-wave (km/s) = 1.57656 4.68271 3.49380
# Velocity P-wave (km/s) = 4.00733 6.98744 5.69575
#
# Compressibility (1/GPa) = 0.03846129
#
# Stress axis : x y z
#
# Youngs Moduli (GPa) = 44.03643 79.63734 115.01381
#
# Poissons Ratio (x) = -0.51153 0.70576
# Poissons Ratio (y) = -0.28286 0.34921
# Poissons Ratio (z) = 0.27022 0.24180
#
# Static dielectric constant tensor:
#      x y z
#    x 1.696030 0.000000 0.000000 
#    y 0.000000 1.737100 0.000000 
#    z 0.000000 0.000000 1.806710 
# 
# From -- ./inp_files/1072.got.cif
#   From: 2010.05.17/outbox.cif.g08.bks.cpg/sg54_1_cif.got.tgz:1072.got - 2010.06.03 13:09:01.
