data_PCOD9420590
_publ_section_title
;
Structure prediction by ZEFSAII (Michael W. Deem and Ramdas Pophale) SiO2 
 PCOD9420590
Probable space group: P C C A
;
_chemical_formula_sum "Si O2"
_cell_formula_units_Z 48
_cell_length_a 23.009280
_cell_length_b 10.636211
_cell_length_c 8.536677
_cell_angle_alpha 90.000000
_cell_angle_beta 90.000000
_cell_angle_gamma 90.000000
_cell_volume 2089.194254
_symmetry_space_group_name_H-M "P C C A"
_symmetry_group_IT_number 54
_symmetry_cell_setting 'orthorhombic'
loop_
_space_group_symop_operation_xyz
x,y,z
1/2-x,-y,z
1/2+x,-y,1/2-z
-x,y,1/2-z
-x,-y,-z
1/2+x,y,-z
1/2-x,y,1/2+z
x,-y,1/2+z
loop_
_atom_site_type_symbol
_atom_site_label
_atom_site_fract_x
_atom_site_fract_y
_atom_site_fract_z
Si Si1 0.463661 0.746146 0.587020
Si Si2 0.129947 0.687687 0.299718
Si Si3 0.940645 0.563402 0.681451
Si Si4 0.227356 0.833151 0.381551
Si Si5 0.675877 0.071843 0.789644
Si Si6 0.432201 0.193005 0.600212
O O1 0.500000 0.749893 0.750000
O O2 0.397756 0.757652 0.648844
O O3 0.456417 0.617380 0.488419
O O4 0.501954 0.829277 0.463092
O O5 0.107252 0.544722 0.309257
O O6 0.198113 0.703958 0.327700
O O7 0.101651 0.760148 0.446794
O O8 0.928849 0.687258 0.784842
O O9 0.000000 0.509617 0.750000
O O10 0.208409 0.878335 0.553768
O O11 0.295689 0.841679 0.347148
O O12 0.195803 0.935742 0.268202
O O13 0.607274 0.086184 0.820502
#
# Coordination Sequence:
#
# PCOD9420590 Si02
#       6
#     8   8   8   8   8   8
#     4   9  18  31  51  80 113 146 179 214 260 317
#     4  10  19  32  51  79 109 138 176 218 266 321
#     4  10  18  31  54  80 109 143 175 208 253 312
#     4  10  21  36  58  79 100 136 178 228 279 324
#     4  10  20  38  58  78 104 135 183 230 273 326
#     4   9  19  33  52  80 109 142 179 219 262 317
#
# _framework density 22.975363999999999
#
# number of rings (size 3 to 8) (size 9 to 14) (size 15 to 20)
#    0.000    2.333    0.000    4.500    0.000    7.333 
#    0.000    1.667    0.000   14.000    0.000    0.000 
#    0.000    1.333    0.000    0.000    0.000    0.000 
#
# Total GULP energy -267218.592589 kJ/mol
# GULP energy per Si atom -5567.054012 kJ/mol
# Density = 2.292307 g / cm^3
# Si number density = 22.975364 Si / 1000 Ang^3
#
#
#
# Elastic Constant Matrix: (Units=GPa)
#
#
# Indices 1 2 3 4 5 6 
#
# 1 42.6256 3.1537 18.7842 0.0000 0.0000 0.0000
# 2 3.1537 36.0963 6.2279 0.0000 0.0000 0.0000
# 3 18.7842 6.2279 55.9782 0.0000 0.0000 0.0000
# 4 0.0000 0.0000 0.0000 8.7169 0.0000 0.0000
# 5 0.0000 0.0000 0.0000 0.0000 15.2322 0.0000
# 6 0.0000 0.0000 0.0000 0.0000 0.0000 32.7418
#
#
#
# Elastic Compliance Matrix: (Units=1/GPa)
#
#
# Indices 1 2 3 4 5 6 
#
# 1 0.027556 -0.000828 -0.009154 0.000000 0.000000 0.000000
# 2 -0.000828 0.028271 -0.002867 0.000000 0.000000 0.000000
# 3 -0.009154 -0.002867 0.021255 0.000000 0.000000 0.000000
# 4 0.000000 0.000000 0.000000 0.114720 0.000000 0.000000
# 5 0.000000 0.000000 0.000000 0.000000 0.065650 0.000000
# 6 0.000000 0.000000 0.000000 0.000000 0.000000 0.030542
#
#
# Mechanical properties :
#
#
# Convention : Reuss Voigt Hill
#
# Bulk Modulus (GPa) = 19.46230 21.22575 20.34402
# Shear Modulus (GPa) = 15.11393 18.44046 16.77720
#
# Velocity S-wave (km/s) = 2.56761 2.83613 2.70520
# Velocity P-wave (km/s) = 4.15686 4.47027 4.31641
#
# Compressibility (1/GPa) = 0.05138139
#
# Stress axis : x y z
#
# Youngs Moduli (GPa) = 36.29035 35.37225 47.04772
#
# Poissons Ratio (x) = 0.02929 0.43070
# Poissons Ratio (y) = 0.03005 0.13491
# Poissons Ratio (z) = 0.33222 0.10143
#
# Static dielectric constant tensor:
#      x y z
#    x 1.983560 0.000000 0.000000 
#    y 0.000000 1.888150 0.000000 
#    z 0.000000 0.000000 1.932700 
# 
# From -- ./inp_files/5163.got.cif
#   From: 2010.05.17/outbox.cif.g08.bks.cpg/sg54_3_cif.got.tgz:5163.got - 2010.06.03 13:09:01.
