data_PCOD9420252
_publ_section_title
;
Structure prediction by ZEFSAII (Michael W. Deem and Ramdas Pophale) SiO2 
 PCOD9420252
Probable space group: P M N A
;
_chemical_formula_sum "Si O2"
_cell_formula_units_Z 64
_cell_length_a 24.000000
_cell_length_b 15.000000
_cell_length_c 9.000000
_cell_angle_alpha 90.000000
_cell_angle_beta 90.000000
_cell_angle_gamma 90.000000
_cell_volume 3240.000000
_symmetry_space_group_name_H-M "P M N A"
_symmetry_group_IT_number 53
_symmetry_cell_setting 'orthorhombic'
loop_
_space_group_symop_operation_xyz
x,y,z
1/2-x,-y,1/2+z
x,-y,-z
1/2-x,y,1/2-z
-x,-y,-z
1/2+x,y,1/2-z
-x,y,z
1/2+x,-y,1/2+z
loop_
_atom_site_type_symbol
_atom_site_label
_atom_site_fract_x
_atom_site_fract_y
_atom_site_fract_z
Si Si1 0.254244 0.285779 0.569971
Si Si2 0.433805 0.727771 0.916919
Si Si3 0.932559 0.088024 0.908229
Si Si4 0.607081 0.091917 0.928345
Si Si5 0.433210 0.266800 0.423490
Si Si6 0.239812 0.089707 0.574578
Si Si7 0.647367 0.597422 0.067254
Si Si8 0.859378 0.595215 0.076935
O O1 0.250000 0.280022 0.750000
O O2 0.262000 0.184582 0.516838
O O3 0.197755 0.335696 0.524998
O O4 0.305800 0.347274 0.529161
O O5 0.500000 0.719759 0.916647
O O6 0.413459 0.728055 0.746405
O O7 0.418050 0.820495 0.995998
O O8 0.406869 0.645421 0.003042
O O9 0.906291 0.090656 0.745809
O O10 0.000000 0.088732 0.892141
O O11 0.914990 0.175258 0.998957
O O12 0.917414 0.000000 0.000000
O O13 0.673432 0.094683 0.949923
O O14 0.585377 0.000000 0.000000
O O15 0.500000 0.265952 0.420682
O O16 0.411761 0.348907 0.519851
O O17 0.250000 0.083262 0.750000
O O18 0.262233 0.000000 0.500000
O O19 0.642889 0.589152 0.245043
O O20 0.656422 0.500000 0.000000
O O21 0.858099 0.500000 0.000000
#
# Coordination Sequence:
#
# PCOD9420252 Si02
#       8
#     8   8   8   8   8   8   8   8
#     4   9  20  40  64  89 123 160 199 250 305 362
#     4  11  23  41  62  89 124 161 208 256 306 364
#     4  10  21  37  58  89 124 161 204 250 301 357
#     4  11  22  38  62  90 122 162 206 250 303 363
#     4  10  23  41  61  89 126 163 204 254 305 364
#     4  10  22  41  60  89 127 161 200 246 300 361
#     4  11  22  40  66  90 123 158 202 256 308 368
#     4  11  23  41  64  93 121 159 204 252 311 366
#
# _framework density 19.753086
#
# number of rings (size 3 to 8) (size 9 to 14) (size 15 to 20)
#    0.000    1.625    1.250    3.000    3.500    4.500 
#    4.500    1.875    0.000    0.000    0.000    0.000 
#    0.000    0.000    0.000    0.000    0.000    0.000 
#
# Total GULP energy -357618.628838 kJ/mol
# GULP energy per Si atom -5587.791076 kJ/mol
# Density = 1.970813 g / cm^3
# Si number density = 19.753086 Si / 1000 Ang^3
#
#
#
# Elastic Constant Matrix: (Units=GPa)
#
#
# Indices 1 2 3 4 5 6 
#
# 1 31.5214 26.5131 14.8681 0.0000 0.0000 0.0000
# 2 26.5131 190.8093 61.8143 0.0000 0.0000 0.0000
# 3 14.8681 61.8143 98.7855 0.0000 0.0000 0.0000
# 4 0.0000 0.0000 0.0000 45.1955 0.0000 0.0000
# 5 0.0000 0.0000 0.0000 0.0000 40.6034 0.0000
# 6 0.0000 0.0000 0.0000 0.0000 0.0000 69.3287
#
#
#
# Elastic Compliance Matrix: (Units=1/GPa)
#
#
# Indices 1 2 3 4 5 6 
#
# 1 0.036581 -0.004138 -0.002916 0.000000 0.000000 0.000000
# 2 -0.004138 0.007041 -0.003783 0.000000 0.000000 0.000000
# 3 -0.002916 -0.003783 0.012929 0.000000 0.000000 0.000000
# 4 0.000000 0.000000 0.000000 0.022126 0.000000 0.000000
# 5 0.000000 0.000000 0.000000 0.000000 0.024628 0.000000
# 6 0.000000 0.000000 0.000000 0.000000 0.000000 0.014424
#
#
# Mechanical properties :
#
#
# Convention : Reuss Voigt Hill
#
# Bulk Modulus (GPa) = 28.67311 58.61189 43.64250
# Shear Modulus (GPa) = 33.10583 45.55359 39.32971
#
# Velocity S-wave (km/s) = 4.09832 4.80745 4.46698
# Velocity P-wave (km/s) = 6.07801 7.78152 6.98192
#
# Compressibility (1/GPa) = 0.03487589
#
# Stress axis : x y z
#
# Youngs Moduli (GPa) = 27.33684 142.01581 77.34401
#
# Poissons Ratio (x) = 0.58768 0.22556
# Poissons Ratio (y) = 0.11312 0.29262
# Poissons Ratio (z) = 0.07972 0.53729
#
# Static dielectric constant tensor:
#      x y z
#    x 1.715420 0.000000 0.000000 
#    y 0.000000 1.673220 0.000000 
#    z 0.000000 0.000000 1.664920 
# 
# From -- ./inp_files/11961.got.cif
#   From: 2010.05.17/outbox.ucp.g08.bks.cvg/sg53_6_cif.got.tgz:11961.got - 2010.06.11 16:32:34.
