data_PCOD9420569
_publ_section_title
;
Structure prediction by ZEFSAII (Michael W. Deem and Ramdas Pophale) SiO2 
 PCOD9420569
Probable space group: P C C A
;
_chemical_formula_sum "Si O2"
_cell_formula_units_Z 48
_cell_length_a 19.603849
_cell_length_b 8.961649
_cell_length_c 16.757143
_cell_angle_alpha 90.000000
_cell_angle_beta 90.000000
_cell_angle_gamma 90.000000
_cell_volume 2943.942033
_symmetry_space_group_name_H-M "P C C A"
_symmetry_group_IT_number 54
_symmetry_cell_setting 'orthorhombic'
loop_
_space_group_symop_operation_xyz
x,y,z
1/2-x,-y,z
1/2+x,-y,1/2-z
-x,y,1/2-z
-x,-y,-z
1/2+x,y,-z
1/2-x,y,1/2+z
x,-y,1/2+z
loop_
_atom_site_type_symbol
_atom_site_label
_atom_site_fract_x
_atom_site_fract_y
_atom_site_fract_z
Si Si1 0.250000 0.000000 0.336396
Si Si2 0.004931 0.096911 0.417277
Si Si3 0.000000 0.088410 0.750000
Si Si4 0.144445 0.109672 0.082793
Si Si5 0.850916 0.849113 0.285159
Si Si6 0.272727 0.330237 0.089065
Si Si7 0.652987 0.846345 0.044095
O O1 0.303247 0.096735 0.285828
O O2 0.205706 0.116861 0.386766
O O3 0.076250 0.182655 0.425957
O O4 0.931560 0.178403 0.415433
O O5 0.008187 0.005371 0.333241
O O6 0.000000 0.000000 0.500000
O O7 0.929136 0.176738 0.760376
O O8 0.205718 0.225121 0.087254
O O9 0.148853 0.991838 0.155159
O O10 0.151667 0.001976 0.006195
O O11 0.816560 0.714726 0.333296
O O12 0.250000 0.500000 0.087385
O O13 0.318717 0.280641 0.013930
#
# Coordination Sequence:
#
# PCOD9420569 Si02
#       7
#     4   8   4   8   8   8   8
#     4  12  16  28  58  80 106 124 174 230 282 306
#     4   9  18  29  51  82 108 130 176 237 283 323
#     4  10  18  30  54  86 110 134 178 242 290 322
#     4   9  17  34  52  75 102 137 182 222 266 319
#     4  10  19  32  55  81 103 137 181 229 274 325
#     4  11  21  36  53  74 110 152 187 215 269 339
#     4  10  18  32  53  79 101 135 176 232 271 319
#
# _framework density 16.304669000000001
#
# number of rings (size 3 to 8) (size 9 to 14) (size 15 to 20)
#    0.000    2.000    5.000    2.000    0.000    0.000 
#    0.000    1.667    0.000    6.000    0.000    0.000 
#    0.000    0.000    0.000    0.000    0.000    0.000 
#
# Total GULP energy -267220.088205 kJ/mol
# GULP energy per Si atom -5567.085171 kJ/mol
# Density = 1.626756 g / cm^3
# Si number density = 16.304669 Si / 1000 Ang^3
#
#
#
# Elastic Constant Matrix: (Units=GPa)
#
#
# Indices 1 2 3 4 5 6 
#
# 1 166.2677 41.3778 37.5812 0.0000 0.0000 0.0000
# 2 41.3778 61.5951 12.7721 0.0000 0.0000 0.0000
# 3 37.5812 12.7721 84.1656 0.0000 0.0000 0.0000
# 4 0.0000 0.0000 0.0000 -0.1620 0.0000 0.0000
# 5 0.0000 0.0000 0.0000 0.0000 36.9087 0.0000
# 6 0.0000 0.0000 0.0000 0.0000 0.0000 11.7930
#
#
#
# Elastic Compliance Matrix: (Units=1/GPa)
#
#
# Indices 1 2 3 4 5 6 
#
# 1 0.007803 -0.004666 -0.002776 0.000000 0.000000 0.000000
# 2 -0.004666 0.019553 -0.000884 0.000000 0.000000 0.000000
# 3 -0.002776 -0.000884 0.013255 0.000000 0.000000 0.000000
# 4 0.000000 0.000000 0.000000 -6.173550 0.000000 0.000000
# 5 0.000000 0.000000 0.000000 0.000000 0.027094 0.000000
# 6 0.000000 0.000000 0.000000 0.000000 0.000000 0.084796
#
#
# Mechanical properties :
#
#
# Convention : Reuss Voigt Hill
#
# Bulk Modulus (GPa) = 41.73777 55.05451 48.39614
# Shear Modulus (GPa) = -0.83383 24.39444 11.78030
#
# Velocity S-wave (km/s) = -0.71590 3.87222 2.69087
# Velocity P-wave (km/s) = 4.99709 7.33700 6.27704
#
# Compressibility (1/GPa) = 0.02395911
#
# Stress axis : x y z
#
# Youngs Moduli (GPa) = 128.15362 51.14320 75.44327
#
# Poissons Ratio (x) = 0.23865 0.20944
# Poissons Ratio (y) = 0.59800 0.06666
# Poissons Ratio (z) = 0.35577 0.04519
#
# Static dielectric constant tensor:
#      x y z
#    x 1.589560 0.000000 0.000000 
#    y 0.000000 1.491090 0.000000 
#    z 0.000000 0.000000 1.164670 
# 
# From -- ./inp_files/18856.got.cif
#   From: 2010.05.17/outbox.cif.g08.bks.cpg/sg54_10_cif.got.tgz:18856.got - 2010.06.03 13:09:01.
