data_PCOD9420987
_publ_section_title
;
Structure prediction by ZEFSAII (Michael W. Deem and Ramdas Pophale) SiO2 
 PCOD9420987
Probable space group: P C C A
;
_chemical_formula_sum "Si O2"
_cell_formula_units_Z 60
_cell_length_a 27.390334
_cell_length_b 6.376783
_cell_length_c 19.478522
_cell_angle_alpha 90.000000
_cell_angle_beta 90.000000
_cell_angle_gamma 90.000000
_cell_volume 3402.161821
_symmetry_space_group_name_H-M "P C C A"
_symmetry_group_IT_number 54
_symmetry_cell_setting 'orthorhombic'
loop_
_space_group_symop_operation_xyz
x,y,z
1/2-x,-y,z
1/2+x,-y,1/2-z
-x,y,1/2-z
-x,-y,-z
1/2+x,y,-z
1/2-x,y,1/2+z
x,-y,1/2+z
loop_
_atom_site_type_symbol
_atom_site_label
_atom_site_fract_x
_atom_site_fract_y
_atom_site_fract_z
Si Si1 0.843827 0.726681 0.604478
Si Si2 0.069945 0.226188 0.503938
Si Si3 0.933212 0.519898 0.358484
Si Si4 0.250000 0.500000 0.401461
Si Si5 0.620056 0.604582 0.720067
Si Si6 0.020588 0.825475 0.320749
Si Si7 0.204115 0.884910 0.315441
Si Si8 0.980949 0.148902 0.425518
O O1 0.887134 0.764711 0.551082
O O2 0.798776 0.604190 0.567157
O O3 0.863018 0.578575 0.667412
O O4 0.822890 0.942941 0.636573
O O5 0.082267 0.361532 0.571492
O O6 0.018675 0.291440 0.468138
O O7 0.054669 0.992931 0.528475
O O8 0.896883 0.526861 0.294493
O O9 0.947668 0.286033 0.376864
O O10 0.982602 0.638899 0.335652
O O11 0.228339 0.694621 0.358133
O O12 0.574068 0.729981 0.687879
O O13 0.663550 0.771086 0.729420
O O14 0.000000 0.923123 0.250000
O O15 0.014362 0.992782 0.380742
O O16 0.250000 0.000000 0.280311
#
# Coordination Sequence:
#
# PCOD9420987 Si02
#       8
#     8   8   8   4   8   8   8   8
#     4  10  19  33  57  80 101 133 175 220 268 313
#     4  10  21  33  50  75 104 142 180 212 254 312
#     4  10  21  35  49  73 112 145 173 212 259 311
#     4   8  18  34  54  82 106 124 164 226 274 314
#     4  10  20  33  54  81 104 137 179 220 265 314
#     4   9  19  32  48  75 108 139 178 219 255 303
#     4   9  18  34  56  82 106 129 167 223 274 315
#     4  10  20  33  48  71 107 147 180 212 253 307
#
# _framework density 17.635846000000001
#
# number of rings (size 3 to 8) (size 9 to 14) (size 15 to 20)
#    0.000    2.400    0.000    2.000    0.000   10.133 
#    0.000    0.000    0.000    7.200    0.000    0.000 
#    0.000    0.000    0.000    0.000    0.000    0.000 
#
# Total GULP energy -334166.368210 kJ/mol
# GULP energy per Si atom -5569.439470 kJ/mol
# Density = 1.759571 g / cm^3
# Si number density = 17.635846 Si / 1000 Ang^3
#
#
#
# Elastic Constant Matrix: (Units=GPa)
#
#
# Indices 1 2 3 4 5 6 
#
# 1 114.5839 53.4773 49.4813 0.0000 0.0000 0.0000
# 2 53.4773 77.8937 43.7175 0.0000 0.0000 0.0000
# 3 49.4813 43.7175 90.7574 0.0000 0.0000 0.0000
# 4 0.0000 0.0000 0.0000 7.4958 0.0000 0.0000
# 5 0.0000 0.0000 0.0000 0.0000 18.9118 0.0000
# 6 0.0000 0.0000 0.0000 0.0000 0.0000 21.7047
#
#
#
# Elastic Compliance Matrix: (Units=1/GPa)
#
#
# Indices 1 2 3 4 5 6 
#
# 1 0.013861 -0.007229 -0.004075 0.000000 0.000000 0.000000
# 2 -0.007229 0.021365 -0.006350 0.000000 0.000000 0.000000
# 3 -0.004075 -0.006350 0.016299 0.000000 0.000000 0.000000
# 4 0.000000 0.000000 0.000000 0.133409 0.000000 0.000000
# 5 0.000000 0.000000 0.000000 0.000000 0.052877 0.000000
# 6 0.000000 0.000000 0.000000 0.000000 0.000000 0.046073
#
#
# Mechanical properties :
#
#
# Convention : Reuss Voigt Hill
#
# Bulk Modulus (GPa) = 61.66480 64.06525 62.86503
# Shear Modulus (GPa) = 15.40373 18.72637 17.06505
#
# Velocity S-wave (km/s) = 2.95860 3.26212 3.11406
# Velocity P-wave (km/s) = 6.83466 7.11296 6.97520
#
# Compressibility (1/GPa) = 0.01621671
#
# Stress axis : x y z
#
# Youngs Moduli (GPa) = 72.14651 46.80543 61.35419
#
# Poissons Ratio (x) = 0.33836 0.25000
# Poissons Ratio (y) = 0.52155 0.38961
# Poissons Ratio (z) = 0.29398 0.29722
#
# Static dielectric constant tensor:
#      x y z
#    x 1.614680 0.000000 0.000000 
#    y 0.000000 1.622410 0.000000 
#    z 0.000000 0.000000 1.615540 
# 
# From -- ./inp_files/22324.got.cif
#   From: 2010.05.17/outbox.cif.g08.bks.cpg/sg54_12_cif.got.tgz:22324.got - 2010.06.03 13:09:01.
