data_PCOD9420243
_publ_section_title
;
Structure prediction by ZEFSAII (Michael W. Deem and Ramdas Pophale) SiO2 
 PCOD9420243
Probable space group: P M N A
;
_chemical_formula_sum "Si O2"
_cell_formula_units_Z 64
_cell_length_a 15.000000
_cell_length_b 18.000000
_cell_length_c 12.000000
_cell_angle_alpha 90.000000
_cell_angle_beta 90.000000
_cell_angle_gamma 90.000000
_cell_volume 3240.000000
_symmetry_space_group_name_H-M "P M N A"
_symmetry_group_IT_number 53
_symmetry_cell_setting 'orthorhombic'
loop_
_space_group_symop_operation_xyz
x,y,z
1/2-x,-y,1/2+z
x,-y,-z
1/2-x,y,1/2-z
-x,-y,-z
1/2+x,y,1/2-z
-x,y,z
1/2+x,-y,1/2+z
loop_
_atom_site_type_symbol
_atom_site_label
_atom_site_fract_x
_atom_site_fract_y
_atom_site_fract_z
Si Si1 0.238130 0.655787 0.868403
Si Si2 0.398892 0.524256 0.630603
Si Si3 0.095911 0.280605 0.970921
Si Si4 0.594791 0.137802 0.660086
Si Si5 0.755292 0.028751 0.625863
Si Si6 0.898395 0.153711 0.594176
Si Si7 0.856706 0.627320 0.247193
Si Si8 0.397351 0.310893 0.989024
O O1 0.250000 0.693867 0.750000
O O2 0.179878 0.582182 0.849524
O O3 0.177021 0.701748 0.951231
O O4 0.332506 0.646027 0.928045
O O5 0.392454 0.500000 0.500000
O O6 0.500000 0.551811 0.647648
O O7 0.383644 0.455411 0.712423
O O8 0.094940 0.195166 0.939277
O O9 0.107445 0.324371 0.855547
O O10 0.000000 0.301689 0.019851
O O11 0.500000 0.096727 0.663330
O O12 0.678029 0.086904 0.648896
O O13 0.601174 0.180805 0.777320
O O14 0.750000 0.986853 0.750000
O O15 0.844408 0.077409 0.603624
O O16 0.736194 0.000000 0.500000
O O17 0.866007 0.224317 0.523396
O O18 0.000000 0.138698 0.560420
O O19 0.750000 0.634222 0.250000
O O20 0.891506 0.652755 0.366844
O O21 0.500000 0.310446 0.025015
#
# Coordination Sequence:
#
# PCOD9420243 Si02
#       8
#     8   8   8   8   8   8   8   8
#     4  12  26  40  55  77 118 167 205 240 291 370
#     4  11  22  39  60  84 114 151 195 242 298 366
#     4  11  20  36  63  90 113 145 194 252 307 356
#     4   9  18  33  59  91 117 145 192 252 304 349
#     4  10  21  36  57  85 125 164 200 237 291 354
#     4   9  18  34  60  91 120 148 191 250 308 353
#     4  12  21  35  64  95 121 140 181 250 317 365
#     4  11  22  39  64  95 120 146 195 263 319 355
#
# _framework density 19.753086
#
# number of rings (size 3 to 8) (size 9 to 14) (size 15 to 20)
#    0.000    1.375    3.750    2.625    0.000    1.500 
#    0.000    2.500    0.000    4.125    0.000    0.000 
#    0.000    0.000    0.000    0.000    0.000    0.000 
#
# Total GULP energy -356338.261884 kJ/mol
# GULP energy per Si atom -5567.785342 kJ/mol
# Density = 1.970813 g / cm^3
# Si number density = 19.753086 Si / 1000 Ang^3
#
#
#
# Elastic Constant Matrix: (Units=GPa)
#
#
# Indices 1 2 3 4 5 6 
#
# 1 106.6232 13.1618 22.6013 0.0000 0.0000 0.0000
# 2 13.1618 10.9071 1.0547 0.0000 0.0000 0.0000
# 3 22.6013 1.0547 75.1350 0.0000 0.0000 0.0000
# 4 0.0000 0.0000 0.0000 823.5964 0.0000 0.0000
# 5 0.0000 0.0000 0.0000 0.0000 -11.0961 0.0000
# 6 0.0000 0.0000 0.0000 0.0000 0.0000 26.4618
#
#
#
# Elastic Compliance Matrix: (Units=1/GPa)
#
#
# Indices 1 2 3 4 5 6 
#
# 1 0.011809 -0.013926 -0.003357 0.000000 0.000000 0.000000
# 2 -0.013926 0.108231 0.002670 0.000000 0.000000 0.000000
# 3 -0.003357 0.002670 0.014282 0.000000 0.000000 0.000000
# 4 0.000000 0.000000 0.000000 0.001214 0.000000 0.000000
# 5 0.000000 0.000000 0.000000 0.000000 -0.090122 0.000000
# 6 0.000000 0.000000 0.000000 0.000000 0.000000 0.037790
#
#
# Mechanical properties :
#
#
# Convention : Reuss Voigt Hill
#
# Bulk Modulus (GPa) = 9.51517 29.58897 19.55207
# Shear Modulus (GPa) = 33.90686 178.18225 106.04455
#
# Velocity S-wave (km/s) = 4.14760 9.50792 7.33496
# Velocity P-wave (km/s) = 5.26919 11.64242 9.03633
#
# Compressibility (1/GPa) = 0.10509529
#
# Stress axis : x y z
#
# Youngs Moduli (GPa) = 84.67777 9.23954 70.01976
#
# Poissons Ratio (x) = 0.12867 0.23505
# Poissons Ratio (y) = 1.17924 -0.18694
# Poissons Ratio (z) = 0.28426 -0.02467
#
# Static dielectric constant tensor:
#      x y z
#    x 1.727260 0.000000 0.000000 
#    y 0.000000 1.740630 0.000000 
#    z 0.000000 0.000000 1.717760 
# 
# From -- ./inp_files/16234.got.cif
#   From: 2010.05.17/outbox.ucp.g08.bks.cvg/sg53_9_cif.got.tgz:16234.got - 2010.06.11 16:32:34.
