data_PCOD9420812
_publ_section_title
;
Structure prediction by ZEFSAII (Michael W. Deem and Ramdas Pophale) SiO2 
 PCOD9420812
Probable space group: P C C A
;
_chemical_formula_sum "Si O2"
_cell_formula_units_Z 52
_cell_length_a 18.989096
_cell_length_b 6.646148
_cell_length_c 18.153345
_cell_angle_alpha 90.000000
_cell_angle_beta 90.000000
_cell_angle_gamma 90.000000
_cell_volume 2291.030968
_symmetry_space_group_name_H-M "P C C A"
_symmetry_group_IT_number 54
_symmetry_cell_setting 'orthorhombic'
loop_
_space_group_symop_operation_xyz
x,y,z
1/2-x,-y,z
1/2+x,-y,1/2-z
-x,y,1/2-z
-x,-y,-z
1/2+x,y,-z
1/2-x,y,1/2+z
x,-y,1/2+z
loop_
_atom_site_type_symbol
_atom_site_label
_atom_site_fract_x
_atom_site_fract_y
_atom_site_fract_z
Si Si1 0.591600 0.074336 0.421453
Si Si2 0.700242 0.332831 0.752792
Si Si3 0.750000 0.000000 0.649265
Si Si4 0.238457 0.237462 0.586687
Si Si5 0.481753 0.583642 0.920189
Si Si6 0.444732 0.273075 0.690371
Si Si7 0.154220 0.764487 0.464620
O O1 0.607172 0.934918 0.492879
O O2 0.345917 0.758318 0.580637
O O3 0.589566 0.910374 0.355692
O O4 0.479458 0.798710 0.585143
O O5 0.750000 0.500000 0.716697
O O6 0.702782 0.137571 0.702049
O O7 0.737324 0.290324 0.831547
O O8 0.620044 0.386951 0.770283
O O9 0.797810 0.131676 0.595923
O O10 0.293646 0.326222 0.527383
O O11 0.250000 0.000000 0.575585
O O12 0.513280 0.427482 0.861763
O O13 0.398047 0.613328 0.923476
O O14 0.500000 0.500000 0.000000
O O15 0.500000 0.193994 0.750000
#
# Coordination Sequence:
#
# PCOD9420812 Si02
#       7
#     8   8   4   8   8   8   8
#     4  11  22  46  75  97 140 196 230 299 369 434
#     4  12  25  45  72 102 140 192 238 303 358 439
#     4  12  26  44  70 106 150 180 250 302 368 438
#     4  10  18  45  74  97 130 184 251 278 360 439
#     4  12  26  44  72 106 144 185 243 302 365 434
#     4  12  28  46  68 107 148 189 249 296 363 452
#     4  11  23  45  74 105 138 187 235 305 364 435
#
# _framework density 22.697203999999999
#
# number of rings (size 3 to 8) (size 9 to 14) (size 15 to 20)
#    0.000    0.615    7.692    1.385    4.308    0.615 
#    0.000    0.769    0.000    0.000    0.000    0.000 
#    0.000    0.000    0.000    0.000    0.000    0.000 
#
# Total GULP energy -290692.998979 kJ/mol
# GULP energy per Si atom -5590.249980 kJ/mol
# Density = 2.264554 g / cm^3
# Si number density = 22.697204 Si / 1000 Ang^3
#
#
#
# Elastic Constant Matrix: (Units=GPa)
#
#
# Indices 1 2 3 4 5 6 
#
# 1 122.9594 22.5130 37.1560 0.0000 0.0000 0.0000
# 2 22.5130 59.9682 18.8543 0.0000 0.0000 0.0000
# 3 37.1560 18.8543 106.0742 0.0000 0.0000 0.0000
# 4 0.0000 0.0000 0.0000 -28.3299 0.0000 0.0000
# 5 0.0000 0.0000 0.0000 0.0000 41.9567 0.0000
# 6 0.0000 0.0000 0.0000 0.0000 0.0000 43.6799
#
#
#
# Elastic Compliance Matrix: (Units=1/GPa)
#
#
# Indices 1 2 3 4 5 6 
#
# 1 0.009481 -0.002664 -0.002848 0.000000 0.000000 0.000000
# 2 -0.002664 0.018411 -0.002339 0.000000 0.000000 0.000000
# 3 -0.002848 -0.002339 0.010841 0.000000 0.000000 0.000000
# 4 0.000000 0.000000 0.000000 -0.035298 0.000000 0.000000
# 5 0.000000 0.000000 0.000000 0.000000 0.023834 0.000000
# 6 0.000000 0.000000 0.000000 0.000000 0.000000 0.022894
#
#
# Mechanical properties :
#
#
# Convention : Reuss Voigt Hill
#
# Bulk Modulus (GPa) = 43.41985 49.56093 46.49039
# Shear Modulus (GPa) = 67.98928 25.49325 46.74126
#
# Velocity S-wave (km/s) = 5.47905 3.35504 4.54292
# Velocity P-wave (km/s) = 7.69403 6.07383 6.93144
#
# Compressibility (1/GPa) = 0.02303094
#
# Stress axis : x y z
#
# Youngs Moduli (GPa) = 105.47421 54.31499 92.24573
#
# Poissons Ratio (x) = 0.14470 0.26267
# Poissons Ratio (y) = 0.28099 0.21580
# Poissons Ratio (z) = 0.30034 0.12706
#
# Static dielectric constant tensor:
#      x y z
#    x 2.176880 0.000000 0.000000 
#    y 0.000000 1.944700 0.000000 
#    z 0.000000 0.000000 1.810230 
# 
# From -- ./inp_files/18620.got.cif
#   From: 2010.05.17/outbox.cif.g08.bks.cpg/sg54_10_cif.got.tgz:18620.got - 2010.06.03 13:09:01.
