data_PCOD9420260
_publ_section_title
;
Structure prediction by ZEFSAII (Michael W. Deem and Ramdas Pophale) SiO2 
 PCOD9420260
Probable space group: P M N A
;
_chemical_formula_sum "Si O2"
_cell_formula_units_Z 48
_cell_length_a 9.000000
_cell_length_b 30.000000
_cell_length_c 9.000000
_cell_angle_alpha 90.000000
_cell_angle_beta 90.000000
_cell_angle_gamma 90.000000
_cell_volume 2430.000000
_symmetry_space_group_name_H-M "P M N A"
_symmetry_group_IT_number 53
_symmetry_cell_setting 'orthorhombic'
loop_
_space_group_symop_operation_xyz
x,y,z
1/2-x,-y,1/2+z
x,-y,-z
1/2-x,y,1/2-z
-x,-y,-z
1/2+x,y,1/2-z
-x,y,z
1/2+x,-y,1/2+z
loop_
_atom_site_type_symbol
_atom_site_label
_atom_site_fract_x
_atom_site_fract_y
_atom_site_fract_z
Si Si1 0.676054 0.131780 0.906819
Si Si2 0.825501 0.716863 0.408253
Si Si3 0.824343 0.957949 0.592101
Si Si4 0.822730 0.209672 0.092088
Si Si5 0.165408 0.542146 0.893434
Si Si6 0.827678 0.610930 0.405676
O O1 0.750000 0.122500 0.750000
O O2 0.500000 0.141044 0.894003
O O3 0.696712 0.088126 0.006503
O O4 0.760325 0.173263 0.978523
O O5 0.750000 0.727626 0.250000
O O6 0.738020 0.743213 0.534000
O O7 0.814409 0.663846 0.430229
O O8 0.000000 0.729089 0.406537
O O9 0.750000 0.955585 0.750000
O O10 0.000000 0.964677 0.612300
O O11 0.765095 0.000000 0.500000
O O12 0.750000 0.199557 0.250000
O O13 0.000000 0.208921 0.099883
O O14 0.250000 0.526562 0.750000
O O15 0.000000 0.556794 0.855676
O O16 0.159779 0.500000 0.000000
O O17 0.250360 0.582793 0.967816
O O18 0.750000 0.600408 0.250000
O O19 0.000000 0.599242 0.395751
#
# Coordination Sequence:
#
# PCOD9420260 Si02
#       6
#     8   8   8   8   8   8
#     4  11  23  40  62  88 119 155 197 243 293 349
#     4  10  21  39  62  89 119 154 195 238 289 346
#     4  10  22  39  60  88 120 155 196 241 291 347
#     4  12  25  41  61  86 118 155 196 243 294 348
#     4  11  24  40  60  86 117 154 195 240 290 345
#     4  10  21  38  62  89 119 154 193 239 289 345
#
# _framework density 19.753086
#
# number of rings (size 3 to 8) (size 9 to 14) (size 15 to 20)
#    0.000    1.333    0.000    5.500    0.000    8.333 
#    0.000    0.000    0.000    0.000    0.000    0.000 
#    0.000    0.000    0.000    0.000    0.000    0.000 
#
# Total GULP energy -268309.834590 kJ/mol
# GULP energy per Si atom -5589.788221 kJ/mol
# Density = 1.970813 g / cm^3
# Si number density = 19.753086 Si / 1000 Ang^3
#
#
#
# Elastic Constant Matrix: (Units=GPa)
#
#
# Indices 1 2 3 4 5 6 
#
# 1 128.5384 60.8001 77.8578 0.0000 0.0000 0.0000
# 2 60.8001 21.3314 25.7487 0.0000 0.0000 0.0000
# 3 77.8578 25.7487 108.9863 0.0000 0.0000 0.0000
# 4 0.0000 0.0000 0.0000 55.4841 0.0000 0.0000
# 5 0.0000 0.0000 0.0000 0.0000 25.2999 0.0000
# 6 0.0000 0.0000 0.0000 0.0000 0.0000 -77.0396
#
#
#
# Elastic Compliance Matrix: (Units=1/GPa)
#
#
# Indices 1 2 3 4 5 6 
#
# 1 -0.022215 0.061782 0.001274 0.000000 0.000000 0.000000
# 2 0.061782 -0.106236 -0.019037 0.000000 0.000000 0.000000
# 3 0.001274 -0.019037 0.012763 0.000000 0.000000 0.000000
# 4 0.000000 0.000000 0.000000 0.018023 0.000000 0.000000
# 5 0.000000 0.000000 0.000000 0.000000 0.039526 0.000000
# 6 0.000000 0.000000 0.000000 0.000000 0.000000 -0.012980
#
#
# Mechanical properties :
#
#
# Convention : Reuss Voigt Hill
#
# Bulk Modulus (GPa) = -36.16526 65.29658 14.56566
# Shear Modulus (GPa) = -29.69567 7.04550 -11.32508
#
# Velocity S-wave (km/s) = -3.88150 1.89064 -2.39703
# Velocity P-wave (km/s) = 6.19972 6.15583 0.52072
#
# Compressibility (1/GPa) = -0.02765084
#
# Stress axis : x y z
#
# Youngs Moduli (GPa) = -45.01408 -9.41296 78.35132
#
# Poissons Ratio (x) = 0.58155 -0.09980
# Poissons Ratio (y) = 2.78105 1.49155
# Poissons Ratio (z) = 0.05734 -0.17919
#
# Static dielectric constant tensor:
#      x y z
#    x 1.756940 0.000000 0.000000 
#    y 0.000000 1.677570 0.000000 
#    z 0.000000 0.000000 2.101340 
# 
# From -- ./inp_files/6642.got.cif
#   From: 2010.05.17/outbox.ucp.g08.bks.cvg/sg53_4_cif.got.tgz:6642.got - 2010.06.11 16:32:34.
