data_PCOD9420544
_publ_section_title
;
Structure prediction by ZEFSAII (Michael W. Deem and Ramdas Pophale) SiO2 
 PCOD9420544
Probable space group: P C C A
;
_chemical_formula_sum "Si O2"
_cell_formula_units_Z 36
_cell_length_a 8.206297
_cell_length_b 12.139117
_cell_length_c 19.197405
_cell_angle_alpha 90.000000
_cell_angle_beta 90.000000
_cell_angle_gamma 90.000000
_cell_volume 1912.391722
_symmetry_space_group_name_H-M "P C C A"
_symmetry_group_IT_number 54
_symmetry_cell_setting 'orthorhombic'
loop_
_space_group_symop_operation_xyz
x,y,z
1/2-x,-y,z
1/2+x,-y,1/2-z
-x,y,1/2-z
-x,-y,-z
1/2+x,y,-z
1/2-x,y,1/2+z
x,-y,1/2+z
loop_
_atom_site_type_symbol
_atom_site_label
_atom_site_fract_x
_atom_site_fract_y
_atom_site_fract_z
Si Si1 0.750000 0.500000 0.356073
Si Si2 0.068088 0.046267 0.072905
Si Si3 0.087490 0.283111 0.131205
Si Si4 0.000000 0.603082 0.250000
Si Si5 0.268658 0.756597 0.284408
Si Si6 0.250000 0.000000 0.833860
O O1 0.675374 0.605856 0.395829
O O2 0.894112 0.532469 0.302877
O O3 0.088108 0.178720 0.079807
O O4 0.250000 0.000000 0.087061
O O5 0.921134 0.011617 0.124597
O O6 0.000000 0.000000 0.000000
O O7 0.181276 0.258165 0.203841
O O8 0.904102 0.288135 0.161787
O O9 0.888495 0.683207 0.204563
O O10 0.240756 0.885749 0.293301
#
# Coordination Sequence:
#
# PCOD9420544 Si02
#       6
#     4   8   8   4   8   4
#     4  10  18  32  50  80 114 152 190 228 272 352
#     4  11  23  40  60  82 111 153 200 242 289 342
#     4   9  20  35  54  82 114 148 188 236 286 347
#     4  10  18  28  52  78 122 160 180 218 288 348
#     4   9  19  32  51  86 120 147 180 229 296 350
#     4  10  22  36  56  88 120 144 186 242 290 350
#
# _framework density 18.824594000000001
#
# number of rings (size 3 to 8) (size 9 to 14) (size 15 to 20)
#    0.000    2.222    1.111    2.667    7.778    1.778 
#    0.000    0.000    0.000    1.333    0.000    0.000 
#    0.000    0.000    0.000    0.000    0.000    0.000 
#
# Total GULP energy -200473.274479 kJ/mol
# GULP energy per Si atom -5568.702069 kJ/mol
# Density = 1.878175 g / cm^3
# Si number density = 18.824594 Si / 1000 Ang^3
#
#
#
# Elastic Constant Matrix: (Units=GPa)
#
#
# Indices 1 2 3 4 5 6 
#
# 1 122.7949 58.2665 10.9919 0.0000 0.0000 0.0000
# 2 58.2665 141.4876 26.6331 0.0000 0.0000 0.0000
# 3 10.9919 26.6331 21.0625 0.0000 0.0000 0.0000
# 4 0.0000 0.0000 0.0000 20.6233 0.0000 0.0000
# 5 0.0000 0.0000 0.0000 0.0000 5.6029 0.0000
# 6 0.0000 0.0000 0.0000 0.0000 0.0000 46.9663
#
#
#
# Elastic Compliance Matrix: (Units=1/GPa)
#
#
# Indices 1 2 3 4 5 6 
#
# 1 0.010121 -0.004165 -0.000015 0.000000 0.000000 0.000000
# 2 -0.004165 0.010990 -0.011722 0.000000 0.000000 0.000000
# 3 -0.000015 -0.011722 0.062308 0.000000 0.000000 0.000000
# 4 0.000000 0.000000 0.000000 0.048489 0.000000 0.000000
# 5 0.000000 0.000000 0.000000 0.000000 0.178478 0.000000
# 6 0.000000 0.000000 0.000000 0.000000 0.000000 0.021292
#
#
# Mechanical properties :
#
#
# Convention : Reuss Voigt Hill
#
# Bulk Modulus (GPa) = 19.37470 53.01422 36.19446
# Shear Modulus (GPa) = 13.13409 27.26873 20.20141
#
# Velocity S-wave (km/s) = 2.64428 3.81014 3.27943
# Velocity P-wave (km/s) = 4.43143 6.89779 5.79729
#
# Compressibility (1/GPa) = 0.05161371
#
# Stress axis : x y z
#
# Youngs Moduli (GPa) = 98.79996 90.99454 16.04920
#
# Poissons Ratio (x) = 0.37902 0.00024
# Poissons Ratio (y) = 0.41153 0.18814
# Poissons Ratio (z) = 0.00150 1.06668
#
# Static dielectric constant tensor:
#      x y z
#    x 1.703710 0.000000 0.000000 
#    y 0.000000 1.697160 0.000000 
#    z 0.000000 0.000000 1.633560 
# 
# From -- ./inp_files/20239.got.cif
#   From: 2010.05.17/outbox.cif.g08.bks.cpg/sg54_11_cif.got.tgz:20239.got - 2010.06.03 13:09:01.
