data_PCOD9420855
_publ_section_title
;
Structure prediction by ZEFSAII (Michael W. Deem and Ramdas Pophale) SiO2 
 PCOD9420855
Probable space group: P C C A
;
_chemical_formula_sum "Si O2"
_cell_formula_units_Z 48
_cell_length_a 8.721830
_cell_length_b 12.329409
_cell_length_c 22.401233
_cell_angle_alpha 90.000000
_cell_angle_beta 90.000000
_cell_angle_gamma 90.000000
_cell_volume 2408.916799
_symmetry_space_group_name_H-M "P C C A"
_symmetry_group_IT_number 54
_symmetry_cell_setting 'orthorhombic'
loop_
_space_group_symop_operation_xyz
x,y,z
1/2-x,-y,z
1/2+x,-y,1/2-z
-x,y,1/2-z
-x,-y,-z
1/2+x,y,-z
1/2-x,y,1/2+z
x,-y,1/2+z
loop_
_atom_site_type_symbol
_atom_site_label
_atom_site_fract_x
_atom_site_fract_y
_atom_site_fract_z
Si Si1 0.942923 0.717168 0.001769
Si Si2 0.820697 0.615524 0.421130
Si Si3 0.529514 0.061051 0.062839
Si Si4 0.286080 0.821460 0.647734
Si Si5 0.068648 0.165945 0.391606
Si Si6 0.677056 0.115774 0.727003
O O1 0.062720 0.760493 0.950818
O O2 0.801616 0.669773 0.966058
O O3 0.020528 0.625851 0.042975
O O4 0.901465 0.823650 0.041444
O O5 0.750000 0.500000 0.405368
O O6 0.833601 0.698549 0.366423
O O7 0.390549 0.100548 0.106157
O O8 0.604979 0.959217 0.095292
O O9 0.500000 0.000000 0.000000
O O10 0.280201 0.843610 0.717853
O O11 0.110905 0.834747 0.626595
O O12 0.166584 0.190914 0.332224
O O13 0.500000 0.104114 0.750000
O O14 0.750000 0.000000 0.712598
#
# Coordination Sequence:
#
# PCOD9420855 Si02
#       6
#     8   8   8   8   8   8
#     4   9  19  31  48  74 101 127 162 207 254 311
#     4  10  19  33  51  70  93 125 165 212 262 302
#     4   9  16  28  48  75 107 136 162 201 256 313
#     4   9  17  30  47  70  99 132 172 212 247 298
#     4   9  17  29  47  73 103 136 165 194 246 312
#     4  10  19  31  49  72 101 138 172 204 244 300
#
# _framework density 19.925968000000001
#
# number of rings (size 3 to 8) (size 9 to 14) (size 15 to 20)
#    0.000    2.667    0.000    3.000    0.000    2.667 
#    0.000    5.000    0.000    1.000    0.000   24.500 
#    0.000    0.000    0.000    0.000    0.000    0.000 
#
# Total GULP energy -267233.026215 kJ/mol
# GULP energy per Si atom -5567.354713 kJ/mol
# Density = 1.988062 g / cm^3
# Si number density = 19.925968 Si / 1000 Ang^3
#
#
#
# Elastic Constant Matrix: (Units=GPa)
#
#
# Indices 1 2 3 4 5 6 
#
# 1 17.8836 -16.9947 10.9481 0.0000 0.0000 0.0000
# 2 -16.9947 52.0836 10.2896 0.0000 0.0000 0.0000
# 3 10.9481 10.2896 104.9680 0.0000 0.0000 0.0000
# 4 0.0000 0.0000 0.0000 12.6967 0.0000 0.0000
# 5 0.0000 0.0000 0.0000 0.0000 30.7607 0.0000
# 6 0.0000 0.0000 0.0000 0.0000 0.0000 21.8724
#
#
#
# Elastic Compliance Matrix: (Units=1/GPa)
#
#
# Indices 1 2 3 4 5 6 
#
# 1 0.096617 0.034179 -0.013428 0.000000 0.000000 0.000000
# 2 0.034179 0.031670 -0.006669 0.000000 0.000000 0.000000
# 3 -0.013428 -0.006669 0.011581 0.000000 0.000000 0.000000
# 4 0.000000 0.000000 0.000000 0.078760 0.000000 0.000000
# 5 0.000000 0.000000 0.000000 0.000000 0.032509 0.000000
# 6 0.000000 0.000000 0.000000 0.000000 0.000000 0.045720
#
#
# Mechanical properties :
#
#
# Convention : Reuss Voigt Hill
#
# Bulk Modulus (GPa) = 5.95124 20.38011 13.16567
# Shear Modulus (GPa) = 15.39863 24.44546 19.92205
#
# Velocity S-wave (km/s) = 2.78293 3.50639 3.16540
# Velocity P-wave (km/s) = 3.64958 5.16170 4.47004
#
# Compressibility (1/GPa) = 0.16803212
#
# Stress axis : x y z
#
# Youngs Moduli (GPa) = 10.35010 31.57573 86.34869
#
# Poissons Ratio (x) = -1.07922 1.15945
# Poissons Ratio (y) = -0.35375 0.57588
# Poissons Ratio (z) = 0.13898 0.21059
#
# Static dielectric constant tensor:
#      x y z
#    x 1.752800 0.000000 0.000000 
#    y 0.000000 1.685720 0.000000 
#    z 0.000000 0.000000 1.793330 
# 
# From -- ./inp_files/23520.got.cif
#   From: 2010.05.17/outbox.cif.g08.bks.cpg/sg54_12_cif.got.tgz:23520.got - 2010.06.03 13:09:01.
