data_PCOD9420389
_publ_section_title
;
Structure prediction by ZEFSAII (Michael W. Deem and Ramdas Pophale) SiO2 
 PCOD9420389
Probable space group: P C C A
;
_chemical_formula_sum "Si O2"
_cell_formula_units_Z 40
_cell_length_a 34.317890
_cell_length_b 15.598306
_cell_length_c 5.326776
_cell_angle_alpha 90.000000
_cell_angle_beta 90.000000
_cell_angle_gamma 90.000000
_cell_volume 2851.428251
_symmetry_space_group_name_H-M "P C C A"
_symmetry_group_IT_number 54
_symmetry_cell_setting 'orthorhombic'
loop_
_space_group_symop_operation_xyz
x,y,z
1/2-x,-y,z
1/2+x,-y,1/2-z
-x,y,1/2-z
-x,-y,-z
1/2+x,y,-z
1/2-x,y,1/2+z
x,-y,1/2+z
loop_
_atom_site_type_symbol
_atom_site_label
_atom_site_fract_x
_atom_site_fract_y
_atom_site_fract_z
Si Si1 0.733103 0.902601 0.785411
Si Si2 0.455277 0.724791 0.249846
Si Si3 0.500000 0.556691 0.250000
Si Si4 0.927708 0.812866 0.250162
Si Si5 0.000000 0.942899 0.250000
Si Si6 0.857577 0.057225 0.747082
O O1 0.753923 0.861366 0.546293
O O2 0.687071 0.910777 0.751765
O O3 0.750000 0.000000 0.802076
O O4 0.500000 0.761503 0.250000
O O5 0.463571 0.623013 0.250074
O O6 0.434139 0.756996 0.499578
O O7 0.434200 0.756838 0.999742
O O8 0.500000 0.500000 0.500000
O O9 0.961865 0.883762 0.250076
O O10 0.887371 0.864076 0.249558
O O11 0.000000 0.000000 0.500000
O O12 0.863597 0.000945 0.495435
#
# Coordination Sequence:
#
# PCOD9420389 Si02
#       6
#     8   8   4   8   4   8
#     4  10  16  30  47  59  82 106 143 211 257 271
#     4  10  20  35  50  62  92 121 140 184 228 279
#     4  10  18  32  56  78  84 106 158 190 208 268
#     4  12  21  34  43  61  89 124 155 182 244 272
#     4  12  20  30  40  52  76 114 158 204 218 234
#     4  12  21  31  45  66  83 116 169 214 225 274
#
# _framework density 14.028055999999999
#
# number of rings (size 3 to 8) (size 9 to 14) (size 15 to 20)
#    0.600    0.400    6.000    4.800    0.000    0.000 
#    0.000    0.000    0.000    0.000    0.000    0.000 
#    0.000    0.000    0.000    0.000    0.000   70.000 
#
# Total GULP energy -223038.543989 kJ/mol
# GULP energy per Si atom -5575.963600 kJ/mol
# Density = 1.399613 g / cm^3
# Si number density = 14.028056 Si / 1000 Ang^3
#
#
#
# Elastic Constant Matrix: (Units=GPa)
#
#
# Indices 1 2 3 4 5 6 
#
# 1 75.9447 31.1140 10.0595 0.0000 0.0000 0.0000
# 2 31.1140 78.6588 52.1489 0.0000 0.0000 0.0000
# 3 10.0595 52.1489 146.9428 0.0000 0.0000 0.0000
# 4 0.0000 0.0000 0.0000 24.4732 0.0000 0.0000
# 5 0.0000 0.0000 0.0000 0.0000 14.4721 0.0000
# 6 0.0000 0.0000 0.0000 0.0000 0.0000 2.6021
#
#
#
# Elastic Compliance Matrix: (Units=1/GPa)
#
#
# Indices 1 2 3 4 5 6 
#
# 1 0.015963 -0.007310 0.001501 0.000000 0.000000 0.000000
# 2 -0.007310 0.019972 -0.006587 0.000000 0.000000 0.000000
# 3 0.001501 -0.006587 0.009040 0.000000 0.000000 0.000000
# 4 0.000000 0.000000 0.000000 0.040861 0.000000 0.000000
# 5 0.000000 0.000000 0.000000 0.000000 0.069098 0.000000
# 6 0.000000 0.000000 0.000000 0.000000 0.000000 0.384306
#
#
# Mechanical properties :
#
#
# Convention : Reuss Voigt Hill
#
# Bulk Modulus (GPa) = 49.54436 54.24345 51.89391
# Shear Modulus (GPa) = 8.76024 22.19108 15.47566
#
# Velocity S-wave (km/s) = 2.50167 3.98163 3.32504
# Velocity P-wave (km/s) = 6.61356 7.73884 7.19822
#
# Compressibility (1/GPa) = 0.02018393
#
# Stress axis : x y z
#
# Youngs Moduli (GPa) = 62.64339 50.07040 110.61433
#
# Poissons Ratio (x) = 0.36600 -0.16607
# Poissons Ratio (y) = 0.45791 0.72867
# Poissons Ratio (z) = -0.09405 0.32984
#
# Static dielectric constant tensor:
#      x y z
#    x 1.448290 0.000000 0.000000 
#    y 0.000000 1.529740 0.000000 
#    z 0.000000 0.000000 1.522760 
# 
# From -- ./inp_files/2113.got.cif
#   From: 2010.05.17/outbox.cif.g08.bks.cpg/sg54_2_cif.got.tgz:2113.got - 2010.06.03 13:09:01.
