data_PCOD9420419
_publ_section_title
;
Structure prediction by ZEFSAII (Michael W. Deem and Ramdas Pophale) SiO2 
 PCOD9420419
Probable space group: P C C A
;
_chemical_formula_sum "Si O2"
_cell_formula_units_Z 56
_cell_length_a 13.279054
_cell_length_b 32.872118
_cell_length_c 5.350954
_cell_angle_alpha 90.000000
_cell_angle_beta 90.000000
_cell_angle_gamma 90.000000
_cell_volume 2335.748302
_symmetry_space_group_name_H-M "P C C A"
_symmetry_group_IT_number 54
_symmetry_cell_setting 'orthorhombic'
loop_
_space_group_symop_operation_xyz
x,y,z
1/2-x,-y,z
1/2+x,-y,1/2-z
-x,y,1/2-z
-x,-y,-z
1/2+x,y,-z
1/2-x,y,1/2+z
x,-y,1/2+z
loop_
_atom_site_type_symbol
_atom_site_label
_atom_site_fract_x
_atom_site_fract_y
_atom_site_fract_z
Si Si1 0.887834 0.516906 0.478589
Si Si2 0.863932 0.983982 0.893202
Si Si3 0.682980 0.309384 0.485189
Si Si4 0.873930 0.778541 0.383960
Si Si5 0.183875 0.395842 0.627450
Si Si6 0.356243 0.189049 0.613494
Si Si7 0.431992 0.103994 0.500059
O O1 0.844623 0.489426 0.255025
O O2 0.881242 0.563822 0.406089
O O3 0.000000 0.500000 0.500000
O O4 0.750000 0.000000 0.856563
O O5 0.907760 0.987818 0.613926
O O6 0.871523 0.938246 0.992043
O O7 0.733888 0.308229 0.759868
O O8 0.619629 0.268464 0.457240
O O9 0.630656 0.352717 0.431473
O O10 0.904344 0.807044 0.613483
O O11 0.754625 0.791363 0.354470
O O12 0.911460 0.785813 0.104428
O O13 0.268628 0.396770 0.405815
O O14 0.358547 0.142825 0.519454
O O15 0.500000 0.106304 0.250000
O O16 0.500000 0.104724 0.750000
#
# Coordination Sequence:
#
# PCOD9420419 Si02
#       7
#     8   8   8   8   8   8   8
#     4  10  21  37  55  77 108 158 193 235 290 366
#     4  10  23  42  67  92 119 158 200 257 298 350
#     4  10  16  30  50  84 121 141 178 240 307 346
#     4  10  17  32  57  88 110 144 190 240 300 341
#     4  10  21  32  53  87 117 143 188 250 303 344
#     4  10  20  33  57  86 116 149 191 238 288 352
#     4  12  26  42  59  88 125 165 203 245 299 350
#
# _framework density 23.975185
#
# number of rings (size 3 to 8) (size 9 to 14) (size 15 to 20)
#    0.000    1.714    2.857    2.571    0.000    8.000 
#    0.000    0.000    0.000    0.000   22.286    0.000 
#    0.000    0.000    0.000    0.000    0.000    0.000 
#
# Total GULP energy -312834.926944 kJ/mol
# GULP energy per Si atom -5586.337981 kJ/mol
# Density = 2.392062 g / cm^3
# Si number density = 23.975185 Si / 1000 Ang^3
#
#
#
# Elastic Constant Matrix: (Units=GPa)
#
#
# Indices 1 2 3 4 5 6 
#
# 1 53.4329 -3.1435 2.4272 0.0000 0.0000 0.0000
# 2 -3.1435 179.3634 -9.9533 0.0000 0.0000 0.0000
# 3 2.4272 -9.9533 176.0326 0.0000 0.0000 0.0000
# 4 0.0000 0.0000 0.0000 40.3294 0.0000 0.0000
# 5 0.0000 0.0000 0.0000 0.0000 26.1869 0.0000
# 6 0.0000 0.0000 0.0000 0.0000 0.0000 12.3031
#
#
#
# Elastic Compliance Matrix: (Units=1/GPa)
#
#
# Indices 1 2 3 4 5 6 
#
# 1 0.018745 0.000315 -0.000241 0.000000 0.000000 0.000000
# 2 0.000315 0.005598 0.000312 0.000000 0.000000 0.000000
# 3 -0.000241 0.000312 0.005702 0.000000 0.000000 0.000000
# 4 0.000000 0.000000 0.000000 0.024796 0.000000 0.000000
# 5 0.000000 0.000000 0.000000 0.000000 0.038187 0.000000
# 6 0.000000 0.000000 0.000000 0.000000 0.000000 0.081280
#
#
# Mechanical properties :
#
#
# Convention : Reuss Voigt Hill
#
# Bulk Modulus (GPa) = 32.44875 43.05440 37.75157
# Shear Modulus (GPa) = 27.20248 43.73045 35.46646
#
# Velocity S-wave (km/s) = 3.37205 4.27545 3.85034
# Velocity P-wave (km/s) = 5.35954 6.50919 5.96214
#
# Compressibility (1/GPa) = 0.03081783
#
# Stress axis : x y z
#
# Youngs Moduli (GPa) = 53.34888 178.63138 175.38518
#
# Poissons Ratio (x) = -0.05630 0.04220
# Poissons Ratio (y) = -0.01681 -0.05475
# Poissons Ratio (z) = 0.01284 -0.05577
#
# Static dielectric constant tensor:
#      x y z
#    x 2.647870 0.000000 0.000000 
#    y 0.000000 1.885910 0.000000 
#    z 0.000000 0.000000 2.005550 
# 
# From -- ./inp_files/740.got.cif
#   From: 2010.05.17/outbox.cif.g08.bks.cpg/sg54_1_cif.got.tgz:740.got - 2010.06.03 13:09:01.
