data_PCOD9420698
_publ_section_title
;
Structure prediction by ZEFSAII (Michael W. Deem and Ramdas Pophale) SiO2 
 PCOD9420698
Probable space group: P C C A
;
_chemical_formula_sum "Si O2"
_cell_formula_units_Z 44
_cell_length_a 10.953092
_cell_length_b 10.814737
_cell_length_c 14.835173
_cell_angle_alpha 90.000000
_cell_angle_beta 90.000000
_cell_angle_gamma 90.000000
_cell_volume 1757.297589
_symmetry_space_group_name_H-M "P C C A"
_symmetry_group_IT_number 54
_symmetry_cell_setting 'orthorhombic'
loop_
_space_group_symop_operation_xyz
x,y,z
1/2-x,-y,z
1/2+x,-y,1/2-z
-x,y,1/2-z
-x,-y,-z
1/2+x,y,-z
1/2-x,y,1/2+z
x,-y,1/2+z
loop_
_atom_site_type_symbol
_atom_site_label
_atom_site_fract_x
_atom_site_fract_y
_atom_site_fract_z
Si Si1 0.297234 0.262927 0.346901
Si Si2 0.471498 0.290805 0.854977
Si Si3 0.750000 0.000000 0.570865
Si Si4 0.822755 0.195672 0.847228
Si Si5 0.912506 0.044735 0.398055
Si Si6 0.684405 0.370928 0.976392
O O1 0.338946 0.272047 0.244098
O O2 0.371059 0.317791 0.430490
O O3 0.167518 0.331410 0.361137
O O4 0.268631 0.119402 0.367211
O O5 0.500000 0.287994 0.750000
O O6 0.486592 0.150053 0.891723
O O7 0.572060 0.370440 0.906679
O O8 0.860051 0.019385 0.497809
O O9 0.697178 0.114587 0.843346
O O10 0.787622 0.278169 0.933886
O O11 0.927663 0.092441 0.858306
O O12 0.750000 0.500000 0.984684
#
# Coordination Sequence:
#
# PCOD9420698 Si02
#       6
#     8   8   4   8   8   8
#     4  12  21  37  69  94 129 172 211 268 330 394
#     4  11  22  41  66  97 128 174 217 262 331 405
#     4  10  18  34  60  94 132 160 194 256 326 386
#     4   9  18  37  61  89 124 168 205 255 328 389
#     4   9  16  37  59  90 133 159 202 255 330 393
#     4  11  24  44  64  90 128 172 228 280 318 373
#
# _framework density 25.038446
#
# number of rings (size 3 to 8) (size 9 to 14) (size 15 to 20)
#    0.000    1.818    9.091    1.091    0.000    2.182 
#    0.000    0.000    0.000    0.000    0.000    0.000 
#    0.000    0.000    0.000    0.000    0.000    0.000 
#
# Total GULP energy -245866.799643 kJ/mol
# GULP energy per Si atom -5587.881810 kJ/mol
# Density = 2.498146 g / cm^3
# Si number density = 25.038446 Si / 1000 Ang^3
#
#
#
# Elastic Constant Matrix: (Units=GPa)
#
#
# Indices 1 2 3 4 5 6 
#
# 1 45.8327 -7.4667 -12.0489 0.0000 0.0000 0.0000
# 2 -7.4667 86.4825 18.1136 0.0000 0.0000 0.0000
# 3 -12.0489 18.1136 141.0207 0.0000 0.0000 0.0000
# 4 0.0000 0.0000 0.0000 8.0820 0.0000 0.0000
# 5 0.0000 0.0000 0.0000 0.0000 27.7444 0.0000
# 6 0.0000 0.0000 0.0000 0.0000 0.0000 13.8782
#
#
#
# Elastic Compliance Matrix: (Units=1/GPa)
#
#
# Indices 1 2 3 4 5 6 
#
# 1 0.022529 0.001585 0.001721 0.000000 0.000000 0.000000
# 2 0.001585 0.011994 -0.001405 0.000000 0.000000 0.000000
# 3 0.001721 -0.001405 0.007419 0.000000 0.000000 0.000000
# 4 0.000000 0.000000 0.000000 0.123732 0.000000 0.000000
# 5 0.000000 0.000000 0.000000 0.000000 0.036043 0.000000
# 6 0.000000 0.000000 0.000000 0.000000 0.000000 0.072056
#
#
# Mechanical properties :
#
#
# Convention : Reuss Voigt Hill
#
# Bulk Modulus (GPa) = 21.86101 30.05909 25.96005
# Shear Modulus (GPa) = 17.53037 28.25676 22.89357
#
# Velocity S-wave (km/s) = 2.64888 3.36301 3.02708
# Velocity P-wave (km/s) = 4.25504 5.20683 4.75481
#
# Compressibility (1/GPa) = 0.04574354
#
# Stress axis : x y z
#
# Youngs Moduli (GPa) = 44.38687 83.37389 134.79391
#
# Poissons Ratio (x) = -0.13211 -0.23203
# Poissons Ratio (y) = -0.07033 0.18942
# Poissons Ratio (z) = -0.07641 0.11716
#
# Static dielectric constant tensor:
#      x y z
#    x 2.189640 0.000000 0.000000 
#    y 0.000000 1.976790 0.000000 
#    z 0.000000 0.000000 1.967310 
# 
# From -- ./inp_files/13368.got.cif
#   From: 2010.05.17/outbox.cif.g08.bks.cpg/sg54_7_cif.got.tgz:13368.got - 2010.06.03 13:09:01.
