data_PCOD9420671
_publ_section_title
;
Structure prediction by ZEFSAII (Michael W. Deem and Ramdas Pophale) SiO2 
 PCOD9420671
Probable space group: P C C A
;
_chemical_formula_sum "Si O2"
_cell_formula_units_Z 32
_cell_length_a 5.464660
_cell_length_b 13.764798
_cell_length_c 18.304480
_cell_angle_alpha 90.000000
_cell_angle_beta 90.000000
_cell_angle_gamma 90.000000
_cell_volume 1376.861906
_symmetry_space_group_name_H-M "P C C A"
_symmetry_group_IT_number 54
_symmetry_cell_setting 'orthorhombic'
loop_
_space_group_symop_operation_xyz
x,y,z
1/2-x,-y,z
1/2+x,-y,1/2-z
-x,y,1/2-z
-x,-y,-z
1/2+x,y,-z
1/2-x,y,1/2+z
x,-y,1/2+z
loop_
_atom_site_type_symbol
_atom_site_label
_atom_site_fract_x
_atom_site_fract_y
_atom_site_fract_z
Si Si1 0.756253 0.384054 0.165971
Si Si2 0.089937 0.090829 0.169132
Si Si3 0.227092 0.885246 0.966464
Si Si4 0.759212 0.695693 0.333351
O O1 0.750000 0.500000 0.167168
O O2 0.749589 0.345589 0.250019
O O3 0.507524 0.343138 0.131781
O O4 0.007620 0.344172 0.132409
O O5 0.248426 0.188591 0.170949
O O6 0.000000 0.068020 0.250000
O O7 0.859838 0.115104 0.117392
O O8 0.250000 0.000000 0.142316
O O9 0.250000 0.000000 0.983495
O O10 0.491603 0.844560 0.989166
#
# Coordination Sequence:
#
# PCOD9420671 Si02
#       4
#     8   8   8   8
#     4  10  18  34  54  75 114 158 191 236 305 364
#     4  12  25  37  59  92 129 168 199 248 309 362
#     4  10  22  43  63  80 111 166 222 255 286 349
#     4  10  20  33  50  80 115 151 188 245 287 360
#
# _framework density 23.241257000000001
#
# number of rings (size 3 to 8) (size 9 to 14) (size 15 to 20)
#    0.000    1.500    2.500    6.750    3.500    4.000 
#    0.000    0.000    0.000    0.000    0.000    0.000 
#    0.000   34.000    0.000    0.000    0.000    0.000 
#
# Total GULP energy -178937.919163 kJ/mol
# GULP energy per Si atom -5591.809974 kJ/mol
# Density = 2.318836 g / cm^3
# Si number density = 23.241257 Si / 1000 Ang^3
#
#
#
# Elastic Constant Matrix: (Units=GPa)
#
#
# Indices 1 2 3 4 5 6 
#
# 1 209.7850 38.8680 10.6261 0.0000 0.0000 0.0000
# 2 38.8680 164.7589 -16.1195 0.0000 0.0000 0.0000
# 3 10.6261 -16.1195 91.7312 0.0000 0.0000 0.0000
# 4 0.0000 0.0000 0.0000 4.3581 0.0000 0.0000
# 5 0.0000 0.0000 0.0000 0.0000 20.7594 0.0000
# 6 0.0000 0.0000 0.0000 0.0000 0.0000 67.4328
#
#
#
# Elastic Compliance Matrix: (Units=1/GPa)
#
#
# Indices 1 2 3 4 5 6 
#
# 1 0.005043 -0.001269 -0.000807 0.000000 0.000000 0.000000
# 2 -0.001269 0.006495 0.001288 0.000000 0.000000 0.000000
# 3 -0.000807 0.001288 0.011221 0.000000 0.000000 0.000000
# 4 0.000000 0.000000 0.000000 0.229460 0.000000 0.000000
# 5 0.000000 0.000000 0.000000 0.000000 0.048171 0.000000
# 6 0.000000 0.000000 0.000000 0.000000 0.000000 0.014830
#
#
# Mechanical properties :
#
#
# Convention : Reuss Voigt Hill
#
# Bulk Modulus (GPa) = 47.20547 59.22492 53.21519
# Shear Modulus (GPa) = 15.43900 47.37010 31.40455
#
# Velocity S-wave (km/s) = 2.58018 4.51953 3.67991
# Velocity P-wave (km/s) = 5.40663 7.26449 6.40330
#
# Compressibility (1/GPa) = 0.02118399
#
# Stress axis : x y z
#
# Youngs Moduli (GPa) = 198.30647 153.96978 89.11634
#
# Poissons Ratio (x) = 0.19532 0.07192
# Poissons Ratio (y) = 0.25157 -0.11480
# Poissons Ratio (z) = 0.16005 -0.19835
#
# Static dielectric constant tensor:
#      x y z
#    x 2.048250 0.000000 0.000000 
#    y 0.000000 1.840560 0.000000 
#    z 0.000000 0.000000 1.841630 
# 
# From -- ./inp_files/19563.got.cif
#   From: 2010.05.17/outbox.cif.g08.bks.cpg/sg54_10_cif.got.tgz:19563.got - 2010.06.03 13:09:01.
