data_PCOD9420745
_publ_section_title
;
Structure prediction by ZEFSAII (Michael W. Deem and Ramdas Pophale) SiO2 
 PCOD9420745
Probable space group: P C C A
;
_chemical_formula_sum "Si O2"
_cell_formula_units_Z 40
_cell_length_a 11.362094
_cell_length_b 8.942444
_cell_length_c 19.731558
_cell_angle_alpha 90.000000
_cell_angle_beta 90.000000
_cell_angle_gamma 90.000000
_cell_volume 2004.822767
_symmetry_space_group_name_H-M "P C C A"
_symmetry_group_IT_number 54
_symmetry_cell_setting 'orthorhombic'
loop_
_space_group_symop_operation_xyz
x,y,z
1/2-x,-y,z
1/2+x,-y,1/2-z
-x,y,1/2-z
-x,-y,-z
1/2+x,y,-z
1/2-x,y,1/2+z
x,-y,1/2+z
loop_
_atom_site_type_symbol
_atom_site_label
_atom_site_fract_x
_atom_site_fract_y
_atom_site_fract_z
Si Si1 0.040474 0.205573 0.034656
Si Si2 0.887393 0.459564 0.365357
Si Si3 0.750000 0.000000 0.921060
Si Si4 0.500000 0.742254 0.250000
Si Si5 0.116268 0.043872 0.352747
Si Si6 0.049012 0.790108 0.119252
O O1 0.074906 0.364343 0.068184
O O2 0.943943 0.126796 0.083027
O O3 0.155806 0.099286 0.037903
O O4 0.990472 0.215236 0.959616
O O5 0.750000 0.500000 0.368288
O O6 0.927231 0.356489 0.303147
O O7 0.947684 0.620294 0.358043
O O8 0.827276 0.119619 0.878829
O O9 0.408832 0.846152 0.290578
O O10 0.250000 0.000000 0.363641
O O11 0.043592 0.892133 0.341981
#
# Coordination Sequence:
#
# PCOD9420745 Si02
#       6
#     8   8   4   4   8   8
#     4  10  22  38  64  99 129 161 203 253 317 388
#     4  11  23  44  64  87 130 168 207 260 312 376
#     4  10  18  36  60  92 124 170 196 250 306 366
#     4  10  26  44  60  90 122 166 226 258 306 366
#     4  10  23  41  64  93 126 162 211 266 306 362
#     4  11  23  36  68  96 127 165 206 252 324 378
#
# _framework density 19.951888
#
# number of rings (size 3 to 8) (size 9 to 14) (size 15 to 20)
#    0.000    1.600    2.000    3.000    5.600    4.000 
#    3.600    3.000    0.000    0.000    0.000    0.000 
#    0.000    0.000    0.000    0.000    0.000    0.000 
#
# Total GULP energy -223557.764043 kJ/mol
# GULP energy per Si atom -5588.944101 kJ/mol
# Density = 1.990648 g / cm^3
# Si number density = 19.951888 Si / 1000 Ang^3
#
#
#
# Elastic Constant Matrix: (Units=GPa)
#
#
# Indices 1 2 3 4 5 6 
#
# 1 140.1371 58.5127 27.1536 0.0000 0.0000 0.0000
# 2 58.5127 177.2329 43.4732 0.0000 0.0000 0.0000
# 3 27.1536 43.4732 56.8536 0.0000 0.0000 0.0000
# 4 0.0000 0.0000 0.0000 -119.9899 0.0000 0.0000
# 5 0.0000 0.0000 0.0000 0.0000 -0.1061 0.0000
# 6 0.0000 0.0000 0.0000 0.0000 0.0000 21.1185
#
#
#
# Elastic Compliance Matrix: (Units=1/GPa)
#
#
# Indices 1 2 3 4 5 6 
#
# 1 0.008527 -0.002236 -0.002363 0.000000 0.000000 0.000000
# 2 -0.002236 0.007531 -0.004691 0.000000 0.000000 0.000000
# 3 -0.002363 -0.004691 0.022305 0.000000 0.000000 0.000000
# 4 0.000000 0.000000 0.000000 -0.008334 0.000000 0.000000
# 5 0.000000 0.000000 0.000000 0.000000 -9.427178 0.000000
# 6 0.000000 0.000000 0.000000 0.000000 0.000000 0.047352
#
#
# Mechanical properties :
#
#
# Convention : Reuss Voigt Hill
#
# Bulk Modulus (GPa) = 50.54718 70.27808 60.41263
# Shear Modulus (GPa) = -0.53621 -3.45655 -1.99638
#
# Velocity S-wave (km/s) = -0.51898 -1.31765 -1.00138
# Velocity P-wave (km/s) = 5.00304 5.74328 5.38589
#
# Compressibility (1/GPa) = 0.01978350
#
# Stress axis : x y z
#
# Youngs Moduli (GPa) = 117.27168 132.78523 44.83384
#
# Poissons Ratio (x) = 0.29685 0.10595
# Poissons Ratio (y) = 0.26217 0.21031
# Poissons Ratio (z) = 0.27714 0.62287
#
# Static dielectric constant tensor:
#      x y z
#    x 1.696430 0.000000 0.000000 
#    y 0.000000 1.708980 0.000000 
#    z 0.000000 0.000000 1.711820 
# 
# From -- ./inp_files/21027.got.cif
#   From: 2010.05.17/outbox.cif.g08.bks.cpg/sg54_11_cif.got.tgz:21027.got - 2010.06.03 13:09:01.
