data_PCOD9420451
_publ_section_title
;
Structure prediction by ZEFSAII (Michael W. Deem and Ramdas Pophale) SiO2 
 PCOD9420451
Probable space group: P C C A
;
_chemical_formula_sum "Si O2"
_cell_formula_units_Z 52
_cell_length_a 26.305054
_cell_length_b 5.666302
_cell_length_c 16.319360
_cell_angle_alpha 90.000000
_cell_angle_beta 90.000000
_cell_angle_gamma 90.000000
_cell_volume 2432.439450
_symmetry_space_group_name_H-M "P C C A"
_symmetry_group_IT_number 54
_symmetry_cell_setting 'orthorhombic'
loop_
_space_group_symop_operation_xyz
x,y,z
1/2-x,-y,z
1/2+x,-y,1/2-z
-x,y,1/2-z
-x,-y,-z
1/2+x,y,-z
1/2-x,y,1/2+z
x,-y,1/2+z
loop_
_atom_site_type_symbol
_atom_site_label
_atom_site_fract_x
_atom_site_fract_y
_atom_site_fract_z
Si Si1 0.842499 0.721981 0.595014
Si Si2 0.250000 0.000000 0.876076
Si Si3 0.505970 0.194577 0.931497
Si Si4 0.300180 0.386262 0.262057
Si Si5 0.590168 0.342275 0.297603
Si Si6 0.434295 0.851696 0.291304
Si Si7 0.920877 0.462536 0.976457
O O1 0.820295 0.559067 0.666717
O O2 0.888956 0.857614 0.639557
O O3 0.867951 0.578078 0.521163
O O4 0.793660 0.875160 0.570906
O O5 0.281496 0.836940 0.813469
O O6 0.487439 0.137757 0.840792
O O7 0.464004 0.392897 0.957523
O O8 0.563387 0.281264 0.943834
O O9 0.500000 0.000000 0.000000
O O10 0.250000 0.500000 0.222087
O O11 0.348389 0.345715 0.205173
O O12 0.572281 0.593722 0.254924
O O13 0.573453 0.321750 0.391900
O O14 0.573004 0.102092 0.253652
#
# Coordination Sequence:
#
# PCOD9420451 Si02
#       7
#     8   4   8   8   8   8   8
#     4   9  19  37  62  89 123 174 214 264 318 401
#     4  10  16  34  60  96 116 172 224 262 314 410
#     4  10  24  43  64  89 124 177 216 270 321 401
#     4   9  19  35  62  89 126 167 219 259 324 398
#     4  11  23  43  63  99 128 169 210 277 326 390
#     4  10  23  41  67  90 129 169 215 261 327 393
#     4  10  24  41  61  93 128 170 218 274 335 385
#
# _framework density 21.377715999999999
#
# number of rings (size 3 to 8) (size 9 to 14) (size 15 to 20)
#    0.000    2.154    1.538    0.000   10.769    0.615 
#    0.000    3.077    0.000    0.000    0.000    0.000 
#    0.000    0.000    0.000    0.000    0.000    0.000 
#
# Total GULP energy -289719.269056 kJ/mol
# GULP energy per Si atom -5571.524405 kJ/mol
# Density = 2.132906 g / cm^3
# Si number density = 21.377716 Si / 1000 Ang^3
#
#
#
# Elastic Constant Matrix: (Units=GPa)
#
#
# Indices 1 2 3 4 5 6 
#
# 1 106.8091 37.5251 23.6455 0.0000 0.0000 0.0000
# 2 37.5251 77.4151 18.9540 0.0000 0.0000 0.0000
# 3 23.6455 18.9540 81.9087 0.0000 0.0000 0.0000
# 4 0.0000 0.0000 0.0000 21.2917 0.0000 0.0000
# 5 0.0000 0.0000 0.0000 0.0000 27.0110 0.0000
# 6 0.0000 0.0000 0.0000 0.0000 0.0000 28.0813
#
#
#
# Elastic Compliance Matrix: (Units=1/GPa)
#
#
# Indices 1 2 3 4 5 6 
#
# 1 0.011639 -0.005109 -0.002178 0.000000 0.000000 0.000000
# 2 -0.005109 0.015935 -0.002213 0.000000 0.000000 0.000000
# 3 -0.002178 -0.002213 0.013349 0.000000 0.000000 0.000000
# 4 0.000000 0.000000 0.000000 0.046967 0.000000 0.000000
# 5 0.000000 0.000000 0.000000 0.000000 0.037022 0.000000
# 6 0.000000 0.000000 0.000000 0.000000 0.000000 0.035611
#
#
# Mechanical properties :
#
#
# Convention : Reuss Voigt Hill
#
# Bulk Modulus (GPa) = 45.60866 47.37578 46.49222
# Shear Modulus (GPa) = 26.76213 27.67735 27.21974
#
# Velocity S-wave (km/s) = 3.54202 3.60207 3.57217
# Velocity P-wave (km/s) = 6.17323 6.28564 6.22969
#
# Compressibility (1/GPa) = 0.02192566
#
# Stress axis : x y z
#
# Youngs Moduli (GPa) = 85.91438 62.75311 74.90925
#
# Poissons Ratio (x) = 0.32059 0.16315
# Poissons Ratio (y) = 0.43891 0.16575
# Poissons Ratio (z) = 0.18712 0.13886
#
# Static dielectric constant tensor:
#      x y z
#    x 1.846820 0.000000 0.000000 
#    y 0.000000 1.890200 0.000000 
#    z 0.000000 0.000000 1.793070 
# 
# From -- ./inp_files/19192.got.cif
#   From: 2010.05.17/outbox.cif.g08.bks.cpg/sg54_10_cif.got.tgz:19192.got - 2010.06.03 13:09:01.
