data_PCOD9420617
_publ_section_title
;
Structure prediction by ZEFSAII (Michael W. Deem and Ramdas Pophale) SiO2 
 PCOD9420617
Probable space group: P C C A
;
_chemical_formula_sum "Si O2"
_cell_formula_units_Z 44
_cell_length_a 8.423389
_cell_length_b 8.750014
_cell_length_c 28.928567
_cell_angle_alpha 90.000000
_cell_angle_beta 90.000000
_cell_angle_gamma 90.000000
_cell_volume 2132.173426
_symmetry_space_group_name_H-M "P C C A"
_symmetry_group_IT_number 54
_symmetry_cell_setting 'orthorhombic'
loop_
_space_group_symop_operation_xyz
x,y,z
1/2-x,-y,z
1/2+x,-y,1/2-z
-x,y,1/2-z
-x,-y,-z
1/2+x,y,-z
1/2-x,y,1/2+z
x,-y,1/2+z
loop_
_atom_site_type_symbol
_atom_site_label
_atom_site_fract_x
_atom_site_fract_y
_atom_site_fract_z
Si Si1 0.000000 0.755685 0.250000
Si Si2 0.750000 0.000000 0.719765
Si Si3 0.081011 0.166167 0.997464
Si Si4 0.681573 0.665654 0.944912
Si Si5 0.250000 0.000000 0.422255
Si Si6 0.010659 0.909684 0.651426
Si Si7 0.160710 0.752901 0.158451
O O1 0.062233 0.677683 0.201808
O O2 0.851333 0.870218 0.244104
O O3 0.878826 0.904310 0.691080
O O4 0.198752 0.139434 0.954676
O O5 0.957537 0.291184 0.980176
O O6 0.179266 0.212265 0.042669
O O7 0.000000 0.000000 0.000000
O O8 0.750000 0.500000 0.954172
O O9 0.629480 0.677519 0.891536
O O10 0.102077 0.066427 0.393223
O O11 0.147201 0.782193 0.658616
O O12 0.092282 0.075467 0.655662
#
# Coordination Sequence:
#
# PCOD9420617 Si02
#       7
#     4   4   8   8   4   8   8
#     4  10  18  32  54  86 122 158 206 268 336 390
#     4   9  16  28  47  88 122 148 191 274 345 372
#     4  12  23  40  65  93 125 178 226 267 315 386
#     4  12  26  42  61  93 134 173 213 268 329 384
#     4  11  18  32  57  90 124 168 223 256 313 388
#     4   9  18  30  55  87 122 158 207 267 327 381
#     4  10  20  34  57  82 120 165 208 264 326 384
#
# _framework density 20.636220999999999
#
# number of rings (size 3 to 8) (size 9 to 14) (size 15 to 20)
#    0.000    1.455    3.636    3.818    2.545    0.000 
#    0.000    0.000    0.000    2.182    0.000    0.000 
#    0.000    0.000    0.000    0.000    0.000    0.000 
#
# Total GULP energy -244953.101757 kJ/mol
# GULP energy per Si atom -5567.115949 kJ/mol
# Density = 2.058925 g / cm^3
# Si number density = 20.636221 Si / 1000 Ang^3
#
#
#
# Elastic Constant Matrix: (Units=GPa)
#
#
# Indices 1 2 3 4 5 6 
#
# 1 105.0955 8.2441 44.6476 0.0000 0.0000 0.0000
# 2 8.2441 35.4433 10.5871 0.0000 0.0000 0.0000
# 3 44.6476 10.5871 119.0778 0.0000 0.0000 0.0000
# 4 0.0000 0.0000 0.0000 8.1674 0.0000 0.0000
# 5 0.0000 0.0000 0.0000 0.0000 45.5135 0.0000
# 6 0.0000 0.0000 0.0000 0.0000 0.0000 20.7062
#
#
#
# Elastic Compliance Matrix: (Units=1/GPa)
#
#
# Indices 1 2 3 4 5 6 
#
# 1 0.011386 -0.001411 -0.004144 0.000000 0.000000 0.000000
# 2 -0.001411 0.029159 -0.002064 0.000000 0.000000 0.000000
# 3 -0.004144 -0.002064 0.010135 0.000000 0.000000 0.000000
# 4 0.000000 0.000000 0.000000 0.122438 0.000000 0.000000
# 5 0.000000 0.000000 0.000000 0.000000 0.021971 0.000000
# 6 0.000000 0.000000 0.000000 0.000000 0.000000 0.048295
#
#
# Mechanical properties :
#
#
# Convention : Reuss Voigt Hill
#
# Bulk Modulus (GPa) = 28.21363 42.95269 35.58316
# Shear Modulus (GPa) = 18.48876 27.95328 23.22102
#
# Velocity S-wave (km/s) = 2.99647 3.68445 3.35812
# Velocity P-wave (km/s) = 5.06689 6.24176 5.68476
#
# Compressibility (1/GPa) = 0.03544386
#
# Stress axis : x y z
#
# Youngs Moduli (GPa) = 87.82549 34.29521 98.66768
#
# Poissons Ratio (x) = 0.04838 0.40886
# Poissons Ratio (y) = 0.12389 0.20361
# Poissons Ratio (z) = 0.36393 0.07077
#
# Static dielectric constant tensor:
#      x y z
#    x 1.775740 0.000000 0.000000 
#    y 0.000000 1.766790 0.000000 
#    z 0.000000 0.000000 1.880260 
# 
# From -- ./inp_files/27665.got.cif
#   From: 2010.05.17/outbox.cif.g08.bks.cpg/sg54_14_cif.got.tgz:27665.got - 2010.06.03 13:09:01.
