data_PCOD9420047
_publ_section_title
;
Structure prediction by ZEFSAII (Michael W. Deem and Ramdas Pophale) SiO2 
 PCOD9420047
Probable space group: P M N A
;
_chemical_formula_sum "Si O2"
_cell_formula_units_Z 48
_cell_length_a 7.748704
_cell_length_b 7.272250
_cell_length_c 34.218390
_cell_angle_alpha 90.000000
_cell_angle_beta 90.000000
_cell_angle_gamma 90.000000
_cell_volume 1928.223819
_symmetry_space_group_name_H-M "P M N A"
_symmetry_group_IT_number 53
_symmetry_cell_setting 'orthorhombic'
loop_
_space_group_symop_operation_xyz
x,y,z
1/2-x,-y,1/2+z
x,-y,-z
1/2-x,y,1/2-z
-x,-y,-z
1/2+x,y,1/2-z
-x,y,z
1/2+x,-y,1/2+z
loop_
_atom_site_type_symbol
_atom_site_label
_atom_site_fract_x
_atom_site_fract_y
_atom_site_fract_z
Si Si1 0.199843 0.967820 0.042553
Si Si2 0.804762 0.525513 0.706948
Si Si3 0.695950 0.529564 0.457923
Si Si4 0.705402 0.545212 0.125982
Si Si5 0.200493 0.971762 0.126146
Si Si6 0.707704 0.096373 0.708038
O O1 0.192157 0.748606 0.045657
O O2 0.278000 0.030393 0.084218
O O3 0.000000 0.035226 0.040581
O O4 0.281392 0.000000 0.000000
O O5 0.750000 0.587132 0.750000
O O6 0.723979 0.562593 0.664043
O O7 0.789490 0.301074 0.708408
O O8 0.000000 0.585759 0.703967
O O9 0.783024 0.500000 0.500000
O O10 0.500000 0.458489 0.460776
O O11 0.767286 0.460007 0.416753
O O12 0.500000 0.573198 0.130517
O O13 0.790497 0.747578 0.126283
O O14 0.271063 0.011636 0.169512
O O15 0.000000 0.027051 0.125008
O O16 0.750000 0.011756 0.750000
O O17 0.500000 0.116745 0.705145
#
# Coordination Sequence:
#
# PCOD9420047 Si02
#       6
#     8   8   8   8   8   8
#     4   8  13  23  40  58  74  95 124 156 187 219
#     4   9  15  21  30  46  68  94 123 151 181 219
#     4   9  17  28  41  57  77 101 128 158 192 227
#     4   9  16  24  35  52  73  98 127 156 187 225
#     4   8  14  23  34  49  70  96 123 151 185 222
#     4   9  14  19  28  43  65  92 120 147 177 215
#
# _framework density 24.893374999999999
#
# number of rings (size 3 to 8) (size 9 to 14) (size 15 to 20)
#    0.000    3.333    0.000    3.500    0.000    3.000 
#    0.000    0.000    0.000    8.000    0.000    0.000 
#    0.000    1.333    0.000    8.333    0.000    4.000 
#
# Total GULP energy -267253.355163 kJ/mol
# GULP energy per Si atom -5567.778233 kJ/mol
# Density = 2.483672 g / cm^3
# Si number density = 24.893375 Si / 1000 Ang^3
#
#
#
# Elastic Constant Matrix: (Units=GPa)
#
#
# Indices 1 2 3 4 5 6 
#
# 1 54.0381 -8.6597 16.6578 0.0000 0.0000 0.0000
# 2 -8.6597 85.4056 0.7462 0.0000 0.0000 0.0000
# 3 16.6578 0.7462 342.2558 0.0000 0.0000 0.0000
# 4 0.0000 0.0000 0.0000 4.1833 0.0000 0.0000
# 5 0.0000 0.0000 0.0000 0.0000 31.0003 0.0000
# 6 0.0000 0.0000 0.0000 0.0000 0.0000 -6.7193
#
#
#
# Elastic Compliance Matrix: (Units=1/GPa)
#
#
# Indices 1 2 3 4 5 6 
#
# 1 0.019105 0.001945 -0.000934 0.000000 0.000000 0.000000
# 2 0.001945 0.011907 -0.000121 0.000000 0.000000 0.000000
# 3 -0.000934 -0.000121 0.002968 0.000000 0.000000 0.000000
# 4 0.000000 0.000000 0.000000 0.239047 0.000000 0.000000
# 5 0.000000 0.000000 0.000000 0.000000 0.032258 0.000000
# 6 0.000000 0.000000 0.000000 0.000000 0.000000 -0.148825
#
#
# Mechanical properties :
#
#
# Convention : Reuss Voigt Hill
#
# Bulk Modulus (GPa) = 27.96343 55.46532 41.71438
# Shear Modulus (GPa) = 30.01221 37.22319 33.61770
#
# Velocity S-wave (km/s) = 3.47599 3.87111 3.67886
# Velocity P-wave (km/s) = 5.23141 6.50463 5.90245
#
# Compressibility (1/GPa) = 0.03576099
#
# Stress axis : x y z
#
# Youngs Moduli (GPa) = 52.34187 83.98324 336.98199
#
# Poissons Ratio (x) = -0.16337 0.31477
# Poissons Ratio (y) = -0.10182 0.04065
# Poissons Ratio (z) = 0.04889 0.01013
#
# Static dielectric constant tensor:
#      x y z
#    x 1.938200 0.000000 0.000000 
#    y 0.000000 2.206950 0.000000 
#    z 0.000000 0.000000 2.162330 
# 
# From -- ./inp_files/37922.got.cif
#   From: 2010.05.17/outbox.cif.g08.bks.cpg/sg53_19_cif.got.tgz:37922.got - 2010.06.03 12:45:16.
