data_PCOD9420766
_publ_section_title
;
Structure prediction by ZEFSAII (Michael W. Deem and Ramdas Pophale) SiO2 
 PCOD9420766
Probable space group: P C C A
;
_chemical_formula_sum "Si O2"
_cell_formula_units_Z 40
_cell_length_a 9.581137
_cell_length_b 9.039092
_cell_length_c 23.066913
_cell_angle_alpha 90.000000
_cell_angle_beta 90.000000
_cell_angle_gamma 90.000000
_cell_volume 1997.704898
_symmetry_space_group_name_H-M "P C C A"
_symmetry_group_IT_number 54
_symmetry_cell_setting 'orthorhombic'
loop_
_space_group_symop_operation_xyz
x,y,z
1/2-x,-y,z
1/2+x,-y,1/2-z
-x,y,1/2-z
-x,-y,-z
1/2+x,y,-z
1/2-x,y,1/2+z
x,-y,1/2+z
loop_
_atom_site_type_symbol
_atom_site_label
_atom_site_fract_x
_atom_site_fract_y
_atom_site_fract_z
Si Si1 0.984433 0.751308 0.329951
Si Si2 0.500000 0.486751 0.750000
Si Si3 0.821572 0.753775 0.682407
Si Si4 0.000000 0.007224 0.250000
Si Si5 0.867668 0.384285 0.066391
Si Si6 0.873282 0.395860 0.935703
O O1 0.925579 0.733692 0.394073
O O2 0.939606 0.600395 0.297505
O O3 0.153706 0.756458 0.323792
O O4 0.931239 0.895078 0.296339
O O5 0.614908 0.384929 0.718418
O O6 0.889536 0.892092 0.715653
O O7 0.877307 0.737434 0.616282
O O8 0.750000 0.500000 0.086625
O O9 0.002665 0.485612 0.061896
O O10 0.835215 0.338568 0.000261
O O11 0.750000 0.500000 0.913098
#
# Coordination Sequence:
#
# PCOD9420766 Si02
#       6
#     8   4   8   4   8   8
#     4  11  21  40  59  86 124 164 199 258 311 367
#     4  10  20  32  60  88 106 154 212 252 298 368
#     4  11  20  40  60  85 118 168 202 252 309 373
#     4  10  26  38  56  86 120 166 216 250 292 364
#     4  10  18  37  63  93 122 157 203 256 316 369
#     4  10  21  34  61  99 126 148 200 267 308 364
#
# _framework density 20.022976
#
# number of rings (size 3 to 8) (size 9 to 14) (size 15 to 20)
#    0.000    1.600    4.000    1.200    0.000    3.200 
#    3.600    1.000    0.000    0.000    0.000    0.000 
#    0.000    0.000    0.000    0.000    0.000    0.000 
#
# Total GULP energy -223121.957834 kJ/mol
# GULP energy per Si atom -5578.048946 kJ/mol
# Density = 1.997740 g / cm^3
# Si number density = 20.022976 Si / 1000 Ang^3
#
#
#
# Elastic Constant Matrix: (Units=GPa)
#
#
# Indices 1 2 3 4 5 6 
#
# 1 84.1996 26.6353 31.2109 0.0000 0.0000 0.0000
# 2 26.6353 113.8064 65.8152 0.0000 0.0000 0.0000
# 3 31.2109 65.8152 145.2799 0.0000 0.0000 0.0000
# 4 0.0000 0.0000 0.0000 46.2860 0.0000 0.0000
# 5 0.0000 0.0000 0.0000 0.0000 28.4852 0.0000
# 6 0.0000 0.0000 0.0000 0.0000 0.0000 19.2537
#
#
#
# Elastic Compliance Matrix: (Units=1/GPa)
#
#
# Indices 1 2 3 4 5 6 
#
# 1 0.013221 -0.001967 -0.001949 0.000000 0.000000 0.000000
# 2 -0.001967 0.012199 -0.005104 0.000000 0.000000 0.000000
# 3 -0.001949 -0.005104 0.009614 0.000000 0.000000 0.000000
# 4 0.000000 0.000000 0.000000 0.021605 0.000000 0.000000
# 5 0.000000 0.000000 0.000000 0.000000 0.035106 0.000000
# 6 0.000000 0.000000 0.000000 0.000000 0.000000 0.051938
#
#
# Mechanical properties :
#
#
# Convention : Reuss Voigt Hill
#
# Bulk Modulus (GPa) = 58.84382 65.62321 62.23351
# Shear Modulus (GPa) = 29.87073 33.44661 31.65867
#
# Velocity S-wave (km/s) = 3.86660 4.09150 3.98064
# Velocity P-wave (km/s) = 7.02752 7.42736 7.23020
#
# Compressibility (1/GPa) = 0.01699414
#
# Stress axis : x y z
#
# Youngs Moduli (GPa) = 75.63526 81.97558 104.01351
#
# Poissons Ratio (x) = 0.16125 0.20275
# Poissons Ratio (y) = 0.14878 0.53086
# Poissons Ratio (z) = 0.14743 0.41838
#
# Static dielectric constant tensor:
#      x y z
#    x 1.649400 0.000000 0.000000 
#    y 0.000000 1.698420 0.000000 
#    z 0.000000 0.000000 1.797350 
# 
# From -- ./inp_files/23324.got.cif
#   From: 2010.05.17/outbox.cif.g08.bks.cpg/sg54_12_cif.got.tgz:23324.got - 2010.06.03 13:09:01.
