data_PCOD9420245
_publ_section_title
;
Structure prediction by ZEFSAII (Michael W. Deem and Ramdas Pophale) SiO2 
 PCOD9420245
Probable space group: P M N A
;
_chemical_formula_sum "Si O2"
_cell_formula_units_Z 48
_cell_length_a 9.000000
_cell_length_b 18.000000
_cell_length_c 15.000000
_cell_angle_alpha 90.000000
_cell_angle_beta 90.000000
_cell_angle_gamma 90.000000
_cell_volume 2430.000000
_symmetry_space_group_name_H-M "P M N A"
_symmetry_group_IT_number 53
_symmetry_cell_setting 'orthorhombic'
loop_
_space_group_symop_operation_xyz
x,y,z
1/2-x,-y,1/2+z
x,-y,-z
1/2-x,y,1/2-z
-x,-y,-z
1/2+x,y,1/2-z
-x,y,z
1/2+x,-y,1/2+z
loop_
_atom_site_type_symbol
_atom_site_label
_atom_site_fract_x
_atom_site_fract_y
_atom_site_fract_z
Si Si1 0.821548 0.358687 0.160628
Si Si2 0.180233 0.040319 0.348544
Si Si3 0.822527 0.761575 0.343606
Si Si4 0.676364 0.637777 0.459536
Si Si5 0.821474 0.522388 0.341503
Si Si6 0.176636 0.100110 0.530615
O O1 0.750000 0.322390 0.250000
O O2 0.746480 0.439923 0.155847
O O3 0.000000 0.363545 0.172884
O O4 0.793122 0.330889 0.059353
O O5 0.250000 0.047624 0.250000
O O6 0.227176 0.098148 0.427300
O O7 0.000000 0.040957 0.337401
O O8 0.227332 0.964774 0.401238
O O9 0.750000 0.783756 0.250000
O O10 0.732184 0.693641 0.384153
O O11 0.800561 0.824805 0.417189
O O12 0.000000 0.746893 0.334180
O O13 0.500000 0.623438 0.454582
O O14 0.765985 0.564901 0.429387
O O15 0.750000 0.555655 0.250000
O O16 0.000000 0.522110 0.335307
O O17 0.000000 0.087235 0.523561
#
# Coordination Sequence:
#
# PCOD9420245 Si02
#       6
#     8   8   8   8   8   8
#     4  10  21  37  57  78 103 134 171 217 265 313
#     4   9  16  31  54  80 108 139 175 215 259 306
#     4  11  22  37  56  78 105 139 176 215 260 312
#     4  11  23  38  54  76 106 139 175 216 261 310
#     4  11  21  34  55  81 108 137 171 214 263 315
#     4   8  17  33  53  76 107 144 176 209 258 315
#
# _framework density 19.753086
#
# number of rings (size 3 to 8) (size 9 to 14) (size 15 to 20)
#    0.000    2.000    0.000    6.500    0.000    4.667 
#    0.000    5.000    0.000    4.000    0.000    0.000 
#    0.000    0.000    0.000    0.000    0.000    0.000 
#
# Total GULP energy -267398.291709 kJ/mol
# GULP energy per Si atom -5570.797744 kJ/mol
# Density = 1.970813 g / cm^3
# Si number density = 19.753086 Si / 1000 Ang^3
#
#
#
# Elastic Constant Matrix: (Units=GPa)
#
#
# Indices 1 2 3 4 5 6 
#
# 1 87.8108 5.5583 41.3836 0.0000 0.0000 0.0000
# 2 5.5583 20.0089 15.2748 0.0000 0.0000 0.0000
# 3 41.3836 15.2748 166.4676 0.0000 0.0000 0.0000
# 4 0.0000 0.0000 0.0000 23.0481 0.0000 0.0000
# 5 0.0000 0.0000 0.0000 0.0000 30.0045 0.0000
# 6 0.0000 0.0000 0.0000 0.0000 0.0000 5.7230
#
#
#
# Elastic Compliance Matrix: (Units=1/GPa)
#
#
# Indices 1 2 3 4 5 6 
#
# 1 0.012927 -0.001223 -0.003101 0.000000 0.000000 0.000000
# 2 -0.001223 0.053858 -0.004638 0.000000 0.000000 0.000000
# 3 -0.003101 -0.004638 0.007204 0.000000 0.000000 0.000000
# 4 0.000000 0.000000 0.000000 0.043387 0.000000 0.000000
# 5 0.000000 0.000000 0.000000 0.000000 0.033328 0.000000
# 6 0.000000 0.000000 0.000000 0.000000 0.000000 0.174734
#
#
# Mechanical properties :
#
#
# Convention : Reuss Voigt Hill
#
# Bulk Modulus (GPa) = 17.83684 44.30231 31.06957
# Shear Modulus (GPa) = 13.81017 25.89316 19.85166
#
# Velocity S-wave (km/s) = 2.64699 3.62448 3.17360
# Velocity P-wave (km/s) = 4.28854 6.32397 5.40297
#
# Compressibility (1/GPa) = 0.05606375
#
# Stress axis : x y z
#
# Youngs Moduli (GPa) = 77.35619 18.56729 138.81674
#
# Poissons Ratio (x) = 0.02272 0.43053
# Poissons Ratio (y) = 0.09464 0.64380
# Poissons Ratio (z) = 0.23991 0.08611
#
# Static dielectric constant tensor:
#      x y z
#    x 1.661810 0.000000 0.000000 
#    y 0.000000 1.741580 0.000000 
#    z 0.000000 0.000000 1.749350 
# 
# From -- ./inp_files/20203.got.cif
#   From: 2010.05.17/outbox.ucp.g08.bks.cvg/sg53_11_cif.got.tgz:20203.got - 2010.06.11 16:32:34.
