data_PCOD9420450
_publ_section_title
;
Structure prediction by ZEFSAII (Michael W. Deem and Ramdas Pophale) SiO2 
 PCOD9420450
Probable space group: P C C A
;
_chemical_formula_sum "Si O2"
_cell_formula_units_Z 60
_cell_length_a 26.116496
_cell_length_b 20.207511
_cell_length_c 5.318656
_cell_angle_alpha 90.000000
_cell_angle_beta 90.000000
_cell_angle_gamma 90.000000
_cell_volume 2806.917408
_symmetry_space_group_name_H-M "P C C A"
_symmetry_group_IT_number 54
_symmetry_cell_setting 'orthorhombic'
loop_
_space_group_symop_operation_xyz
x,y,z
1/2-x,-y,z
1/2+x,-y,1/2-z
-x,y,1/2-z
-x,-y,-z
1/2+x,y,-z
1/2-x,y,1/2+z
x,-y,1/2+z
loop_
_atom_site_type_symbol
_atom_site_label
_atom_site_fract_x
_atom_site_fract_y
_atom_site_fract_z
Si Si1 0.192599 0.527115 0.028857
Si Si2 0.669933 0.673223 0.837235
Si Si3 0.722454 0.098193 0.887126
Si Si4 0.888100 0.959832 0.007351
Si Si5 0.179045 0.241793 0.152375
Si Si6 0.500000 0.255495 0.750000
Si Si7 0.442638 0.695177 0.632103
Si Si8 0.075988 0.817100 0.429847
O O1 0.250000 0.500000 0.992982
O O2 0.167523 0.486580 0.258326
O O3 0.195387 0.603501 0.102940
O O4 0.688411 0.707925 0.580073
O O5 0.608777 0.657062 0.802782
O O6 0.678530 0.721316 0.078944
O O7 0.735815 0.079839 0.599656
O O8 0.715562 0.177920 0.872677
O O9 0.670653 0.065185 0.989638
O O10 0.919543 0.894764 0.084772
O O11 0.897840 0.012501 0.227999
O O12 0.123370 0.209289 0.096203
O O13 0.544871 0.303652 0.660689
O O14 0.476500 0.206717 0.549452
O O15 0.500000 0.681267 0.750000
O O16 0.423657 0.770886 0.685578
#
# Coordination Sequence:
#
# PCOD9420450 Si02
#       8
#     8   8   8   8   8   4   8   8
#     4  10  22  42  59  84 121 168 206 240 276 346
#     4  11  20  38  63  87 122 158 203 244 290 363
#     4  11  23  41  58  85 122 143 193 265 310 356
#     4  11  25  40  60  81 110 162 206 240 291 371
#     4  10  21  37  58  93 116 154 191 251 316 351
#     4  10  16  34  60  86 118 150 182 246 320 356
#     4   9  19  33  60  95 117 151 193 253 316 361
#     4   9  20  35  58  82 125 146 192 248 312 351
#
# _framework density 21.375765000000001
#
# number of rings (size 3 to 8) (size 9 to 14) (size 15 to 20)
#    0.000    1.867    1.333    2.400    1.867    3.733 
#   14.400    0.667    0.000    0.800    0.000    0.000 
#    0.000    0.000    0.000    0.000    0.000    0.000 
#
# Total GULP energy -334332.416299 kJ/mol
# GULP energy per Si atom -5572.206938 kJ/mol
# Density = 2.132711 g / cm^3
# Si number density = 21.375765 Si / 1000 Ang^3
#
#
#
# Elastic Constant Matrix: (Units=GPa)
#
#
# Indices 1 2 3 4 5 6 
#
# 1 47.2849 8.4133 -1.9538 0.0000 0.0000 0.0000
# 2 8.4133 62.2555 -3.6581 0.0000 0.0000 0.0000
# 3 -1.9538 -3.6581 98.3295 0.0000 0.0000 0.0000
# 4 0.0000 0.0000 0.0000 20.3555 0.0000 0.0000
# 5 0.0000 0.0000 0.0000 0.0000 18.0712 0.0000
# 6 0.0000 0.0000 0.0000 0.0000 0.0000 19.1180
#
#
#
# Elastic Compliance Matrix: (Units=1/GPa)
#
#
# Indices 1 2 3 4 5 6 
#
# 1 0.021680 -0.002911 0.000322 0.000000 0.000000 0.000000
# 2 -0.002911 0.016489 0.000556 0.000000 0.000000 0.000000
# 3 0.000322 0.000556 0.010197 0.000000 0.000000 0.000000
# 4 0.000000 0.000000 0.000000 0.049127 0.000000 0.000000
# 5 0.000000 0.000000 0.000000 0.000000 0.055337 0.000000
# 6 0.000000 0.000000 0.000000 0.000000 0.000000 0.052307
#
#
# Mechanical properties :
#
#
# Convention : Reuss Voigt Hill
#
# Bulk Modulus (GPa) = 22.57343 23.71919 23.14631
# Shear Modulus (GPa) = 22.32462 25.18017 23.75240
#
# Velocity S-wave (km/s) = 3.23521 3.43589 3.33706
# Velocity P-wave (km/s) = 4.95365 5.18275 5.06949
#
# Compressibility (1/GPa) = 0.04429987
#
# Stress axis : x y z
#
# Youngs Moduli (GPa) = 46.12621 60.64700 98.06839
#
# Poissons Ratio (x) = 0.17654 -0.03163
# Poissons Ratio (y) = 0.13427 -0.05449
# Poissons Ratio (z) = -0.01488 -0.03369
#
# Static dielectric constant tensor:
#      x y z
#    x 1.807680 0.000000 0.000000 
#    y 0.000000 1.772210 0.000000 
#    z 0.000000 0.000000 1.897530 
# 
# From -- ./inp_files/1992.got.cif
#   From: 2010.05.17/outbox.cif.g08.bks.cpg/sg54_1_cif.got.tgz:1992.got - 2010.06.03 13:09:01.
