data_PCOD9420769
_publ_section_title
;
Structure prediction by ZEFSAII (Michael W. Deem and Ramdas Pophale) SiO2 
 PCOD9420769
Probable space group: P C C A
;
_chemical_formula_sum "Si O2"
_cell_formula_units_Z 48
_cell_length_a 14.267653
_cell_length_b 8.725945
_cell_length_c 21.280988
_cell_angle_alpha 90.000000
_cell_angle_beta 90.000000
_cell_angle_gamma 90.000000
_cell_volume 2649.456519
_symmetry_space_group_name_H-M "P C C A"
_symmetry_group_IT_number 54
_symmetry_cell_setting 'orthorhombic'
loop_
_space_group_symop_operation_xyz
x,y,z
1/2-x,-y,z
1/2+x,-y,1/2-z
-x,y,1/2-z
-x,-y,-z
1/2+x,y,-z
1/2-x,y,1/2+z
x,-y,1/2+z
loop_
_atom_site_type_symbol
_atom_site_label
_atom_site_fract_x
_atom_site_fract_y
_atom_site_fract_z
Si Si1 0.014237 0.837904 0.681675
Si Si2 0.145350 0.954087 0.357045
Si Si3 0.157263 0.103775 0.714251
Si Si4 0.981094 0.163355 0.532878
Si Si5 0.338455 0.693997 0.596065
Si Si6 0.626980 0.665355 0.424769
O O1 0.074194 0.737200 0.634831
O O2 0.000000 0.764590 0.750000
O O3 0.071286 0.995672 0.693598
O O4 0.914996 0.891121 0.654221
O O5 0.149537 0.870157 0.289027
O O6 0.090543 0.860452 0.409601
O O7 0.250000 0.000000 0.375795
O O8 0.160258 0.249259 0.668566
O O9 0.250000 0.000000 0.704809
O O10 0.934144 0.281702 0.484240
O O11 0.080761 0.217123 0.559260
O O12 0.000000 0.000000 0.500000
O O13 0.361314 0.515485 0.586227
O O14 0.233579 0.727412 0.571266
#
# Coordination Sequence:
#
# PCOD9420769 Si02
#       6
#     8   8   8   8   8   8
#     4  10  19  37  60  90 118 157 202 257 305 355
#     4  10  22  36  61  95 118 152 207 264 303 354
#     4  10  18  37  66  88 121 151 209 261 306 359
#     4  12  24  39  63  89 123 166 209 253 307 369
#     4  11  24  41  63  91 123 164 207 253 311 374
#     4  11  24  41  62  89 130 165 203 251 311 384
#
# _framework density 18.116923
#
# number of rings (size 3 to 8) (size 9 to 14) (size 15 to 20)
#    0.000    1.333    5.000    0.500    2.333    0.000 
#    3.000    0.000    0.000    2.000    0.000    0.000 
#    0.000    0.000    0.000    0.000    0.000    0.000 
#
# Total GULP energy -267928.326942 kJ/mol
# GULP energy per Si atom -5581.840145 kJ/mol
# Density = 1.807569 g / cm^3
# Si number density = 18.116923 Si / 1000 Ang^3
#
#
#
# Elastic Constant Matrix: (Units=GPa)
#
#
# Indices 1 2 3 4 5 6 
#
# 1 160.4512 40.7864 58.0230 0.0000 0.0000 0.0000
# 2 40.7864 61.1353 52.8324 0.0000 0.0000 0.0000
# 3 58.0230 52.8324 125.1310 0.0000 0.0000 0.0000
# 4 0.0000 0.0000 0.0000 18.4123 0.0000 0.0000
# 5 0.0000 0.0000 0.0000 0.0000 29.9285 0.0000
# 6 0.0000 0.0000 0.0000 0.0000 0.0000 29.0351
#
#
#
# Elastic Compliance Matrix: (Units=1/GPa)
#
#
# Indices 1 2 3 4 5 6 
#
# 1 0.007892 -0.003311 -0.002262 0.000000 0.000000 0.000000
# 2 -0.003311 0.027143 -0.009925 0.000000 0.000000 0.000000
# 3 -0.002262 -0.009925 0.013231 0.000000 0.000000 0.000000
# 4 0.000000 0.000000 0.000000 0.054311 0.000000 0.000000
# 5 0.000000 0.000000 0.000000 0.000000 0.033413 0.000000
# 6 0.000000 0.000000 0.000000 0.000000 0.000000 0.034441
#
#
# Mechanical properties :
#
#
# Convention : Reuss Voigt Hill
#
# Bulk Modulus (GPa) = 57.90036 72.22233 65.06135
# Shear Modulus (GPa) = 24.13329 28.48023 26.30676
#
# Velocity S-wave (km/s) = 3.65373 3.96918 3.81472
# Velocity P-wave (km/s) = 7.05892 7.80749 7.44262
#
# Compressibility (1/GPa) = 0.01727105
#
# Stress axis : x y z
#
# Youngs Moduli (GPa) = 126.71337 36.84204 75.58069
#
# Poissons Ratio (x) = 0.12197 0.17094
# Poissons Ratio (y) = 0.41949 0.75015
# Poissons Ratio (z) = 0.28658 0.36566
#
# Static dielectric constant tensor:
#      x y z
#    x 1.641820 0.000000 0.000000 
#    y 0.000000 1.598590 0.000000 
#    z 0.000000 0.000000 1.642320 
# 
# From -- ./inp_files/21430.got.cif
#   From: 2010.05.17/outbox.cif.g08.bks.cpg/sg54_11_cif.got.tgz:21430.got - 2010.06.03 13:09:01.
