data_PCOD9420925
_publ_section_title
;
Structure prediction by ZEFSAII (Michael W. Deem and Ramdas Pophale) SiO2 
 PCOD9420925
Probable space group: P C C A
;
_chemical_formula_sum "Si O2"
_cell_formula_units_Z 60
_cell_length_a 5.253494
_cell_length_b 19.383053
_cell_length_c 25.167193
_cell_angle_alpha 90.000000
_cell_angle_beta 90.000000
_cell_angle_gamma 90.000000
_cell_volume 2562.743871
_symmetry_space_group_name_H-M "P C C A"
_symmetry_group_IT_number 54
_symmetry_cell_setting 'orthorhombic'
loop_
_space_group_symop_operation_xyz
x,y,z
1/2-x,-y,z
1/2+x,-y,1/2-z
-x,y,1/2-z
-x,-y,-z
1/2+x,y,-z
1/2-x,y,1/2+z
x,-y,1/2+z
loop_
_atom_site_type_symbol
_atom_site_label
_atom_site_fract_x
_atom_site_fract_y
_atom_site_fract_z
Si Si1 0.714070 0.582890 0.533645
Si Si2 0.029808 0.294636 0.189181
Si Si3 0.354933 0.929937 0.450934
Si Si4 0.650215 0.892249 0.893872
Si Si5 0.500000 0.455355 0.250000
Si Si6 0.644047 0.210266 0.479190
Si Si7 0.040836 0.357483 0.851952
Si Si8 0.262031 0.855363 0.218906
O O1 0.750000 0.500000 0.540790
O O2 0.489570 0.600832 0.491515
O O3 0.623060 0.613045 0.590723
O O4 0.249319 0.331923 0.154780
O O5 0.124463 0.217130 0.198132
O O6 0.000000 0.323518 0.250000
O O7 0.753515 0.299766 0.162325
O O8 0.619643 0.932976 0.421036
O O9 0.376122 0.863988 0.489472
O O10 0.131283 0.913937 0.409680
O O11 0.250000 0.000000 0.476862
O O12 0.674591 0.814081 0.918832
O O13 0.687793 0.897741 0.832286
O O14 0.250000 0.500000 0.238077
O O15 0.562205 0.411532 0.196948
O O16 0.382645 0.246111 0.494045
O O17 0.500000 0.887691 0.250000
O O18 0.000000 0.842433 0.250000
#
# Coordination Sequence:
#
# PCOD9420925 Si02
#       8
#     8   8   8   8   4   8   8   8
#     4  10  22  40  61  85 119 170 219 244 274 347
#     4  11  21  39  61  91 116 148 196 252 326 368
#     4  10  19  32  55  86 116 146 181 225 288 365
#     4  10  20  34  54  80 111 144 188 232 285 331
#     4  12  24  36  56  94 136 166 188 236 324 384
#     4   8  16  28  47  76 109 139 170 217 275 343
#     4  12  22  39  63  90 128 159 198 260 309 365
#     4  11  23  40  63  84 109 149 203 251 288 352
#
# _framework density 23.412405
#
# number of rings (size 3 to 8) (size 9 to 14) (size 15 to 20)
#    0.000    1.600    1.333    4.800    0.000    6.400 
#    0.000    0.000    0.000   22.400    0.000    0.000 
#    0.000    0.000    0.000    0.000    0.000    0.000 
#
# Total GULP energy -335235.312996 kJ/mol
# GULP energy per Si atom -5587.255217 kJ/mol
# Density = 2.335912 g / cm^3
# Si number density = 23.412405 Si / 1000 Ang^3
#
#
#
# Elastic Constant Matrix: (Units=GPa)
#
#
# Indices 1 2 3 4 5 6 
#
# 1 173.7172 5.8208 38.7146 0.0000 0.0000 0.0000
# 2 5.8208 36.1328 20.1976 0.0000 0.0000 0.0000
# 3 38.7146 20.1976 129.4160 0.0000 0.0000 0.0000
# 4 0.0000 0.0000 0.0000 4.6596 0.0000 0.0000
# 5 0.0000 0.0000 0.0000 0.0000 33.0152 0.0000
# 6 0.0000 0.0000 0.0000 0.0000 0.0000 -0.8265
#
#
#
# Elastic Compliance Matrix: (Units=1/GPa)
#
#
# Indices 1 2 3 4 5 6 
#
# 1 0.006168 0.000041 -0.001852 0.000000 0.000000 0.000000
# 2 0.000041 0.030321 -0.004745 0.000000 0.000000 0.000000
# 3 -0.001852 -0.004745 0.009021 0.000000 0.000000 0.000000
# 4 0.000000 0.000000 0.000000 0.214609 0.000000 0.000000
# 5 0.000000 0.000000 0.000000 0.000000 0.030289 0.000000
# 6 0.000000 0.000000 0.000000 0.000000 0.000000 -1.209962
#
#
# Mechanical properties :
#
#
# Convention : Reuss Voigt Hill
#
# Bulk Modulus (GPa) = 30.86333 52.08133 41.47233
# Shear Modulus (GPa) = -5.58258 25.67186 10.04464
#
# Velocity S-wave (km/s) = -1.54584 3.31495 2.07355
# Velocity P-wave (km/s) = 3.16621 6.07827 4.84614
#
# Compressibility (1/GPa) = 0.03240091
#
# Stress axis : x y z
#
# Youngs Moduli (GPa) = 162.13428 32.98031 110.84802
#
# Poissons Ratio (x) = -0.00136 0.20524
# Poissons Ratio (y) = -0.00671 0.52592
# Poissons Ratio (z) = 0.30020 0.15648
#
# Static dielectric constant tensor:
#      x y z
#    x 1.873830 0.000000 0.000000 
#    y 0.000000 1.958380 0.000000 
#    z 0.000000 0.000000 1.906440 
# 
# From -- ./inp_files/19890.got.cif
#   From: 2010.05.17/outbox.cif.g08.bks.cpg/sg54_10_cif.got.tgz:19890.got - 2010.06.03 13:09:01.
