data_PCOD9420160
_publ_section_title
;
Structure prediction by ZEFSAII (Michael W. Deem and Ramdas Pophale) SiO2 
 PCOD9420160
Probable space group: P M N A
;
_chemical_formula_sum "Si O2"
_cell_formula_units_Z 48
_cell_length_a 9.000000
_cell_length_b 18.000000
_cell_length_c 15.000000
_cell_angle_alpha 90.000000
_cell_angle_beta 90.000000
_cell_angle_gamma 90.000000
_cell_volume 2430.000000
_symmetry_space_group_name_H-M "P M N A"
_symmetry_group_IT_number 53
_symmetry_cell_setting 'orthorhombic'
loop_
_space_group_symop_operation_xyz
x,y,z
1/2-x,-y,1/2+z
x,-y,-z
1/2-x,y,1/2-z
-x,-y,-z
1/2+x,y,1/2-z
-x,y,z
1/2+x,-y,1/2+z
loop_
_atom_site_type_symbol
_atom_site_label
_atom_site_fract_x
_atom_site_fract_y
_atom_site_fract_z
Si Si1 0.321689 0.463378 0.348289
Si Si2 0.321734 0.390856 0.536279
Si Si3 0.823451 0.817012 0.657981
Si Si4 0.822637 0.759861 0.472387
Si Si5 0.327969 0.986631 0.893864
Si Si6 0.825630 0.869849 0.160542
O O1 0.250000 0.452501 0.250000
O O2 0.500000 0.456689 0.337899
O O3 0.278007 0.411926 0.433797
O O4 0.289602 0.544106 0.392521
O O5 0.500000 0.380903 0.535619
O O6 0.238031 0.316939 0.564199
O O7 0.750000 0.796377 0.750000
O O8 0.776501 0.766875 0.575388
O O9 0.790891 0.902536 0.631964
O O10 0.000000 0.811588 0.667005
O O11 0.749700 0.827767 0.420967
O O12 0.000000 0.765608 0.466526
O O13 0.500000 0.001959 0.866912
O O14 0.216790 0.044014 0.849169
O O15 0.320841 0.000000 0.000000
O O16 0.750000 0.840620 0.250000
O O17 0.000000 0.858716 0.161920
#
# Coordination Sequence:
#
# PCOD9420160 Si02
#       6
#     8   8   8   8   8   8
#     4   9  19  37  62  88 119 152 190 232 281 337
#     4   9  20  39  59  85 119 156 189 232 285 341
#     4  10  22  38  58  82 113 152 193 239 294 346
#     4  11  23  41  60  84 118 157 195 240 293 347
#     4  10  19  38  62  83 114 151 190 246 300 347
#     4  12  25  40  60  86 115 152 198 246 296 354
#
# _framework density 19.753086
#
# number of rings (size 3 to 8) (size 9 to 14) (size 15 to 20)
#    0.000    1.833    1.667    3.500    0.000    6.333 
#    0.000    6.667    0.000    0.000    0.000    0.000 
#    0.000    0.000    0.000    0.000    0.000    0.000 
#
# Total GULP energy -267936.888181 kJ/mol
# GULP energy per Si atom -5582.018504 kJ/mol
# Density = 1.970813 g / cm^3
# Si number density = 19.753086 Si / 1000 Ang^3
#
#
#
# Elastic Constant Matrix: (Units=GPa)
#
#
# Indices 1 2 3 4 5 6 
#
# 1 32.2775 19.6690 17.4458 0.0000 0.0000 0.0000
# 2 19.6690 41.5196 -13.7481 0.0000 0.0000 0.0000
# 3 17.4458 -13.7481 71.3946 0.0000 0.0000 0.0000
# 4 0.0000 0.0000 0.0000 2.7057 0.0000 0.0000
# 5 0.0000 0.0000 0.0000 0.0000 122.8872 0.0000
# 6 0.0000 0.0000 0.0000 0.0000 0.0000 40.4266
#
#
#
# Elastic Compliance Matrix: (Units=1/GPa)
#
#
# Indices 1 2 3 4 5 6 
#
# 1 0.069579 -0.041220 -0.024940 0.000000 0.000000 0.000000
# 2 -0.041220 0.050145 0.019728 0.000000 0.000000 0.000000
# 3 -0.024940 0.019728 0.023900 0.000000 0.000000 0.000000
# 4 0.000000 0.000000 0.000000 0.369594 0.000000 0.000000
# 5 0.000000 0.000000 0.000000 0.000000 0.008138 0.000000
# 6 0.000000 0.000000 0.000000 0.000000 0.000000 0.024736
#
#
# Mechanical properties :
#
#
# Convention : Reuss Voigt Hill
#
# Bulk Modulus (GPa) = 19.69991 21.32501 20.51246
# Shear Modulus (GPa) = 7.62341 41.32555 24.47448
#
# Velocity S-wave (km/s) = 1.96665 4.57892 3.52379
# Velocity P-wave (km/s) = 3.89252 6.22692 5.19260
#
# Compressibility (1/GPa) = 0.05076164
#
# Stress axis : x y z
#
# Youngs Moduli (GPa) = 14.37208 19.94229 41.84124
#
# Poissons Ratio (x) = 0.82202 1.04351
# Poissons Ratio (y) = 0.59242 -0.82546
# Poissons Ratio (z) = 0.35844 -0.39343
#
# Static dielectric constant tensor:
#      x y z
#    x 1.616040 0.000000 0.000000 
#    y 0.000000 1.698930 0.000000 
#    z 0.000000 0.000000 1.701380 
# 
# From -- ./inp_files/20154.got.cif
#   From: 2010.05.17/outbox.ucp.g08.bks.cvg/sg53_11_cif.got.tgz:20154.got - 2010.06.11 16:32:34.
