data_PCOD9420005
_publ_section_title
;
Structure prediction by ZEFSAII (Michael W. Deem and Ramdas Pophale) SiO2 
 PCOD9420005
Probable space group: P M N A
;
_chemical_formula_sum "Si O2"
_cell_formula_units_Z 48
_cell_length_a 31.660130
_cell_length_b 8.535224
_cell_length_c 8.699693
_cell_angle_alpha 90.000000
_cell_angle_beta 90.000000
_cell_angle_gamma 90.000000
_cell_volume 2350.885863
_symmetry_space_group_name_H-M "P M N A"
_symmetry_group_IT_number 53
_symmetry_cell_setting 'orthorhombic'
loop_
_space_group_symop_operation_xyz
x,y,z
1/2-x,-y,1/2+z
x,-y,-z
1/2-x,y,1/2-z
-x,-y,-z
1/2+x,y,1/2-z
-x,y,z
1/2+x,-y,1/2+z
loop_
_atom_site_type_symbol
_atom_site_label
_atom_site_fract_x
_atom_site_fract_y
_atom_site_fract_z
Si Si1 0.302115 0.392808 0.135682
Si Si2 0.390426 0.176563 0.830938
Si Si3 0.332964 0.383899 0.629014
Si Si4 0.952722 0.957783 0.822021
Si Si5 0.239534 0.826214 0.066214
Si Si6 0.875327 0.835485 0.683327
O O1 0.297585 0.517317 0.274266
O O2 0.335807 0.273392 0.205055
O O3 0.320921 0.500000 0.000000
O O4 0.266942 0.291369 0.044286
O O5 0.369265 0.316098 0.738185
O O6 0.361792 0.018542 0.811042
O O7 0.434771 0.109952 0.768640
O O8 0.391727 0.201751 0.011886
O O9 0.349756 0.500000 0.500000
O O10 0.308004 0.238406 0.557360
O O11 0.916171 0.829577 0.792017
O O12 0.000000 0.915179 0.772898
O O13 0.953082 0.000000 0.000000
O O14 0.250000 0.826727 0.250000
O O15 0.244627 0.000000 0.000000
#
# Coordination Sequence:
#
# PCOD9420005 Si02
#       6
#     8   8   8   8   8   8
#     4  12  24  44  67  90 134 171 221 277 340 396
#     4   9  20  39  61  94 125 170 224 261 322 391
#     4  12  28  43  65  96 132 174 223 276 343 402
#     4   9  19  35  64 102 136 166 218 274 327 396
#     4  12  29  45  66  91 128 174 229 283 333 393
#     4   9  20  36  67  90 125 173 220 265 321 389
#
# _framework density 20.417835
#
# number of rings (size 3 to 8) (size 9 to 14) (size 15 to 20)
#    1.000    0.500    3.333    0.500    9.333    2.000 
#    0.000    0.000    0.000    2.000    0.000    0.000 
#    0.000    0.000    0.000    0.000    0.000    0.000 
#
# Total GULP energy -267435.924400 kJ/mol
# GULP energy per Si atom -5571.581758 kJ/mol
# Density = 2.037136 g / cm^3
# Si number density = 20.417835 Si / 1000 Ang^3
#
#
#
# Elastic Constant Matrix: (Units=GPa)
#
#
# Indices 1 2 3 4 5 6 
#
# 1 55.4820 2.3444 10.1178 0.0000 0.0000 0.0000
# 2 2.3444 58.7400 26.9954 0.0000 0.0000 0.0000
# 3 10.1178 26.9954 81.2087 0.0000 0.0000 0.0000
# 4 0.0000 0.0000 0.0000 41.4898 0.0000 0.0000
# 5 0.0000 0.0000 0.0000 0.0000 27.7746 0.0000
# 6 0.0000 0.0000 0.0000 0.0000 0.0000 -1.6977
#
#
#
# Elastic Compliance Matrix: (Units=1/GPa)
#
#
# Indices 1 2 3 4 5 6 
#
# 1 0.018450 0.000378 -0.002424 0.000000 0.000000 0.000000
# 2 0.000378 0.020102 -0.006729 0.000000 0.000000 0.000000
# 3 -0.002424 -0.006729 0.014853 0.000000 0.000000 0.000000
# 4 0.000000 0.000000 0.000000 0.024102 0.000000 0.000000
# 5 0.000000 0.000000 0.000000 0.000000 0.036004 0.000000
# 6 0.000000 0.000000 0.000000 0.000000 0.000000 -0.589028
#
#
# Mechanical properties :
#
#
# Convention : Reuss Voigt Hill
#
# Bulk Modulus (GPa) = 27.89160 30.48288 29.18724
# Shear Modulus (GPa) = -11.21040 23.91153 6.35057
#
# Velocity S-wave (km/s) = -2.34572 3.42586 1.76552
# Velocity P-wave (km/s) = 2.52062 5.53269 4.29908
#
# Compressibility (1/GPa) = 0.03585309
#
# Stress axis : x y z
#
# Youngs Moduli (GPa) = 54.20056 49.74703 67.32667
#
# Poissons Ratio (x) = -0.01879 0.16322
# Poissons Ratio (y) = -0.02048 0.45306
# Poissons Ratio (z) = 0.13140 0.33476
#
# Static dielectric constant tensor:
#      x y z
#    x 1.723060 0.000000 0.000000 
#    y 0.000000 1.759890 0.000000 
#    z 0.000000 0.000000 1.777610 
# 
# From -- ./inp_files/12984.got.cif
#   From: 2010.05.17/outbox.cif.g08.bks.cpg/sg53_7_cif.got.tgz:12984.got - 2010.06.03 12:45:16.
