data_PCOD9420601
_publ_section_title
;
Structure prediction by ZEFSAII (Michael W. Deem and Ramdas Pophale) SiO2 
 PCOD9420601
Probable space group: P C C A
;
_chemical_formula_sum "Si O2"
_cell_formula_units_Z 56
_cell_length_a 21.075697
_cell_length_b 8.706715
_cell_length_c 15.080885
_cell_angle_alpha 90.000000
_cell_angle_beta 90.000000
_cell_angle_gamma 90.000000
_cell_volume 2767.343713
_symmetry_space_group_name_H-M "P C C A"
_symmetry_group_IT_number 54
_symmetry_cell_setting 'orthorhombic'
loop_
_space_group_symop_operation_xyz
x,y,z
1/2-x,-y,z
1/2+x,-y,1/2-z
-x,y,1/2-z
-x,-y,-z
1/2+x,y,-z
1/2-x,y,1/2+z
x,-y,1/2+z
loop_
_atom_site_type_symbol
_atom_site_label
_atom_site_fract_x
_atom_site_fract_y
_atom_site_fract_z
Si Si1 0.093134 0.993221 0.098863
Si Si2 0.687598 0.910843 0.044083
Si Si3 0.019881 0.191599 0.341926
Si Si4 0.050562 0.641388 0.127048
Si Si5 0.595774 0.367785 0.178226
Si Si6 0.631423 0.976828 0.712757
Si Si7 0.119257 0.389989 0.454445
O O1 0.063308 0.823694 0.112537
O O2 0.140517 0.004305 0.182958
O O3 0.129274 0.992786 0.006525
O O4 0.040135 0.123572 0.106911
O O5 0.675916 0.730514 0.025079
O O6 0.750000 0.000000 0.014711
O O7 0.679139 0.935279 0.148886
O O8 0.064926 0.292140 0.402950
O O9 0.000000 0.273450 0.250000
O O10 0.062222 0.049106 0.307651
O O11 0.082807 0.589329 0.219118
O O12 0.974868 0.629162 0.135184
O O13 0.085141 0.558524 0.045111
O O14 0.626703 0.200061 0.185578
O O15 0.636307 0.477964 0.115021
#
# Coordination Sequence:
#
# PCOD9420601 Si02
#       7
#     8   8   8   8   8   8   8
#     4   9  17  33  55  78 105 140 176 218 264 329
#     4  10  22  37  53  75 102 139 188 230 261 302
#     4   9  17  30  50  80 113 135 171 215 269 326
#     4   9  18  30  50  75 113 141 168 202 267 336
#     4  10  18  32  49  77 110 143 168 207 270 331
#     4   9  18  33  54  77 105 142 172 215 271 328
#     4  10  21  32  51  79 110 140 175 220 261 321
#
# _framework density 20.236011000000001
#
# number of rings (size 3 to 8) (size 9 to 14) (size 15 to 20)
#    0.000    2.571    1.429    0.429    4.000    2.286 
#    0.000    0.714    0.000    0.000    0.000    6.000 
#    0.000    0.000    0.000    0.000    0.000    0.000 
#
# Total GULP energy -312320.588356 kJ/mol
# GULP energy per Si atom -5577.153363 kJ/mol
# Density = 2.018995 g / cm^3
# Si number density = 20.236011 Si / 1000 Ang^3
#
#
#
# Elastic Constant Matrix: (Units=GPa)
#
#
# Indices 1 2 3 4 5 6 
#
# 1 28.5992 -2.0454 -2.8455 0.0000 0.0000 0.0000
# 2 -2.0454 40.9576 7.2896 0.0000 0.0000 0.0000
# 3 -2.8455 7.2896 75.3353 0.0000 0.0000 0.0000
# 4 0.0000 0.0000 0.0000 24.5677 0.0000 0.0000
# 5 0.0000 0.0000 0.0000 0.0000 13.1249 0.0000
# 6 0.0000 0.0000 0.0000 0.0000 0.0000 16.8915
#
#
#
# Elastic Compliance Matrix: (Units=1/GPa)
#
#
# Indices 1 2 3 4 5 6 
#
# 1 0.035194 0.001548 0.001180 0.000000 0.000000 0.000000
# 2 0.001548 0.024911 -0.002352 0.000000 0.000000 0.000000
# 3 0.001180 -0.002352 0.013546 0.000000 0.000000 0.000000
# 4 0.000000 0.000000 0.000000 0.040704 0.000000 0.000000
# 5 0.000000 0.000000 0.000000 0.000000 0.076191 0.000000
# 6 0.000000 0.000000 0.000000 0.000000 0.000000 0.059201
#
#
# Mechanical properties :
#
#
# Convention : Reuss Voigt Hill
#
# Bulk Modulus (GPa) = 13.44052 16.63217 15.03635
# Shear Modulus (GPa) = 18.26164 20.41638 19.33901
#
# Velocity S-wave (km/s) = 3.00731 3.17979 3.09475
# Velocity P-wave (km/s) = 4.32607 4.66029 4.49629
#
# Compressibility (1/GPa) = 0.07440189
#
# Stress axis : x y z
#
# Youngs Moduli (GPa) = 28.41388 40.14224 73.82187
#
# Poissons Ratio (x) = -0.06212 -0.08708
# Poissons Ratio (y) = -0.04397 0.17363
# Poissons Ratio (z) = -0.03352 0.09442
#
# Static dielectric constant tensor:
#      x y z
#    x 1.709850 0.000000 0.000000 
#    y 0.000000 1.756550 0.000000 
#    z 0.000000 0.000000 1.761300 
# 
# From -- ./inp_files/14679.got.cif
#   From: 2010.05.17/outbox.cif.g08.bks.cpg/sg54_8_cif.got.tgz:14679.got - 2010.06.03 13:09:01.
