data_PCOD9420565
_publ_section_title
;
Structure prediction by ZEFSAII (Michael W. Deem and Ramdas Pophale) SiO2 
 PCOD9420565
Probable space group: P C C A
;
_chemical_formula_sum "Si O2"
_cell_formula_units_Z 60
_cell_length_a 20.999071
_cell_length_b 8.725870
_cell_length_c 14.512527
_cell_angle_alpha 90.000000
_cell_angle_beta 90.000000
_cell_angle_gamma 90.000000
_cell_volume 2659.205260
_symmetry_space_group_name_H-M "P C C A"
_symmetry_group_IT_number 54
_symmetry_cell_setting 'orthorhombic'
loop_
_space_group_symop_operation_xyz
x,y,z
1/2-x,-y,z
1/2+x,-y,1/2-z
-x,y,1/2-z
-x,-y,-z
1/2+x,y,-z
1/2-x,y,1/2+z
x,-y,1/2+z
loop_
_atom_site_type_symbol
_atom_site_label
_atom_site_fract_x
_atom_site_fract_y
_atom_site_fract_z
Si Si1 0.536289 0.767432 0.446724
Si Si2 0.572219 0.136572 0.267168
Si Si3 0.800254 0.371793 0.568919
Si Si4 0.638946 0.931697 0.584591
Si Si5 0.500000 0.735698 0.250000
Si Si6 0.602348 0.482359 0.211636
Si Si7 0.605196 0.800811 0.968736
Si Si8 0.859894 0.527307 0.903947
O O1 0.583441 0.857155 0.517335
O O2 0.527976 0.820564 0.339924
O O3 0.466270 0.771571 0.491919
O O4 0.571670 0.605129 0.428244
O O5 0.500000 0.096189 0.250000
O O6 0.612946 0.055842 0.187953
O O7 0.574654 0.320907 0.247533
O O8 0.596638 0.116303 0.370350
O O9 0.750000 0.500000 0.598125
O O10 0.803547 0.191131 0.590698
O O11 0.863998 0.438976 0.617342
O O12 0.807697 0.378988 0.459211
O O13 0.645890 0.097013 0.538891
O O14 0.552499 0.619677 0.206795
O O15 0.649264 0.528367 0.294937
O O16 0.638689 0.642037 0.944810
#
# Coordination Sequence:
#
# PCOD9420565 Si02
#       8
#     8   8   8   8   4   8   8   8
#     4  10  19  30  49  80 116 154 188 225 280 350
#     4  10  18  30  51  74 114 157 187 219 282 353
#     4  10  21  39  60  79 107 147 196 251 298 342
#     4  10  22  36  50  82 115 149 199 234 282 358
#     4  10  18  30  52  84 118 146 186 238 288 348
#     4   9  18  32  53  84 112 147 188 232 292 359
#     4  11  20  33  53  78 114 156 188 229 285 352
#     4   9  20  34  54  80 109 145 193 240 288 344
#
# _framework density 22.563133000000001
#
# number of rings (size 3 to 8) (size 9 to 14) (size 15 to 20)
#    0.000    2.133    2.000    1.600    0.000    1.600 
#    0.000    2.000    0.000    0.000    0.000    5.600 
#    0.000    0.000    0.000    0.000    0.000    0.000 
#
# Total GULP energy -334744.663224 kJ/mol
# GULP energy per Si atom -5579.077720 kJ/mol
# Density = 2.251178 g / cm^3
# Si number density = 22.563133 Si / 1000 Ang^3
#
#
#
# Elastic Constant Matrix: (Units=GPa)
#
#
# Indices 1 2 3 4 5 6 
#
# 1 33.1219 4.1082 1.5927 0.0000 0.0000 0.0000
# 2 4.1082 55.6589 17.4197 0.0000 0.0000 0.0000
# 3 1.5927 17.4197 141.8431 0.0000 0.0000 0.0000
# 4 0.0000 0.0000 0.0000 -22.5237 0.0000 0.0000
# 5 0.0000 0.0000 0.0000 0.0000 9.3227 0.0000
# 6 0.0000 0.0000 0.0000 0.0000 0.0000 0.5185
#
#
#
# Elastic Compliance Matrix: (Units=1/GPa)
#
#
# Indices 1 2 3 4 5 6 
#
# 1 0.030471 -0.002228 -0.000069 0.000000 0.000000 0.000000
# 2 -0.002228 0.018848 -0.002290 0.000000 0.000000 0.000000
# 3 -0.000069 -0.002290 0.007332 0.000000 0.000000 0.000000
# 4 0.000000 0.000000 0.000000 -0.044398 0.000000 0.000000
# 5 0.000000 0.000000 0.000000 0.000000 0.107265 0.000000
# 6 0.000000 0.000000 0.000000 0.000000 0.000000 1.928726
#
#
# Mechanical properties :
#
#
# Convention : Reuss Voigt Hill
#
# Bulk Modulus (GPa) = 21.06194 30.76278 25.91236
# Shear Modulus (GPa) = 2.41168 11.29705 6.85436
#
# Velocity S-wave (km/s) = 1.03498 2.24003 1.74484
# Velocity P-wave (km/s) = 3.28377 4.51154 3.94570
#
# Compressibility (1/GPa) = 0.04747901
#
# Stress axis : x y z
#
# Youngs Moduli (GPa) = 32.81796 53.05716 136.38830
#
# Poissons Ratio (x) = 0.11819 0.00935
# Poissons Ratio (y) = 0.07311 0.31228
# Poissons Ratio (z) = 0.00225 0.12148
#
# Static dielectric constant tensor:
#      x y z
#    x 1.849900 0.000000 0.000000 
#    y 0.000000 1.924510 0.000000 
#    z 0.000000 0.000000 1.839810 
# 
# From -- ./inp_files/14978.got.cif
#   From: 2010.05.17/outbox.cif.g08.bks.cpg/sg54_8_cif.got.tgz:14978.got - 2010.06.03 13:09:01.
