data_PCOD9420149
_publ_section_title
;
Structure prediction by ZEFSAII (Michael W. Deem and Ramdas Pophale) SiO2 
 PCOD9420149
Probable space group: P M N A
;
_chemical_formula_sum "Si O2"
_cell_formula_units_Z 60
_cell_length_a 15.000000
_cell_length_b 12.000000
_cell_length_c 18.000000
_cell_angle_alpha 90.000000
_cell_angle_beta 90.000000
_cell_angle_gamma 90.000000
_cell_volume 3240.000000
_symmetry_space_group_name_H-M "P M N A"
_symmetry_group_IT_number 53
_symmetry_cell_setting 'orthorhombic'
loop_
_space_group_symop_operation_xyz
x,y,z
1/2-x,-y,1/2+z
x,-y,-z
1/2-x,y,1/2-z
-x,-y,-z
1/2+x,y,1/2-z
-x,y,z
1/2+x,-y,1/2+z
loop_
_atom_site_type_symbol
_atom_site_label
_atom_site_fract_x
_atom_site_fract_y
_atom_site_fract_z
Si Si1 0.743557 0.440711 0.423695
Si Si2 0.395494 0.600522 0.705020
Si Si3 0.239068 0.024342 0.366728
Si Si4 0.250000 0.220471 0.250000
Si Si5 0.269645 0.201203 0.009704
Si Si6 0.602786 0.425535 0.836241
Si Si7 0.396756 0.903942 0.437326
Si Si8 0.893423 0.824790 0.369487
O O1 0.717630 0.500000 0.500000
O O2 0.660253 0.431077 0.368105
O O3 0.773126 0.314151 0.442687
O O4 0.823750 0.514159 0.388098
O O5 0.500000 0.630074 0.692774
O O6 0.336557 0.700079 0.741658
O O7 0.393173 0.495001 0.760132
O O8 0.244948 0.132755 0.316269
O O9 0.218831 0.087069 0.444231
O O10 0.334296 0.960489 0.373926
O O11 0.164140 0.933207 0.344541
O O12 0.170900 0.189400 0.971211
O O13 0.347575 0.202607 0.948784
O O14 0.500000 0.435477 0.865091
O O15 0.619600 0.293034 0.826356
O O16 0.500000 0.872143 0.418461
O O17 0.404422 0.000000 0.500000
O O18 0.000000 0.847122 0.372724
#
# Coordination Sequence:
#
# PCOD9420149 Si02
#       8
#     8   8   8   4   8   8   8   8
#     4  12  22  39  65  93 129 160 207 271 318 372
#     4  11  24  43  67  92 124 167 209 258 318 378
#     4  10  21  36  58  87 121 159 208 247 307 365
#     4  12  22  42  62  90 126 166 210 260 306 366
#     4  10  19  35  58  90 122 156 199 251 313 370
#     4  10  21  40  65  91 123 167 213 255 319 388
#     4   8  16  32  54  79 110 151 192 237 293 354
#     4  10  21  38  61  91 125 159 202 257 308 370
#
# _framework density 18.518519000000001
#
# number of rings (size 3 to 8) (size 9 to 14) (size 15 to 20)
#    0.000    1.733    4.000    1.200    0.000    3.733 
#    2.400    0.000    0.000    0.000    0.000    0.000 
#    0.000    0.000    0.000    0.000    0.000    0.000 
#
# Total GULP energy -334275.074993 kJ/mol
# GULP energy per Si atom -5571.251250 kJ/mol
# Density = 1.847637 g / cm^3
# Si number density = 18.518519 Si / 1000 Ang^3
#
#
#
# Elastic Constant Matrix: (Units=GPa)
#
#
# Indices 1 2 3 4 5 6 
#
# 1 114.5344 21.2357 -6.3052 0.0000 0.0000 0.0000
# 2 21.2357 102.9998 1.2722 0.0000 0.0000 0.0000
# 3 -6.3052 1.2722 30.9678 0.0000 0.0000 0.0000
# 4 0.0000 0.0000 0.0000 40.6030 0.0000 0.0000
# 5 0.0000 0.0000 0.0000 0.0000 15.1934 0.0000
# 6 0.0000 0.0000 0.0000 0.0000 0.0000 28.5064
#
#
#
# Elastic Compliance Matrix: (Units=1/GPa)
#
#
# Indices 1 2 3 4 5 6 
#
# 1 0.009194 -0.001920 0.001951 0.000000 0.000000 0.000000
# 2 -0.001920 0.010115 -0.000806 0.000000 0.000000 0.000000
# 3 0.001951 -0.000806 0.032722 0.000000 0.000000 0.000000
# 4 0.000000 0.000000 0.000000 0.024629 0.000000 0.000000
# 5 0.000000 0.000000 0.000000 0.000000 0.065818 0.000000
# 6 0.000000 0.000000 0.000000 0.000000 0.000000 0.035080
#
#
# Mechanical properties :
#
#
# Convention : Reuss Voigt Hill
#
# Bulk Modulus (GPa) = 19.80969 31.21193 25.51081
# Shear Modulus (GPa) = 25.51873 32.34718 28.93295
#
# Velocity S-wave (km/s) = 3.71618 4.18395 3.95698
# Velocity P-wave (km/s) = 5.39758 6.34284 5.88920
#
# Compressibility (1/GPa) = 0.05048034
#
# Stress axis : x y z
#
# Youngs Moduli (GPa) = 108.76268 98.86785 30.56052
#
# Poissons Ratio (x) = 0.18980 -0.05962
# Poissons Ratio (y) = 0.20879 0.02464
# Poissons Ratio (z) = -0.21218 0.07973
#
# Static dielectric constant tensor:
#      x y z
#    x 1.624760 0.000000 0.000000 
#    y 0.000000 1.634220 0.000000 
#    z 0.000000 0.000000 1.770610 
# 
# From -- ./inp_files/28509.got.cif
#   From: 2010.05.17/outbox.ucp.g08.bks.cvg/sg53_15_cif.got.tgz:28509.got - 2010.06.11 16:32:34.
