data_PCOD9420669
_publ_section_title
;
Structure prediction by ZEFSAII (Michael W. Deem and Ramdas Pophale) SiO2 
 PCOD9420669
Probable space group: P C C A
;
_chemical_formula_sum "Si O2"
_cell_formula_units_Z 48
_cell_length_a 5.047182
_cell_length_b 18.287170
_cell_length_c 26.045444
_cell_angle_alpha 90.000000
_cell_angle_beta 90.000000
_cell_angle_gamma 90.000000
_cell_volume 2403.959978
_symmetry_space_group_name_H-M "P C C A"
_symmetry_group_IT_number 54
_symmetry_cell_setting 'orthorhombic'
loop_
_space_group_symop_operation_xyz
x,y,z
1/2-x,-y,z
1/2+x,-y,1/2-z
-x,y,1/2-z
-x,-y,-z
1/2+x,y,-z
1/2-x,y,1/2+z
x,-y,1/2+z
loop_
_atom_site_type_symbol
_atom_site_label
_atom_site_fract_x
_atom_site_fract_y
_atom_site_fract_z
Si Si1 0.750000 0.000000 0.213688
Si Si2 0.750000 0.500000 0.962458
Si Si3 0.105317 0.225700 0.118634
Si Si4 0.867182 0.848246 0.163034
Si Si5 0.368453 0.653457 0.193891
Si Si6 0.296281 0.337846 0.034971
Si Si7 0.750000 0.500000 0.786348
Si Si8 0.500000 0.248396 0.250000
O O1 0.658698 0.067745 0.178608
O O2 0.500000 0.979854 0.250000
O O3 0.743395 0.581903 0.938145
O O4 0.500000 0.500000 0.000000
O O5 0.341871 0.178384 0.144832
O O6 0.003095 0.295451 0.152183
O O7 0.223895 0.268064 0.069772
O O8 0.847824 0.174416 0.120201
O O9 0.812162 0.805553 0.217514
O O10 0.500000 0.653230 0.250000
O O11 0.327992 0.569821 0.180918
O O12 0.100873 0.696525 0.206467
O O13 0.593613 0.335442 0.013143
O O14 0.500000 0.519452 0.750000
#
# Coordination Sequence:
#
# PCOD9420669 Si02
#       8
#     4   4   8   8   8   8   4   4
#     4  12  24  38  60  88 120 162 190 230 294 358
#     4   8  16  31  56  83 114 150 186 245 312 355
#     4  11  23  36  59  86 113 152 194 238 289 345
#     4  11  23  37  56  86 116 148 192 225 284 349
#     4  10  19  32  49  70 109 147 185 228 267 319
#     4  10  20  38  60  86 119 154 198 252 307 351
#     4  10  20  31  44  67  98 150 196 223 260 307
#     4  10  18  34  50  74 108 150 178 228 266 326
#
# _framework density 19.967054999999998
#
# number of rings (size 3 to 8) (size 9 to 14) (size 15 to 20)
#    0.000    1.667    3.333    2.000    2.333    0.667 
#    0.000    0.000    0.000    7.000    0.000   11.667 
#    0.000    0.000    0.000    0.000    0.000    0.000 
#
# Total GULP energy -267207.272538 kJ/mol
# GULP energy per Si atom -5566.818178 kJ/mol
# Density = 1.992161 g / cm^3
# Si number density = 19.967055 Si / 1000 Ang^3
#
#
#
# Elastic Constant Matrix: (Units=GPa)
#
#
# Indices 1 2 3 4 5 6 
#
# 1 80.6625 5.0594 -4.7121 0.0000 0.0000 0.0000
# 2 5.0594 138.0279 18.6004 0.0000 0.0000 0.0000
# 3 -4.7121 18.6004 35.9147 0.0000 0.0000 0.0000
# 4 0.0000 0.0000 0.0000 10.2143 0.0000 0.0000
# 5 0.0000 0.0000 0.0000 0.0000 14.5908 0.0000
# 6 0.0000 0.0000 0.0000 0.0000 0.0000 24.2045
#
#
#
# Elastic Compliance Matrix: (Units=1/GPa)
#
#
# Indices 1 2 3 4 5 6 
#
# 1 0.012562 -0.000734 0.002028 0.000000 0.000000 0.000000
# 2 -0.000734 0.007831 -0.004152 0.000000 0.000000 0.000000
# 3 0.002028 -0.004152 0.030260 0.000000 0.000000 0.000000
# 4 0.000000 0.000000 0.000000 0.097902 0.000000 0.000000
# 5 0.000000 0.000000 0.000000 0.000000 0.068537 0.000000
# 6 0.000000 0.000000 0.000000 0.000000 0.000000 0.041315
#
#
# Mechanical properties :
#
#
# Convention : Reuss Voigt Hill
#
# Bulk Modulus (GPa) = 22.25293 32.50007 27.37650
# Shear Modulus (GPa) = 17.91464 25.51240 21.71352
#
# Velocity S-wave (km/s) = 2.99860 3.57841 3.30125
# Velocity P-wave (km/s) = 4.81225 5.77802 5.31711
#
# Compressibility (1/GPa) = 0.04493790
#
# Stress axis : x y z
#
# Youngs Moduli (GPa) = 79.60621 127.69196 33.04663
#
# Poissons Ratio (x) = 0.09370 -0.06702
# Poissons Ratio (y) = 0.05841 0.13721
# Poissons Ratio (z) = -0.16145 0.53020
#
# Static dielectric constant tensor:
#      x y z
#    x 1.780700 0.000000 0.000000 
#    y 0.000000 1.747050 0.000000 
#    z 0.000000 0.000000 1.740150 
# 
# From -- ./inp_files/27193.got.cif
#   From: 2010.05.17/outbox.cif.g08.bks.cpg/sg54_14_cif.got.tgz:27193.got - 2010.06.03 13:09:01.
