data_PCOD9420135
_publ_section_title
;
Structure prediction by ZEFSAII (Michael W. Deem and Ramdas Pophale) SiO2 
 PCOD9420135
Probable space group: P M N A
;
_chemical_formula_sum "Si O2"
_cell_formula_units_Z 48
_cell_length_a 9.000000
_cell_length_b 9.000000
_cell_length_c 30.000000
_cell_angle_alpha 90.000000
_cell_angle_beta 90.000000
_cell_angle_gamma 90.000000
_cell_volume 2430.000000
_symmetry_space_group_name_H-M "P M N A"
_symmetry_group_IT_number 53
_symmetry_cell_setting 'orthorhombic'
loop_
_space_group_symop_operation_xyz
x,y,z
1/2-x,-y,1/2+z
x,-y,-z
1/2-x,y,1/2-z
-x,-y,-z
1/2+x,y,1/2-z
-x,y,z
1/2+x,-y,1/2+z
loop_
_atom_site_type_symbol
_atom_site_label
_atom_site_fract_x
_atom_site_fract_y
_atom_site_fract_z
Si Si1 0.822911 0.642543 0.650264
Si Si2 0.835163 0.859330 0.789995
Si Si3 0.162378 0.074237 0.874050
Si Si4 0.326365 0.658203 0.114802
Si Si5 0.674432 0.191158 0.432588
Si Si6 0.327047 0.671253 0.015330
O O1 0.753581 0.716967 0.693333
O O2 0.768671 0.475075 0.644183
O O3 0.768140 0.720934 0.604679
O O4 0.000000 0.653804 0.652533
O O5 0.750000 0.936221 0.750000
O O6 0.000000 0.820546 0.775649
O O7 0.843400 0.959089 0.833810
O O8 0.292447 0.185991 0.863878
O O9 0.000000 0.147991 0.876914
O O10 0.189467 0.980572 0.918786
O O11 0.500000 0.629466 0.108587
O O12 0.262815 0.669858 0.065056
O O13 0.500000 0.228666 0.428152
O O14 0.735247 0.232517 0.480588
O O15 0.500000 0.721067 0.015409
O O16 0.325817 0.500000 0.000000
#
# Coordination Sequence:
#
# PCOD9420135 Si02
#       6
#     8   8   8   8   8   8
#     4  10  19  35  57  81 110 143 178 224 271 319
#     4  10  21  39  62  88 110 138 178 219 268 329
#     4   9  21  38  54  77 113 146 178 223 275 327
#     4  10  21  35  54  80 109 145 187 225 273 326
#     4  10  20  34  52  78 107 145 191 229 270 322
#     4  10  19  34  52  75 109 146 189 237 275 318
#
# _framework density 19.753086
#
# number of rings (size 3 to 8) (size 9 to 14) (size 15 to 20)
#    0.000    2.167    1.667    2.500    0.000    7.000 
#    0.000    4.167    0.000    2.000    0.000    0.000 
#    0.000    0.000    0.000    0.000    0.000    0.000 
#
# Total GULP energy -267275.875595 kJ/mol
# GULP energy per Si atom -5568.247408 kJ/mol
# Density = 1.970813 g / cm^3
# Si number density = 19.753086 Si / 1000 Ang^3
#
#
#
# Elastic Constant Matrix: (Units=GPa)
#
#
# Indices 1 2 3 4 5 6 
#
# 1 48.9980 17.7600 12.9958 0.0000 0.0000 0.0000
# 2 17.7600 32.5073 12.9475 0.0000 0.0000 0.0000
# 3 12.9958 12.9475 26.7856 0.0000 0.0000 0.0000
# 4 0.0000 0.0000 0.0000 -4.5189 0.0000 0.0000
# 5 0.0000 0.0000 0.0000 0.0000 28.3783 0.0000
# 6 0.0000 0.0000 0.0000 0.0000 0.0000 1.9884
#
#
#
# Elastic Compliance Matrix: (Units=1/GPa)
#
#
# Indices 1 2 3 4 5 6 
#
# 1 0.026544 -0.011607 -0.007268 0.000000 0.000000 0.000000
# 2 -0.011607 0.043173 -0.015237 0.000000 0.000000 0.000000
# 3 -0.007268 -0.015237 0.048225 0.000000 0.000000 0.000000
# 4 0.000000 0.000000 0.000000 -0.221293 0.000000 0.000000
# 5 0.000000 0.000000 0.000000 0.000000 0.035238 0.000000
# 6 0.000000 0.000000 0.000000 0.000000 0.000000 0.502914
#
#
# Mechanical properties :
#
#
# Convention : Reuss Voigt Hill
#
# Bulk Modulus (GPa) = 20.11378 21.74418 20.92898
# Shear Modulus (GPa) = 9.62283 9.47540 9.54911
#
# Velocity S-wave (km/s) = 2.20956 2.19256 2.20108
# Velocity P-wave (km/s) = 4.08830 4.17632 4.13255
#
# Compressibility (1/GPa) = 0.04971717
#
# Stress axis : x y z
#
# Youngs Moduli (GPa) = 37.67345 23.16278 20.73615
#
# Poissons Ratio (x) = 0.26886 0.15071
# Poissons Ratio (y) = 0.43728 0.31596
# Poissons Ratio (z) = 0.27381 0.35293
#
# Static dielectric constant tensor:
#      x y z
#    x 3.546730 0.000000 0.000000 
#    y 0.000000 1.738870 0.000000 
#    z 0.000000 0.000000 1.809300 
# 
# From -- ./inp_files/37679.got.cif
#   From: 2010.05.17/outbox.ucp.g08.bks.cvg/sg53_19_cif.got.tgz:37679.got - 2010.06.11 16:32:34.
