data_PCOD9420483
_publ_section_title
;
Structure prediction by ZEFSAII (Michael W. Deem and Ramdas Pophale) SiO2 
 PCOD9420483
Probable space group: P C C A
;
_chemical_formula_sum "Si O2"
_cell_formula_units_Z 64
_cell_length_a 13.090441
_cell_length_b 7.363239
_cell_length_c 27.670847
_cell_angle_alpha 90.000000
_cell_angle_beta 90.000000
_cell_angle_gamma 90.000000
_cell_volume 2667.138865
_symmetry_space_group_name_H-M "P C C A"
_symmetry_group_IT_number 54
_symmetry_cell_setting 'orthorhombic'
loop_
_space_group_symop_operation_xyz
x,y,z
1/2-x,-y,z
1/2+x,-y,1/2-z
-x,y,1/2-z
-x,-y,-z
1/2+x,y,-z
1/2-x,y,1/2+z
x,-y,1/2+z
loop_
_atom_site_type_symbol
_atom_site_label
_atom_site_fract_x
_atom_site_fract_y
_atom_site_fract_z
Si Si1 0.320131 0.230492 0.547311
Si Si2 0.860490 0.821943 0.144884
Si Si3 0.924149 0.845238 0.854297
Si Si4 0.647014 0.778848 0.175284
Si Si5 0.933911 0.724408 0.327297
Si Si6 0.613168 0.368963 0.432184
Si Si7 0.262228 0.219072 0.724018
Si Si8 0.936446 0.872335 0.037413
O O1 0.391170 0.152339 0.589859
O O2 0.352807 0.440833 0.547159
O O3 0.201852 0.221332 0.560087
O O4 0.337004 0.161073 0.493956
O O5 0.746814 0.738767 0.142212
O O6 0.900699 0.899021 0.093014
O O7 0.943865 0.694722 0.171212
O O8 0.854621 0.000832 0.177605
O O9 0.834316 0.754929 0.822748
O O10 0.032406 0.745832 0.843979
O O11 0.928593 0.056787 0.837921
O O12 0.678320 0.713716 0.228540
O O13 0.897146 0.619702 0.374762
O O14 0.850404 0.698061 0.285578
O O15 0.509711 0.300804 0.455841
O O16 0.250000 0.000000 0.727466
O O17 0.000000 0.000000 0.000000
#
# Coordination Sequence:
#
# PCOD9420483 Si02
#       8
#     8   8   8   8   8   8   8   8
#     4  11  22  38  60  85 115 162 197 247 298 357
#     4   9  19  33  49  79 122 151 183 231 303 349
#     4  10  20  32  55  87 117 149 197 243 305 342
#     4  10  18  32  49  84 120 151 184 241 300 365
#     4   9  18  33  55  82 114 147 193 249 290 346
#     4  10  22  39  57  85 118 153 203 245 294 358
#     4  10  17  29  53  85 115 148 188 247 300 350
#     4  11  23  38  60  88 119 155 198 251 302 358
#
# _framework density 23.995752
#
# number of rings (size 3 to 8) (size 9 to 14) (size 15 to 20)
#    0.000    2.000    2.500    3.000    0.000    5.000 
#    0.000    0.000    0.000    2.250   19.500    0.000 
#    0.000    0.000    0.000    0.000    0.000    0.000 
#
# Total GULP energy -356990.263365 kJ/mol
# GULP energy per Si atom -5577.972865 kJ/mol
# Density = 2.394114 g / cm^3
# Si number density = 23.995752 Si / 1000 Ang^3
#
#
#
# Elastic Constant Matrix: (Units=GPa)
#
#
# Indices 1 2 3 4 5 6 
#
# 1 141.1480 5.0822 54.4272 0.0000 0.0000 0.0000
# 2 5.0822 46.5835 11.6568 0.0000 0.0000 0.0000
# 3 54.4272 11.6568 136.6174 0.0000 0.0000 0.0000
# 4 0.0000 0.0000 0.0000 14.5418 0.0000 0.0000
# 5 0.0000 0.0000 0.0000 0.0000 41.6814 0.0000
# 6 0.0000 0.0000 0.0000 0.0000 0.0000 9.4795
#
#
#
# Elastic Compliance Matrix: (Units=1/GPa)
#
#
# Indices 1 2 3 4 5 6 
#
# 1 0.008371 -0.000080 -0.003328 0.000000 0.000000 0.000000
# 2 -0.000080 0.021936 -0.001840 0.000000 0.000000 0.000000
# 3 -0.003328 -0.001840 0.008803 0.000000 0.000000 0.000000
# 4 0.000000 0.000000 0.000000 0.068768 0.000000 0.000000
# 5 0.000000 0.000000 0.000000 0.000000 0.023992 0.000000
# 6 0.000000 0.000000 0.000000 0.000000 0.000000 0.105491
#
#
# Mechanical properties :
#
#
# Convention : Reuss Voigt Hill
#
# Bulk Modulus (GPa) = 34.94893 51.85348 43.40121
# Shear Modulus (GPa) = 19.42551 30.01936 24.72243
#
# Velocity S-wave (km/s) = 2.84833 3.54082 3.21329
# Velocity P-wave (km/s) = 5.04118 6.19459 5.64741
#
# Compressibility (1/GPa) = 0.02861318
#
# Stress axis : x y z
#
# Youngs Moduli (GPa) = 119.46045 45.58727 113.60347
#
# Poissons Ratio (x) = 0.00367 0.37808
# Poissons Ratio (y) = 0.00961 0.20899
# Poissons Ratio (z) = 0.39757 0.08386
#
# Static dielectric constant tensor:
#      x y z
#    x 1.994750 0.000000 0.000000 
#    y 0.000000 1.995860 0.000000 
#    z 0.000000 0.000000 1.867090 
# 
# From -- ./inp_files/24541.got.cif
#   From: 2010.05.17/outbox.cif.g08.bks.cpg/sg54_13_cif.got.tgz:24541.got - 2010.06.03 13:09:01.
