data_PCOD9420561
_publ_section_title
;
Structure prediction by ZEFSAII (Michael W. Deem and Ramdas Pophale) SiO2 
 PCOD9420561
Probable space group: P C C A
;
_chemical_formula_sum "Si O2"
_cell_formula_units_Z 60
_cell_length_a 8.318705
_cell_length_b 21.140129
_cell_length_c 13.572351
_cell_angle_alpha 90.000000
_cell_angle_beta 90.000000
_cell_angle_gamma 90.000000
_cell_volume 2386.813245
_symmetry_space_group_name_H-M "P C C A"
_symmetry_group_IT_number 54
_symmetry_cell_setting 'orthorhombic'
loop_
_space_group_symop_operation_xyz
x,y,z
1/2-x,-y,z
1/2+x,-y,1/2-z
-x,y,1/2-z
-x,-y,-z
1/2+x,y,-z
1/2-x,y,1/2+z
x,-y,1/2+z
loop_
_atom_site_type_symbol
_atom_site_label
_atom_site_fract_x
_atom_site_fract_y
_atom_site_fract_z
Si Si1 0.490481 0.592120 0.956418
Si Si2 0.702269 0.678680 0.045703
Si Si3 0.094518 0.731974 0.158000
Si Si4 0.916536 0.041002 0.888524
Si Si5 0.292585 0.809512 0.917881
Si Si6 0.081766 0.077637 0.382929
Si Si7 0.728525 0.154996 0.850693
Si Si8 0.250000 0.500000 0.062198
O O1 0.372877 0.649471 0.922460
O O2 0.625925 0.553316 0.893884
O O3 0.573168 0.623314 0.053850
O O4 0.365016 0.540994 0.993727
O O5 0.682443 0.690718 0.926283
O O6 0.677294 0.747453 0.091733
O O7 0.228631 0.780026 0.202520
O O8 0.000000 0.702285 0.250000
O O9 0.966322 0.780794 0.107946
O O10 0.866951 0.103617 0.832264
O O11 0.750000 0.000000 0.894470
O O12 0.948714 0.066347 0.999573
O O13 0.059182 0.995447 0.850908
O O14 0.232302 0.875442 0.871564
O O15 0.284473 0.824723 0.034295
O O16 0.934814 0.117088 0.339071
#
# Coordination Sequence:
#
# PCOD9420561 Si02
#       8
#     8   8   8   8   8   8   8   4
#     4   9  16  29  52  84 118 141 175 221 264 300
#     4  10  18  31  54  79 110 144 186 220 263 318
#     4  11  23  36  49  74 111 146 177 224 281 329
#     4   8  14  25  45  78 100 120 160 227 287 331
#     4  10  18  30  49  76 102 136 180 221 270 323
#     4   9  16  26  47  72 100 122 170 228 275 322
#     4   9  17  31  52  71  98 133 173 220 273 337
#     4   8  16  28  48  88 124 134 168 226 268 292
#
# _framework density 25.138121000000002
#
# number of rings (size 3 to 8) (size 9 to 14) (size 15 to 20)
#    0.000    2.667    1.333    2.400    1.867    1.067 
#    0.000    0.667    0.000    4.800    0.000    5.600 
#    0.000    0.000    0.000    0.000    0.000    0.000 
#
# Total GULP energy -334161.619951 kJ/mol
# GULP energy per Si atom -5569.360333 kJ/mol
# Density = 2.508091 g / cm^3
# Si number density = 25.138121 Si / 1000 Ang^3
#
#
#
# Elastic Constant Matrix: (Units=GPa)
#
#
# Indices 1 2 3 4 5 6 
#
# 1 105.8868 51.9637 28.6743 0.0000 0.0000 0.0000
# 2 51.9637 157.3247 37.8274 0.0000 0.0000 0.0000
# 3 28.6743 37.8274 90.4261 0.0000 0.0000 0.0000
# 4 0.0000 0.0000 0.0000 5.0257 0.0000 0.0000
# 5 0.0000 0.0000 0.0000 0.0000 26.7077 0.0000
# 6 0.0000 0.0000 0.0000 0.0000 0.0000 55.6637
#
#
#
# Elastic Compliance Matrix: (Units=1/GPa)
#
#
# Indices 1 2 3 4 5 6 
#
# 1 0.011695 -0.003303 -0.002327 0.000000 0.000000 0.000000
# 2 -0.003303 0.008000 -0.002299 0.000000 0.000000 0.000000
# 3 -0.002327 -0.002299 0.012758 0.000000 0.000000 0.000000
# 4 0.000000 0.000000 0.000000 0.198979 0.000000 0.000000
# 5 0.000000 0.000000 0.000000 0.000000 0.037442 0.000000
# 6 0.000000 0.000000 0.000000 0.000000 0.000000 0.017965
#
#
# Mechanical properties :
#
#
# Convention : Reuss Voigt Hill
#
# Bulk Modulus (GPa) = 60.25822 65.61872 62.93847
# Shear Modulus (GPa) = 16.22164 33.15755 24.68960
#
# Velocity S-wave (km/s) = 2.54303 3.63576 3.13734
# Velocity P-wave (km/s) = 5.71363 6.61702 6.18185
#
# Compressibility (1/GPa) = 0.01659525
#
# Stress axis : x y z
#
# Youngs Moduli (GPa) = 85.50458 124.99660 78.38014
#
# Poissons Ratio (x) = 0.41292 0.18236
# Poissons Ratio (y) = 0.28246 0.18021
# Poissons Ratio (z) = 0.19894 0.28739
#
# Static dielectric constant tensor:
#      x y z
#    x 2.117100 0.000000 0.000000 
#    y 0.000000 2.154760 0.000000 
#    z 0.000000 0.000000 2.029780 
# 
# From -- ./inp_files/11927.got.cif
#   From: 2010.05.17/outbox.cif.g08.bks.cpg/sg54_6_cif.got.tgz:11927.got - 2010.06.03 13:09:01.
