data_PCOD9420370
_publ_section_title
;
Structure prediction by ZEFSAII (Michael W. Deem and Ramdas Pophale) SiO2 
 PCOD9420370
Probable space group: P C C A
;
_chemical_formula_sum "Si O2"
_cell_formula_units_Z 32
_cell_length_a 5.047492
_cell_length_b 19.495168
_cell_length_c 13.917527
_cell_angle_alpha 90.000000
_cell_angle_beta 90.000000
_cell_angle_gamma 90.000000
_cell_volume 1369.508379
_symmetry_space_group_name_H-M "P C C A"
_symmetry_group_IT_number 54
_symmetry_cell_setting 'orthorhombic'
loop_
_space_group_symop_operation_xyz
x,y,z
1/2-x,-y,z
1/2+x,-y,1/2-z
-x,y,1/2-z
-x,-y,-z
1/2+x,y,-z
1/2-x,y,1/2+z
x,-y,1/2+z
loop_
_atom_site_type_symbol
_atom_site_label
_atom_site_fract_x
_atom_site_fract_y
_atom_site_fract_z
Si Si1 0.750000 0.500000 0.819337
Si Si2 0.769563 0.147486 0.565751
Si Si3 0.464630 0.287403 0.863244
Si Si4 0.466704 0.639501 0.633280
Si Si5 0.750000 0.000000 0.070832
O O1 0.500000 0.481194 0.750000
O O2 0.843270 0.435119 0.881151
O O3 0.567754 0.148406 0.474582
O O4 0.673995 0.214366 0.621452
O O5 0.740201 0.074414 0.620618
O O6 0.500000 0.296141 0.750000
O O7 0.760312 0.302018 0.899881
O O8 0.260693 0.344509 0.901608
O O9 0.500000 0.642746 0.750000
O O10 0.500000 0.000000 0.000000
#
# Coordination Sequence:
#
# PCOD9420370 Si02
#       5
#     4   8   8   8   4
#     4  10  16  26  44  68  96 128 164 202 242 290
#     4  10  19  33  53  75  97 130 170 206 241 290
#     4  10  19  31  48  73 103 129 156 201 254 294
#     4   9  17  28  44  69  99 128 158 199 248 289
#     4   8  16  30  50  72  94 120 160 204 236 270
#
# _framework density 23.366050999999999
#
# number of rings (size 3 to 8) (size 9 to 14) (size 15 to 20)
#    0.000    2.500    0.000    5.250    0.000    0.000 
#    0.000    0.000    0.000   13.500    0.000   17.500 
#    0.000    0.000    0.000    0.000    0.000    0.000 
#
# Total GULP energy -178480.717067 kJ/mol
# GULP energy per Si atom -5577.522408 kJ/mol
# Density = 2.331287 g / cm^3
# Si number density = 23.366051 Si / 1000 Ang^3
#
#
#
# Elastic Constant Matrix: (Units=GPa)
#
#
# Indices 1 2 3 4 5 6 
#
# 1 103.3070 48.6496 -6.6080 0.0000 0.0000 0.0000
# 2 48.6496 186.8961 -0.9893 0.0000 0.0000 0.0000
# 3 -6.6080 -0.9893 45.5573 0.0000 0.0000 0.0000
# 4 0.0000 0.0000 0.0000 -56.3731 0.0000 0.0000
# 5 0.0000 0.0000 0.0000 0.0000 3.0063 0.0000
# 6 0.0000 0.0000 0.0000 0.0000 0.0000 31.7193
#
#
#
# Elastic Compliance Matrix: (Units=1/GPa)
#
#
# Indices 1 2 3 4 5 6 
#
# 1 0.011141 -0.002892 0.001553 0.000000 0.000000 0.000000
# 2 -0.002892 0.006102 -0.000287 0.000000 0.000000 0.000000
# 3 0.001553 -0.000287 0.022169 0.000000 0.000000 0.000000
# 4 0.000000 0.000000 0.000000 -0.017739 0.000000 0.000000
# 5 0.000000 0.000000 0.000000 0.000000 0.332630 0.000000
# 6 0.000000 0.000000 0.000000 0.000000 0.000000 0.031527
#
#
# Mechanical properties :
#
#
# Convention : Reuss Voigt Hill
#
# Bulk Modulus (GPa) = 27.65403 46.42945 37.04174
# Shear Modulus (GPa) = 12.46465 15.31772 13.89118
#
# Velocity S-wave (km/s) = 2.31216 2.56316 2.44089
# Velocity P-wave (km/s) = 4.35763 5.35475 4.88171
#
# Compressibility (1/GPa) = 0.03616110
#
# Stress axis : x y z
#
# Youngs Moduli (GPa) = 89.75803 163.88617 45.10718
#
# Poissons Ratio (x) = 0.47393 -0.07006
# Poissons Ratio (y) = 0.25956 0.01294
# Poissons Ratio (z) = -0.13941 0.04703
#
# Static dielectric constant tensor:
#      x y z
#    x 1.863790 0.000000 0.000000 
#    y 0.000000 1.973000 0.000000 
#    z 0.000000 0.000000 1.872400 
# 
# From -- ./inp_files/15779.got.cif
#   From: 2010.05.17/outbox.cif.g08.bks.cpg/sg54_8_cif.got.tgz:15779.got - 2010.06.03 13:09:01.
