data_PCOD9420368
_publ_section_title
;
Structure prediction by ZEFSAII (Michael W. Deem and Ramdas Pophale) SiO2 
 PCOD9420368
Probable space group: P C C A
;
_chemical_formula_sum "Si O2"
_cell_formula_units_Z 40
_cell_length_a 13.448292
_cell_length_b 23.444507
_cell_length_c 5.560769
_cell_angle_alpha 90.000000
_cell_angle_beta 90.000000
_cell_angle_gamma 90.000000
_cell_volume 1753.246939
_symmetry_space_group_name_H-M "P C C A"
_symmetry_group_IT_number 54
_symmetry_cell_setting 'orthorhombic'
loop_
_space_group_symop_operation_xyz
x,y,z
1/2-x,-y,z
1/2+x,-y,1/2-z
-x,y,1/2-z
-x,-y,-z
1/2+x,y,-z
1/2-x,y,1/2+z
x,-y,1/2+z
loop_
_atom_site_type_symbol
_atom_site_label
_atom_site_fract_x
_atom_site_fract_y
_atom_site_fract_z
Si Si1 0.135028 0.977699 0.849797
Si Si2 0.861554 0.522926 0.775504
Si Si3 0.000000 0.125379 0.250000
Si Si4 0.359727 0.342288 0.641149
Si Si5 0.000000 0.193807 0.750000
Si Si6 0.367713 0.298062 0.142796
O O1 0.098833 0.914149 0.783556
O O2 0.250000 0.000000 0.866734
O O3 0.095918 0.012179 0.618693
O O4 0.750000 0.500000 0.757615
O O5 0.902954 0.507677 0.513317
O O6 0.857244 0.590496 0.811585
O O7 0.987550 0.159508 0.500295
O O8 0.402761 0.333141 0.376079
O O9 0.249661 0.313374 0.625853
O O10 0.406227 0.314364 0.878752
O O11 0.095807 0.234625 0.705328
#
# Coordination Sequence:
#
# PCOD9420368 Si02
#       6
#     8   8   4   8   4   8
#     4  10  21  41  68  98 127 163 201 234 288 361
#     4  10  16  25  46  82 108 129 179 250 305 350
#     4  12  24  43  64  90 128 159 200 256 292 336
#     4  10  19  35  57  80 107 152 194 246 297 352
#     4  12  26  41  60  90 120 161 198 242 292 332
#     4  10  20  37  55  78 112 151 201 237 284 352
#
# _framework density 22.814812
#
# number of rings (size 3 to 8) (size 9 to 14) (size 15 to 20)
#    0.000    1.600    0.000    9.000    0.000    0.000 
#    0.000   24.000    0.000    0.000    0.000   51.800 
#    0.000    0.000    0.000    0.000    0.000    0.000 
#
# Total GULP energy -222940.476367 kJ/mol
# GULP energy per Si atom -5573.511909 kJ/mol
# Density = 2.276288 g / cm^3
# Si number density = 22.814812 Si / 1000 Ang^3
#
#
#
# Elastic Constant Matrix: (Units=GPa)
#
#
# Indices 1 2 3 4 5 6 
#
# 1 123.7340 37.2235 57.2908 0.0000 0.0000 0.0000
# 2 37.2235 160.2845 91.5069 0.0000 0.0000 0.0000
# 3 57.2908 91.5069 296.7546 0.0000 0.0000 0.0000
# 4 0.0000 0.0000 0.0000 58.7897 0.0000 0.0000
# 5 0.0000 0.0000 0.0000 0.0000 20.5574 0.0000
# 6 0.0000 0.0000 0.0000 0.0000 0.0000 49.9860
#
#
#
# Elastic Compliance Matrix: (Units=1/GPa)
#
#
# Indices 1 2 3 4 5 6 
#
# 1 0.009109 -0.001349 -0.001343 0.000000 0.000000 0.000000
# 2 -0.001349 0.007772 -0.002136 0.000000 0.000000 0.000000
# 3 -0.001343 -0.002136 0.004288 0.000000 0.000000 0.000000
# 4 0.000000 0.000000 0.000000 0.017010 0.000000 0.000000
# 5 0.000000 0.000000 0.000000 0.000000 0.048644 0.000000
# 6 0.000000 0.000000 0.000000 0.000000 0.000000 0.020006
#
#
# Mechanical properties :
#
#
# Convention : Reuss Voigt Hill
#
# Bulk Modulus (GPa) = 86.85582 105.86840 96.36211
# Shear Modulus (GPa) = 41.55536 52.18340 46.86938
#
# Velocity S-wave (km/s) = 4.27244 4.78772 4.53740
# Velocity P-wave (km/s) = 7.90512 8.77879 8.35338
#
# Compressibility (1/GPa) = 0.01151333
#
# Stress axis : x y z
#
# Youngs Moduli (GPa) = 109.77736 128.67279 233.22728
#
# Poissons Ratio (x) = 0.17358 0.31315
# Poissons Ratio (y) = 0.14809 0.49818
# Poissons Ratio (z) = 0.14739 0.27485
#
# Static dielectric constant tensor:
#      x y z
#    x 1.867250 0.000000 0.000000 
#    y 0.000000 1.825260 0.000000 
#    z 0.000000 0.000000 1.896110 
# 
# From -- ./inp_files/949.got.cif
#   From: 2010.05.17/outbox.cif.g08.bks.cpg/sg54_1_cif.got.tgz:949.got - 2010.06.03 13:09:01.
