data_PCOD9420392
_publ_section_title
;
Structure prediction by ZEFSAII (Michael W. Deem and Ramdas Pophale) SiO2 
 PCOD9420392
Probable space group: P C C A
;
_chemical_formula_sum "Si O2"
_cell_formula_units_Z 32
_cell_length_a 5.252869
_cell_length_b 10.955126
_cell_length_c 23.997328
_cell_angle_alpha 90.000000
_cell_angle_beta 90.000000
_cell_angle_gamma 90.000000
_cell_volume 1380.946440
_symmetry_space_group_name_H-M "P C C A"
_symmetry_group_IT_number 54
_symmetry_cell_setting 'orthorhombic'
loop_
_space_group_symop_operation_xyz
x,y,z
1/2-x,-y,z
1/2+x,-y,1/2-z
-x,y,1/2-z
-x,-y,-z
1/2+x,y,-z
1/2-x,y,1/2+z
x,-y,1/2+z
loop_
_atom_site_type_symbol
_atom_site_label
_atom_site_fract_x
_atom_site_fract_y
_atom_site_fract_z
Si Si1 0.969769 0.338792 0.035185
Si Si2 0.660295 0.643437 0.693797
Si Si3 0.833188 0.371578 0.349111
Si Si4 0.500889 0.946457 0.063129
O O1 0.041945 0.406042 0.091942
O O2 0.992727 0.197630 0.054510
O O3 0.192794 0.361243 0.990294
O O4 0.750000 0.500000 0.691560
O O5 0.500000 0.669570 0.750000
O O6 0.450892 0.684368 0.647347
O O7 0.942468 0.698638 0.683414
O O8 0.750000 0.500000 0.320835
O O9 0.750000 0.000000 0.091254
O O10 0.250000 0.000000 0.090716
O O11 0.500000 0.000000 0.000000
#
# Coordination Sequence:
#
# PCOD9420392 Si02
#       4
#     8   8   8   8
#     4  12  21  32  50  70 104 148 169 202 252 299
#     4  10  18  34  56  74  94 127 168 221 269 290
#     4  10  22  34  47  75 107 133 174 209 240 314
#     4  10  16  30  48  69  90 125 167 225 251 276
#
# _framework density 23.172512000000001
#
# number of rings (size 3 to 8) (size 9 to 14) (size 15 to 20)
#    0.000    1.500    5.000    4.500    0.000    1.000 
#    0.000    0.000    0.000    0.000    0.000    0.000 
#    0.000   20.000    0.000    0.000    0.000    0.000 
#
# Total GULP energy -178278.973649 kJ/mol
# GULP energy per Si atom -5571.217927 kJ/mol
# Density = 2.311977 g / cm^3
# Si number density = 23.172512 Si / 1000 Ang^3
#
#
#
# Elastic Constant Matrix: (Units=GPa)
#
#
# Indices 1 2 3 4 5 6 
#
# 1 250.5602 -3.3876 37.9911 0.0000 0.0000 0.0000
# 2 -3.3876 50.6948 -11.2997 0.0000 0.0000 0.0000
# 3 37.9911 -11.2997 90.0531 0.0000 0.0000 0.0000
# 4 0.0000 0.0000 0.0000 -3.1589 0.0000 0.0000
# 5 0.0000 0.0000 0.0000 0.0000 23.5024 0.0000
# 6 0.0000 0.0000 0.0000 0.0000 0.0000 15.1849
#
#
#
# Elastic Compliance Matrix: (Units=1/GPa)
#
#
# Indices 1 2 3 4 5 6 
#
# 1 0.004264 -0.000119 -0.001814 0.000000 0.000000 0.000000
# 2 -0.000119 0.020297 0.002597 0.000000 0.000000 0.000000
# 3 -0.001814 0.002597 0.012196 0.000000 0.000000 0.000000
# 4 0.000000 0.000000 0.000000 -0.316564 0.000000 0.000000
# 5 0.000000 0.000000 0.000000 0.000000 0.042549 0.000000
# 6 0.000000 0.000000 0.000000 0.000000 0.000000 0.065855
#
#
# Mechanical properties :
#
#
# Convention : Reuss Voigt Hill
#
# Bulk Modulus (GPa) = 26.25741 48.65732 37.45736
# Shear Modulus (GPa) = -31.24302 31.63928 0.19813
#
# Velocity S-wave (km/s) = -3.67588 3.69911 0.29272
# Velocity P-wave (km/s) = 2.58074 6.26802 4.03905
#
# Compressibility (1/GPa) = 0.03808449
#
# Stress axis : x y z
#
# Youngs Moduli (GPa) = 234.49410 49.26884 81.99576
#
# Poissons Ratio (x) = 0.00588 0.14875
# Poissons Ratio (y) = 0.02799 -0.21296
# Poissons Ratio (z) = 0.42539 -0.12796
#
# Static dielectric constant tensor:
#      x y z
#    x 2.073400 0.000000 0.000000 
#    y 0.000000 1.934610 0.000000 
#    z 0.000000 0.000000 1.891510 
# 
# From -- ./inp_files/22652.got.cif
#   From: 2010.05.17/outbox.cif.g08.bks.cpg/sg54_12_cif.got.tgz:22652.got - 2010.06.03 13:09:01.
