data_PCOD9420082
_publ_section_title
;
Structure prediction by ZEFSAII (Michael W. Deem and Ramdas Pophale) SiO2 
 PCOD9420082
Probable space group: P M N A
;
_chemical_formula_sum "Si O2"
_cell_formula_units_Z 64
_cell_length_a 9.000000
_cell_length_b 21.000000
_cell_length_c 18.000000
_cell_angle_alpha 90.000000
_cell_angle_beta 90.000000
_cell_angle_gamma 90.000000
_cell_volume 3402.000000
_symmetry_space_group_name_H-M "P M N A"
_symmetry_group_IT_number 53
_symmetry_cell_setting 'orthorhombic'
loop_
_space_group_symop_operation_xyz
x,y,z
1/2-x,-y,1/2+z
x,-y,-z
1/2-x,y,1/2-z
-x,-y,-z
1/2+x,y,1/2-z
-x,y,z
1/2+x,-y,1/2+z
loop_
_atom_site_type_symbol
_atom_site_label
_atom_site_fract_x
_atom_site_fract_y
_atom_site_fract_z
Si Si1 0.178939 0.310513 0.042698
Si Si2 0.677087 0.740818 0.382263
Si Si3 0.330964 0.434081 0.540468
Si Si4 0.166076 0.876987 0.939616
Si Si5 0.167183 0.994184 0.590375
Si Si6 0.825884 0.614560 0.322636
Si Si7 0.331083 0.238654 0.325241
Si Si8 0.675365 0.135121 0.904727
O O1 0.242385 0.291730 0.121942
O O2 0.000000 0.302292 0.048820
O O3 0.219761 0.270619 0.969269
O O4 0.210879 0.381730 0.019977
O O5 0.500000 0.737088 0.375704
O O6 0.752978 0.683559 0.338513
O O7 0.736921 0.810029 0.362674
O O8 0.333420 0.500000 0.500000
O O9 0.500000 0.418233 0.567006
O O10 0.219068 0.428143 0.607711
O O11 0.167389 0.820194 0.881702
O O12 0.000000 0.883938 0.970829
O O13 0.215560 0.939641 0.895869
O O14 0.273770 0.865290 0.008938
O O15 0.204900 0.063263 0.621650
O O16 0.000000 0.976096 0.613000
O O17 0.164708 0.000000 0.500000
O O18 0.750000 0.587167 0.250000
O O19 0.000000 0.621227 0.313880
O O20 0.250000 0.224473 0.250000
O O21 0.500000 0.256002 0.306239
O O22 0.500000 0.146671 0.900868
#
# Coordination Sequence:
#
# PCOD9420082 Si02
#       8
#     8   8   8   8   8   8   8   8
#     4   8  15  31  51  72 103 134 168 214 260 308
#     4  10  18  32  54  78 105 138 174 219 269 316
#     4   9  18  35  61  88 113 148 185 219 268 317
#     4  10  18  29  45  65  92 127 170 220 270 322
#     4   8  16  28  41  63  95 126 158 205 261 316
#     4  11  22  37  57  84 116 149 185 223 268 320
#     4  10  20  33  47  68  96 133 175 221 271 317
#     4  10  18  28  45  72 102 130 165 211 267 325
#
# _framework density 18.812463000000001
#
# number of rings (size 3 to 8) (size 9 to 14) (size 15 to 20)
#    0.000    2.500    1.250    3.750    0.000    4.000 
#    0.000    1.250    0.000    2.250    0.000    1.750 
#    0.000    0.000    0.000    0.000    0.000    0.000 
#
# Total GULP energy -356272.187069 kJ/mol
# GULP energy per Si atom -5566.752923 kJ/mol
# Density = 1.876965 g / cm^3
# Si number density = 18.812463 Si / 1000 Ang^3
#
#
#
# Elastic Constant Matrix: (Units=GPa)
#
#
# Indices 1 2 3 4 5 6 
#
# 1 61.6609 37.0276 18.6765 0.0000 0.0000 0.0000
# 2 37.0276 76.1383 6.2694 0.0000 0.0000 0.0000
# 3 18.6765 6.2694 28.6061 0.0000 0.0000 0.0000
# 4 0.0000 0.0000 0.0000 -19.9507 0.0000 0.0000
# 5 0.0000 0.0000 0.0000 0.0000 10.4217 0.0000
# 6 0.0000 0.0000 0.0000 0.0000 0.0000 14.8507
#
#
#
# Elastic Compliance Matrix: (Units=1/GPa)
#
#
# Indices 1 2 3 4 5 6 
#
# 1 0.028605 -0.012601 -0.015914 0.000000 0.000000 0.000000
# 2 -0.012601 0.018926 0.004079 0.000000 0.000000 0.000000
# 3 -0.015914 0.004079 0.044454 0.000000 0.000000 0.000000
# 4 0.000000 0.000000 0.000000 -0.050123 0.000000 0.000000
# 5 0.000000 0.000000 0.000000 0.000000 0.095954 0.000000
# 6 0.000000 0.000000 0.000000 0.000000 0.000000 0.067337
#
#
# Mechanical properties :
#
#
# Convention : Reuss Voigt Hill
#
# Bulk Modulus (GPa) = 23.19493 32.26138 27.72816
# Shear Modulus (GPa) = 18.62935 8.02646 13.32790
#
# Velocity S-wave (km/s) = 3.15026 2.06781 2.66458
# Velocity P-wave (km/s) = 5.05851 4.78406 4.92320
#
# Compressibility (1/GPa) = 0.04311286
#
# Stress axis : x y z
#
# Youngs Moduli (GPa) = 34.95936 52.83712 22.49539
#
# Poissons Ratio (x) = 0.66578 0.35799
# Poissons Ratio (y) = 0.44051 -0.09176
# Poissons Ratio (z) = 0.55634 -0.21552
#
# Static dielectric constant tensor:
#      x y z
#    x 1.588750 0.000000 0.000000 
#    y 0.000000 1.671030 0.000000 
#    z 0.000000 0.000000 1.668270 
# 
# From -- ./inp_files/26914.got.cif
#   From: 2010.05.17/outbox.ucp.g08.bks.cvg/sg53_14_cif.got.tgz:26914.got - 2010.06.11 16:32:34.
