data_PCOD9420762
_publ_section_title
;
Structure prediction by ZEFSAII (Michael W. Deem and Ramdas Pophale) SiO2 
 PCOD9420762
Probable space group: P C C A
;
_chemical_formula_sum "Si O2"
_cell_formula_units_Z 64
_cell_length_a 24.358945
_cell_length_b 11.768731
_cell_length_c 12.420753
_cell_angle_alpha 90.000000
_cell_angle_beta 90.000000
_cell_angle_gamma 90.000000
_cell_volume 3560.705345
_symmetry_space_group_name_H-M "P C C A"
_symmetry_group_IT_number 54
_symmetry_cell_setting 'orthorhombic'
loop_
_space_group_symop_operation_xyz
x,y,z
1/2-x,-y,z
1/2+x,-y,1/2-z
-x,y,1/2-z
-x,-y,-z
1/2+x,y,-z
1/2-x,y,1/2+z
x,-y,1/2+z
loop_
_atom_site_type_symbol
_atom_site_label
_atom_site_fract_x
_atom_site_fract_y
_atom_site_fract_z
Si Si1 0.321288 0.098134 0.413466
Si Si2 0.141610 0.847761 0.176202
Si Si3 0.493895 0.776087 0.438561
Si Si4 0.595497 0.086355 0.898874
Si Si5 0.046503 0.316568 0.659433
Si Si6 0.615658 0.746514 0.203741
Si Si7 0.947349 0.572337 0.828237
Si Si8 0.203499 0.167379 0.459089
O O1 0.331159 0.117151 0.287889
O O2 0.372771 0.120241 0.491736
O O3 0.268931 0.173099 0.448289
O O4 0.309322 0.964469 0.430965
O O5 0.100828 0.744885 0.199982
O O6 0.108239 0.956522 0.130442
O O7 0.183258 0.814251 0.080934
O O8 0.531535 0.884625 0.414510
O O9 0.474336 0.756382 0.558820
O O10 0.439998 0.774213 0.363601
O O11 0.533564 0.668959 0.411350
O O12 0.618338 0.161938 0.799929
O O13 0.060168 0.446463 0.626312
O O14 0.000000 0.317302 0.750000
O O15 0.602878 0.625167 0.259777
O O16 0.667104 0.758602 0.123844
O O17 0.000000 0.564444 0.750000
#
# Coordination Sequence:
#
# PCOD9420762 Si02
#       8
#     8   8   8   8   8   8   8   8
#     4  10  22  36  56  83 113 144 188 240 280 335
#     4  11  22  36  52  85 116 145 188 225 287 348
#     4  10  19  35  56  80 116 151 190 226 276 347
#     4  10  21  35  55  85 118 150 183 225 288 340
#     4  11  21  33  51  82 118 151 184 229 285 331
#     4  10  18  37  58  83 106 148 196 226 278 342
#     4   8  18  33  55  79 105 146 192 230 266 327
#     4  10  21  36  58  79 106 150 189 234 280 334
#
# _framework density 17.973967999999999
#
# number of rings (size 3 to 8) (size 9 to 14) (size 15 to 20)
#    0.000    2.000    2.500    2.250    1.750    2.500 
#    0.000    0.000    0.000    0.750    0.000    0.000 
#    0.000    0.000    0.000    0.000    0.000    0.000 
#
# Total GULP energy -356891.415925 kJ/mol
# GULP energy per Si atom -5576.428374 kJ/mol
# Density = 1.793306 g / cm^3
# Si number density = 17.973968 Si / 1000 Ang^3
#
#
#
# Elastic Constant Matrix: (Units=GPa)
#
#
# Indices 1 2 3 4 5 6 
#
# 1 58.3562 13.7647 6.7929 0.0000 0.0000 0.0000
# 2 13.7647 43.4721 -1.7436 0.0000 0.0000 0.0000
# 3 6.7929 -1.7436 79.4758 0.0000 0.0000 0.0000
# 4 0.0000 0.0000 0.0000 9.7913 0.0000 0.0000
# 5 0.0000 0.0000 0.0000 0.0000 19.3328 0.0000
# 6 0.0000 0.0000 0.0000 0.0000 0.0000 -0.8835
#
#
#
# Elastic Compliance Matrix: (Units=1/GPa)
#
#
# Indices 1 2 3 4 5 6 
#
# 1 0.018755 -0.006008 -0.001735 0.000000 0.000000 0.000000
# 2 -0.006008 0.024948 0.001061 0.000000 0.000000 0.000000
# 3 -0.001735 0.001061 0.012754 0.000000 0.000000 0.000000
# 4 0.000000 0.000000 0.000000 0.102131 0.000000 0.000000
# 5 0.000000 0.000000 0.000000 0.000000 0.051726 0.000000
# 6 0.000000 0.000000 0.000000 0.000000 0.000000 -1.131880
#
#
# Mechanical properties :
#
#
# Convention : Reuss Voigt Hill
#
# Bulk Modulus (GPa) = 23.20553 24.32581 23.76567
# Shear Modulus (GPa) = -5.59386 16.48079 5.44346
#
# Velocity S-wave (km/s) = -1.76606 3.03136 1.74215
# Velocity P-wave (km/s) = 2.96311 5.08090 4.15906
#
# Compressibility (1/GPa) = 0.04309318
#
# Stress axis : x y z
#
# Youngs Moduli (GPa) = 53.31845 40.08305 78.40682
#
# Poissons Ratio (x) = 0.24082 0.13602
# Poissons Ratio (y) = 0.32034 -0.08318
# Poissons Ratio (z) = 0.09250 -0.04252
#
# Static dielectric constant tensor:
#      x y z
#    x 1.625520 0.000000 0.000000 
#    y 0.000000 1.617860 0.000000 
#    z 0.000000 0.000000 1.615850 
# 
# From -- ./inp_files/10068.got.cif
#   From: 2010.05.17/outbox.cif.g08.bks.cpg/sg54_6_cif.got.tgz:10068.got - 2010.06.03 13:09:01.
