data_PCOD9420394
_publ_section_title
;
Structure prediction by ZEFSAII (Michael W. Deem and Ramdas Pophale) SiO2 
 PCOD9420394
Probable space group: P C C A
;
_chemical_formula_sum "Si O2"
_cell_formula_units_Z 64
_cell_length_a 14.810148
_cell_length_b 39.932259
_cell_length_c 5.225805
_cell_angle_alpha 90.000000
_cell_angle_beta 90.000000
_cell_angle_gamma 90.000000
_cell_volume 3090.555008
_symmetry_space_group_name_H-M "P C C A"
_symmetry_group_IT_number 54
_symmetry_cell_setting 'orthorhombic'
loop_
_space_group_symop_operation_xyz
x,y,z
1/2-x,-y,z
1/2+x,-y,1/2-z
-x,y,1/2-z
-x,-y,-z
1/2+x,y,-z
1/2-x,y,1/2+z
x,-y,1/2+z
loop_
_atom_site_type_symbol
_atom_site_label
_atom_site_fract_x
_atom_site_fract_y
_atom_site_fract_z
Si Si1 0.146003 0.485496 0.114591
Si Si2 0.391511 0.981360 0.744386
Si Si3 0.608502 0.697554 0.754531
Si Si4 0.810770 0.160501 0.768867
Si Si5 0.693055 0.410030 0.882222
Si Si6 0.309233 0.910446 0.619556
Si Si7 0.190793 0.231517 0.621051
Si Si8 0.108404 0.660234 0.745805
O O1 0.250000 0.500000 0.093083
O O2 0.103505 0.505208 0.347019
O O3 0.147766 0.446060 0.161200
O O4 0.500000 0.983154 0.750000
O O5 0.364162 0.943851 0.674727
O O6 0.358600 0.006338 0.521070
O O7 0.500000 0.695769 0.750000
O O8 0.635844 0.735103 0.823084
O O9 0.641470 0.685032 0.478516
O O10 0.641499 0.672704 0.978332
O O11 0.770693 0.160490 0.481363
O O12 0.858132 0.125081 0.824896
O O13 0.858022 0.195961 0.824093
O O14 0.774066 0.409163 0.675237
O O15 0.635454 0.377384 0.820591
O O16 0.271461 0.910694 0.330769
O O17 0.228472 0.231785 0.332142
O O18 0.000000 0.662172 0.750000
#
# Coordination Sequence:
#
# PCOD9420394 Si02
#       8
#     8   8   8   8   8   8   8   8
#     4  10  16  30  48  73 102 127 154 199 252 289
#     4  10  21  35  49  69 100 134 166 207 262 307
#     4  10  21  38  54  72 102 141 170 201 249 300
#     4   8  16  30  47  73 102 129 157 199 260 299
#     4  12  21  32  55  83  99 129 171 213 239 289
#     4  10  19  32  52  74  99 129 168 210 245 301
#     4  10  19  32  55  79 103 131 166 211 251 293
#     4  10  23  39  52  71 108 142 164 200 257 301
#
# _framework density 20.708255000000001
#
# number of rings (size 3 to 8) (size 9 to 14) (size 15 to 20)
#    0.000    2.000    2.500    2.250    0.000    4.500 
#    0.000    0.625    0.000    0.750    0.000   15.750 
#    0.000    0.000    0.000    0.000    0.000    0.000 
#
# Total GULP energy -357130.619830 kJ/mol
# GULP energy per Si atom -5580.165935 kJ/mol
# Density = 2.066112 g / cm^3
# Si number density = 20.708255 Si / 1000 Ang^3
#
#
#
# Elastic Constant Matrix: (Units=GPa)
#
#
# Indices 1 2 3 4 5 6 
#
# 1 21.1158 1.5744 3.5624 0.0000 0.0000 0.0000
# 2 1.5744 121.0364 -2.0743 0.0000 0.0000 0.0000
# 3 3.5624 -2.0743 91.7665 0.0000 0.0000 0.0000
# 4 0.0000 0.0000 0.0000 28.4330 0.0000 0.0000
# 5 0.0000 0.0000 0.0000 0.0000 3.0754 0.0000
# 6 0.0000 0.0000 0.0000 0.0000 0.0000 133.7323
#
#
#
# Elastic Compliance Matrix: (Units=1/GPa)
#
#
# Indices 1 2 3 4 5 6 
#
# 1 0.047722 -0.000653 -0.001867 0.000000 0.000000 0.000000
# 2 -0.000653 0.008274 0.000212 0.000000 0.000000 0.000000
# 3 -0.001867 0.000212 0.010975 0.000000 0.000000 0.000000
# 4 0.000000 0.000000 0.000000 0.035170 0.000000 0.000000
# 5 0.000000 0.000000 0.000000 0.000000 0.325162 0.000000
# 6 0.000000 0.000000 0.000000 0.000000 0.000000 0.007478
#
#
# Mechanical properties :
#
#
# Convention : Reuss Voigt Hill
#
# Bulk Modulus (GPa) = 16.03722 26.67149 21.35436
# Shear Modulus (GPa) = 10.86529 48.43855 29.65192
#
# Velocity S-wave (km/s) = 2.29308 4.84166 3.78814
# Velocity P-wave (km/s) = 3.84346 6.64554 5.42841
#
# Compressibility (1/GPa) = 0.06235495
#
# Stress axis : x y z
#
# Youngs Moduli (GPa) = 20.95484 120.85896 91.12023
#
# Poissons Ratio (x) = 0.07889 0.17015
# Poissons Ratio (y) = 0.01368 -0.01935
# Poissons Ratio (z) = 0.03913 -0.02567
#
# Static dielectric constant tensor:
#      x y z
#    x 1.722480 0.000000 0.000000 
#    y 0.000000 1.766550 0.000000 
#    z 0.000000 0.000000 0.582850 
# 
# From -- ./inp_files/1097.got.cif
#   From: 2010.05.17/outbox.cif.g08.bks.cpg/sg54_1_cif.got.tgz:1097.got - 2010.06.03 13:09:01.
