data_PCOD9420939
_publ_section_title
;
Structure prediction by ZEFSAII (Michael W. Deem and Ramdas Pophale) SiO2 
 PCOD9420939
Probable space group: P C C A
;
_chemical_formula_sum "Si O2"
_cell_formula_units_Z 64
_cell_length_a 26.125018
_cell_length_b 5.352958
_cell_length_c 25.137012
_cell_angle_alpha 90.000000
_cell_angle_beta 90.000000
_cell_angle_gamma 90.000000
_cell_volume 3515.313700
_symmetry_space_group_name_H-M "P C C A"
_symmetry_group_IT_number 54
_symmetry_cell_setting 'orthorhombic'
loop_
_space_group_symop_operation_xyz
x,y,z
1/2-x,-y,z
1/2+x,-y,1/2-z
-x,y,1/2-z
-x,-y,-z
1/2+x,y,-z
1/2-x,y,1/2+z
x,-y,1/2+z
loop_
_atom_site_type_symbol
_atom_site_label
_atom_site_fract_x
_atom_site_fract_y
_atom_site_fract_z
Si Si1 0.880368 0.250000 0.663632
Si Si2 0.557771 0.750000 0.554170
Si Si3 0.577451 0.250000 0.712458
Si Si4 0.762546 0.250000 0.663466
Si Si5 0.053793 0.750000 0.100322
Si Si6 0.779186 0.750000 0.545616
Si Si7 0.962871 0.250000 0.332100
Si Si8 0.604801 0.750000 0.004370
O O1 0.915761 0.250000 0.611886
O O2 0.892731 0.499946 0.696319
O O3 0.821395 0.250000 0.646701
O O4 0.892731 0.000054 0.696319
O O5 0.497270 0.750000 0.563743
O O6 0.576688 0.499954 0.524988
O O7 0.576688 0.000046 0.524988
O O8 0.523817 0.250000 0.679870
O O9 0.563771 0.250000 0.774548
O O10 0.750000 0.500000 0.694287
O O11 0.727350 0.250000 0.610201
O O12 0.750000 0.000000 0.694287
O O13 0.051167 0.500322 0.135771
O O14 0.100902 0.750000 0.059454
O O15 0.051167 0.999678 0.135771
O O16 0.750000 0.500000 0.527382
O O17 0.837734 0.750000 0.527568
O O18 0.750000 0.000000 0.527382
#
# Coordination Sequence:
#
# PCOD9420939 Si02
#       8
#     8   8   8   8   8   8   8   8
#     4  12  21  35  60  88 119 155 197 232 305 361
#     4  12  21  36  53  86 124 161 193 236 275 362
#     4  11  22  38  60  87 113 158 193 247 294 351
#     4  10  19  33  51  81 116 147 181 233 288 345
#     4  12  23  39  56  86 118 166 197 244 281 342
#     4  10  20  37  54  79 108 150 189 240 284 332
#     4  11  22  41  59  82 121 150 204 247 285 331
#     4  12  24  37  58  83 122 161 200 232 293 347
#
# _framework density 18.206054999999999
#
# number of rings (size 3 to 8) (size 9 to 14) (size 15 to 20)
#    0.000    0.750    2.500    8.250    0.000    2.000 
#    0.000    0.000    0.000    0.000    0.000   17.500 
#    0.000    0.000    0.000    0.000    0.000    0.000 
#
# Total GULP energy -357735.953715 kJ/mol
# GULP energy per Si atom -5589.624277 kJ/mol
# Density = 1.816462 g / cm^3
# Si number density = 18.206055 Si / 1000 Ang^3
#
#
#
# Elastic Constant Matrix: (Units=GPa)
#
#
# Indices 1 2 3 4 5 6 
#
# 1 52.5008 34.2703 31.6357 0.0000 0.0000 0.0000
# 2 34.2703 204.9292 60.7077 0.0000 0.0000 0.0000
# 3 31.6357 60.7077 80.5852 0.0000 0.0000 0.0000
# 4 0.0000 0.0000 0.0000 -114.5209 0.0000 0.0000
# 5 0.0000 0.0000 0.0000 0.0000 17.1102 0.0000
# 6 0.0000 0.0000 0.0000 0.0000 0.0000 9.4369
#
#
#
# Elastic Compliance Matrix: (Units=1/GPa)
#
#
# Indices 1 2 3 4 5 6 
#
# 1 0.025383 -0.001664 -0.008711 0.000000 0.000000 0.000000
# 2 -0.001664 0.006391 -0.004161 0.000000 0.000000 0.000000
# 3 -0.008711 -0.004161 0.018964 0.000000 0.000000 0.000000
# 4 0.000000 0.000000 0.000000 -0.008732 0.000000 0.000000
# 5 0.000000 0.000000 0.000000 0.000000 0.058445 0.000000
# 6 0.000000 0.000000 0.000000 0.000000 0.000000 0.105967
#
#
# Mechanical properties :
#
#
# Convention : Reuss Voigt Hill
#
# Bulk Modulus (GPa) = 46.15811 65.69364 55.92587
# Shear Modulus (GPa) = 20.60068 -3.50134 8.54967
#
# Velocity S-wave (km/s) = 3.36747 -1.38829 2.16939
# Velocity P-wave (km/s) = 6.36616 5.79585 6.08769
#
# Compressibility (1/GPa) = 0.02166466
#
# Stress axis : x y z
#
# Youngs Moduli (GPa) = 39.39697 156.47760 52.73284
#
# Poissons Ratio (x) = 0.26042 0.45935
# Poissons Ratio (y) = 0.06557 0.21942
# Poissons Ratio (z) = 0.34318 0.65110
#
# Static dielectric constant tensor:
#      x y z
#    x 1.624880 0.000000 0.000000 
#    y 0.000000 1.691560 0.000000 
#    z 0.000000 0.000000 1.599540 
# 
# From -- ./inp_files/22398.got.cif
#   From: 2010.05.17/outbox.cif.g08.bks.cpg/sg54_12_cif.got.tgz:22398.got - 2010.06.03 13:09:01.
