data_PCOD9420145
_publ_section_title
;
Structure prediction by ZEFSAII (Michael W. Deem and Ramdas Pophale) SiO2 
 PCOD9420145
Probable space group: P M N A
;
_chemical_formula_sum "Si O2"
_cell_formula_units_Z 48
_cell_length_a 18.000000
_cell_length_b 15.000000
_cell_length_c 9.000000
_cell_angle_alpha 90.000000
_cell_angle_beta 90.000000
_cell_angle_gamma 90.000000
_cell_volume 2430.000000
_symmetry_space_group_name_H-M "P M N A"
_symmetry_group_IT_number 53
_symmetry_cell_setting 'orthorhombic'
loop_
_space_group_symop_operation_xyz
x,y,z
1/2-x,-y,1/2+z
x,-y,-z
1/2-x,y,1/2-z
-x,-y,-z
1/2+x,y,1/2-z
-x,y,z
1/2+x,-y,1/2+z
loop_
_atom_site_type_symbol
_atom_site_label
_atom_site_fract_x
_atom_site_fract_y
_atom_site_fract_z
Si Si1 0.585426 0.145205 0.348120
Si Si2 0.299703 0.261931 0.535013
Si Si3 0.785151 0.577075 0.608118
Si Si4 0.078721 0.298674 0.388230
Si Si5 0.354573 0.220259 0.838346
Si Si6 0.910438 0.974893 0.331368
O O1 0.500000 0.139990 0.408348
O O2 0.643913 0.198068 0.448204
O O3 0.581479 0.206615 0.201412
O O4 0.610889 0.048639 0.290806
O O5 0.275170 0.353968 0.459198
O O6 0.335902 0.277684 0.694754
O O7 0.221467 0.212682 0.566945
O O8 0.809713 0.500000 0.500000
O O9 0.750000 0.531740 0.750000
O O10 0.853929 0.638464 0.652199
O O11 0.087596 0.270438 0.558363
O O12 0.000000 0.342351 0.357084
O O13 0.380885 0.122542 0.794497
O O14 0.000000 0.973775 0.332331
O O15 0.886822 0.000000 0.500000
#
# Coordination Sequence:
#
# PCOD9420145 Si02
#       6
#     8   8   8   8   8   8
#     4  10  20  37  62  86 120 165 204 243 296 353
#     4  10  23  42  56  90 120 155 202 242 305 363
#     4  11  24  41  68  90 119 154 190 250 306 370
#     4  10  20  38  64  90 118 161 202 238 295 359
#     4  10  21  37  58  86 126 159 200 252 289 348
#     4  10  19  35  57  86 120 159 205 246 289 339
#
# _framework density 19.753086
#
# number of rings (size 3 to 8) (size 9 to 14) (size 15 to 20)
#    0.000    1.833    3.333    0.500    4.667    2.333 
#    6.000    1.667    0.000    1.000    0.000    0.000 
#    0.000    0.000    0.000    0.000    0.000    0.000 
#
# Total GULP energy -267568.232801 kJ/mol
# GULP energy per Si atom -5574.338183 kJ/mol
# Density = 1.970813 g / cm^3
# Si number density = 19.753086 Si / 1000 Ang^3
#
#
#
# Elastic Constant Matrix: (Units=GPa)
#
#
# Indices 1 2 3 4 5 6 
#
# 1 24.8901 -13.6784 17.1275 0.0000 0.0000 0.0000
# 2 -13.6784 17.4578 -17.2171 0.0000 0.0000 0.0000
# 3 17.1275 -17.2171 30.3946 0.0000 0.0000 0.0000
# 4 0.0000 0.0000 0.0000 10.5965 0.0000 0.0000
# 5 0.0000 0.0000 0.0000 0.0000 24.0934 0.0000
# 6 0.0000 0.0000 0.0000 0.0000 0.0000 9.8188
#
#
#
# Elastic Compliance Matrix: (Units=1/GPa)
#
#
# Indices 1 2 3 4 5 6 
#
# 1 0.075835 0.039137 -0.020564 0.000000 0.000000 0.000000
# 2 0.039137 0.149982 0.062904 0.000000 0.000000 0.000000
# 3 -0.020564 0.062904 0.080120 0.000000 0.000000 0.000000
# 4 0.000000 0.000000 0.000000 0.094371 0.000000 0.000000
# 5 0.000000 0.000000 0.000000 0.000000 0.041505 0.000000
# 6 0.000000 0.000000 0.000000 0.000000 0.000000 0.101846
#
#
# Mechanical properties :
#
#
# Convention : Reuss Voigt Hill
#
# Bulk Modulus (GPa) = 2.13269 5.02295 3.57782
# Shear Modulus (GPa) = 9.31095 14.66910 11.99003
#
# Velocity S-wave (km/s) = 2.17345 2.72807 2.46640
# Velocity P-wave (km/s) = 2.71672 3.53150 3.15056
#
# Compressibility (1/GPa) = 0.46889031
#
# Stress axis : x y z
#
# Youngs Moduli (GPa) = 13.18653 6.66748 12.48122
#
# Poissons Ratio (x) = -0.26095 0.25666
# Poissons Ratio (y) = -0.51608 -0.78511
# Poissons Ratio (z) = 0.27117 -0.41941
#
# Static dielectric constant tensor:
#      x y z
#    x 1.719140 0.000000 0.000000 
#    y 0.000000 1.628960 0.000000 
#    z 0.000000 0.000000 1.837210 
# 
# From -- ./inp_files/9922.got.cif
#   From: 2010.05.17/outbox.ucp.g08.bks.cvg/sg53_5_cif.got.tgz:9922.got - 2010.06.11 16:32:34.
