data_PCOD9420436
_publ_section_title
;
Structure prediction by ZEFSAII (Michael W. Deem and Ramdas Pophale) SiO2 
 PCOD9420436
Probable space group: P C C A
;
_chemical_formula_sum "Si O2"
_cell_formula_units_Z 48
_cell_length_a 19.565530
_cell_length_b 10.298704
_cell_length_c 11.125075
_cell_angle_alpha 90.000000
_cell_angle_beta 90.000000
_cell_angle_gamma 90.000000
_cell_volume 2241.698186
_symmetry_space_group_name_H-M "P C C A"
_symmetry_group_IT_number 54
_symmetry_cell_setting 'orthorhombic'
loop_
_space_group_symop_operation_xyz
x,y,z
1/2-x,-y,z
1/2+x,-y,1/2-z
-x,y,1/2-z
-x,-y,-z
1/2+x,y,-z
1/2-x,y,1/2+z
x,-y,1/2+z
loop_
_atom_site_type_symbol
_atom_site_label
_atom_site_fract_x
_atom_site_fract_y
_atom_site_fract_z
Si Si1 0.138647 0.168859 0.309733
Si Si2 0.000000 0.463922 0.250000
Si Si3 0.750000 0.000000 0.810282
Si Si4 0.887016 0.409043 0.878853
Si Si5 0.622353 0.302516 0.948562
Si Si6 0.521014 0.753336 0.047096
Si Si7 0.725802 0.749912 0.968588
O O1 0.186195 0.050031 0.268676
O O2 0.128463 0.257048 0.191560
O O3 0.065160 0.145730 0.373511
O O4 0.182036 0.244116 0.410328
O O5 0.931505 0.548951 0.264006
O O6 0.989015 0.369638 0.136848
O O7 0.724835 0.884121 0.895651
O O8 0.886642 0.542705 0.954745
O O9 0.809971 0.355926 0.881220
O O10 0.932733 0.297161 0.939268
O O11 0.556517 0.222649 0.993891
O O12 0.695831 0.272757 0.002594
#
# Coordination Sequence:
#
# PCOD9420436 Si02
#       7
#     8   4   4   8   8   8   8
#     4  10  19  37  63  80 106 161 191 235 297 342
#     4  10  16  32  56  82 122 150 174 230 282 354
#     4  10  22  40  58  78 112 152 202 248 290 334
#     4  10  20  34  55  89 120 148 183 232 286 354
#     4  10  18  36  57  90 115 146 187 232 291 359
#     4  10  18  34  60  86 113 155 188 225 286 354
#     4  10  22  37  58  82 116 148 197 245 288 343
#
# _framework density 21.412338999999999
#
# number of rings (size 3 to 8) (size 9 to 14) (size 15 to 20)
#    0.000    2.000    3.333    3.000    0.000    0.000 
#   12.000    3.333    7.333   14.000    0.000    0.000 
#    0.000    0.000    0.000    0.000    0.000    0.000 
#
# Total GULP energy -267409.037066 kJ/mol
# GULP energy per Si atom -5571.021606 kJ/mol
# Density = 2.136360 g / cm^3
# Si number density = 21.412339 Si / 1000 Ang^3
#
#
#
# Elastic Constant Matrix: (Units=GPa)
#
#
# Indices 1 2 3 4 5 6 
#
# 1 142.7376 13.0381 1.0499 0.0000 0.0000 0.0000
# 2 13.0381 39.9965 -5.7980 0.0000 0.0000 0.0000
# 3 1.0499 -5.7980 5.0434 0.0000 0.0000 0.0000
# 4 0.0000 0.0000 0.0000 16.5306 0.0000 0.0000
# 5 0.0000 0.0000 0.0000 0.0000 26.7315 0.0000
# 6 0.0000 0.0000 0.0000 0.0000 0.0000 17.2602
#
#
#
# Elastic Compliance Matrix: (Units=1/GPa)
#
#
# Indices 1 2 3 4 5 6 
#
# 1 0.007330 -0.003133 -0.005127 0.000000 0.000000 0.000000
# 2 -0.003133 0.031341 0.036683 0.000000 0.000000 0.000000
# 3 -0.005127 0.036683 0.241520 0.000000 0.000000 0.000000
# 4 0.000000 0.000000 0.000000 0.060494 0.000000 0.000000
# 5 0.000000 0.000000 0.000000 0.000000 0.037409 0.000000
# 6 0.000000 0.000000 0.000000 0.000000 0.000000 0.057937
#
#
# Mechanical properties :
#
#
# Convention : Reuss Voigt Hill
#
# Bulk Modulus (GPa) = 2.96704 22.70639 12.83671
# Shear Modulus (GPa) = 10.17232 24.07028 17.12130
#
# Velocity S-wave (km/s) = 2.18197 3.35644 2.83079
# Velocity P-wave (km/s) = 2.78149 5.06442 4.08564
#
# Compressibility (1/GPa) = 0.33703680
#
# Stress axis : x y z
#
# Youngs Moduli (GPa) = 136.43086 31.90707 4.14044
#
# Poissons Ratio (x) = 0.09995 0.02123
# Poissons Ratio (y) = 0.42739 -0.15188
# Poissons Ratio (z) = 0.69951 -1.17044
#
# Static dielectric constant tensor:
#      x y z
#    x 1.897000 0.000000 0.000000 
#    y 0.000000 1.767260 0.000000 
#    z 0.000000 0.000000 1.802360 
# 
# From -- ./inp_files/8982.got.cif
#   From: 2010.05.17/outbox.cif.g08.bks.cpg/sg54_5_cif.got.tgz:8982.got - 2010.06.03 13:09:01.
