data_PCOD9420290
_publ_section_title
;
Structure prediction by ZEFSAII (Michael W. Deem and Ramdas Pophale) SiO2 
 PCOD9420290
Probable space group: P M N A
;
_chemical_formula_sum "Si O2"
_cell_formula_units_Z 48
_cell_length_a 9.000000
_cell_length_b 15.000000
_cell_length_c 21.000000
_cell_angle_alpha 90.000000
_cell_angle_beta 90.000000
_cell_angle_gamma 90.000000
_cell_volume 2835.000000
_symmetry_space_group_name_H-M "P M N A"
_symmetry_group_IT_number 53
_symmetry_cell_setting 'orthorhombic'
loop_
_space_group_symop_operation_xyz
x,y,z
1/2-x,-y,1/2+z
x,-y,-z
1/2-x,y,1/2-z
-x,-y,-z
1/2+x,y,1/2-z
-x,y,z
1/2+x,-y,1/2+z
loop_
_atom_site_type_symbol
_atom_site_label
_atom_site_fract_x
_atom_site_fract_y
_atom_site_fract_z
Si Si1 0.681519 0.757748 0.519522
Si Si2 0.320430 0.442462 0.438514
Si Si3 0.679776 0.943306 0.934310
Si Si4 0.682371 0.063911 0.679451
Si Si5 0.318456 0.569830 0.319865
Si Si6 0.318052 0.752888 0.123250
O O1 0.500000 0.764249 0.514751
O O2 0.719082 0.662231 0.552997
O O3 0.748147 0.845289 0.554528
O O4 0.755401 0.755348 0.449162
O O5 0.267127 0.500000 0.500000
O O6 0.500000 0.444621 0.440790
O O7 0.280399 0.493875 0.373002
O O8 0.500000 0.937482 0.924869
O O9 0.756726 0.995026 0.874840
O O10 0.703513 0.000000 0.000000
O O11 0.750000 0.043532 0.750000
O O12 0.500000 0.064926 0.680546
O O13 0.748941 0.160567 0.658662
O O14 0.250000 0.550316 0.250000
O O15 0.500000 0.577565 0.316808
O O16 0.246148 0.662862 0.344317
O O17 0.500000 0.755173 0.124409
#
# Coordination Sequence:
#
# PCOD9420290 Si02
#       6
#     8   8   8   8   8   8
#     4  11  21  37  63  92 119 156 206 250 299 353
#     4   9  18  36  61  87 116 155 200 247 293 349
#     4  11  23  40  62  90 126 160 200 250 299 355
#     4  12  25  42  64  90 122 161 203 247 303 363
#     4  11  22  39  60  86 121 158 198 244 298 357
#     4  12  23  37  58  90 126 158 195 246 304 359
#
# _framework density 16.931217
#
# number of rings (size 3 to 8) (size 9 to 14) (size 15 to 20)
#    0.000    1.000    3.333    5.000    0.000    0.667 
#    0.000    5.000    0.000    2.000    0.000    0.000 
#    0.000    0.000    0.000    0.000    0.000    0.000 
#
# Total GULP energy -268089.178007 kJ/mol
# GULP energy per Si atom -5585.191208 kJ/mol
# Density = 1.689268 g / cm^3
# Si number density = 16.931217 Si / 1000 Ang^3
#
#
#
# Elastic Constant Matrix: (Units=GPa)
#
#
# Indices 1 2 3 4 5 6 
#
# 1 146.5070 56.0032 60.5533 0.0000 0.0000 0.0000
# 2 56.0032 167.7970 86.7983 0.0000 0.0000 0.0000
# 3 60.5533 86.7983 170.1111 0.0000 0.0000 0.0000
# 4 0.0000 0.0000 0.0000 40.5302 0.0000 0.0000
# 5 0.0000 0.0000 0.0000 0.0000 36.3209 0.0000
# 6 0.0000 0.0000 0.0000 0.0000 0.0000 29.3606
#
#
#
# Elastic Compliance Matrix: (Units=1/GPa)
#
#
# Indices 1 2 3 4 5 6 
#
# 1 0.008344 -0.001696 -0.002105 0.000000 0.000000 0.000000
# 2 -0.001696 0.008441 -0.003703 0.000000 0.000000 0.000000
# 3 -0.002105 -0.003703 0.008517 0.000000 0.000000 0.000000
# 4 0.000000 0.000000 0.000000 0.024673 0.000000 0.000000
# 5 0.000000 0.000000 0.000000 0.000000 0.027532 0.000000
# 6 0.000000 0.000000 0.000000 0.000000 0.000000 0.034059
#
#
# Mechanical properties :
#
#
# Convention : Reuss Voigt Hill
#
# Bulk Modulus (GPa) = 97.14222 99.01385 98.07804
# Shear Modulus (GPa) = 38.45948 39.97968 39.21958
#
# Velocity S-wave (km/s) = 4.77121 4.86459 4.81813
# Velocity P-wave (km/s) = 9.37293 9.49523 9.43428
#
# Compressibility (1/GPa) = 0.01029418
#
# Stress axis : x y z
#
# Youngs Moduli (GPa) = 119.84876 118.46408 117.40733
#
# Poissons Ratio (x) = 0.20093 0.24711
# Poissons Ratio (y) = 0.20327 0.43481
# Poissons Ratio (z) = 0.25224 0.43872
#
# Static dielectric constant tensor:
#      x y z
#    x 1.571100 0.000000 0.000000 
#    y 0.000000 1.573930 0.000000 
#    z 0.000000 0.000000 1.572670 
# 
# From -- ./inp_files/30535.got.cif
#   From: 2010.05.17/outbox.ucp.g08.bks.cvg/sg53_16_cif.got.tgz:30535.got - 2010.06.11 16:32:34.
