data_PCOD9420515
_publ_section_title
;
Structure prediction by ZEFSAII (Michael W. Deem and Ramdas Pophale) SiO2 
 PCOD9420515
Probable space group: P C C A
;
_chemical_formula_sum "Si O2"
_cell_formula_units_Z 64
_cell_length_a 16.054960
_cell_length_b 11.428960
_cell_length_c 15.462802
_cell_angle_alpha 90.000000
_cell_angle_beta 90.000000
_cell_angle_gamma 90.000000
_cell_volume 2837.292666
_symmetry_space_group_name_H-M "P C C A"
_symmetry_group_IT_number 54
_symmetry_cell_setting 'orthorhombic'
loop_
_space_group_symop_operation_xyz
x,y,z
1/2-x,-y,z
1/2+x,-y,1/2-z
-x,y,1/2-z
-x,-y,-z
1/2+x,y,-z
1/2-x,y,1/2+z
x,-y,1/2+z
loop_
_atom_site_type_symbol
_atom_site_label
_atom_site_fract_x
_atom_site_fract_y
_atom_site_fract_z
Si Si1 0.316390 0.866510 0.799463
Si Si2 0.123827 0.087882 0.338182
Si Si3 0.414721 0.274697 0.717885
Si Si4 0.067963 0.223884 0.503037
Si Si5 0.725152 0.367943 0.463888
Si Si6 0.843136 0.978337 0.393175
Si Si7 0.739303 0.632683 0.754463
Si Si8 0.112498 0.228933 0.030597
O O1 0.223217 0.887037 0.836629
O O2 0.323039 0.727336 0.787799
O O3 0.380428 0.947912 0.852464
O O4 0.325318 0.929323 0.704845
O O5 0.089372 0.138103 0.247236
O O6 0.075720 0.162375 0.409167
O O7 0.500000 0.326742 0.750000
O O8 0.331953 0.320350 0.761751
O O9 0.404926 0.301704 0.618108
O O10 0.133701 0.330157 0.504737
O O11 0.971400 0.247457 0.523608
O O12 0.106661 0.127649 0.566035
O O13 0.750000 0.500000 0.487752
O O14 0.723695 0.361655 0.358341
O O15 0.796952 0.277428 0.497723
O O16 0.883740 0.097724 0.430262
O O17 0.750000 0.000000 0.427927
O O18 0.750000 0.500000 0.725993
#
# Coordination Sequence:
#
# PCOD9420515 Si02
#       8
#     8   8   8   8   8   8   8   8
#     4  10  18  34  58  86 116 160 203 249 302 373
#     4  10  20  32  55  90 117 154 196 248 315 369
#     4  10  17  34  57  81 115 150 205 248 296 373
#     4  12  24  36  59  96 130 158 209 267 317 379
#     4  10  22  41  64  90 121 167 218 262 319 377
#     4  12  19  37  60  85 122 164 205 255 310 372
#     4   9  18  35  61  89 110 160 216 247 289 370
#     4  11  22  37  62  91 122 165 211 261 318 381
#
# _framework density 22.556715000000001
#
# number of rings (size 3 to 8) (size 9 to 14) (size 15 to 20)
#    0.000    1.500    6.250    1.125    1.750    0.500 
#    0.000    2.500    0.000    2.250    0.000    0.000 
#    0.000    0.000    0.000    0.000    0.000    0.000 
#
# Total GULP energy -356475.158887 kJ/mol
# GULP energy per Si atom -5569.924358 kJ/mol
# Density = 2.250538 g / cm^3
# Si number density = 22.556715 Si / 1000 Ang^3
#
#
#
# Elastic Constant Matrix: (Units=GPa)
#
#
# Indices 1 2 3 4 5 6 
#
# 1 83.4575 20.5868 6.2153 0.0000 0.0000 0.0000
# 2 20.5868 139.3929 -3.4892 0.0000 0.0000 0.0000
# 3 6.2153 -3.4892 41.6187 0.0000 0.0000 0.0000
# 4 0.0000 0.0000 0.0000 14.6286 0.0000 0.0000
# 5 0.0000 0.0000 0.0000 0.0000 20.0631 0.0000
# 6 0.0000 0.0000 0.0000 0.0000 0.0000 17.7425
#
#
#
# Elastic Compliance Matrix: (Units=1/GPa)
#
#
# Indices 1 2 3 4 5 6 
#
# 1 0.012606 -0.001913 -0.002043 0.000000 0.000000 0.000000
# 2 -0.001913 0.007479 0.000913 0.000000 0.000000 0.000000
# 3 -0.002043 0.000913 0.024409 0.000000 0.000000 0.000000
# 4 0.000000 0.000000 0.000000 0.068359 0.000000 0.000000
# 5 0.000000 0.000000 0.000000 0.000000 0.049843 0.000000
# 6 0.000000 0.000000 0.000000 0.000000 0.000000 0.056362
#
#
# Mechanical properties :
#
#
# Convention : Reuss Voigt Hill
#
# Bulk Modulus (GPa) = 26.03597 34.56612 30.30104
# Shear Modulus (GPa) = 21.01302 26.56391 23.78846
#
# Velocity S-wave (km/s) = 3.05546 3.43541 3.25099
# Velocity P-wave (km/s) = 4.90054 5.57615 5.24923
#
# Compressibility (1/GPa) = 0.03840841
#
# Stress axis : x y z
#
# Youngs Moduli (GPa) = 79.32623 133.70178 40.96799
#
# Poissons Ratio (x) = 0.25576 0.08370
# Poissons Ratio (y) = 0.15175 -0.03739
# Poissons Ratio (z) = 0.16206 -0.12203
#
# Static dielectric constant tensor:
#      x y z
#    x 1.874520 0.000000 0.000000 
#    y 0.000000 1.931770 0.000000 
#    z 0.000000 0.000000 1.962260 
# 
# From -- ./inp_files/18224.got.cif
#   From: 2010.05.17/outbox.cif.g08.bks.cpg/sg54_10_cif.got.tgz:18224.got - 2010.06.03 13:09:01.
