data_PCOD9420452
_publ_section_title
;
Structure prediction by ZEFSAII (Michael W. Deem and Ramdas Pophale) SiO2 
 PCOD9420452
Probable space group: P C C A
;
_chemical_formula_sum "Si O2"
_cell_formula_units_Z 48
_cell_length_a 18.729421
_cell_length_b 23.149215
_cell_length_c 5.513822
_cell_angle_alpha 90.000000
_cell_angle_beta 90.000000
_cell_angle_gamma 90.000000
_cell_volume 2390.635488
_symmetry_space_group_name_H-M "P C C A"
_symmetry_group_IT_number 54
_symmetry_cell_setting 'orthorhombic'
loop_
_space_group_symop_operation_xyz
x,y,z
1/2-x,-y,z
1/2+x,-y,1/2-z
-x,y,1/2-z
-x,-y,-z
1/2+x,y,-z
1/2-x,y,1/2+z
x,-y,1/2+z
loop_
_atom_site_type_symbol
_atom_site_label
_atom_site_fract_x
_atom_site_fract_y
_atom_site_fract_z
Si Si1 0.168513 0.976095 0.318585
Si Si2 0.295956 0.841382 0.817557
Si Si3 0.000000 0.463156 0.750000
Si Si4 0.418961 0.252531 0.359376
Si Si5 0.000000 0.690593 0.750000
Si Si6 0.329556 0.476234 0.931203
Si Si7 0.104183 0.630280 0.114765
O O1 0.175880 0.907297 0.318408
O O2 0.250000 0.000000 0.318644
O O3 0.135391 0.999973 0.568630
O O4 0.250849 0.833157 0.566010
O O5 0.364314 0.799217 0.824856
O O6 0.934870 0.417448 0.724043
O O7 0.000000 0.500000 0.500000
O O8 0.500000 0.244753 0.250000
O O9 0.439812 0.268760 0.632526
O O10 0.381453 0.310370 0.252546
O O11 0.956580 0.649738 0.572378
O O12 0.250000 0.500000 0.909383
O O13 0.360015 0.489304 0.665029
O O14 0.334840 0.408014 0.988486
#
# Coordination Sequence:
#
# PCOD9420452 Si02
#       7
#     8   8   4   8   4   8   8
#     4  10  16  34  61  97 135 181 218 278 332 387
#     4  12  24  41  68 108 139 175 237 285 333 401
#     4  12  23  34  62  94 108 143 210 270 312 380
#     4  10  25  45  68  94 133 189 226 280 337 405
#     4  10  21  44  68  88 122 173 224 264 332 398
#     4  10  23  42  60  85 120 156 194 251 330 401
#     4  11  22  41  63  88 121 163 213 263 329 401
#
# _framework density 20.078341999999999
#
# number of rings (size 3 to 8) (size 9 to 14) (size 15 to 20)
#    0.000    1.333    5.833    1.500    7.000    0.000 
#    6.000    0.000    0.000    1.000    0.000    0.000 
#    0.000    0.000    0.000    0.000    0.000    0.000 
#
# Total GULP energy -267264.592417 kJ/mol
# GULP energy per Si atom -5568.012342 kJ/mol
# Density = 2.003264 g / cm^3
# Si number density = 20.078342 Si / 1000 Ang^3
#
#
#
# Elastic Constant Matrix: (Units=GPa)
#
#
# Indices 1 2 3 4 5 6 
#
# 1 72.8879 68.0288 30.7015 0.0000 0.0000 0.0000
# 2 68.0288 184.6358 53.9699 0.0000 0.0000 0.0000
# 3 30.7015 53.9699 158.5252 0.0000 0.0000 0.0000
# 4 0.0000 0.0000 0.0000 26.7580 0.0000 0.0000
# 5 0.0000 0.0000 0.0000 0.0000 0.6575 0.0000
# 6 0.0000 0.0000 0.0000 0.0000 0.0000 32.5769
#
#
#
# Elastic Compliance Matrix: (Units=1/GPa)
#
#
# Indices 1 2 3 4 5 6 
#
# 1 0.021275 -0.007368 -0.001612 0.000000 0.000000 0.000000
# 2 -0.007368 0.008566 -0.001489 0.000000 0.000000 0.000000
# 3 -0.001612 -0.001489 0.007127 0.000000 0.000000 0.000000
# 4 0.000000 0.000000 0.000000 0.037372 0.000000 0.000000
# 5 0.000000 0.000000 0.000000 0.000000 1.521024 0.000000
# 6 0.000000 0.000000 0.000000 0.000000 0.000000 0.030697
#
#
# Mechanical properties :
#
#
# Convention : Reuss Voigt Hill
#
# Bulk Modulus (GPa) = 62.38126 80.16104 71.27115
# Shear Modulus (GPa) = 3.02601 29.55505 16.29053
#
# Velocity S-wave (km/s) = 1.22897 3.84081 2.85151
# Velocity P-wave (km/s) = 5.75762 7.72528 6.81286
#
# Compressibility (1/GPa) = 0.01603046
#
# Stress axis : x y z
#
# Youngs Moduli (GPa) = 47.00324 116.74046 140.30319
#
# Poissons Ratio (x) = 0.86010 0.22617
# Poissons Ratio (y) = 0.34630 0.20897
# Poissons Ratio (z) = 0.07577 0.17388
#
# Static dielectric constant tensor:
#      x y z
#    x 1.549100 0.000000 0.000000 
#    y 0.000000 1.686890 0.000000 
#    z 0.000000 0.000000 1.894230 
# 
# From -- ./inp_files/1350.got.cif
#   From: 2010.05.17/outbox.cif.g08.bks.cpg/sg54_1_cif.got.tgz:1350.got - 2010.06.03 13:09:01.
