data_PCOD9420779
_publ_section_title
;
Structure prediction by ZEFSAII (Michael W. Deem and Ramdas Pophale) SiO2 
 PCOD9420779
Probable space group: P C C A
;
_chemical_formula_sum "Si O2"
_cell_formula_units_Z 36
_cell_length_a 24.009018
_cell_length_b 5.324389
_cell_length_c 11.938170
_cell_angle_alpha 90.000000
_cell_angle_beta 90.000000
_cell_angle_gamma 90.000000
_cell_volume 1526.096280
_symmetry_space_group_name_H-M "P C C A"
_symmetry_group_IT_number 54
_symmetry_cell_setting 'orthorhombic'
loop_
_space_group_symop_operation_xyz
x,y,z
1/2-x,-y,z
1/2+x,-y,1/2-z
-x,y,1/2-z
-x,-y,-z
1/2+x,y,-z
1/2-x,y,1/2+z
x,-y,1/2+z
loop_
_atom_site_type_symbol
_atom_site_label
_atom_site_fract_x
_atom_site_fract_y
_atom_site_fract_z
Si Si1 0.552284 0.421779 0.829300
Si Si2 0.582670 0.098483 0.451630
Si Si3 0.860321 0.713221 0.658547
Si Si4 0.195881 0.899638 0.171786
Si Si5 0.250000 0.500000 0.338300
O O1 0.500000 0.374492 0.750000
O O2 0.545583 0.674325 0.902707
O O3 0.603143 0.461474 0.740737
O O4 0.564400 0.175981 0.907248
O O5 0.594876 0.138832 0.582616
O O6 0.644266 0.157726 0.405153
O O7 0.806077 0.589649 0.597794
O O8 0.829973 0.898952 0.743338
O O9 0.221606 0.694442 0.253156
O O10 0.250000 0.000000 0.105428
#
# Coordination Sequence:
#
# PCOD9420779 Si02
#       5
#     8   8   8   8   4
#     4  11  25  45  66  94 130 168 220 274 316 376
#     4  11  24  41  67  94 123 172 212 261 327 380
#     4  10  23  39  63  93 131 165 216 264 322 388
#     4   9  20  37  58  90 131 165 205 257 315 386
#     4  10  18  38  62  88 132 166 202 268 316 390
#
# _framework density 23.589601999999999
#
# number of rings (size 3 to 8) (size 9 to 14) (size 15 to 20)
#    0.000    1.778    2.222    0.667    3.111    5.333 
#    0.000    0.000    0.000    0.000    0.000    0.000 
#    0.000    0.000    0.000    0.000    0.000    0.000 
#
# Total GULP energy -200658.967119 kJ/mol
# GULP energy per Si atom -5573.860198 kJ/mol
# Density = 2.353591 g / cm^3
# Si number density = 23.589602 Si / 1000 Ang^3
#
#
#
# Elastic Constant Matrix: (Units=GPa)
#
#
# Indices 1 2 3 4 5 6 
#
# 1 93.6782 22.7216 13.8553 0.0000 0.0000 0.0000
# 2 22.7216 32.5980 0.5320 0.0000 0.0000 0.0000
# 3 13.8553 0.5320 26.0209 0.0000 0.0000 0.0000
# 4 0.0000 0.0000 0.0000 18.9032 0.0000 0.0000
# 5 0.0000 0.0000 0.0000 0.0000 39.7796 0.0000
# 6 0.0000 0.0000 0.0000 0.0000 0.0000 24.1760
#
#
#
# Elastic Compliance Matrix: (Units=1/GPa)
#
#
# Indices 1 2 3 4 5 6 
#
# 1 0.014114 -0.009719 -0.007317 0.000000 0.000000 0.000000
# 2 -0.009719 0.037379 0.004411 0.000000 0.000000 0.000000
# 3 -0.007317 0.004411 0.042236 0.000000 0.000000 0.000000
# 4 0.000000 0.000000 0.000000 0.052901 0.000000 0.000000
# 5 0.000000 0.000000 0.000000 0.000000 0.025139 0.000000
# 6 0.000000 0.000000 0.000000 0.000000 0.000000 0.041363
#
#
# Mechanical properties :
#
#
# Convention : Reuss Voigt Hill
#
# Bulk Modulus (GPa) = 14.60278 25.16833 19.88555
# Shear Modulus (GPa) = 19.14182 24.25098 21.69640
#
# Velocity S-wave (km/s) = 2.85169 3.20978 3.03602
# Velocity P-wave (km/s) = 4.12876 4.94260 4.55390
#
# Compressibility (1/GPa) = 0.06848012
#
# Stress axis : x y z
#
# Youngs Moduli (GPa) = 70.85053 26.75317 23.67627
#
# Poissons Ratio (x) = 0.26000 0.17323
# Poissons Ratio (y) = 0.68856 -0.10443
# Poissons Ratio (z) = 0.51839 -0.11800
#
# Static dielectric constant tensor:
#      x y z
#    x 1.798180 0.000000 0.000000 
#    y 0.000000 1.952850 0.000000 
#    z 0.000000 0.000000 1.928980 
# 
# From -- ./inp_files/9713.got.cif
#   From: 2010.05.17/outbox.cif.g08.bks.cpg/sg54_5_cif.got.tgz:9713.got - 2010.06.03 13:09:01.
