data_PCOD9420163
_publ_section_title
;
Structure prediction by ZEFSAII (Michael W. Deem and Ramdas Pophale) SiO2 
 PCOD9420163
Probable space group: P M N A
;
_chemical_formula_sum "Si O2"
_cell_formula_units_Z 64
_cell_length_a 9.000000
_cell_length_b 21.000000
_cell_length_c 18.000000
_cell_angle_alpha 90.000000
_cell_angle_beta 90.000000
_cell_angle_gamma 90.000000
_cell_volume 3402.000000
_symmetry_space_group_name_H-M "P M N A"
_symmetry_group_IT_number 53
_symmetry_cell_setting 'orthorhombic'
loop_
_space_group_symop_operation_xyz
x,y,z
1/2-x,-y,1/2+z
x,-y,-z
1/2-x,y,1/2-z
-x,-y,-z
1/2+x,y,1/2-z
-x,y,z
1/2+x,-y,1/2+z
loop_
_atom_site_type_symbol
_atom_site_label
_atom_site_fract_x
_atom_site_fract_y
_atom_site_fract_z
Si Si1 0.673064 0.875320 0.476779
Si Si2 0.824369 0.921712 0.863199
Si Si3 0.666738 0.792603 0.815848
Si Si4 0.334764 0.750793 0.982419
Si Si5 0.675914 0.420526 0.169994
Si Si6 0.824253 0.941839 0.179350
Si Si7 0.163359 0.458750 0.576134
Si Si8 0.668596 0.630688 0.521817
O O1 0.500000 0.853315 0.481054
O O2 0.692626 0.921193 0.547613
O O3 0.788646 0.818813 0.487030
O O4 0.697363 0.907792 0.398536
O O5 0.747173 0.859212 0.831886
O O6 0.000000 0.917738 0.848027
O O7 0.762855 0.986725 0.830542
O O8 0.750000 0.757028 0.750000
O O9 0.500000 0.804796 0.791731
O O10 0.665396 0.756833 0.893288
O O11 0.500000 0.730913 0.005881
O O12 0.207567 0.701698 0.001067
O O13 0.750000 0.408414 0.250000
O O14 0.500000 0.407885 0.174837
O O15 0.696542 0.494309 0.143965
O O16 0.739072 0.384713 0.096971
O O17 0.750000 0.909970 0.250000
O O18 0.000000 0.945956 0.191936
O O19 0.151951 0.500000 0.500000
O O20 0.285927 0.409782 0.550217
O O21 0.000000 0.429460 0.587480
O O22 0.500000 0.619243 0.541195
#
# Coordination Sequence:
#
# PCOD9420163 Si02
#       8
#     8   8   8   8   8   8   8   8
#     4   9  18  34  53  72  96 128 168 209 250 299
#     4   9  17  31  51  72  96 127 162 201 246 299
#     4  10  20  32  47  68  96 130 164 201 245 295
#     4  10  21  36  52  71  97 130 170 212 253 295
#     4  10  20  34  53  79 112 144 171 205 250 296
#     4  10  20  32  49  74 101 128 159 200 252 308
#     4   8  16  32  52  74 103 137 169 203 244 287
#     4  11  21  33  53  78 103 135 175 213 249 295
#
# _framework density 18.812463000000001
#
# number of rings (size 3 to 8) (size 9 to 14) (size 15 to 20)
#    0.000    2.375    0.000    3.750    0.000    8.250 
#    0.000    1.250    0.000    4.500    0.000    5.250 
#    0.000    0.000    0.000    0.000    0.000    0.000 
#
# Total GULP energy -356416.103642 kJ/mol
# GULP energy per Si atom -5569.001619 kJ/mol
# Density = 1.876965 g / cm^3
# Si number density = 18.812463 Si / 1000 Ang^3
#
#
#
# Elastic Constant Matrix: (Units=GPa)
#
#
# Indices 1 2 3 4 5 6 
#
# 1 57.3893 28.2517 33.4481 0.0000 0.0000 0.0000
# 2 28.2517 31.9063 14.9404 0.0000 0.0000 0.0000
# 3 33.4481 14.9404 62.6759 0.0000 0.0000 0.0000
# 4 0.0000 0.0000 0.0000 -2.9515 0.0000 0.0000
# 5 0.0000 0.0000 0.0000 0.0000 31.6635 0.0000
# 6 0.0000 0.0000 0.0000 0.0000 0.0000 11.8906
#
#
#
# Elastic Compliance Matrix: (Units=1/GPa)
#
#
# Indices 1 2 3 4 5 6 
#
# 1 0.039950 -0.028581 -0.014507 0.000000 0.000000 0.000000
# 2 -0.028581 0.055727 0.001969 0.000000 0.000000 0.000000
# 3 -0.014507 0.001969 0.023228 0.000000 0.000000 0.000000
# 4 0.000000 0.000000 0.000000 -0.338813 0.000000 0.000000
# 5 0.000000 0.000000 0.000000 0.000000 0.031582 0.000000
# 6 0.000000 0.000000 0.000000 0.000000 0.000000 0.084100
#
#
# Mechanical properties :
#
#
# Convention : Reuss Voigt Hill
#
# Bulk Modulus (GPa) = 27.27294 33.91688 30.59491
# Shear Modulus (GPa) = -511.93837 13.14262 -249.39788
#
# Velocity S-wave (km/s) = -16.51418 2.64600 -11.52642
# Velocity P-wave (km/s) = 18.68409 5.23480 12.68251
#
# Compressibility (1/GPa) = 0.03666638
#
# Stress axis : x y z
#
# Youngs Moduli (GPa) = 25.03150 17.94464 43.05212
#
# Poissons Ratio (x) = 0.51287 0.62455
# Poissons Ratio (y) = 0.71542 -0.08476
# Poissons Ratio (z) = 0.36313 -0.03533
#
# Static dielectric constant tensor:
#      x y z
#    x 1.666950 0.000000 0.000000 
#    y 0.000000 1.705480 0.000000 
#    z 0.000000 0.000000 1.620640 
# 
# From -- ./inp_files/26901.got.cif
#   From: 2010.05.17/outbox.ucp.g08.bks.cvg/sg53_14_cif.got.tgz:26901.got - 2010.06.11 16:32:34.
