data_PCOD9420681
_publ_section_title
;
Structure prediction by ZEFSAII (Michael W. Deem and Ramdas Pophale) SiO2 
 PCOD9420681
Probable space group: P C C A
;
_chemical_formula_sum "Si O2"
_cell_formula_units_Z 40
_cell_length_a 12.463615
_cell_length_b 12.764518
_cell_length_c 10.381657
_cell_angle_alpha 90.000000
_cell_angle_beta 90.000000
_cell_angle_gamma 90.000000
_cell_volume 1651.638970
_symmetry_space_group_name_H-M "P C C A"
_symmetry_group_IT_number 54
_symmetry_cell_setting 'orthorhombic'
loop_
_space_group_symop_operation_xyz
x,y,z
1/2-x,-y,z
1/2+x,-y,1/2-z
-x,y,1/2-z
-x,-y,-z
1/2+x,y,-z
1/2-x,y,1/2+z
x,-y,1/2+z
loop_
_atom_site_type_symbol
_atom_site_label
_atom_site_fract_x
_atom_site_fract_y
_atom_site_fract_z
Si Si1 0.452483 0.746601 0.605499
Si Si2 0.627865 0.456504 0.536608
Si Si3 0.095550 0.198942 0.140839
Si Si4 0.574110 0.026359 0.376462
Si Si5 0.151107 0.581241 0.682379
O O1 0.500000 0.724214 0.750000
O O2 0.387491 0.649678 0.545340
O O3 0.545170 0.774572 0.499847
O O4 0.384844 0.855264 0.608592
O O5 0.750000 0.500000 0.555794
O O6 0.596045 0.438109 0.682330
O O7 0.585593 0.549284 0.445638
O O8 0.172648 0.295147 0.176087
O O9 0.000000 0.201142 0.250000
O O10 0.140893 0.080731 0.140658
O O11 0.500000 0.033182 0.250000
O O12 0.500000 0.000000 0.500000
O O13 0.250000 0.500000 0.682201
#
# Coordination Sequence:
#
# PCOD9420681 Si02
#       5
#     8   8   8   8   8
#     4  10  20  34  55  89 117 147 191 237 285 346
#     4  10  22  39  56  77 113 156 195 237 288 341
#     4  10  18  34  57  85 115 150 189 236 289 338
#     4   8  16  30  52  81 116 145 179 229 289 346
#     4  10  22  38  56  79 112 155 197 239 288 339
#
# _framework density 24.218368000000002
#
# number of rings (size 3 to 8) (size 9 to 14) (size 15 to 20)
#    0.000    2.400    2.000    0.000    2.800    1.600 
#    0.000    0.000    0.000    4.800    0.000   14.000 
#    0.000    0.000    0.000    0.000    0.000    0.000 
#
# Total GULP energy -222795.669476 kJ/mol
# GULP energy per Si atom -5569.891737 kJ/mol
# Density = 2.416325 g / cm^3
# Si number density = 24.218368 Si / 1000 Ang^3
#
#
#
# Elastic Constant Matrix: (Units=GPa)
#
#
# Indices 1 2 3 4 5 6 
#
# 1 53.9362 48.3965 20.3497 0.0000 0.0000 0.0000
# 2 48.3965 268.1161 27.0947 0.0000 0.0000 0.0000
# 3 20.3497 27.0947 203.2908 0.0000 0.0000 0.0000
# 4 0.0000 0.0000 0.0000 45.6188 0.0000 0.0000
# 5 0.0000 0.0000 0.0000 0.0000 24.7880 0.0000
# 6 0.0000 0.0000 0.0000 0.0000 0.0000 30.5356
#
#
#
# Elastic Compliance Matrix: (Units=1/GPa)
#
#
# Indices 1 2 3 4 5 6 
#
# 1 0.022723 -0.003925 -0.001752 0.000000 0.000000 0.000000
# 2 -0.003925 0.004458 -0.000201 0.000000 0.000000 0.000000
# 3 -0.001752 -0.000201 0.005121 0.000000 0.000000 0.000000
# 4 0.000000 0.000000 0.000000 0.021921 0.000000 0.000000
# 5 0.000000 0.000000 0.000000 0.000000 0.040342 0.000000
# 6 0.000000 0.000000 0.000000 0.000000 0.000000 0.032749
#
#
# Mechanical properties :
#
#
# Convention : Reuss Voigt Hill
#
# Bulk Modulus (GPa) = 48.66764 79.66943 64.16854
# Shear Modulus (GPa) = 34.26579 48.82196 41.54387
#
# Velocity S-wave (km/s) = 3.76555 4.49476 4.14622
# Velocity P-wave (km/s) = 6.24859 7.73982 7.03383
#
# Compressibility (1/GPa) = 0.02054754
#
# Stress axis : x y z
#
# Youngs Moduli (GPa) = 44.00875 224.29131 195.26562
#
# Poissons Ratio (x) = 0.88025 0.34201
# Poissons Ratio (y) = 0.17272 0.03932
# Poissons Ratio (z) = 0.07708 0.04517
#
# Static dielectric constant tensor:
#      x y z
#    x -1.401360 0.000000 0.000000 
#    y 0.000000 1.959490 0.000000 
#    z 0.000000 0.000000 1.949390 
# 
# From -- ./inp_files/8221.got.cif
#   From: 2010.05.17/outbox.cif.g08.bks.cpg/sg54_5_cif.got.tgz:8221.got - 2010.06.03 13:09:01.
