data_PCOD9420400
_publ_section_title
;
Structure prediction by ZEFSAII (Michael W. Deem and Ramdas Pophale) SiO2 
 PCOD9420400
Probable space group: P C C A
;
_chemical_formula_sum "Si O2"
_cell_formula_units_Z 44
_cell_length_a 18.639540
_cell_length_b 23.081946
_cell_length_c 5.314105
_cell_angle_alpha 90.000000
_cell_angle_beta 90.000000
_cell_angle_gamma 90.000000
_cell_volume 2286.323826
_symmetry_space_group_name_H-M "P C C A"
_symmetry_group_IT_number 54
_symmetry_cell_setting 'orthorhombic'
loop_
_space_group_symop_operation_xyz
x,y,z
1/2-x,-y,z
1/2+x,-y,1/2-z
-x,y,1/2-z
-x,-y,-z
1/2+x,y,-z
1/2-x,y,1/2+z
x,-y,1/2+z
loop_
_atom_site_type_symbol
_atom_site_label
_atom_site_fract_x
_atom_site_fract_y
_atom_site_fract_z
Si Si1 0.643392 0.845315 0.477352
Si Si2 0.169569 0.975989 0.420663
Si Si3 0.332678 0.524067 0.462517
Si Si4 0.000000 0.818687 0.750000
Si Si5 0.865665 0.776186 0.493548
Si Si6 0.795338 0.346442 0.923630
O O1 0.674806 0.908700 0.512226
O O2 0.558739 0.853381 0.409835
O O3 0.670895 0.809287 0.233278
O O4 0.649492 0.809051 0.733236
O O5 0.250000 0.000000 0.386268
O O6 0.134403 0.989011 0.151057
O O7 0.250000 0.500000 0.437103
O O8 0.365816 0.488528 0.692074
O O9 0.331478 0.591369 0.530932
O O10 0.050301 0.781578 0.935035
O O11 0.842158 0.710243 0.472860
O O12 0.733784 0.344627 0.138698
#
# Coordination Sequence:
#
# PCOD9420400 Si02
#       6
#     8   8   8   4   8   8
#     4  10  20  41  60  81 110 145 188 233 280 327
#     4  10  21  39  58  83 115 147 180 214 276 344
#     4  10  16  30  49  69 112 158 186 218 267 336
#     4   8  22  40  64  80 106 150 198 230 282 324
#     4  10  22  38  59  85 110 149 189 239 282 328
#     4  12  21  34  51  87 122 145 189 231 283 348
#
# _framework density 19.244866999999999
#
# number of rings (size 3 to 8) (size 9 to 14) (size 15 to 20)
#    1.091    0.727    3.636    2.727    0.000    0.000 
#   19.636    0.909    0.000    0.000    0.000    1.273 
#    0.000    0.000    0.000    0.000    0.000    0.000 
#
# Total GULP energy -245098.298847 kJ/mol
# GULP energy per Si atom -5570.415883 kJ/mol
# Density = 1.920107 g / cm^3
# Si number density = 19.244867 Si / 1000 Ang^3
#
#
#
# Elastic Constant Matrix: (Units=GPa)
#
#
# Indices 1 2 3 4 5 6 
#
# 1 31.9829 16.2853 -7.8948 0.0000 0.0000 0.0000
# 2 16.2853 104.6760 -9.3569 0.0000 0.0000 0.0000
# 3 -7.8948 -9.3569 113.9489 0.0000 0.0000 0.0000
# 4 0.0000 0.0000 0.0000 36.6605 0.0000 0.0000
# 5 0.0000 0.0000 0.0000 0.0000 -1.1286 0.0000
# 6 0.0000 0.0000 0.0000 0.0000 0.0000 -22.2379
#
#
#
# Elastic Compliance Matrix: (Units=1/GPa)
#
#
# Indices 1 2 3 4 5 6 
#
# 1 0.034385 -0.005175 0.001957 0.000000 0.000000 0.000000
# 2 -0.005175 0.010403 0.000496 0.000000 0.000000 0.000000
# 3 0.001957 0.000496 0.008952 0.000000 0.000000 0.000000
# 4 0.000000 0.000000 0.000000 0.027277 0.000000 0.000000
# 5 0.000000 0.000000 0.000000 0.000000 -0.886087 0.000000
# 6 0.000000 0.000000 0.000000 0.000000 0.000000 -0.044968
#
#
# Mechanical properties :
#
#
# Convention : Reuss Voigt Hill
#
# Bulk Modulus (GPa) = 20.70538 27.63055 24.16797
# Shear Modulus (GPa) = -6.03503 19.43044 6.69771
#
# Velocity S-wave (km/s) = -1.77277 3.18094 1.86757
# Velocity P-wave (km/s) = 2.56748 5.28012 4.15160
#
# Compressibility (1/GPa) = 0.04829662
#
# Stress axis : x y z
#
# Youngs Moduli (GPa) = 29.08275 96.12945 111.70458
#
# Poissons Ratio (x) = 0.49742 -0.21865
# Poissons Ratio (y) = 0.15049 -0.05537
# Poissons Ratio (z) = -0.05693 -0.04765
#
# Static dielectric constant tensor:
#      x y z
#    x 1.692550 0.000000 0.000000 
#    y 0.000000 1.646350 0.000000 
#    z 0.000000 0.000000 1.773160 
# 
# From -- ./inp_files/1319.got.cif
#   From: 2010.05.17/outbox.cif.g08.bks.cpg/sg54_1_cif.got.tgz:1319.got - 2010.06.03 13:09:01.
