data_PCOD9420656
_publ_section_title
;
Structure prediction by ZEFSAII (Michael W. Deem and Ramdas Pophale) SiO2 
 PCOD9420656
Probable space group: P C C A
;
_chemical_formula_sum "Si O2"
_cell_formula_units_Z 48
_cell_length_a 18.005837
_cell_length_b 6.891621
_cell_length_c 19.067335
_cell_angle_alpha 90.000000
_cell_angle_beta 90.000000
_cell_angle_gamma 90.000000
_cell_volume 2366.054243
_symmetry_space_group_name_H-M "P C C A"
_symmetry_group_IT_number 54
_symmetry_cell_setting 'orthorhombic'
loop_
_space_group_symop_operation_xyz
x,y,z
1/2-x,-y,z
1/2+x,-y,1/2-z
-x,y,1/2-z
-x,-y,-z
1/2+x,y,-z
1/2-x,y,1/2+z
x,-y,1/2+z
loop_
_atom_site_type_symbol
_atom_site_label
_atom_site_fract_x
_atom_site_fract_y
_atom_site_fract_z
Si Si1 0.914427 0.456649 0.881520
Si Si2 0.293189 0.795220 0.297275
Si Si3 0.999473 0.088362 0.921460
Si Si4 0.401886 0.574147 0.963828
Si Si5 0.250000 0.500000 0.679140
Si Si6 0.250000 0.500000 0.418143
Si Si7 0.043991 0.711668 0.845642
O O1 0.933426 0.231407 0.897437
O O2 0.828847 0.479690 0.860471
O O3 0.975388 0.560766 0.830126
O O4 0.929713 0.555742 0.957307
O O5 0.261385 0.684233 0.229855
O O6 0.269921 0.674375 0.365946
O O7 0.383962 0.769053 0.298142
O O8 0.250000 0.000000 0.300722
O O9 0.068206 0.237752 0.924114
O O10 0.008067 0.914529 0.867634
O O11 0.000000 0.000000 0.000000
O O12 0.314503 0.575667 0.966852
O O13 0.421246 0.390975 0.914916
#
# Coordination Sequence:
#
# PCOD9420656 Si02
#       7
#     8   8   8   8   4   4   8
#     4  11  22  38  60  90 125 162 194 247 316 373
#     4  10  22  43  61  82 115 162 217 261 296 350
#     4  11  18  34  61  94 123 149 191 245 309 382
#     4  10  18  33  58  92 124 153 183 237 311 377
#     4  11  27  44  58  80 125 167 212 258 298 355
#     4   9  19  34  60  86 117 157 196 244 304 367
#     4  10  20  37  64  90 119 154 200 249 306 372
#
# _framework density 20.286940999999999
#
# number of rings (size 3 to 8) (size 9 to 14) (size 15 to 20)
#    0.000    1.667    3.333    2.500    0.000    3.333 
#    0.000    0.000    0.000    0.000    0.000    0.000 
#    0.000    0.000    0.000    0.000    0.000    0.000 
#
# Total GULP energy -267215.525691 kJ/mol
# GULP energy per Si atom -5566.990119 kJ/mol
# Density = 2.024077 g / cm^3
# Si number density = 20.286941 Si / 1000 Ang^3
#
#
#
# Elastic Constant Matrix: (Units=GPa)
#
#
# Indices 1 2 3 4 5 6 
#
# 1 147.5846 45.6321 36.5343 0.0000 0.0000 0.0000
# 2 45.6321 131.7605 22.4533 0.0000 0.0000 0.0000
# 3 36.5343 22.4533 49.7499 0.0000 0.0000 0.0000
# 4 0.0000 0.0000 0.0000 -55.8719 0.0000 0.0000
# 5 0.0000 0.0000 0.0000 0.0000 37.7070 0.0000
# 6 0.0000 0.0000 0.0000 0.0000 0.0000 24.3304
#
#
#
# Elastic Compliance Matrix: (Units=1/GPa)
#
#
# Indices 1 2 3 4 5 6 
#
# 1 0.008789 -0.002106 -0.005504 0.000000 0.000000 0.000000
# 2 -0.002106 0.008727 -0.002392 0.000000 0.000000 0.000000
# 3 -0.005504 -0.002392 0.025222 0.000000 0.000000 0.000000
# 4 0.000000 0.000000 0.000000 -0.017898 0.000000 0.000000
# 5 0.000000 0.000000 0.000000 0.000000 0.026520 0.000000
# 6 0.000000 0.000000 0.000000 0.000000 0.000000 0.041101
#
#
# Mechanical properties :
#
#
# Convention : Reuss Voigt Hill
#
# Bulk Modulus (GPa) = 43.98709 59.81493 51.90101
# Shear Modulus (GPa) = 41.65163 16.19811 28.92487
#
# Velocity S-wave (km/s) = 4.53606 2.82875 3.78006
# Velocity P-wave (km/s) = 7.01170 6.34173 6.68512
#
# Compressibility (1/GPa) = 0.02273394
#
# Stress axis : x y z
#
# Youngs Moduli (GPa) = 113.77217 114.59331 39.64780
#
# Poissons Ratio (x) = 0.24134 0.21823
# Poissons Ratio (y) = 0.23961 0.09483
# Poissons Ratio (z) = 0.62622 0.27409
#
# Static dielectric constant tensor:
#      x y z
#    x 1.792580 0.000000 0.000000 
#    y 0.000000 1.778850 0.000000 
#    z 0.000000 0.000000 1.772550 
# 
# From -- ./inp_files/24607.got.cif
#   From: 2010.05.17/outbox.cif.g08.bks.cpg/sg54_13_cif.got.tgz:24607.got - 2010.06.03 13:09:01.
