data_PCOD9420022
_publ_section_title
;
Structure prediction by ZEFSAII (Michael W. Deem and Ramdas Pophale) SiO2 
 PCOD9420022
Probable space group: P M N A
;
_chemical_formula_sum "Si O2"
_cell_formula_units_Z 32
_cell_length_a 14.654198
_cell_length_b 10.565438
_cell_length_c 9.560416
_cell_angle_alpha 90.000000
_cell_angle_beta 90.000000
_cell_angle_gamma 90.000000
_cell_volume 1480.220284
_symmetry_space_group_name_H-M "P M N A"
_symmetry_group_IT_number 53
_symmetry_cell_setting 'orthorhombic'
loop_
_space_group_symop_operation_xyz
x,y,z
1/2-x,-y,1/2+z
x,-y,-z
1/2-x,y,1/2-z
-x,-y,-z
1/2+x,y,1/2-z
-x,y,z
1/2+x,-y,1/2+z
loop_
_atom_site_type_symbol
_atom_site_label
_atom_site_fract_x
_atom_site_fract_y
_atom_site_fract_z
Si Si1 0.636201 0.853568 0.514482
Si Si2 0.669020 0.251889 0.040560
Si Si3 0.000000 0.198366 0.265950
Si Si4 0.894769 0.660700 0.234440
Si Si5 0.750000 0.543258 0.750000
O O1 0.744312 0.840467 0.538381
O O2 0.579587 0.797918 0.643034
O O3 0.613328 0.774132 0.375855
O O4 0.610798 0.000000 0.500000
O O5 0.580468 0.196453 0.114409
O O6 0.704098 0.371730 0.130656
O O7 0.642229 0.294456 0.884661
O O8 0.829624 0.545975 0.189247
O O9 0.000000 0.619841 0.246154
#
# Coordination Sequence:
#
# PCOD9420022 Si02
#       5
#     8   8   4   8   4
#     4  12  27  53  75 109 155 202 256 318 382 457
#     4  12  26  48  76 113 152 200 251 320 386 451
#     4  12  25  46  79 112 145 202 259 309 388 451
#     4  12  27  46  78 110 150 203 255 307 387 459
#     4  12  26  46  76 110 154 194 258 318 374 454
#
# _framework density 21.618404000000002
#
# number of rings (size 3 to 8) (size 9 to 14) (size 15 to 20)
#    0.000    0.000    7.500    1.125    1.750    5.000 
#    0.000    4.375    0.000    0.000    0.000    0.000 
#    0.000    0.000    0.000    0.000    0.000    0.000 
#
# Total GULP energy -178184.387037 kJ/mol
# GULP energy per Si atom -5568.262095 kJ/mol
# Density = 2.156920 g / cm^3
# Si number density = 21.618404 Si / 1000 Ang^3
#
#
#
# Elastic Constant Matrix: (Units=GPa)
#
#
# Indices 1 2 3 4 5 6 
#
# 1 217.0128 7.3739 32.0381 0.0000 0.0000 0.0000
# 2 7.3739 54.5999 2.5816 0.0000 0.0000 0.0000
# 3 32.0381 2.5816 109.2707 0.0000 0.0000 0.0000
# 4 0.0000 0.0000 0.0000 -8.7123 0.0000 0.0000
# 5 0.0000 0.0000 0.0000 0.0000 60.3225 0.0000
# 6 0.0000 0.0000 0.0000 0.0000 0.0000 3.6171
#
#
#
# Elastic Compliance Matrix: (Units=1/GPa)
#
#
# Indices 1 2 3 4 5 6 
#
# 1 0.004835 -0.000587 -0.001404 0.000000 0.000000 0.000000
# 2 -0.000587 0.018407 -0.000263 0.000000 0.000000 0.000000
# 3 -0.001404 -0.000263 0.009569 0.000000 0.000000 0.000000
# 4 0.000000 0.000000 0.000000 -0.114780 0.000000 0.000000
# 5 0.000000 0.000000 0.000000 0.000000 0.016578 0.000000
# 6 0.000000 0.000000 0.000000 0.000000 0.000000 0.276467
#
#
# Mechanical properties :
#
#
# Convention : Reuss Voigt Hill
#
# Bulk Modulus (GPa) = 35.32986 51.65228 43.49107
# Shear Modulus (GPa) = 22.22051 33.63809 27.92930
#
# Velocity S-wave (km/s) = 3.20949 3.94889 3.59823
# Velocity P-wave (km/s) = 5.48748 6.68851 6.11754
#
# Compressibility (1/GPa) = 0.02830467
#
# Stress axis : x y z
#
# Youngs Moduli (GPa) = 206.81642 54.32798 104.49983
#
# Poissons Ratio (x) = 0.03187 0.14670
# Poissons Ratio (y) = 0.12133 0.02747
# Poissons Ratio (z) = 0.29033 0.01428
#
# Static dielectric constant tensor:
#      x y z
#    x 1.779800 0.000000 0.000000 
#    y 0.000000 1.806280 0.000000 
#    z 0.000000 0.000000 1.714780 
# 
# From -- ./inp_files/8049.got.cif
#   From: 2010.05.17/outbox.cif.g08.bks.cpg/sg53_5_cif.got.tgz:8049.got - 2010.06.03 12:45:16.
