data_PCOD9420158
_publ_section_title
;
Structure prediction by ZEFSAII (Michael W. Deem and Ramdas Pophale) SiO2 
 PCOD9420158
Probable space group: P M N A
;
_chemical_formula_sum "Si O2"
_cell_formula_units_Z 56
_cell_length_a 9.000000
_cell_length_b 21.000000
_cell_length_c 15.000000
_cell_angle_alpha 90.000000
_cell_angle_beta 90.000000
_cell_angle_gamma 90.000000
_cell_volume 2835.000000
_symmetry_space_group_name_H-M "P M N A"
_symmetry_group_IT_number 53
_symmetry_cell_setting 'orthorhombic'
loop_
_space_group_symop_operation_xyz
x,y,z
1/2-x,-y,1/2+z
x,-y,-z
1/2-x,y,1/2-z
-x,-y,-z
1/2+x,y,1/2-z
-x,y,z
1/2+x,-y,1/2+z
loop_
_atom_site_type_symbol
_atom_site_label
_atom_site_fract_x
_atom_site_fract_y
_atom_site_fract_z
Si Si1 0.318954 0.154845 0.028379
Si Si2 0.827089 0.486992 0.605803
Si Si3 0.821723 0.293167 0.469934
Si Si4 0.178749 0.957766 0.655221
Si Si5 0.323363 0.342706 0.841988
Si Si6 0.674309 0.388381 0.338479
Si Si7 0.678193 0.104933 0.843778
O O1 0.500000 0.153733 0.027456
O O2 0.270838 0.146594 0.926622
O O3 0.276459 0.223783 0.064755
O O4 0.269257 0.094333 0.084706
O O5 0.819644 0.500000 0.500000
O O6 0.783542 0.415357 0.630941
O O7 0.723126 0.538665 0.650937
O O8 0.000000 0.497085 0.632311
O O9 0.786981 0.298622 0.574397
O O10 0.740139 0.349476 0.420336
O O11 0.000000 0.301625 0.459942
O O12 0.250000 0.943279 0.750000
O O13 0.000000 0.954082 0.660772
O O14 0.214625 0.031083 0.633597
O O15 0.250000 0.324221 0.750000
O O16 0.500000 0.341650 0.830989
O O17 0.750000 0.361852 0.250000
O O18 0.500000 0.382619 0.333439
O O19 0.750000 0.121349 0.750000
O O20 0.500000 0.109396 0.835745
#
# Coordination Sequence:
#
# PCOD9420158 Si02
#       7
#     8   8   8   8   8   8   8
#     4   9  18  33  56  78 102 143 187 222 264 323
#     4  10  19  37  62  86 113 143 177 224 281 327
#     4  10  21  40  58  77 108 148 189 229 276 325
#     4   9  17  31  52  79 108 138 176 224 270 320
#     4  10  21  36  57  81 109 143 178 222 272 326
#     4  12  25  40  60  85 112 145 185 228 278 331
#     4   9  17  31  52  80 110 140 177 220 270 321
#
# _framework density 19.753086
#
# number of rings (size 3 to 8) (size 9 to 14) (size 15 to 20)
#    0.000    2.143    1.429    2.143    0.000    5.429 
#    0.000    3.571    0.000    3.429    0.000    0.000 
#    0.000    0.000    0.000    0.000    0.000    0.000 
#
# Total GULP energy -312482.871391 kJ/mol
# GULP energy per Si atom -5580.051275 kJ/mol
# Density = 1.970813 g / cm^3
# Si number density = 19.753086 Si / 1000 Ang^3
#
#
#
# Elastic Constant Matrix: (Units=GPa)
#
#
# Indices 1 2 3 4 5 6 
#
# 1 22.2837 20.6184 34.2958 0.0000 0.0000 0.0000
# 2 20.6184 44.1444 28.9632 0.0000 0.0000 0.0000
# 3 34.2958 28.9632 63.0983 0.0000 0.0000 0.0000
# 4 0.0000 0.0000 0.0000 -23.4292 0.0000 0.0000
# 5 0.0000 0.0000 0.0000 0.0000 26.8969 0.0000
# 6 0.0000 0.0000 0.0000 0.0000 0.0000 178.7791
#
#
#
# Elastic Compliance Matrix: (Units=1/GPa)
#
#
# Indices 1 2 3 4 5 6 
#
# 1 0.348165 -0.055030 -0.163978 0.000000 0.000000 0.000000
# 2 -0.055030 0.041113 0.011039 0.000000 0.000000 0.000000
# 3 -0.163978 0.011039 0.099908 0.000000 0.000000 0.000000
# 4 0.000000 0.000000 0.000000 -0.042682 0.000000 0.000000
# 5 0.000000 0.000000 0.000000 0.000000 0.037179 0.000000
# 6 0.000000 0.000000 0.000000 0.000000 0.000000 0.005593
#
#
# Mechanical properties :
#
#
# Convention : Reuss Voigt Hill
#
# Bulk Modulus (GPa) = 13.65238 33.03122 23.34180
# Shear Modulus (GPa) = 5.37847 39.49262 22.43555
#
# Velocity S-wave (km/s) = 1.65190 4.47622 3.37382
# Velocity P-wave (km/s) = 3.25037 6.59346 5.19801
#
# Compressibility (1/GPa) = 0.07324728
#
# Stress axis : x y z
#
# Youngs Moduli (GPa) = 2.87220 24.32310 10.00920
#
# Poissons Ratio (x) = 1.33851 1.64129
# Poissons Ratio (y) = 0.15806 -0.11049
# Poissons Ratio (z) = 0.47098 -0.26850
#
# Static dielectric constant tensor:
#      x y z
#    x 1.657600 0.000000 0.000000 
#    y 0.000000 1.691070 0.000000 
#    z 0.000000 0.000000 1.645090 
# 
# From -- ./inp_files/20477.got.cif
#   From: 2010.05.17/outbox.ucp.g08.bks.cvg/sg53_11_cif.got.tgz:20477.got - 2010.06.11 16:32:34.
