data_PCOD9420591
_publ_section_title
;
Structure prediction by ZEFSAII (Michael W. Deem and Ramdas Pophale) SiO2 
 PCOD9420591
Probable space group: P C C A
;
_chemical_formula_sum "Si O2"
_cell_formula_units_Z 48
_cell_length_a 12.121386
_cell_length_b 10.549156
_cell_length_c 18.991655
_cell_angle_alpha 90.000000
_cell_angle_beta 90.000000
_cell_angle_gamma 90.000000
_cell_volume 2428.470367
_symmetry_space_group_name_H-M "P C C A"
_symmetry_group_IT_number 54
_symmetry_cell_setting 'orthorhombic'
loop_
_space_group_symop_operation_xyz
x,y,z
1/2-x,-y,z
1/2+x,-y,1/2-z
-x,y,1/2-z
-x,-y,-z
1/2+x,y,-z
1/2-x,y,1/2+z
x,-y,1/2+z
loop_
_atom_site_type_symbol
_atom_site_label
_atom_site_fract_x
_atom_site_fract_y
_atom_site_fract_z
Si Si1 0.604807 0.862262 0.401200
Si Si2 0.149862 0.798552 0.900656
Si Si3 0.750000 0.000000 0.001232
Si Si4 0.856011 0.584775 0.946087
Si Si5 0.631638 0.749533 0.257029
Si Si6 0.750000 0.500000 0.723640
Si Si7 0.090958 0.489721 0.402547
O O1 0.474031 0.850725 0.409633
O O2 0.657621 0.731399 0.429163
O O3 0.635681 0.852403 0.318944
O O4 0.649645 0.975338 0.447981
O O5 0.229134 0.880488 0.948618
O O6 0.172125 0.804007 0.817400
O O7 0.143553 0.649249 0.918088
O O8 0.750000 0.500000 0.933031
O O9 0.960201 0.534490 0.900468
O O10 0.887452 0.572502 0.028553
O O11 0.500000 0.715805 0.250000
O O12 0.703178 0.620640 0.266334
O O13 0.850178 0.465330 0.668997
#
# Coordination Sequence:
#
# PCOD9420591 Si02
#       7
#     8   8   4   8   8   4   8
#     4  10  22  36  55  83 114 147 193 239 288 346
#     4   9  20  39  57  81 108 154 195 231 291 346
#     4  12  22  34  62  84 108 148 200 250 284 330
#     4  10  18  31  54  83 120 151 185 229 302 343
#     4   9  20  39  59  81 117 157 187 230 297 354
#     4  10  18  34  60  80 116 146 198 222 288 364
#     4   9  18  32  55  86 115 149 187 242 281 351
#
# _framework density 19.765528
#
# number of rings (size 3 to 8) (size 9 to 14) (size 15 to 20)
#    0.000    2.333    0.833    2.500    3.500    0.667 
#    0.000    0.000    0.000    0.000    0.000    0.000 
#    0.000    0.000    0.000    0.000    0.000    0.000 
#
# Total GULP energy -267762.416251 kJ/mol
# GULP energy per Si atom -5578.383672 kJ/mol
# Density = 1.972054 g / cm^3
# Si number density = 19.765528 Si / 1000 Ang^3
#
#
#
# Elastic Constant Matrix: (Units=GPa)
#
#
# Indices 1 2 3 4 5 6 
#
# 1 50.7540 4.9574 0.5945 0.0000 0.0000 0.0000
# 2 4.9574 20.6684 15.1977 0.0000 0.0000 0.0000
# 3 0.5945 15.1977 82.5267 0.0000 0.0000 0.0000
# 4 0.0000 0.0000 0.0000 19.9999 0.0000 0.0000
# 5 0.0000 0.0000 0.0000 0.0000 28.9369 0.0000
# 6 0.0000 0.0000 0.0000 0.0000 0.0000 25.3962
#
#
#
# Elastic Compliance Matrix: (Units=1/GPa)
#
#
# Indices 1 2 3 4 5 6 
#
# 1 0.020229 -0.005488 0.000865 0.000000 0.000000 0.000000
# 2 -0.005488 0.057450 -0.010540 0.000000 0.000000 0.000000
# 3 0.000865 -0.010540 0.014052 0.000000 0.000000 0.000000
# 4 0.000000 0.000000 0.000000 0.050000 0.000000 0.000000
# 5 0.000000 0.000000 0.000000 0.000000 0.034558 0.000000
# 6 0.000000 0.000000 0.000000 0.000000 0.000000 0.039376
#
#
# Mechanical properties :
#
#
# Convention : Reuss Voigt Hill
#
# Bulk Modulus (GPa) = 16.28552 21.71648 19.00100
# Shear Modulus (GPa) = 18.76461 23.74656 21.25559
#
# Velocity S-wave (km/s) = 3.08451 3.46990 3.28287
# Velocity P-wave (km/s) = 4.57634 5.20236 4.89936
#
# Compressibility (1/GPa) = 0.06140423
#
# Stress axis : x y z
#
# Youngs Moduli (GPa) = 49.43451 17.40656 71.16384
#
# Poissons Ratio (x) = 0.09553 -0.06155
# Poissons Ratio (y) = 0.27129 0.75007
# Poissons Ratio (z) = -0.04276 0.18347
#
# Static dielectric constant tensor:
#      x y z
#    x 1.727040 0.000000 0.000000 
#    y 0.000000 1.687200 0.000000 
#    z 0.000000 0.000000 1.739120 
# 
# From -- ./inp_files/21131.got.cif
#   From: 2010.05.17/outbox.cif.g08.bks.cpg/sg54_11_cif.got.tgz:21131.got - 2010.06.03 13:09:01.
