data_PCOD9420729
_publ_section_title
;
Structure prediction by ZEFSAII (Michael W. Deem and Ramdas Pophale) SiO2 
 PCOD9420729
Probable space group: P C C A
;
_chemical_formula_sum "Si O2"
_cell_formula_units_Z 64
_cell_length_a 17.410553
_cell_length_b 6.990368
_cell_length_c 20.515245
_cell_angle_alpha 90.000000
_cell_angle_beta 90.000000
_cell_angle_gamma 90.000000
_cell_volume 2496.831948
_symmetry_space_group_name_H-M "P C C A"
_symmetry_group_IT_number 54
_symmetry_cell_setting 'orthorhombic'
loop_
_space_group_symop_operation_xyz
x,y,z
1/2-x,-y,z
1/2+x,-y,1/2-z
-x,y,1/2-z
-x,-y,-z
1/2+x,y,-z
1/2-x,y,1/2+z
x,-y,1/2+z
loop_
_atom_site_type_symbol
_atom_site_label
_atom_site_fract_x
_atom_site_fract_y
_atom_site_fract_z
Si Si1 0.714112 0.674974 0.556555
Si Si2 0.452467 0.702388 0.004525
Si Si3 0.485049 0.799794 0.150514
Si Si4 0.833471 0.802038 0.788290
Si Si5 0.340056 0.857988 0.356784
Si Si6 0.323989 0.257559 0.182030
Si Si7 0.527514 0.776547 0.877836
Si Si8 0.125865 0.689594 0.325565
O O1 0.750000 0.500000 0.517026
O O2 0.635619 0.730906 0.519760
O O3 0.784043 0.809957 0.582576
O O4 0.678376 0.582596 0.622813
O O5 0.452896 0.758208 0.079148
O O6 0.500000 0.500000 0.000000
O O7 0.501805 0.819348 0.951269
O O8 0.420038 0.727697 0.200719
O O9 0.575541 0.764968 0.143585
O O10 0.480770 0.028226 0.162264
O O11 0.807098 0.794306 0.713167
O O12 0.765559 0.702694 0.828419
O O13 0.829900 0.025998 0.808290
O O14 0.355024 0.087462 0.347124
O O15 0.387312 0.304102 0.128014
O O16 0.354248 0.339319 0.250888
O O17 0.462242 0.647871 0.844360
#
# Coordination Sequence:
#
# PCOD9420729 Si02
#       8
#     8   8   8   8   8   8   8   8
#     4  11  22  37  57  82 110 151 199 242 281 341
#     4  11  24  43  57  76 114 160 204 243 288 338
#     4  10  20  37  60  88 116 147 194 240 286 350
#     4   9  17  30  57  92 123 146 173 234 291 353
#     4  10  18  35  62  90 116 146 183 233 298 353
#     4   9  15  30  55  90 126 142 178 227 298 346
#     4   9  19  34  61  86 114 152 191 239 288 344
#     4   9  17  32  59  90 118 144 184 234 292 356
#
# _framework density 25.632482
#
# number of rings (size 3 to 8) (size 9 to 14) (size 15 to 20)
#    0.000    2.250    1.250    2.250    0.000    3.000 
#    4.500    2.500   11.000    3.000    0.000    0.000 
#    0.000    0.000    0.000    0.000    0.000    0.000 
#
# Total GULP energy -357072.346198 kJ/mol
# GULP energy per Si atom -5579.255409 kJ/mol
# Density = 2.557414 g / cm^3
# Si number density = 25.632482 Si / 1000 Ang^3
#
#
#
# Elastic Constant Matrix: (Units=GPa)
#
#
# Indices 1 2 3 4 5 6 
#
# 1 207.7910 15.1551 36.8574 0.0000 0.0000 0.0000
# 2 15.1551 81.1633 -13.6299 0.0000 0.0000 0.0000
# 3 36.8574 -13.6299 61.8811 0.0000 0.0000 0.0000
# 4 0.0000 0.0000 0.0000 14.5016 0.0000 0.0000
# 5 0.0000 0.0000 0.0000 0.0000 36.5192 0.0000
# 6 0.0000 0.0000 0.0000 0.0000 0.0000 25.4399
#
#
#
# Elastic Compliance Matrix: (Units=1/GPa)
#
#
# Indices 1 2 3 4 5 6 
#
# 1 0.005589 -0.001664 -0.003696 0.000000 0.000000 0.000000
# 2 -0.001664 0.013290 0.003918 0.000000 0.000000 0.000000
# 3 -0.003696 0.003918 0.019224 0.000000 0.000000 0.000000
# 4 0.000000 0.000000 0.000000 0.068958 0.000000 0.000000
# 5 0.000000 0.000000 0.000000 0.000000 0.027383 0.000000
# 6 0.000000 0.000000 0.000000 0.000000 0.000000 0.039308
#
#
# Mechanical properties :
#
#
# Convention : Reuss Voigt Hill
#
# Bulk Modulus (GPa) = 28.39278 47.51119 37.95199
# Shear Modulus (GPa) = 26.54271 36.12234 31.33253
#
# Velocity S-wave (km/s) = 3.22143 3.75806 3.50004
# Velocity P-wave (km/s) = 4.99377 6.11608 5.58320
#
# Compressibility (1/GPa) = 0.03522022
#
# Stress axis : x y z
#
# Youngs Moduli (GPa) = 178.90826 75.24660 52.01736
#
# Poissons Ratio (x) = 0.12523 0.19224
# Poissons Ratio (y) = 0.29776 -0.20383
# Poissons Ratio (z) = 0.66120 -0.29485
#
# Static dielectric constant tensor:
#      x y z
#    x 2.108750 0.000000 0.000000 
#    y 0.000000 2.239270 0.000000 
#    z 0.000000 0.000000 1.944670 
# 
# From -- ./inp_files/21979.got.cif
#   From: 2010.05.17/outbox.cif.g08.bks.cpg/sg54_11_cif.got.tgz:21979.got - 2010.06.03 13:09:01.
