data_PCOD9420880
_publ_section_title
;
Structure prediction by ZEFSAII (Michael W. Deem and Ramdas Pophale) SiO2 
 PCOD9420880
Probable space group: P C C A
;
_chemical_formula_sum "Si O2"
_cell_formula_units_Z 40
_cell_length_a 9.324656
_cell_length_b 12.623053
_cell_length_c 16.621351
_cell_angle_alpha 90.000000
_cell_angle_beta 90.000000
_cell_angle_gamma 90.000000
_cell_volume 1956.426539
_symmetry_space_group_name_H-M "P C C A"
_symmetry_group_IT_number 54
_symmetry_cell_setting 'orthorhombic'
loop_
_space_group_symop_operation_xyz
x,y,z
1/2-x,-y,z
1/2+x,-y,1/2-z
-x,y,1/2-z
-x,-y,-z
1/2+x,y,-z
1/2-x,y,1/2+z
x,-y,1/2+z
loop_
_atom_site_type_symbol
_atom_site_label
_atom_site_fract_x
_atom_site_fract_y
_atom_site_fract_z
Si Si1 0.101242 0.509522 0.897225
Si Si2 0.910761 0.335076 0.959082
Si Si3 0.317755 0.614714 0.170093
Si Si4 0.500287 0.138350 0.572146
Si Si5 0.000000 0.766379 0.750000
Si Si6 0.750000 0.000000 0.500662
O O1 0.250000 0.500000 0.851727
O O2 0.040193 0.392341 0.912007
O O3 0.974155 0.579577 0.861513
O O4 0.135844 0.573051 0.978916
O O5 0.779550 0.325109 0.896373
O O6 0.966274 0.235428 0.010033
O O7 0.250000 0.500000 0.184399
O O8 0.356531 0.694273 0.241310
O O9 0.503448 0.172274 0.665379
O O10 0.632479 0.059987 0.554287
O O11 0.349196 0.081356 0.550636
#
# Coordination Sequence:
#
# PCOD9420880 Si02
#       6
#     8   8   8   8   4   4
#     4  10  19  31  61  99 123 173 222 252 290 367
#     4  10  19  36  62  92 126 171 216 255 298 387
#     4  10  22  39  56  95 141 174 217 254 303 391
#     4  11  24  44  70  95 125 158 218 271 335 376
#     4  12  24  40  64  96 132 174 194 268 344 378
#     4  10  26  48  70  96 110 162 228 284 308 394
#
# _framework density 20.445440000000001
#
# number of rings (size 3 to 8) (size 9 to 14) (size 15 to 20)
#    0.000    1.600    2.000    4.200    2.800    1.600 
#    0.000    0.000    0.000    9.600    0.000    0.000 
#    0.000    0.000    0.000    0.000    0.000    0.000 
#
# Total GULP energy -223095.914686 kJ/mol
# GULP energy per Si atom -5577.397867 kJ/mol
# Density = 2.039890 g / cm^3
# Si number density = 20.445440 Si / 1000 Ang^3
#
#
#
# Elastic Constant Matrix: (Units=GPa)
#
#
# Indices 1 2 3 4 5 6 
#
# 1 160.7609 57.0365 66.2015 0.0000 0.0000 0.0000
# 2 57.0365 112.8535 62.8870 0.0000 0.0000 0.0000
# 3 66.2015 62.8870 134.5566 0.0000 0.0000 0.0000
# 4 0.0000 0.0000 0.0000 18.6725 0.0000 0.0000
# 5 0.0000 0.0000 0.0000 0.0000 25.4659 0.0000
# 6 0.0000 0.0000 0.0000 0.0000 0.0000 35.7287
#
#
#
# Elastic Compliance Matrix: (Units=1/GPa)
#
#
# Indices 1 2 3 4 5 6 
#
# 1 0.008331 -0.002605 -0.002881 0.000000 0.000000 0.000000
# 2 -0.002605 0.012796 -0.004699 0.000000 0.000000 0.000000
# 3 -0.002881 -0.004699 0.011046 0.000000 0.000000 0.000000
# 4 0.000000 0.000000 0.000000 0.053555 0.000000 0.000000
# 5 0.000000 0.000000 0.000000 0.000000 0.039268 0.000000
# 6 0.000000 0.000000 0.000000 0.000000 0.000000 0.027989
#
#
# Mechanical properties :
#
#
# Convention : Reuss Voigt Hill
#
# Bulk Modulus (GPa) = 84.72886 86.71345 85.72115
# Shear Modulus (GPa) = 28.20260 30.77650 29.48955
#
# Velocity S-wave (km/s) = 3.71807 3.88403 3.80195
# Velocity P-wave (km/s) = 7.74361 7.91318 7.82885
#
# Compressibility (1/GPa) = 0.01180235
#
# Stress axis : x y z
#
# Youngs Moduli (GPa) = 120.03039 78.14979 90.53436
#
# Poissons Ratio (x) = 0.20357 0.26087
# Poissons Ratio (y) = 0.31267 0.42540
# Poissons Ratio (z) = 0.34587 0.36721
#
# Static dielectric constant tensor:
#      x y z
#    x 1.769520 0.000000 0.000000 
#    y 0.000000 1.772680 0.000000 
#    z 0.000000 0.000000 1.772860 
# 
# From -- ./inp_files/16391.got.cif
#   From: 2010.05.17/outbox.cif.g08.bks.cpg/sg54_9_cif.got.tgz:16391.got - 2010.06.03 13:09:01.
