data_PCOD9420001
_publ_section_title
;
Structure prediction by ZEFSAII (Michael W. Deem and Ramdas Pophale) SiO2 
 PCOD9420001
Probable space group: P M N A
;
_chemical_formula_sum "Si O2"
_cell_formula_units_Z 48
_cell_length_a 14.593328
_cell_length_b 9.353101
_cell_length_c 15.103571
_cell_angle_alpha 90.000000
_cell_angle_beta 90.000000
_cell_angle_gamma 90.000000
_cell_volume 2061.529764
_symmetry_space_group_name_H-M "P M N A"
_symmetry_group_IT_number 53
_symmetry_cell_setting 'orthorhombic'
loop_
_space_group_symop_operation_xyz
x,y,z
1/2-x,-y,1/2+z
x,-y,-z
1/2-x,y,1/2-z
-x,-y,-z
1/2+x,y,1/2-z
-x,y,z
1/2+x,-y,1/2+z
loop_
_atom_site_type_symbol
_atom_site_label
_atom_site_fract_x
_atom_site_fract_y
_atom_site_fract_z
Si Si1 0.603258 0.016736 0.293272
Si Si2 0.603944 0.536620 0.336228
Si Si3 0.597812 0.809083 0.461131
Si Si4 0.226589 0.715100 0.843099
Si Si5 0.305766 0.834125 0.994706
Si Si6 0.389275 0.252351 0.823768
O O1 0.500000 0.062299 0.268749
O O2 0.670103 0.146497 0.310828
O O3 0.597172 0.927338 0.383967
O O4 0.636152 0.900051 0.221243
O O5 0.500000 0.485605 0.318871
O O6 0.600284 0.661045 0.408993
O O7 0.660807 0.408355 0.379566
O O8 0.633902 0.622021 0.246083
O O9 0.500000 0.818628 0.510644
O O10 0.694658 0.830450 0.507154
O O11 0.250000 0.643331 0.750000
O O12 0.316406 0.756797 0.900169
O O13 0.342637 0.749542 0.079837
O O14 0.335993 0.000000 0.000000
O O15 0.500000 0.253332 0.832745
#
# Coordination Sequence:
#
# PCOD9420001 Si02
#       6
#     8   8   8   8   8   8
#     4   9  18  37  64  91 124 165 209 263 321 382
#     4   9  21  43  66  90 122 170 217 263 320 384
#     4   9  20  38  63  94 125 163 205 253 323 389
#     4  12  25  38  57  94 129 167 213 264 326 387
#     4  12  24  39  64 100 132 169 212 270 329 381
#     4   9  21  43  71  94 122 172 225 268 319 383
#
# _framework density 23.283681000000001
#
# number of rings (size 3 to 8) (size 9 to 14) (size 15 to 20)
#    0.000    2.000    1.667    3.500    2.333    4.000 
#    0.000    3.333    0.000    2.000    0.000    0.000 
#    0.000    0.000    0.000    0.000    0.000    0.000 
#
# Total GULP energy -268019.623115 kJ/mol
# GULP energy per Si atom -5583.742148 kJ/mol
# Density = 2.323069 g / cm^3
# Si number density = 23.283681 Si / 1000 Ang^3
#
#
#
# Elastic Constant Matrix: (Units=GPa)
#
#
# Indices 1 2 3 4 5 6 
#
# 1 45.2567 24.7933 11.2272 0.0000 0.0000 0.0000
# 2 24.7933 133.5499 22.4252 0.0000 0.0000 0.0000
# 3 11.2272 22.4252 102.2534 0.0000 0.0000 0.0000
# 4 0.0000 0.0000 0.0000 14.6782 0.0000 0.0000
# 5 0.0000 0.0000 0.0000 0.0000 22.6648 0.0000
# 6 0.0000 0.0000 0.0000 0.0000 0.0000 14.0384
#
#
#
# Elastic Compliance Matrix: (Units=1/GPa)
#
#
# Indices 1 2 3 4 5 6 
#
# 1 0.024908 -0.004324 -0.001787 0.000000 0.000000 0.000000
# 2 -0.004324 0.008525 -0.001395 0.000000 0.000000 0.000000
# 3 -0.001787 -0.001395 0.010282 0.000000 0.000000 0.000000
# 4 0.000000 0.000000 0.000000 0.068128 0.000000 0.000000
# 5 0.000000 0.000000 0.000000 0.000000 0.044121 0.000000
# 6 0.000000 0.000000 0.000000 0.000000 0.000000 0.071233
#
#
# Mechanical properties :
#
#
# Convention : Reuss Voigt Hill
#
# Bulk Modulus (GPa) = 34.83864 44.21683 39.52773
# Shear Modulus (GPa) = 19.85886 25.11722 22.48804
#
# Velocity S-wave (km/s) = 2.92363 3.28799 3.11115
# Velocity P-wave (km/s) = 5.13731 5.78327 5.46984
#
# Compressibility (1/GPa) = 0.02870376
#
# Stress axis : x y z
#
# Youngs Moduli (GPa) = 40.14724 117.30441 97.26041
#
# Poissons Ratio (x) = 0.50725 0.17376
# Poissons Ratio (y) = 0.17360 0.13566
# Poissons Ratio (z) = 0.07172 0.16362
#
# Static dielectric constant tensor:
#      x y z
#    x 2.075990 0.000000 0.000000 
#    y 0.000000 1.834500 0.000000 
#    z 0.000000 0.000000 2.186720 
# 
# From -- ./inp_files/28289.got.cif
#   From: 2010.05.17/outbox.cif.g08.bks.cpg/sg53_15_cif.got.tgz:28289.got - 2010.06.03 12:45:16.
