data_PCOD9420804
_publ_section_title
;
Structure prediction by ZEFSAII (Michael W. Deem and Ramdas Pophale) SiO2 
 PCOD9420804
Probable space group: P C C A
;
_chemical_formula_sum "Si O2"
_cell_formula_units_Z 32
_cell_length_a 12.381856
_cell_length_b 15.649013
_cell_length_c 7.953212
_cell_angle_alpha 90.000000
_cell_angle_beta 90.000000
_cell_angle_gamma 90.000000
_cell_volume 1541.044782
_symmetry_space_group_name_H-M "P C C A"
_symmetry_group_IT_number 54
_symmetry_cell_setting 'orthorhombic'
loop_
_space_group_symop_operation_xyz
x,y,z
1/2-x,-y,z
1/2+x,-y,1/2-z
-x,y,1/2-z
-x,-y,-z
1/2+x,y,-z
1/2-x,y,1/2+z
x,-y,1/2+z
loop_
_atom_site_type_symbol
_atom_site_label
_atom_site_fract_x
_atom_site_fract_y
_atom_site_fract_z
Si Si1 0.750000 0.500000 0.891703
Si Si2 0.609684 0.919367 0.845012
Si Si3 0.000000 0.252835 0.250000
Si Si4 0.655109 0.110352 0.737094
Si Si5 0.102297 0.414916 0.345848
O O1 0.797323 0.577759 0.782457
O O2 0.650492 0.534836 0.999307
O O3 0.500000 0.894220 0.750000
O O4 0.716318 0.883380 0.753261
O O5 0.620815 0.022506 0.828166
O O6 0.619525 0.896281 0.041652
O O7 0.092639 0.190272 0.183985
O O8 0.059103 0.319237 0.375847
O O9 0.000000 0.456163 0.250000
#
# Coordination Sequence:
#
# PCOD9420804 Si02
#       5
#     4   8   4   8   8
#     4  10  18  40  70  86 118 156 208 218 300 384
#     4  11  23  39  66  84 114 172 215 245 304 358
#     4  10  24  38  60  88 138 144 198 264 312 334
#     4  11  23  40  62  89 122 159 215 259 297 365
#     4   9  21  38  64  93 118 158 189 251 291 359
#
# _framework density 20.765132999999999
#
# number of rings (size 3 to 8) (size 9 to 14) (size 15 to 20)
#    0.750    1.000    1.250    4.500    3.500    2.000 
#    0.000    0.000    0.000    0.000    0.000    0.000 
#    0.000    0.000    0.000    0.000    0.000    0.000 
#
# Total GULP energy -178290.276544 kJ/mol
# GULP energy per Si atom -5571.571142 kJ/mol
# Density = 2.071787 g / cm^3
# Si number density = 20.765133 Si / 1000 Ang^3
#
#
#
# Elastic Constant Matrix: (Units=GPa)
#
#
# Indices 1 2 3 4 5 6 
#
# 1 156.2603 52.6913 32.6645 0.0000 0.0000 0.0000
# 2 52.6913 94.9311 26.9962 0.0000 0.0000 0.0000
# 3 32.6645 26.9962 78.8226 0.0000 0.0000 0.0000
# 4 0.0000 0.0000 0.0000 5.1344 0.0000 0.0000
# 5 0.0000 0.0000 0.0000 0.0000 34.9819 0.0000
# 6 0.0000 0.0000 0.0000 0.0000 0.0000 45.6620
#
#
#
# Elastic Compliance Matrix: (Units=1/GPa)
#
#
# Indices 1 2 3 4 5 6 
#
# 1 0.008155 -0.003950 -0.002027 0.000000 0.000000 0.000000
# 2 -0.003950 0.013584 -0.003015 0.000000 0.000000 0.000000
# 3 -0.002027 -0.003015 0.014559 0.000000 0.000000 0.000000
# 4 0.000000 0.000000 0.000000 0.194765 0.000000 0.000000
# 5 0.000000 0.000000 0.000000 0.000000 0.028586 0.000000
# 6 0.000000 0.000000 0.000000 0.000000 0.000000 0.021900
#
#
# Mechanical properties :
#
#
# Convention : Reuss Voigt Hill
#
# Bulk Modulus (GPa) = 54.60309 61.63535 58.11922
# Shear Modulus (GPa) = 16.35913 31.66644 24.01278
#
# Velocity S-wave (km/s) = 2.80985 3.90934 3.40428
# Velocity P-wave (km/s) = 6.07286 7.07982 6.59558
#
# Compressibility (1/GPa) = 0.01831398
#
# Stress axis : x y z
#
# Youngs Moduli (GPa) = 122.62033 73.61579 68.68438
#
# Poissons Ratio (x) = 0.29080 0.13920
# Poissons Ratio (y) = 0.48438 0.20711
# Poissons Ratio (z) = 0.24851 0.22198
#
# Static dielectric constant tensor:
#      x y z
#    x 1.783820 0.000000 0.000000 
#    y 0.000000 1.732670 0.000000 
#    z 0.000000 0.000000 1.774240 
# 
# From -- ./inp_files/2835.got.cif
#   From: 2010.05.17/outbox.cif.g08.bks.cpg/sg54_2_cif.got.tgz:2835.got - 2010.06.03 13:09:01.
