data_PCOD9420782
_publ_section_title
;
Structure prediction by ZEFSAII (Michael W. Deem and Ramdas Pophale) SiO2 
 PCOD9420782
Probable space group: P C C A
;
_chemical_formula_sum "Si O2"
_cell_formula_units_Z 56
_cell_length_a 12.279054
_cell_length_b 9.216268
_cell_length_c 21.884750
_cell_angle_alpha 90.000000
_cell_angle_beta 90.000000
_cell_angle_gamma 90.000000
_cell_volume 2476.632651
_symmetry_space_group_name_H-M "P C C A"
_symmetry_group_IT_number 54
_symmetry_cell_setting 'orthorhombic'
loop_
_space_group_symop_operation_xyz
x,y,z
1/2-x,-y,z
1/2+x,-y,1/2-z
-x,y,1/2-z
-x,-y,-z
1/2+x,y,-z
1/2-x,y,1/2+z
x,-y,1/2+z
loop_
_atom_site_type_symbol
_atom_site_label
_atom_site_fract_x
_atom_site_fract_y
_atom_site_fract_z
Si Si1 0.259184 0.665693 0.093081
Si Si2 0.262571 0.253081 0.727724
Si Si3 0.093635 0.991882 0.706874
Si Si4 0.537845 0.849847 0.900046
Si Si5 0.961668 0.728095 0.987583
Si Si6 0.621167 0.469507 0.575385
Si Si7 0.420947 0.626014 0.807829
O O1 0.250000 0.500000 0.070540
O O2 0.279022 0.658083 0.165869
O O3 0.148541 0.758265 0.086630
O O4 0.359354 0.736501 0.057420
O O5 0.183002 0.118689 0.710783
O O6 0.198219 0.334823 0.780791
O O7 0.371471 0.160803 0.736071
O O8 0.061107 0.000600 0.635751
O O9 0.000000 0.047212 0.750000
O O10 0.468438 0.754460 0.851001
O O11 0.478442 0.857966 0.964728
O O12 0.070177 0.678231 0.951262
O O13 0.933143 0.596003 0.034500
O O14 0.750000 0.500000 0.572651
O O15 0.584915 0.492149 0.645549
O O16 0.500000 0.602169 0.750000
#
# Coordination Sequence:
#
# PCOD9420782 Si02
#       7
#     8   8   8   8   8   8   8
#     4  11  20  34  56  87 125 159 204 257 312 375
#     4  10  21  34  61  91 114 159 210 251 315 389
#     4  10  18  38  64  86 116 156 208 266 317 368
#     4  10  19  36  64  86 117 160 215 259 312 376
#     4  10  20  34  59  86 117 164 211 249 298 376
#     4  10  21  36  54  83 124 167 204 247 305 370
#     4  11  18  36  55  85 116 157 212 247 312 390
#
# _framework density 22.611346000000001
#
# number of rings (size 3 to 8) (size 9 to 14) (size 15 to 20)
#    0.000    1.714    4.286    3.857    0.000    0.571 
#    2.571    0.714    3.143    0.000    0.000    0.000 
#    0.000    0.000    0.000    0.000    0.000    0.000 
#
# Total GULP energy -312372.357889 kJ/mol
# GULP energy per Si atom -5578.077819 kJ/mol
# Density = 2.255988 g / cm^3
# Si number density = 22.611346 Si / 1000 Ang^3
#
#
#
# Elastic Constant Matrix: (Units=GPa)
#
#
# Indices 1 2 3 4 5 6 
#
# 1 100.1133 13.6440 59.8646 0.0000 0.0000 0.0000
# 2 13.6440 33.5701 40.6912 0.0000 0.0000 0.0000
# 3 59.8646 40.6912 155.2641 0.0000 0.0000 0.0000
# 4 0.0000 0.0000 0.0000 12.3357 0.0000 0.0000
# 5 0.0000 0.0000 0.0000 0.0000 37.3917 0.0000
# 6 0.0000 0.0000 0.0000 0.0000 0.0000 3.4067
#
#
#
# Elastic Compliance Matrix: (Units=1/GPa)
#
#
# Indices 1 2 3 4 5 6 
#
# 1 0.013013 0.001162 -0.005322 0.000000 0.000000 0.000000
# 2 0.001162 0.043761 -0.011917 0.000000 0.000000 0.000000
# 3 -0.005322 -0.011917 0.011616 0.000000 0.000000 0.000000
# 4 0.000000 0.000000 0.000000 0.081066 0.000000 0.000000
# 5 0.000000 0.000000 0.000000 0.000000 0.026744 0.000000
# 6 0.000000 0.000000 0.000000 0.000000 0.000000 0.293536
#
#
# Mechanical properties :
#
#
# Convention : Reuss Voigt Hill
#
# Bulk Modulus (GPa) = 27.59706 57.48304 42.54005
# Shear Modulus (GPa) = 9.72828 22.27667 16.00247
#
# Velocity S-wave (km/s) = 2.07647 3.14219 2.66318
# Velocity P-wave (km/s) = 4.24033 6.21626 5.32082
#
# Compressibility (1/GPa) = 0.03623575
#
# Stress axis : x y z
#
# Youngs Moduli (GPa) = 76.84897 22.85159 86.09130
#
# Poissons Ratio (x) = -0.02655 0.45815
# Poissons Ratio (y) = -0.08928 1.02592
# Poissons Ratio (z) = 0.40897 0.27231
#
# Static dielectric constant tensor:
#      x y z
#    x 2.131560 0.000000 0.000000 
#    y 0.000000 1.915830 0.000000 
#    z 0.000000 0.000000 1.855480 
# 
# From -- ./inp_files/21162.got.cif
#   From: 2010.05.17/outbox.cif.g08.bks.cpg/sg54_11_cif.got.tgz:21162.got - 2010.06.03 13:09:01.
