data_PCOD9420537
_publ_section_title
;
Structure prediction by ZEFSAII (Michael W. Deem and Ramdas Pophale) SiO2 
 PCOD9420537
Probable space group: P C C A
;
_chemical_formula_sum "Si O2"
_cell_formula_units_Z 32
_cell_length_a 5.410166
_cell_length_b 7.127624
_cell_length_c 35.732795
_cell_angle_alpha 90.000000
_cell_angle_beta 90.000000
_cell_angle_gamma 90.000000
_cell_volume 1377.914785
_symmetry_space_group_name_H-M "P C C A"
_symmetry_group_IT_number 54
_symmetry_cell_setting 'orthorhombic'
loop_
_space_group_symop_operation_xyz
x,y,z
1/2-x,-y,z
1/2+x,-y,1/2-z
-x,y,1/2-z
-x,-y,-z
1/2+x,y,-z
1/2-x,y,1/2+z
x,-y,1/2+z
loop_
_atom_site_type_symbol
_atom_site_label
_atom_site_fract_x
_atom_site_fract_y
_atom_site_fract_z
Si Si1 0.499024 0.875298 0.292350
Si Si2 0.011031 0.283696 0.598409
Si Si3 0.316203 0.716466 0.513416
Si Si4 0.508034 0.708870 0.130036
O O1 0.500000 0.798053 0.250000
O O2 0.482948 0.723502 0.325325
O O3 0.250000 0.000000 0.295968
O O4 0.750000 0.000000 0.296509
O O5 0.065140 0.281917 0.554482
O O6 0.251998 0.200588 0.617600
O O7 0.000545 0.498148 0.613686
O O8 0.750082 0.204028 0.611196
O O9 0.250000 0.500000 0.502691
O O10 0.536915 0.798116 0.487609
#
# Coordination Sequence:
#
# PCOD9420537 Si02
#       4
#     8   8   8   8
#     4  10  21  38  57  75  96 127 172 217 249 289
#     4  10  19  32  47  77 112 133 159 202 252 308
#     4  10  18  26  43  68 106 141 167 196 235 295
#     4  10  19  32  50  72 104 135 158 203 259 298
#
# _framework density 23.223496000000001
#
# number of rings (size 3 to 8) (size 9 to 14) (size 15 to 20)
#    0.000    2.000    2.500    3.000    7.000    0.000 
#    0.000    5.000    0.000    0.000    0.000    0.000 
#    0.000  116.000    0.000    0.000    0.000    0.000 
#
# Total GULP energy -178561.304776 kJ/mol
# GULP energy per Si atom -5580.040774 kJ/mol
# Density = 2.317064 g / cm^3
# Si number density = 23.223496 Si / 1000 Ang^3
#
#
#
# Elastic Constant Matrix: (Units=GPa)
#
#
# Indices 1 2 3 4 5 6 
#
# 1 262.3596 12.3443 56.8941 0.0000 0.0000 0.0000
# 2 12.3443 81.8619 17.0443 0.0000 0.0000 0.0000
# 3 56.8941 17.0443 186.6969 0.0000 0.0000 0.0000
# 4 0.0000 0.0000 0.0000 -26.7857 0.0000 0.0000
# 5 0.0000 0.0000 0.0000 0.0000 50.5196 0.0000
# 6 0.0000 0.0000 0.0000 0.0000 0.0000 -20.4745
#
#
#
# Elastic Compliance Matrix: (Units=1/GPa)
#
#
# Indices 1 2 3 4 5 6 
#
# 1 0.004092 -0.000364 -0.001214 0.000000 0.000000 0.000000
# 2 -0.000364 0.012485 -0.001029 0.000000 0.000000 0.000000
# 3 -0.001214 -0.001029 0.005820 0.000000 0.000000 0.000000
# 4 0.000000 0.000000 0.000000 -0.037333 0.000000 0.000000
# 5 0.000000 0.000000 0.000000 0.000000 0.019794 0.000000
# 6 0.000000 0.000000 0.000000 0.000000 0.000000 -0.048841
#
#
# Mechanical properties :
#
#
# Convention : Reuss Voigt Hill
#
# Bulk Modulus (GPa) = 58.19639 78.16485 68.18062
# Shear Modulus (GPa) = -151.32146 30.29426 -60.51360
#
# Velocity S-wave (km/s) = -8.08086 3.61566 -5.11015
# Velocity P-wave (km/s) = 7.87104 7.15272 2.32292
#
# Compressibility (1/GPa) = 0.01718320
#
# Stress axis : x y z
#
# Youngs Moduli (GPa) = 244.38500 80.09716 171.81951
#
# Poissons Ratio (x) = 0.02918 0.20854
# Poissons Ratio (y) = 0.08904 0.17676
# Poissons Ratio (z) = 0.29661 0.08240
#
# Static dielectric constant tensor:
#      x y z
#    x 1.960750 0.000000 0.000000 
#    y 0.000000 1.842780 0.000000 
#    z 0.000000 0.000000 1.854420 
# 
# From -- ./inp_files/26854.got.cif
#   From: 2010.05.17/outbox.cif.g08.bks.cpg/sg54_14_cif.got.tgz:26854.got - 2010.06.03 13:09:01.
