data_PCOD9420030
_publ_section_title
;
Structure prediction by ZEFSAII (Michael W. Deem and Ramdas Pophale) SiO2 
 PCOD9420030
Probable space group: P M N A
;
_chemical_formula_sum "Si O2"
_cell_formula_units_Z 24
_cell_length_a 17.865753
_cell_length_b 7.066529
_cell_length_c 7.045790
_cell_angle_alpha 90.000000
_cell_angle_beta 90.000000
_cell_angle_gamma 90.000000
_cell_volume 889.522967
_symmetry_space_group_name_H-M "P M N A"
_symmetry_group_IT_number 53
_symmetry_cell_setting 'orthorhombic'
loop_
_space_group_symop_operation_xyz
x,y,z
1/2-x,-y,1/2+z
x,-y,-z
1/2-x,y,1/2-z
-x,-y,-z
1/2+x,y,1/2-z
-x,y,z
1/2+x,-y,1/2+z
loop_
_atom_site_type_symbol
_atom_site_label
_atom_site_fract_x
_atom_site_fract_y
_atom_site_fract_z
Si Si1 0.087557 0.661688 0.222421
Si Si2 0.083348 0.223467 0.353967
Si Si3 0.300038 0.815166 0.584280
O O1 0.085786 0.437068 0.269198
O O2 0.000000 0.706476 0.162469
O O3 0.133227 0.896092 0.786172
O O4 0.156137 0.703136 0.079605
O O5 0.103482 0.244514 0.573195
O O6 0.000000 0.152477 0.343627
O O7 0.250000 0.716221 0.750000
O O8 0.259853 0.000000 0.500000
#
# Coordination Sequence:
#
# PCOD9420030 Si02
#       3
#     8   8   8
#     4   9  20  44  76 104 126 157 217 285 341 392
#     4   9  20  44  76 104 126 157 214 287 341 392
#     4  12  28  42  60  90 141 188 222 262 317 388
#
# _framework density 26.980751000000001
#
# number of rings (size 3 to 8) (size 9 to 14) (size 15 to 20)
#    0.000    2.000    0.000    4.000    4.667    5.333 
#   12.000    5.000    0.000    0.000    0.000    0.000 
#    0.000    0.000    0.000    0.000    0.000    0.000 
#
# Total GULP energy -134152.899034 kJ/mol
# GULP energy per Si atom -5589.704126 kJ/mol
# Density = 2.691934 g / cm^3
# Si number density = 26.980751 Si / 1000 Ang^3
#
#
#
# Elastic Constant Matrix: (Units=GPa)
#
#
# Indices 1 2 3 4 5 6 
#
# 1 102.1565 26.3253 86.9535 0.0000 0.0000 0.0000
# 2 26.3253 75.8300 19.5102 0.0000 0.0000 0.0000
# 3 86.9535 19.5102 148.6778 0.0000 0.0000 0.0000
# 4 0.0000 0.0000 0.0000 49.7176 0.0000 0.0000
# 5 0.0000 0.0000 0.0000 0.0000 67.7075 0.0000
# 6 0.0000 0.0000 0.0000 0.0000 0.0000 30.9441
#
#
#
# Elastic Compliance Matrix: (Units=1/GPa)
#
#
# Indices 1 2 3 4 5 6 
#
# 1 0.020719 -0.004217 -0.011564 0.000000 0.000000 0.000000
# 2 -0.004217 0.014507 0.000563 0.000000 0.000000 0.000000
# 3 -0.011564 0.000563 0.013415 0.000000 0.000000 0.000000
# 4 0.000000 0.000000 0.000000 0.020114 0.000000 0.000000
# 5 0.000000 0.000000 0.000000 0.000000 0.014769 0.000000
# 6 0.000000 0.000000 0.000000 0.000000 0.000000 0.032316
#
#
# Mechanical properties :
#
#
# Convention : Reuss Voigt Hill
#
# Bulk Modulus (GPa) = 54.93356 65.80470 60.36913
# Shear Modulus (GPa) = 32.82045 42.59885 37.70965
#
# Velocity S-wave (km/s) = 3.49153 3.97780 3.74257
# Velocity P-wave (km/s) = 6.05466 6.74831 6.41087
#
# Compressibility (1/GPa) = 0.01820381
#
# Stress axis : x y z
#
# Youngs Moduli (GPa) = 48.26602 68.93362 74.54312
#
# Poissons Ratio (x) = 0.29073 0.86199
# Poissons Ratio (y) = 0.20356 -0.04196
# Poissons Ratio (z) = 0.55813 -0.03881
#
# Static dielectric constant tensor:
#      x y z
#    x 2.165560 0.000000 0.000000 
#    y 0.000000 2.189850 0.000000 
#    z 0.000000 0.000000 2.126120 
# 
# From -- ./inp_files/9295.got.cif
#   From: 2010.05.17/outbox.cif.g08.bks.cpg/sg53_5_cif.got.tgz:9295.got - 2010.06.03 12:45:16.
