data_PCOD9420653
_publ_section_title
;
Structure prediction by ZEFSAII (Michael W. Deem and Ramdas Pophale) SiO2 
 PCOD9420653
Probable space group: P C C A
;
_chemical_formula_sum "Si O2"
_cell_formula_units_Z 60
_cell_length_a 20.915178
_cell_length_b 9.417890
_cell_length_c 15.209210
_cell_angle_alpha 90.000000
_cell_angle_beta 90.000000
_cell_angle_gamma 90.000000
_cell_volume 2995.862212
_symmetry_space_group_name_H-M "P C C A"
_symmetry_group_IT_number 54
_symmetry_cell_setting 'orthorhombic'
loop_
_space_group_symop_operation_xyz
x,y,z
1/2-x,-y,z
1/2+x,-y,1/2-z
-x,y,1/2-z
-x,-y,-z
1/2+x,y,-z
1/2-x,y,1/2+z
x,-y,1/2+z
loop_
_atom_site_type_symbol
_atom_site_label
_atom_site_fract_x
_atom_site_fract_y
_atom_site_fract_z
Si Si1 0.500000 0.000000 0.000000
Si Si2 0.843590 0.288849 0.629814
Si Si3 0.705361 0.365153 0.304621
Si Si4 0.383423 0.596112 0.422665
Si Si5 0.512782 0.215188 0.150206
Si Si6 0.998969 0.238042 0.349181
Si Si7 0.072257 0.479462 0.616020
Si Si8 0.741688 0.672881 0.991704
O O1 0.508131 0.120356 0.923064
O O2 0.518825 0.875741 0.926528
O O3 0.805166 0.268058 0.719925
O O4 0.858005 0.458109 0.627890
O O5 0.911384 0.211780 0.630968
O O6 0.800433 0.261273 0.544517
O O7 0.750000 0.500000 0.283038
O O8 0.636423 0.424229 0.336708
O O9 0.734597 0.287462 0.390099
O O10 0.433992 0.682898 0.367530
O O11 0.415910 0.536579 0.511917
O O12 0.323909 0.691516 0.454816
O O13 0.500000 0.168253 0.250000
O O14 0.485101 0.374593 0.142855
O O15 0.945642 0.360756 0.359892
O O16 0.000000 0.182537 0.250000
O O17 0.750000 0.500000 0.989810
#
# Coordination Sequence:
#
# PCOD9420653 Si02
#       8
#     4   8   8   8   8   8   8   8
#     4  12  28  42  56  86 130 172 210 264 318 392
#     4  11  19  33  60  91 126 163 204 255 311 390
#     4  10  19  32  54  93 133 157 193 259 326 373
#     4  10  18  33  57  87 125 157 192 253 321 375
#     4  12  23  42  66  97 126 165 214 265 334 391
#     4  12  23  38  59  90 120 163 212 264 323 379
#     4  11  20  38  65  96 127 155 201 268 324 392
#     4   8  18  31  48  85 125 159 192 240 315 375
#
# _framework density 20.027623999999999
#
# number of rings (size 3 to 8) (size 9 to 14) (size 15 to 20)
#    0.000    1.333    4.000    4.800    0.000    0.000 
#    0.000    0.000    0.000    0.800    3.467    0.000 
#    0.000    0.000    0.000    0.000    0.000    0.000 
#
# Total GULP energy -334179.302895 kJ/mol
# GULP energy per Si atom -5569.655048 kJ/mol
# Density = 1.998204 g / cm^3
# Si number density = 20.027624 Si / 1000 Ang^3
#
#
#
# Elastic Constant Matrix: (Units=GPa)
#
#
# Indices 1 2 3 4 5 6 
#
# 1 73.3294 -10.0765 17.8243 0.0000 0.0000 0.0000
# 2 -10.0765 54.9376 27.2682 0.0000 0.0000 0.0000
# 3 17.8243 27.2682 147.8429 0.0000 0.0000 0.0000
# 4 0.0000 0.0000 0.0000 4.6778 0.0000 0.0000
# 5 0.0000 0.0000 0.0000 0.0000 28.2361 0.0000
# 6 0.0000 0.0000 0.0000 0.0000 0.0000 -7.4363
#
#
#
# Elastic Compliance Matrix: (Units=1/GPa)
#
#
# Indices 1 2 3 4 5 6 
#
# 1 0.014792 0.003961 -0.002514 0.000000 0.000000 0.000000
# 2 0.003961 0.021097 -0.004369 0.000000 0.000000 0.000000
# 3 -0.002514 -0.004369 0.007873 0.000000 0.000000 0.000000
# 4 0.000000 0.000000 0.000000 0.213775 0.000000 0.000000
# 5 0.000000 0.000000 0.000000 0.000000 0.035416 0.000000
# 6 0.000000 0.000000 0.000000 0.000000 0.000000 -0.134475
#
#
# Mechanical properties :
#
#
# Convention : Reuss Voigt Hill
#
# Bulk Modulus (GPa) = 26.37187 38.46023 32.41605
# Shear Modulus (GPa) = 28.25482 21.16845 24.71163
#
# Velocity S-wave (km/s) = 3.76013 3.25462 3.51647
# Velocity P-wave (km/s) = 5.66107 5.77657 5.71911
#
# Compressibility (1/GPa) = 0.03791919
#
# Stress axis : x y z
#
# Youngs Moduli (GPa) = 67.60193 47.39916 127.01948
#
# Poissons Ratio (x) = -0.18775 0.31933
# Poissons Ratio (y) = -0.26777 0.55492
# Poissons Ratio (z) = 0.16995 0.20708
#
# Static dielectric constant tensor:
#      x y z
#    x 1.754580 0.000000 0.000000 
#    y 0.000000 1.662200 0.000000 
#    z 0.000000 0.000000 1.745020 
# 
# From -- ./inp_files/14955.got.cif
#   From: 2010.05.17/outbox.cif.g08.bks.cpg/sg54_8_cif.got.tgz:14955.got - 2010.06.03 13:09:01.
