data_PCOD9420121
_publ_section_title
;
Structure prediction by ZEFSAII (Michael W. Deem and Ramdas Pophale) SiO2 
 PCOD9420121
Probable space group: P M N A
;
_chemical_formula_sum "Si O2"
_cell_formula_units_Z 64
_cell_length_a 9.000000
_cell_length_b 21.000000
_cell_length_c 18.000000
_cell_angle_alpha 90.000000
_cell_angle_beta 90.000000
_cell_angle_gamma 90.000000
_cell_volume 3402.000000
_symmetry_space_group_name_H-M "P M N A"
_symmetry_group_IT_number 53
_symmetry_cell_setting 'orthorhombic'
loop_
_space_group_symop_operation_xyz
x,y,z
1/2-x,-y,1/2+z
x,-y,-z
1/2-x,y,1/2-z
-x,-y,-z
1/2+x,y,1/2-z
-x,y,z
1/2+x,-y,1/2+z
loop_
_atom_site_type_symbol
_atom_site_label
_atom_site_fract_x
_atom_site_fract_y
_atom_site_fract_z
Si Si1 0.178819 0.753503 0.672639
Si Si2 0.678836 0.141337 0.940974
Si Si3 0.823577 0.125504 0.102133
Si Si4 0.820017 0.517943 0.669102
Si Si5 0.678375 0.747693 0.172807
Si Si6 0.680445 0.362199 0.068311
Si Si7 0.818894 0.617288 0.399830
Si Si8 0.829473 0.003249 0.590395
O O1 0.250000 0.731550 0.750000
O O2 0.242832 0.822662 0.653097
O O3 0.222590 0.703561 0.608134
O O4 0.000000 0.755246 0.677667
O O5 0.500000 0.140518 0.956746
O O6 0.714205 0.203203 0.893009
O O7 0.711863 0.076537 0.895154
O O8 0.765777 0.139222 0.018341
O O9 0.000000 0.131705 0.106951
O O10 0.772814 0.053266 0.119564
O O11 0.750000 0.523552 0.750000
O O12 0.775014 0.577503 0.618031
O O13 0.773990 0.451092 0.631799
O O14 0.000000 0.518316 0.674492
O O15 0.750000 0.767406 0.250000
O O16 0.500000 0.747501 0.180050
O O17 0.728318 0.676664 0.150564
O O18 0.500000 0.362270 0.065957
O O19 0.732430 0.370558 0.984017
O O20 0.000000 0.617528 0.401098
O O21 0.000000 0.991801 0.613293
O O22 0.826035 0.000000 0.500000
#
# Coordination Sequence:
#
# PCOD9420121 Si02
#       8
#     8   8   8   8   8   8   8   8
#     4  11  22  37  55  75 104 139 176 219 268 321
#     4   9  18  34  55  77 104 141 180 218 263 313
#     4  11  21  33  53  81 108 135 172 218 266 317
#     4  10  19  32  53  80 109 139 172 211 256 308
#     4  10  20  34  52  75 105 140 176 215 262 313
#     4   9  18  33  55  79 101 133 178 222 259 303
#     4   9  17  31  53  79 105 136 176 216 254 304
#     4   8  15  30  52  76 103 137 175 215 261 312
#
# _framework density 18.812463000000001
#
# number of rings (size 3 to 8) (size 9 to 14) (size 15 to 20)
#    0.000    2.375    0.000    4.125    0.000    6.250 
#    0.000    1.250    0.000    5.250    0.000    0.000 
#    0.000    0.000    0.000    0.000    0.000    0.000 
#
# Total GULP energy -357150.095326 kJ/mol
# GULP energy per Si atom -5580.470239 kJ/mol
# Density = 1.876965 g / cm^3
# Si number density = 18.812463 Si / 1000 Ang^3
#
#
#
# Elastic Constant Matrix: (Units=GPa)
#
#
# Indices 1 2 3 4 5 6 
#
# 1 36.2141 13.2042 8.7766 0.0000 0.0000 0.0000
# 2 13.2042 66.1173 -11.7280 0.0000 0.0000 0.0000
# 3 8.7766 -11.7280 45.6573 0.0000 0.0000 0.0000
# 4 0.0000 0.0000 0.0000 8.9685 0.0000 0.0000
# 5 0.0000 0.0000 0.0000 0.0000 27.4576 0.0000
# 6 0.0000 0.0000 0.0000 0.0000 0.0000 10.1985
#
#
#
# Elastic Compliance Matrix: (Units=1/GPa)
#
#
# Indices 1 2 3 4 5 6 
#
# 1 0.032531 -0.007969 -0.008300 0.000000 0.000000 0.000000
# 2 -0.007969 0.017799 0.006104 0.000000 0.000000 0.000000
# 3 -0.008300 0.006104 0.025066 0.000000 0.000000 0.000000
# 4 0.000000 0.000000 0.000000 0.111502 0.000000 0.000000
# 5 0.000000 0.000000 0.000000 0.000000 0.036420 0.000000
# 6 0.000000 0.000000 0.000000 0.000000 0.000000 0.098054
#
#
# Mechanical properties :
#
#
# Convention : Reuss Voigt Hill
#
# Bulk Modulus (GPa) = 18.16055 18.72159 18.44107
# Shear Modulus (GPa) = 13.88670 18.50730 16.19700
#
# Velocity S-wave (km/s) = 2.71987 3.13993 2.93742
# Velocity P-wave (km/s) = 4.42018 4.80820 4.61827
#
# Compressibility (1/GPa) = 0.05506441
#
# Stress axis : x y z
#
# Youngs Moduli (GPa) = 30.74006 56.18343 39.89504
#
# Poissons Ratio (x) = 0.44773 0.33114
# Poissons Ratio (y) = 0.24497 -0.24351
# Poissons Ratio (z) = 0.25515 -0.34294
#
# Static dielectric constant tensor:
#      x y z
#    x 1.623910 0.000000 0.000000 
#    y 0.000000 1.668180 0.000000 
#    z 0.000000 0.000000 1.638140 
# 
# From -- ./inp_files/26763.got.cif
#   From: 2010.05.17/outbox.ucp.g08.bks.cvg/sg53_14_cif.got.tgz:26763.got - 2010.06.11 16:32:34.
