data_PCOD9420115
_publ_section_title
;
Structure prediction by ZEFSAII (Michael W. Deem and Ramdas Pophale) SiO2 
 PCOD9420115
Probable space group: P M N A
;
_chemical_formula_sum "Si O2"
_cell_formula_units_Z 64
_cell_length_a 9.000000
_cell_length_b 21.000000
_cell_length_c 18.000000
_cell_angle_alpha 90.000000
_cell_angle_beta 90.000000
_cell_angle_gamma 90.000000
_cell_volume 3402.000000
_symmetry_space_group_name_H-M "P M N A"
_symmetry_group_IT_number 53
_symmetry_cell_setting 'orthorhombic'
loop_
_space_group_symop_operation_xyz
x,y,z
1/2-x,-y,1/2+z
x,-y,-z
1/2-x,y,1/2-z
-x,-y,-z
1/2+x,y,1/2-z
-x,y,z
1/2+x,-y,1/2+z
loop_
_atom_site_type_symbol
_atom_site_label
_atom_site_fract_x
_atom_site_fract_y
_atom_site_fract_z
Si Si1 0.177886 0.268818 0.830870
Si Si2 0.675115 0.084335 0.323836
Si Si3 0.679217 0.406814 0.667699
Si Si4 0.178221 0.542505 0.831692
Si Si5 0.331884 0.019570 0.914776
Si Si6 0.179457 0.152356 0.938769
Si Si7 0.679800 0.682876 0.666967
Si Si8 0.321537 0.803219 0.906539
O O1 0.250000 0.262244 0.750000
O O2 0.221748 0.338041 0.864621
O O3 0.214130 0.210571 0.883834
O O4 0.000000 0.269046 0.821478
O O5 0.750000 0.058370 0.250000
O O6 0.500000 0.095625 0.318326
O O7 0.763298 0.148351 0.343897
O O8 0.716824 0.031431 0.383416
O O9 0.750000 0.406877 0.750000
O O10 0.500000 0.407002 0.673721
O O11 0.721837 0.474836 0.631786
O O12 0.250000 0.542197 0.750000
O O13 0.214246 0.611762 0.863621
O O14 0.000000 0.542091 0.823636
O O15 0.500000 0.016346 0.881907
O O16 0.260497 0.089115 0.910151
O O17 0.347494 0.000000 0.000000
O O18 0.000000 0.144133 0.944034
O O19 0.247923 0.170879 0.018155
O O20 0.750000 0.687967 0.750000
O O21 0.500000 0.691196 0.670861
O O22 0.755361 0.735120 0.615325
O O23 0.500000 0.803389 0.910794
#
# Coordination Sequence:
#
# PCOD9420115 Si02
#       8
#     8   8   8   8   8   8   8   8
#     4   9  19  34  55  83 114 144 181 227 277 330
#     4  12  25  42  65  91 119 149 185 231 279 330
#     4   8  13  25  45  72 104 138 175 221 271 323
#     4   8  14  24  43  70 102 138 178 221 271 324
#     4  11  23  41  64  88 115 147 186 228 275 332
#     4  11  23  39  60  85 112 149 189 228 276 332
#     4  10  19  32  50  77 110 145 184 230 278 329
#     4  12  24  39  57  80 110 148 190 232 278 332
#
# _framework density 18.812463000000001
#
# number of rings (size 3 to 8) (size 9 to 14) (size 15 to 20)
#    0.000    1.875    1.250    3.750    0.000    2.500 
#    0.000    1.250    0.000    0.750    0.000    5.250 
#    0.000    0.000    0.000    0.000    0.000    0.000 
#
# Total GULP energy -356628.624774 kJ/mol
# GULP energy per Si atom -5572.322262 kJ/mol
# Density = 1.876965 g / cm^3
# Si number density = 18.812463 Si / 1000 Ang^3
#
#
#
# Elastic Constant Matrix: (Units=GPa)
#
#
# Indices 1 2 3 4 5 6 
#
# 1 77.7557 28.9270 4.8020 0.0000 0.0000 0.0000
# 2 28.9270 133.1548 -4.2410 0.0000 0.0000 0.0000
# 3 4.8020 -4.2410 16.5679 0.0000 0.0000 0.0000
# 4 0.0000 0.0000 0.0000 6.2493 0.0000 0.0000
# 5 0.0000 0.0000 0.0000 0.0000 44.6902 0.0000
# 6 0.0000 0.0000 0.0000 0.0000 0.0000 27.6809
#
#
#
# Elastic Compliance Matrix: (Units=1/GPa)
#
#
# Indices 1 2 3 4 5 6 
#
# 1 0.014393 -0.003286 -0.005013 0.000000 0.000000 0.000000
# 2 -0.003286 0.008322 0.003083 0.000000 0.000000 0.000000
# 3 -0.005013 0.003083 0.062600 0.000000 0.000000 0.000000
# 4 0.000000 0.000000 0.000000 0.160019 0.000000 0.000000
# 5 0.000000 0.000000 0.000000 0.000000 0.022376 0.000000
# 6 0.000000 0.000000 0.000000 0.000000 0.000000 0.036126
#
#
# Mechanical properties :
#
#
# Convention : Reuss Voigt Hill
#
# Bulk Modulus (GPa) = 13.35438 31.82825 22.59131
# Shear Modulus (GPa) = 14.73930 28.92344 21.83137
#
# Velocity S-wave (km/s) = 2.80212 3.92530 3.41027
# Velocity P-wave (km/s) = 4.19324 6.12368 5.24798
#
# Compressibility (1/GPa) = 0.07488183
#
# Stress axis : x y z
#
# Youngs Moduli (GPa) = 69.47813 120.16044 15.97456
#
# Poissons Ratio (x) = 0.39490 0.08008
# Poissons Ratio (y) = 0.22834 -0.04925
# Poissons Ratio (z) = 0.34828 -0.37043
#
# Static dielectric constant tensor:
#      x y z
#    x 1.609050 0.000000 0.000000 
#    y 0.000000 1.723010 0.000000 
#    z 0.000000 0.000000 2.227620 
# 
# From -- ./inp_files/26811.got.cif
#   From: 2010.05.17/outbox.ucp.g08.bks.cvg/sg53_14_cif.got.tgz:26811.got - 2010.06.11 16:32:34.
