data_PCOD9420639
_publ_section_title
;
Structure prediction by ZEFSAII (Michael W. Deem and Ramdas Pophale) SiO2 
 PCOD9420639
Probable space group: P C C A
;
_chemical_formula_sum "Si O2"
_cell_formula_units_Z 48
_cell_length_a 15.501758
_cell_length_b 9.676036
_cell_length_c 15.179052
_cell_angle_alpha 90.000000
_cell_angle_beta 90.000000
_cell_angle_gamma 90.000000
_cell_volume 2276.790534
_symmetry_space_group_name_H-M "P C C A"
_symmetry_group_IT_number 54
_symmetry_cell_setting 'orthorhombic'
loop_
_space_group_symop_operation_xyz
x,y,z
1/2-x,-y,z
1/2+x,-y,1/2-z
-x,y,1/2-z
-x,-y,-z
1/2+x,y,-z
1/2-x,y,1/2+z
x,-y,1/2+z
loop_
_atom_site_type_symbol
_atom_site_label
_atom_site_fract_x
_atom_site_fract_y
_atom_site_fract_z
Si Si1 0.530257 0.519625 0.598719
Si Si2 0.002268 0.795662 0.854042
Si Si3 0.798478 0.365733 0.678940
Si Si4 0.344435 0.037440 0.637724
Si Si5 0.817506 0.887768 0.652943
Si Si6 0.073579 0.232100 0.685587
O O1 0.500000 0.500000 0.500000
O O2 0.519465 0.367770 0.639702
O O3 0.626682 0.578719 0.613872
O O4 0.467786 0.633943 0.641389
O O5 0.910771 0.843968 0.894515
O O6 0.000000 0.826953 0.750000
O O7 0.086992 0.877220 0.887683
O O8 0.750000 0.500000 0.714692
O O9 0.728474 0.260190 0.641228
O O10 0.846900 0.282604 0.755511
O O11 0.328894 0.076459 0.742026
O O12 0.250000 0.000000 0.601207
O O13 0.396476 0.894768 0.627856
O O14 0.750000 0.000000 0.617887
O O15 0.000000 0.174756 0.750000
#
# Coordination Sequence:
#
# PCOD9420639 Si02
#       6
#     8   8   8   8   8   8
#     4  11  25  41  56  84 128 174 206 242 308 380
#     4  10  20  36  62  90 121 151 203 262 308 359
#     4  11  20  36  64  93 118 152 208 261 306 367
#     4  10  19  33  57  96 122 144 192 263 323 365
#     4  10  18  32  61  96 120 142 194 260 320 360
#     4  10  20  35  61  88 117 152 201 255 309 355
#
# _framework density 21.08231
#
# number of rings (size 3 to 8) (size 9 to 14) (size 15 to 20)
#    0.000    1.667    5.000    3.000    4.667    0.000 
#    0.000    3.333    0.000    0.000    0.000    0.000 
#    0.000    0.000    0.000    0.000    0.000    0.000 
#
# Total GULP energy -267711.057402 kJ/mol
# GULP energy per Si atom -5577.313696 kJ/mol
# Density = 2.103433 g / cm^3
# Si number density = 21.082310 Si / 1000 Ang^3
#
#
#
# Elastic Constant Matrix: (Units=GPa)
#
#
# Indices 1 2 3 4 5 6 
#
# 1 142.7960 53.4471 8.8221 0.0000 0.0000 0.0000
# 2 53.4471 121.6357 -7.9906 0.0000 0.0000 0.0000
# 3 8.8221 -7.9906 25.7419 0.0000 0.0000 0.0000
# 4 0.0000 0.0000 0.0000 -35.3663 0.0000 0.0000
# 5 0.0000 0.0000 0.0000 0.0000 677.3494 0.0000
# 6 0.0000 0.0000 0.0000 0.0000 0.0000 28.0052
#
#
#
# Elastic Compliance Matrix: (Units=1/GPa)
#
#
# Indices 1 2 3 4 5 6 
#
# 1 0.008828 -0.004163 -0.004318 0.000000 0.000000 0.000000
# 2 -0.004163 0.010355 0.004641 0.000000 0.000000 0.000000
# 3 -0.004318 0.004641 0.041767 0.000000 0.000000 0.000000
# 4 0.000000 0.000000 0.000000 -0.028275 0.000000 0.000000
# 5 0.000000 0.000000 0.000000 0.000000 0.001476 0.000000
# 6 0.000000 0.000000 0.000000 0.000000 0.000000 0.035708
#
#
# Mechanical properties :
#
#
# Convention : Reuss Voigt Hill
#
# Bulk Modulus (GPa) = 18.77157 44.30345 31.53751
# Shear Modulus (GPa) = 52.46899 149.72401 101.09650
#
# Velocity S-wave (km/s) = 4.99417 8.43641 6.93234
# Velocity P-wave (km/s) = 6.49453 10.76835 8.89203
#
# Compressibility (1/GPa) = 0.05327204
#
# Stress axis : x y z
#
# Youngs Moduli (GPa) = 113.27920 96.56994 23.94213
#
# Poissons Ratio (x) = 0.40198 0.10337
# Poissons Ratio (y) = 0.47153 -0.11111
# Poissons Ratio (z) = 0.48908 -0.44817
#
# Static dielectric constant tensor:
#      x y z
#    x 1.806840 0.000000 0.000000 
#    y 0.000000 1.680790 0.000000 
#    z 0.000000 0.000000 1.778600 
# 
# From -- ./inp_files/21452.got.cif
#   From: 2010.05.17/outbox.cif.g08.bks.cpg/sg54_11_cif.got.tgz:21452.got - 2010.06.03 13:09:01.
