data_PCOD9420197
_publ_section_title
;
Structure prediction by ZEFSAII (Michael W. Deem and Ramdas Pophale) SiO2 
 PCOD9420197
Probable space group: P M N A
;
_chemical_formula_sum "Si O2"
_cell_formula_units_Z 56
_cell_length_a 9.000000
_cell_length_b 21.000000
_cell_length_c 15.000000
_cell_angle_alpha 90.000000
_cell_angle_beta 90.000000
_cell_angle_gamma 90.000000
_cell_volume 2835.000000
_symmetry_space_group_name_H-M "P M N A"
_symmetry_group_IT_number 53
_symmetry_cell_setting 'orthorhombic'
loop_
_space_group_symop_operation_xyz
x,y,z
1/2-x,-y,1/2+z
x,-y,-z
1/2-x,y,1/2-z
-x,-y,-z
1/2+x,y,1/2-z
-x,y,z
1/2+x,-y,1/2+z
loop_
_atom_site_type_symbol
_atom_site_label
_atom_site_fract_x
_atom_site_fract_y
_atom_site_fract_z
Si Si1 0.178678 0.069489 0.848079
Si Si2 0.179199 0.662926 0.338768
Si Si3 0.322262 0.069413 0.346825
Si Si4 0.179530 0.426972 0.501353
Si Si5 0.824131 0.799056 0.404061
Si Si6 0.820987 0.211210 0.087120
Si Si7 0.821953 0.334038 0.336850
O O1 0.250000 0.068453 0.750000
O O2 0.241583 0.134004 0.889920
O O3 0.000000 0.074275 0.844866
O O4 0.217242 0.999718 0.889319
O O5 0.250000 0.636933 0.250000
O O6 0.232012 0.617406 0.417775
O O7 0.222735 0.737577 0.347228
O O8 0.000000 0.662648 0.337609
O O9 0.250000 0.069627 0.250000
O O10 0.500000 0.068474 0.338633
O O11 0.285440 0.137625 0.388715
O O12 0.235119 0.500000 0.500000
O O13 0.208921 0.383767 0.415442
O O14 0.000000 0.431109 0.509304
O O15 0.778325 0.776055 0.501182
O O16 0.000000 0.809329 0.393719
O O17 0.764354 0.266777 0.151413
O O18 0.000000 0.215441 0.074131
O O19 0.750000 0.364104 0.250000
O O20 0.000000 0.323326 0.331470
#
# Coordination Sequence:
#
# PCOD9420197 Si02
#       7
#     8   8   8   8   8   8   8
#     4  10  20  36  55  78 109 148 193 243 297 355
#     4  10  21  38  60  88 118 155 197 240 290 346
#     4   9  20  36  54  77 108 146 192 243 296 354
#     4   9  19  39  64  88 121 162 197 236 293 356
#     4  11  22  37  56  82 115 152 197 247 299 357
#     4  11  22  37  58  84 114 153 198 249 303 353
#     4  11  22  39  62  91 124 160 202 247 295 356
#
# _framework density 19.753086
#
# number of rings (size 3 to 8) (size 9 to 14) (size 15 to 20)
#    0.000    1.857    1.429    2.571    0.000    6.286 
#    0.000    2.857    0.000    3.000    0.000    0.000 
#    0.000    0.000    0.000    0.000    0.000    0.000 
#
# Total GULP energy -311944.144024 kJ/mol
# GULP energy per Si atom -5570.431143 kJ/mol
# Density = 1.970813 g / cm^3
# Si number density = 19.753086 Si / 1000 Ang^3
#
#
#
# Elastic Constant Matrix: (Units=GPa)
#
#
# Indices 1 2 3 4 5 6 
#
# 1 9.0727 31.5189 3.9720 0.0000 0.0000 0.0000
# 2 31.5189 140.8342 43.7942 0.0000 0.0000 0.0000
# 3 3.9720 43.7942 91.2215 0.0000 0.0000 0.0000
# 4 0.0000 0.0000 0.0000 14.9756 0.0000 0.0000
# 5 0.0000 0.0000 0.0000 0.0000 22.1644 0.0000
# 6 0.0000 0.0000 0.0000 0.0000 0.0000 6.9749
#
#
#
# Elastic Compliance Matrix: (Units=1/GPa)
#
#
# Indices 1 2 3 4 5 6 
#
# 1 0.632587 -0.156350 0.047517 0.000000 0.000000 0.000000
# 2 -0.156350 0.046990 -0.015751 0.000000 0.000000 0.000000
# 3 0.047517 -0.015751 0.016455 0.000000 0.000000 0.000000
# 4 0.000000 0.000000 0.000000 0.066775 0.000000 0.000000
# 5 0.000000 0.000000 0.000000 0.000000 0.045117 0.000000
# 6 0.000000 0.000000 0.000000 0.000000 0.000000 0.143372
#
#
# Mechanical properties :
#
#
# Convention : Reuss Voigt Hill
#
# Bulk Modulus (GPa) = 2.23782 44.41098 23.32440
# Shear Modulus (GPa) = 3.70529 19.61252 11.65890
#
# Velocity S-wave (km/s) = 1.37109 3.15442 2.43210
# Velocity P-wave (km/s) = 1.90837 5.98323 4.44077
#
# Compressibility (1/GPa) = 0.44686369
#
# Stress axis : x y z
#
# Youngs Moduli (GPa) = 1.58081 21.28110 60.77059
#
# Poissons Ratio (x) = 3.32730 -2.88763
# Poissons Ratio (y) = 0.24716 0.95722
# Poissons Ratio (z) = -0.07512 0.33521
#
# Static dielectric constant tensor:
#      x y z
#    x 1.650640 0.000000 0.000000 
#    y 0.000000 1.714720 0.000000 
#    z 0.000000 0.000000 2.117980 
# 
# From -- ./inp_files/20502.got.cif
#   From: 2010.05.17/outbox.ucp.g08.bks.cvg/sg53_11_cif.got.tgz:20502.got - 2010.06.11 16:32:34.
