data_PCOD9420635
_publ_section_title
;
Structure prediction by ZEFSAII (Michael W. Deem and Ramdas Pophale) SiO2 
 PCOD9420635
Probable space group: P C C A
;
_chemical_formula_sum "Si O2"
_cell_formula_units_Z 44
_cell_length_a 14.796868
_cell_length_b 9.248912
_cell_length_c 16.093422
_cell_angle_alpha 90.000000
_cell_angle_beta 90.000000
_cell_angle_gamma 90.000000
_cell_volume 2202.464141
_symmetry_space_group_name_H-M "P C C A"
_symmetry_group_IT_number 54
_symmetry_cell_setting 'orthorhombic'
loop_
_space_group_symop_operation_xyz
x,y,z
1/2-x,-y,z
1/2+x,-y,1/2-z
-x,y,1/2-z
-x,-y,-z
1/2+x,y,-z
1/2-x,y,1/2+z
x,-y,1/2+z
loop_
_atom_site_type_symbol
_atom_site_label
_atom_site_fract_x
_atom_site_fract_y
_atom_site_fract_z
Si Si1 0.750000 0.000000 0.957813
Si Si2 0.103721 0.273119 0.878699
Si Si3 0.421562 0.827700 0.069876
Si Si4 0.435802 0.031792 0.824224
Si Si5 0.306832 0.770435 0.402733
Si Si6 0.023788 0.439951 0.409351
O O1 0.669888 0.084181 0.910362
O O2 0.792750 0.122906 0.018269
O O3 0.211120 0.299303 0.880716
O O4 0.046803 0.415832 0.858412
O O5 0.084195 0.136894 0.820939
O O6 0.082681 0.215640 0.972696
O O7 0.505687 0.928690 0.093922
O O8 0.445650 0.674631 0.114955
O O9 0.500000 0.077745 0.750000
O O10 0.344990 0.123891 0.831356
O O11 0.384164 0.652432 0.416593
O O12 0.000000 0.500000 0.500000
#
# Coordination Sequence:
#
# PCOD9420635 Si02
#       6
#     4   8   8   8   8   8
#     4  10  18  32  60  84 108 142 188 234 278 318
#     4  10  18  35  56  81 110 145 187 229 280 337
#     4   9  19  34  54  83 109 144 183 230 278 332
#     4  11  21  34  54  81 110 149 188 233 274 330
#     4  10  18  34  56  81 111 146 184 228 276 334
#     4   9  19  29  55  86 112 135 176 231 282 335
#
# _framework density 19.977623000000001
#
# number of rings (size 3 to 8) (size 9 to 14) (size 15 to 20)
#    0.000    2.182    3.636    1.091    5.091    0.000 
#    3.273    3.636    0.000    0.000    0.000   10.182 
#    0.000    0.000    0.000    0.000    0.000    0.000 
#
# Total GULP energy -245090.915991 kJ/mol
# GULP energy per Si atom -5570.248091 kJ/mol
# Density = 1.993215 g / cm^3
# Si number density = 19.977623 Si / 1000 Ang^3
#
#
#
# Elastic Constant Matrix: (Units=GPa)
#
#
# Indices 1 2 3 4 5 6 
#
# 1 67.6489 27.6262 8.0787 0.0000 0.0000 0.0000
# 2 27.6262 126.4290 -1.7483 0.0000 0.0000 0.0000
# 3 8.0787 -1.7483 15.9222 0.0000 0.0000 0.0000
# 4 0.0000 0.0000 0.0000 2.9843 0.0000 0.0000
# 5 0.0000 0.0000 0.0000 0.0000 14.0290 0.0000
# 6 0.0000 0.0000 0.0000 0.0000 0.0000 51.1672
#
#
#
# Elastic Compliance Matrix: (Units=1/GPa)
#
#
# Indices 1 2 3 4 5 6 
#
# 1 0.017510 -0.003955 -0.009319 0.000000 0.000000 0.000000
# 2 -0.003955 0.008815 0.002975 0.000000 0.000000 0.000000
# 3 -0.009319 0.002975 0.067860 0.000000 0.000000 0.000000
# 4 0.000000 0.000000 0.000000 0.335089 0.000000 0.000000
# 5 0.000000 0.000000 0.000000 0.000000 0.071281 0.000000
# 6 0.000000 0.000000 0.000000 0.000000 0.000000 0.019544
#
#
# Mechanical properties :
#
#
# Convention : Reuss Voigt Hill
#
# Bulk Modulus (GPa) = 13.58937 30.87927 22.23432
# Shear Modulus (GPa) = 8.84602 25.37234 17.10918
#
# Velocity S-wave (km/s) = 2.10656 3.56763 2.92964
# Velocity P-wave (km/s) = 3.56845 5.69746 4.75368
#
# Compressibility (1/GPa) = 0.07358695
#
# Stress axis : x y z
#
# Youngs Moduli (GPa) = 57.10952 113.44377 14.73621
#
# Poissons Ratio (x) = 0.44868 0.13732
# Poissons Ratio (y) = 0.22587 -0.04383
# Poissons Ratio (z) = 0.53219 -0.33745
#
# Static dielectric constant tensor:
#      x y z
#    x 1.808110 0.000000 0.000000 
#    y 0.000000 1.745640 0.000000 
#    z 0.000000 0.000000 1.721380 
# 
# From -- ./inp_files/17929.got.cif
#   From: 2010.05.17/outbox.cif.g08.bks.cpg/sg54_9_cif.got.tgz:17929.got - 2010.06.03 13:09:01.
