data_PCOD9420813
_publ_section_title
;
Structure prediction by ZEFSAII (Michael W. Deem and Ramdas Pophale) SiO2 
 PCOD9420813
Probable space group: P C C A
;
_chemical_formula_sum "Si O2"
_cell_formula_units_Z 28
_cell_length_a 8.616843
_cell_length_b 11.577698
_cell_length_c 9.095727
_cell_angle_alpha 90.000000
_cell_angle_beta 90.000000
_cell_angle_gamma 90.000000
_cell_volume 907.418886
_symmetry_space_group_name_H-M "P C C A"
_symmetry_group_IT_number 54
_symmetry_cell_setting 'orthorhombic'
loop_
_space_group_symop_operation_xyz
x,y,z
1/2-x,-y,z
1/2+x,-y,1/2-z
-x,y,1/2-z
-x,-y,-z
1/2+x,y,-z
1/2-x,y,1/2+z
x,-y,1/2+z
loop_
_atom_site_type_symbol
_atom_site_label
_atom_site_fract_x
_atom_site_fract_y
_atom_site_fract_z
Si Si1 0.615025 0.342780 0.920556
Si Si2 0.859144 0.913978 0.869244
Si Si3 0.425888 0.188387 0.101391
Si Si4 0.250000 0.500000 0.826807
O O1 0.836447 0.937603 0.360723
O O2 0.657384 0.417043 0.063127
O O3 0.723547 0.230186 0.876506
O O4 0.647177 0.425572 0.784963
O O5 0.000000 0.897276 0.750000
O O6 0.047232 0.716593 0.967011
O O7 0.077089 0.107357 0.966464
O O8 0.500000 0.237666 0.250000
#
# Coordination Sequence:
#
# PCOD9420813 Si02
#       4
#     8   8   8   4
#     4   9  22  37  73  89 146 169 244 271 365 385
#     4  10  22  42  68  99 136 176 227 285 351 420
#     4  10  22  42  65 100 136 174 225 284 349 412
#     4  10  18  46  60 106 128 196 224 304 320 430
#
# _framework density 30.856752
#
# number of rings (size 3 to 8) (size 9 to 14) (size 15 to 20)
#    1.714    0.571    0.000    2.571    0.000    1.143 
#    0.000   21.429    0.000    0.000    0.000    0.000 
#    0.000    0.000    0.000    0.000    0.000    0.000 
#
# Total GULP energy -156443.429613 kJ/mol
# GULP energy per Si atom -5587.265343 kJ/mol
# Density = 3.078652 g / cm^3
# Si number density = 30.856752 Si / 1000 Ang^3
#
#
#
# Elastic Constant Matrix: (Units=GPa)
#
#
# Indices 1 2 3 4 5 6 
#
# 1 266.0103 89.2667 100.4833 0.0000 0.0000 0.0000
# 2 89.2667 257.6818 100.8068 0.0000 0.0000 0.0000
# 3 100.4833 100.8068 252.2537 0.0000 0.0000 0.0000
# 4 0.0000 0.0000 0.0000 86.2797 0.0000 0.0000
# 5 0.0000 0.0000 0.0000 0.0000 26.9065 0.0000
# 6 0.0000 0.0000 0.0000 0.0000 0.0000 57.3140
#
#
#
# Elastic Compliance Matrix: (Units=1/GPa)
#
#
# Indices 1 2 3 4 5 6 
#
# 1 0.004654 -0.001051 -0.001434 0.000000 0.000000 0.000000
# 2 -0.001051 0.004837 -0.001514 0.000000 0.000000 0.000000
# 3 -0.001434 -0.001514 0.005141 0.000000 0.000000 0.000000
# 4 0.000000 0.000000 0.000000 0.011590 0.000000 0.000000
# 5 0.000000 0.000000 0.000000 0.000000 0.037166 0.000000
# 6 0.000000 0.000000 0.000000 0.000000 0.000000 0.017448
#
#
# Mechanical properties :
#
#
# Convention : Reuss Voigt Hill
#
# Bulk Modulus (GPa) = 150.76200 150.78438 150.77319
# Shear Modulus (GPa) = 54.91816 66.45930 60.68873
#
# Velocity S-wave (km/s) = 4.22332 4.64594 4.43966
# Velocity P-wave (km/s) = 8.52916 8.81769 8.67463
#
# Compressibility (1/GPa) = 0.00663297
#
# Stress axis : x y z
#
# Youngs Moduli (GPa) = 214.88911 206.72395 194.53341
#
# Poissons Ratio (x) = 0.21732 0.27888
# Poissons Ratio (y) = 0.22591 0.29460
# Poissons Ratio (z) = 0.30806 0.31306
#
# Static dielectric constant tensor:
#      x y z
#    x 2.596770 0.000000 0.000000 
#    y 0.000000 2.721960 0.000000 
#    z 0.000000 0.000000 2.124910 
# 
# From -- ./inp_files/3207.got.cif
#   From: 2010.05.17/outbox.cif.g08.bks.cpg/sg54_2_cif.got.tgz:3207.got - 2010.06.03 13:09:01.
