data_PCOD9420052
_publ_section_title
;
Structure prediction by ZEFSAII (Michael W. Deem and Ramdas Pophale) SiO2 
 PCOD9420052
Probable space group: P M N A
;
_chemical_formula_sum "Si O2"
_cell_formula_units_Z 64
_cell_length_a 7.417322
_cell_length_b 24.584860
_cell_length_c 14.265210
_cell_angle_alpha 90.000000
_cell_angle_beta 90.000000
_cell_angle_gamma 90.000000
_cell_volume 2601.315579
_symmetry_space_group_name_H-M "P M N A"
_symmetry_group_IT_number 53
_symmetry_cell_setting 'orthorhombic'
loop_
_space_group_symop_operation_xyz
x,y,z
1/2-x,-y,1/2+z
x,-y,-z
1/2-x,y,1/2-z
-x,-y,-z
1/2+x,y,1/2-z
-x,y,z
1/2+x,-y,1/2+z
loop_
_atom_site_type_symbol
_atom_site_label
_atom_site_fract_x
_atom_site_fract_y
_atom_site_fract_z
Si Si1 0.201880 0.808500 0.109326
Si Si2 0.784295 0.577150 0.444347
Si Si3 0.784692 0.535002 0.642456
Si Si4 0.284893 0.926504 0.358081
Si Si5 0.284204 0.957411 0.638312
Si Si6 0.703034 0.161343 0.393376
Si Si7 0.285337 0.302751 0.556926
Si Si8 0.716105 0.724749 0.649996
O O1 0.292604 0.865890 0.132458
O O2 0.000000 0.808348 0.153284
O O3 0.184522 0.816142 0.997855
O O4 0.286063 0.748621 0.116891
O O5 0.717964 0.569861 0.552553
O O6 0.719818 0.526455 0.381679
O O7 0.742898 0.636805 0.406938
O O8 0.000000 0.572813 0.447074
O O9 0.750000 0.550836 0.750000
O O10 0.000000 0.535273 0.635008
O O11 0.250000 0.937517 0.250000
O O12 0.500000 0.922219 0.381353
O O13 0.217473 0.983973 0.399567
O O14 0.250000 0.953086 0.750000
O O15 0.500000 0.959335 0.621668
O O16 0.216346 0.899118 0.601167
O O17 0.500000 0.153644 0.353432
O O18 0.791900 0.213297 0.344733
O O19 0.500000 0.293503 0.554454
O O20 0.218252 0.300539 0.448211
O O21 0.750000 0.696741 0.750000
O O22 0.500000 0.728644 0.642179
#
# Coordination Sequence:
#
# PCOD9420052 Si02
#       8
#     8   8   8   8   8   8   8   8
#     4   8  15  29  46  63  86 115 148 188 229 267
#     4   9  19  36  55  77 108 139 165 201 246 285
#     4   9  19  36  57  81 109 139 168 200 241 286
#     4   9  17  29  45  63  83 109 142 184 233 280
#     4   9  16  25  40  62  84 108 141 181 226 276
#     4   8  14  25  41  61  84 110 144 187 230 274
#     4   9  18  32  49  69  94 127 165 199 232 274
#     4   9  17  28  42  62  90 123 157 194 236 283
#
# _framework density 24.602934999999999
#
# number of rings (size 3 to 8) (size 9 to 14) (size 15 to 20)
#    0.000    3.250    0.000    2.625    0.000    2.500 
#    0.000    7.500    0.000    5.250    0.000    3.500 
#    0.000    0.000    0.000    0.000    0.000    0.000 
#
# Total GULP energy -356288.239330 kJ/mol
# GULP energy per Si atom -5567.003740 kJ/mol
# Density = 2.454694 g / cm^3
# Si number density = 24.602935 Si / 1000 Ang^3
#
#
#
# Elastic Constant Matrix: (Units=GPa)
#
#
# Indices 1 2 3 4 5 6 
#
# 1 85.2470 -1.2681 -6.3578 0.0000 0.0000 0.0000
# 2 -1.2681 158.6844 -11.2884 0.0000 0.0000 0.0000
# 3 -6.3578 -11.2884 36.2517 0.0000 0.0000 0.0000
# 4 0.0000 0.0000 0.0000 6.1924 0.0000 0.0000
# 5 0.0000 0.0000 0.0000 0.0000 83.6835 0.0000
# 6 0.0000 0.0000 0.0000 0.0000 0.0000 69.8213
#
#
#
# Elastic Compliance Matrix: (Units=1/GPa)
#
#
# Indices 1 2 3 4 5 6 
#
# 1 0.011896 0.000249 0.002164 0.000000 0.000000 0.000000
# 2 0.000249 0.006450 0.002052 0.000000 0.000000 0.000000
# 3 0.002164 0.002052 0.028603 0.000000 0.000000 0.000000
# 4 0.000000 0.000000 0.000000 0.161487 0.000000 0.000000
# 5 0.000000 0.000000 0.000000 0.000000 0.011950 0.000000
# 6 0.000000 0.000000 0.000000 0.000000 0.000000 0.014322
#
#
# Mechanical properties :
#
#
# Convention : Reuss Voigt Hill
#
# Bulk Modulus (GPa) = 17.89595 26.92828 22.41212
# Shear Modulus (GPa) = 20.45786 51.87928 36.16857
#
# Velocity S-wave (km/s) = 2.88674 4.59700 3.83834
# Velocity P-wave (km/s) = 4.28961 6.25663 5.36405
#
# Compressibility (1/GPa) = 0.05587855
#
# Stress axis : x y z
#
# Youngs Moduli (GPa) = 84.06398 155.04390 34.96092
#
# Poissons Ratio (x) = -0.03860 -0.07565
# Poissons Ratio (y) = -0.02093 -0.07174
# Poissons Ratio (z) = -0.18190 -0.31816
#
# Static dielectric constant tensor:
#      x y z
#    x 2.202620 0.000000 0.000000 
#    y 0.000000 2.049220 0.000000 
#    z 0.000000 0.000000 1.976310 
# 
# From -- ./inp_files/27036.got.cif
#   From: 2010.05.17/outbox.cif.g08.bks.cpg/sg53_14_cif.got.tgz:27036.got - 2010.06.03 12:45:16.
