data_PCOD9420858
_publ_section_title
;
Structure prediction by ZEFSAII (Michael W. Deem and Ramdas Pophale) SiO2 
 PCOD9420858
Probable space group: P C C A
;
_chemical_formula_sum "Si O2"
_cell_formula_units_Z 40
_cell_length_a 23.575640
_cell_length_b 12.196783
_cell_length_c 5.634330
_cell_angle_alpha 90.000000
_cell_angle_beta 90.000000
_cell_angle_gamma 90.000000
_cell_volume 1620.134492
_symmetry_space_group_name_H-M "P C C A"
_symmetry_group_IT_number 54
_symmetry_cell_setting 'orthorhombic'
loop_
_space_group_symop_operation_xyz
x,y,z
1/2-x,-y,z
1/2+x,-y,1/2-z
-x,y,1/2-z
-x,-y,-z
1/2+x,y,-z
1/2-x,y,1/2+z
x,-y,1/2+z
loop_
_atom_site_type_symbol
_atom_site_label
_atom_site_fract_x
_atom_site_fract_y
_atom_site_fract_z
Si Si1 0.652403 0.379979 0.645908
Si Si2 0.562822 0.817269 0.683931
Si Si3 0.400607 0.155553 0.814997
Si Si4 0.228812 0.124702 0.161946
Si Si5 0.342237 0.630841 0.853647
O O1 0.602982 0.288936 0.653086
O O2 0.633737 0.506055 0.645406
O O3 0.685987 0.360902 0.403039
O O4 0.686064 0.361351 0.889335
O O5 0.500000 0.780090 0.750000
O O6 0.562619 0.869810 0.419409
O O7 0.607977 0.719771 0.652972
O O8 0.583464 0.883644 0.919508
O O9 0.336409 0.123686 0.745449
O O10 0.263176 0.169913 0.392359
O O11 0.250000 0.000000 0.133256
#
# Coordination Sequence:
#
# PCOD9420858 Si02
#       5
#     8   8   8   8   8
#     4   8  14  25  41  64  95 140 178 216 260 290
#     4  10  19  31  49  79 115 156 189 212 250 310
#     4  10  19  33  52  78 111 142 175 228 274 314
#     4  10  21  38  61  89 107 126 169 230 291 341
#     4   8  14  25  39  62  97 142 186 216 238 287
#
# _framework density 24.689309000000002
#
# number of rings (size 3 to 8) (size 9 to 14) (size 15 to 20)
#    0.000    2.800    0.000    1.800    0.000    0.000 
#    0.000   16.000    0.000    0.000    0.000  123.200 
#    0.000    0.000    0.000    0.000    0.000    0.000 
#
# Total GULP energy -222753.331069 kJ/mol
# GULP energy per Si atom -5568.833277 kJ/mol
# Density = 2.463311 g / cm^3
# Si number density = 24.689309 Si / 1000 Ang^3
#
#
#
# Elastic Constant Matrix: (Units=GPa)
#
#
# Indices 1 2 3 4 5 6 
#
# 1 86.6668 -2.1722 20.9693 0.0000 0.0000 0.0000
# 2 -2.1722 99.9750 5.4431 0.0000 0.0000 0.0000
# 3 20.9693 5.4431 341.1764 0.0000 0.0000 0.0000
# 4 0.0000 0.0000 0.0000 -11.5469 0.0000 0.0000
# 5 0.0000 0.0000 0.0000 0.0000 29.7982 0.0000
# 6 0.0000 0.0000 0.0000 0.0000 0.0000 -0.3450
#
#
#
# Elastic Compliance Matrix: (Units=1/GPa)
#
#
# Indices 1 2 3 4 5 6 
#
# 1 0.011721 0.000294 -0.000725 0.000000 0.000000 0.000000
# 2 0.000294 0.010019 -0.000178 0.000000 0.000000 0.000000
# 3 -0.000725 -0.000178 0.002978 0.000000 0.000000 0.000000
# 4 0.000000 0.000000 0.000000 -0.086603 0.000000 0.000000
# 5 0.000000 0.000000 0.000000 0.000000 0.033559 0.000000
# 6 0.000000 0.000000 0.000000 0.000000 0.000000 -2.898615
#
#
# Mechanical properties :
#
#
# Convention : Reuss Voigt Hill
#
# Bulk Modulus (GPa) = 42.55220 64.03317 53.29269
# Shear Modulus (GPa) = -1.71357 37.15314 17.71979
#
# Velocity S-wave (km/s) = -0.83400 3.88342 2.68192
# Velocity P-wave (km/s) = 4.04290 6.78968 5.58770
#
# Compressibility (1/GPa) = 0.02350055
#
# Stress axis : x y z
#
# Youngs Moduli (GPa) = 85.31512 99.81456 335.74628
#
# Poissons Ratio (x) = -0.02936 0.24345
# Poissons Ratio (y) = -0.02510 0.05973
# Poissons Ratio (z) = 0.06186 0.01776
#
# Static dielectric constant tensor:
#      x y z
#    x 1.851030 0.000000 0.000000 
#    y 0.000000 2.011030 0.000000 
#    z 0.000000 0.000000 2.114830 
# 
# From -- ./inp_files/1594.got.cif
#   From: 2010.05.17/outbox.cif.g08.bks.cpg/sg54_1_cif.got.tgz:1594.got - 2010.06.03 13:09:01.
