data_PCOD9420325
_publ_section_title
;
Structure prediction by ZEFSAII (Michael W. Deem and Ramdas Pophale) SiO2 
 PCOD9420325
Probable space group: P C C A
;
_chemical_formula_sum "Si O2"
_cell_formula_units_Z 44
_cell_length_a 5.361683
_cell_length_b 27.611939
_cell_length_c 12.381824
_cell_angle_alpha 90.000000
_cell_angle_beta 90.000000
_cell_angle_gamma 90.000000
_cell_volume 1833.085260
_symmetry_space_group_name_H-M "P C C A"
_symmetry_group_IT_number 54
_symmetry_cell_setting 'orthorhombic'
loop_
_space_group_symop_operation_xyz
x,y,z
1/2-x,-y,z
1/2+x,-y,1/2-z
-x,y,1/2-z
-x,-y,-z
1/2+x,y,-z
1/2-x,y,1/2+z
x,-y,1/2+z
loop_
_atom_site_type_symbol
_atom_site_label
_atom_site_fract_x
_atom_site_fract_y
_atom_site_fract_z
Si Si1 0.141984 0.642445 0.877020
Si Si2 0.249808 0.947732 0.821583
Si Si3 0.811300 0.253689 0.569652
Si Si4 0.140788 0.604855 0.127678
Si Si5 0.688264 0.845945 0.064030
Si Si6 0.750000 0.500000 0.928950
O O1 0.257523 0.695947 0.872504
O O2 0.356283 0.607092 0.833127
O O3 0.859616 0.640972 0.836047
O O4 0.107020 0.622794 0.001300
O O5 0.500000 0.946155 0.750000
O O6 0.238062 0.898359 0.887217
O O7 0.000000 0.948101 0.750000
O O8 0.250000 0.000000 0.881740
O O9 0.592095 0.253724 0.477291
O O10 0.757598 0.202873 0.630130
O O11 0.243218 0.550532 0.133312
O O12 0.397877 0.842967 0.030902
O O13 0.500000 0.500000 0.000000
#
# Coordination Sequence:
#
# PCOD9420325 Si02
#       6
#     8   8   8   8   8   4
#     4  10  14  22  31  43  61  95 130 166 220 264
#     4  10  21  38  58  77 103 140 174 201 242 307
#     4  10  16  25  39  57  84 110 140 183 237 277
#     4  10  16  20  29  40  60  91 134 176 216 258
#     4  10  21  33  51  80 106 129 163 215 260 283
#     4  12  16  20  24  38  56  82 126 186 214 240
#
# _framework density 24.003247000000002
#
# number of rings (size 3 to 8) (size 9 to 14) (size 15 to 20)
#    0.000    1.818    7.273    1.091    0.000    0.727 
#    0.000    0.000    0.000    0.000    0.000    0.000 
#    0.000    0.000    0.000    0.000    0.000    0.000 
#
# Total GULP energy -245506.815149 kJ/mol
# GULP energy per Si atom -5579.700344 kJ/mol
# Density = 2.394861 g / cm^3
# Si number density = 24.003247 Si / 1000 Ang^3
#
#
#
# Elastic Constant Matrix: (Units=GPa)
#
#
# Indices 1 2 3 4 5 6 
#
# 1 181.5734 7.4046 21.0642 0.0000 0.0000 0.0000
# 2 7.4046 208.9114 6.5292 0.0000 0.0000 0.0000
# 3 21.0642 6.5292 11.0626 0.0000 0.0000 0.0000
# 4 0.0000 0.0000 0.0000 15.0303 0.0000 0.0000
# 5 0.0000 0.0000 0.0000 0.0000 32.6787 0.0000
# 6 0.0000 0.0000 0.0000 0.0000 0.0000 42.3294
#
#
#
# Elastic Compliance Matrix: (Units=1/GPa)
#
#
# Indices 1 2 3 4 5 6 
#
# 1 0.007075 0.000173 -0.013574 0.000000 0.000000 0.000000
# 2 0.000173 0.004881 -0.003211 0.000000 0.000000 0.000000
# 3 -0.013574 -0.003211 0.118135 0.000000 0.000000 0.000000
# 4 0.000000 0.000000 0.000000 0.066532 0.000000 0.000000
# 5 0.000000 0.000000 0.000000 0.000000 0.030601 0.000000
# 6 0.000000 0.000000 0.000000 0.000000 0.000000 0.023624
#
#
# Mechanical properties :
#
#
# Convention : Reuss Voigt Hill
#
# Bulk Modulus (GPa) = 10.32328 52.39371 31.35850
# Shear Modulus (GPa) = 15.80474 42.44432 29.12453
#
# Velocity S-wave (km/s) = 2.56880 4.20965 3.48711
# Velocity P-wave (km/s) = 3.62055 6.74561 5.41349
#
# Compressibility (1/GPa) = 0.09686840
#
# Stress axis : x y z
#
# Youngs Moduli (GPa) = 141.34220 204.87923 8.46488
#
# Poissons Ratio (x) = -0.03554 0.11490
# Poissons Ratio (y) = -0.02452 0.02718
# Poissons Ratio (z) = 1.91855 0.65787
#
# Static dielectric constant tensor:
#      x y z
#    x 1.891400 0.000000 0.000000 
#    y 0.000000 1.946750 0.000000 
#    z 0.000000 0.000000 3.226850 
# 
# From -- ./inp_files/15906.got.cif
#   From: 2010.05.17/outbox.cif.g08.bks.cpg/sg54_8_cif.got.tgz:15906.got - 2010.06.03 13:09:01.
