data_PCOD9420353
_publ_section_title
;
Structure prediction by ZEFSAII (Michael W. Deem and Ramdas Pophale) SiO2 
 PCOD9420353
Probable space group: P C C A
;
_chemical_formula_sum "Si O2"
_cell_formula_units_Z 56
_cell_length_a 5.403699
_cell_length_b 32.719294
_cell_length_c 14.074302
_cell_angle_alpha 90.000000
_cell_angle_beta 90.000000
_cell_angle_gamma 90.000000
_cell_volume 2488.410009
_symmetry_space_group_name_H-M "P C C A"
_symmetry_group_IT_number 54
_symmetry_cell_setting 'orthorhombic'
loop_
_space_group_symop_operation_xyz
x,y,z
1/2-x,-y,z
1/2+x,-y,1/2-z
-x,y,1/2-z
-x,-y,-z
1/2+x,y,-z
1/2-x,y,1/2+z
x,-y,1/2+z
loop_
_atom_site_type_symbol
_atom_site_label
_atom_site_fract_x
_atom_site_fract_y
_atom_site_fract_z
Si Si1 0.490528 0.742143 0.634430
Si Si2 0.870445 0.132194 0.115342
Si Si3 0.998549 0.517506 0.609410
Si Si4 0.123807 0.833696 0.101596
Si Si5 0.582165 0.607861 0.057536
Si Si6 0.182455 0.957386 0.936162
Si Si7 0.495040 0.302496 0.863255
O O1 0.500000 0.746586 0.750000
O O2 0.401901 0.785263 0.591813
O O3 0.762662 0.725948 0.605501
O O4 0.270826 0.711042 0.607207
O O5 0.627156 0.153658 0.152633
O O6 0.828754 0.083889 0.123932
O O7 0.128008 0.150249 0.150425
O O8 0.876833 0.144165 0.001965
O O9 0.250000 0.500000 0.649391
O O10 0.750000 0.500000 0.651582
O O11 0.000000 0.500000 0.500000
O O12 0.978612 0.566255 0.612871
O O13 0.549860 0.650862 0.109141
O O14 0.366335 0.606419 0.977400
O O15 0.250000 0.000000 0.884178
O O16 0.414452 0.956488 0.010784
O O17 0.500000 0.299067 0.750000
#
# Coordination Sequence:
#
# PCOD9420353 Si02
#       7
#     8   8   8   8   8   8   8
#     4  10  21  40  57  70  95 141 182 211 257 321
#     4  10  17  30  43  70 107 125 151 209 268 293
#     4  10  16  30  51  77 109 143 163 205 259 312
#     4  10  18  30  48  68  93 130 160 203 258 304
#     4  12  21  35  57  88 108 136 182 225 258 310
#     4  10  16  25  41  61  94 140 163 183 230 318
#     4  10  23  42  57  74 108 145 177 221 271 318
#
# _framework density 22.504328999999998
#
# number of rings (size 3 to 8) (size 9 to 14) (size 15 to 20)
#    0.000    1.714    5.714    1.714    0.000    0.000 
#   15.429    0.000    0.000    0.857    0.000    0.000 
#    0.000    3.429    0.000    0.000    0.000    0.000 
#
# Total GULP energy -312525.094616 kJ/mol
# GULP energy per Si atom -5580.805261 kJ/mol
# Density = 2.245311 g / cm^3
# Si number density = 22.504329 Si / 1000 Ang^3
#
#
#
# Elastic Constant Matrix: (Units=GPa)
#
#
# Indices 1 2 3 4 5 6 
#
# 1 189.8770 43.1559 6.7565 0.0000 0.0000 0.0000
# 2 43.1559 178.7184 -4.6278 0.0000 0.0000 0.0000
# 3 6.7565 -4.6278 61.5889 0.0000 0.0000 0.0000
# 4 0.0000 0.0000 0.0000 -37.2143 0.0000 0.0000
# 5 0.0000 0.0000 0.0000 0.0000 -2.4297 0.0000
# 6 0.0000 0.0000 0.0000 0.0000 0.0000 43.1036
#
#
#
# Elastic Compliance Matrix: (Units=1/GPa)
#
#
# Indices 1 2 3 4 5 6 
#
# 1 0.005604 -0.001372 -0.000718 0.000000 0.000000 0.000000
# 2 -0.001372 0.005942 0.000597 0.000000 0.000000 0.000000
# 3 -0.000718 0.000597 0.016360 0.000000 0.000000 0.000000
# 4 0.000000 0.000000 0.000000 -0.026871 0.000000 0.000000
# 5 0.000000 0.000000 0.000000 0.000000 -0.411578 0.000000
# 6 0.000000 0.000000 0.000000 0.000000 0.000000 0.023200
#
#
# Mechanical properties :
#
#
# Convention : Reuss Voigt Hill
#
# Bulk Modulus (GPa) = 40.12678 57.86148 48.99413
# Shear Modulus (GPa) = -13.29607 26.35190 6.52792
#
# Velocity S-wave (km/s) = -2.43332 3.42566 1.70500
# Velocity P-wave (km/s) = 3.15827 6.43536 5.06895
#
# Compressibility (1/GPa) = 0.02492101
#
# Stress axis : x y z
#
# Youngs Moduli (GPa) = 178.44730 168.29056 61.12356
#
# Poissons Ratio (x) = 0.23086 0.04388
# Poissons Ratio (y) = 0.24479 -0.03649
# Poissons Ratio (z) = 0.12810 -0.10047
#
# Static dielectric constant tensor:
#      x y z
#    x 1.851370 0.000000 0.000000 
#    y 0.000000 1.847790 0.000000 
#    z 0.000000 0.000000 1.870650 
# 
# From -- ./inp_files/10996.got.cif
#   From: 2010.05.17/outbox.cif.g08.bks.cpg/sg54_6_cif.got.tgz:10996.got - 2010.06.03 13:09:01.
