data_PCOD9420677
_publ_section_title
;
Structure prediction by ZEFSAII (Michael W. Deem and Ramdas Pophale) SiO2 
 PCOD9420677
Probable space group: P C C A
;
_chemical_formula_sum "Si O2"
_cell_formula_units_Z 52
_cell_length_a 16.895724
_cell_length_b 10.756136
_cell_length_c 12.929292
_cell_angle_alpha 90.000000
_cell_angle_beta 90.000000
_cell_angle_gamma 90.000000
_cell_volume 2349.675211
_symmetry_space_group_name_H-M "P C C A"
_symmetry_group_IT_number 54
_symmetry_cell_setting 'orthorhombic'
loop_
_space_group_symop_operation_xyz
x,y,z
1/2-x,-y,z
1/2+x,-y,1/2-z
-x,y,1/2-z
-x,-y,-z
1/2+x,y,-z
1/2-x,y,1/2+z
x,-y,1/2+z
loop_
_atom_site_type_symbol
_atom_site_label
_atom_site_fract_x
_atom_site_fract_y
_atom_site_fract_z
Si Si1 0.033570 0.631805 0.864096
Si Si2 0.791118 0.129537 0.927883
Si Si3 0.703842 0.623030 0.202243
Si Si4 0.145734 0.195224 0.771694
Si Si5 0.750000 0.000000 0.621748
Si Si6 0.693560 0.616221 0.432588
Si Si7 0.546547 0.647745 0.575723
O O1 0.128198 0.652366 0.865735
O O2 0.000000 0.672325 0.750000
O O3 0.002373 0.689081 0.973246
O O4 0.015924 0.482545 0.876679
O O5 0.861543 0.170149 0.851268
O O6 0.733839 0.248608 0.933222
O O7 0.750000 0.000000 0.886369
O O8 0.799268 0.091703 0.046343
O O9 0.750000 0.500000 0.171673
O O10 0.775518 0.719009 0.215829
O O11 0.664647 0.600107 0.315092
O O12 0.180322 0.069572 0.819281
O O13 0.073535 0.255807 0.834808
O O14 0.750000 0.500000 0.447217
O O15 0.628202 0.614023 0.518868
#
# Coordination Sequence:
#
# PCOD9420677 Si02
#       7
#     8   8   8   8   4   8   8
#     4  11  23  38  54  87 132 168 202 251 332 393
#     4   9  19  33  53  89 127 159 197 264 317 354
#     4  10  20  37  58  86 125 160 196 257 311 371
#     4  11  20  35  61  91 116 157 215 259 300 380
#     4  10  18  34  56  92 122 156 210 272 310 366
#     4  10  20  33  58  92 122 155 204 256 307 372
#     4  11  22  36  59  84 123 169 201 251 322 384
#
# _framework density 22.130718000000002
#
# number of rings (size 3 to 8) (size 9 to 14) (size 15 to 20)
#    0.462    1.231    5.385    0.000    2.154    0.000 
#    0.000    1.538    0.000    0.923    0.000    3.231 
#    0.000    0.000    0.000    0.000    0.000    0.000 
#
# Total GULP energy -289588.008130 kJ/mol
# GULP energy per Si atom -5569.000156 kJ/mol
# Density = 2.208035 g / cm^3
# Si number density = 22.130718 Si / 1000 Ang^3
#
#
#
# Elastic Constant Matrix: (Units=GPa)
#
#
# Indices 1 2 3 4 5 6 
#
# 1 52.2419 24.9468 19.3062 0.0000 0.0000 0.0000
# 2 24.9468 76.4988 3.7208 0.0000 0.0000 0.0000
# 3 19.3062 3.7208 90.9993 0.0000 0.0000 0.0000
# 4 0.0000 0.0000 0.0000 20.5741 0.0000 0.0000
# 5 0.0000 0.0000 0.0000 0.0000 35.1518 0.0000
# 6 0.0000 0.0000 0.0000 0.0000 0.0000 18.1000
#
#
#
# Elastic Compliance Matrix: (Units=1/GPa)
#
#
# Indices 1 2 3 4 5 6 
#
# 1 0.024690 -0.007812 -0.004919 0.000000 0.000000 0.000000
# 2 -0.007812 0.015570 0.001021 0.000000 0.000000 0.000000
# 3 -0.004919 0.001021 0.011991 0.000000 0.000000 0.000000
# 4 0.000000 0.000000 0.000000 0.048605 0.000000 0.000000
# 5 0.000000 0.000000 0.000000 0.000000 0.028448 0.000000
# 6 0.000000 0.000000 0.000000 0.000000 0.000000 0.055249
#
#
# Mechanical properties :
#
#
# Convention : Reuss Voigt Hill
#
# Bulk Modulus (GPa) = 34.68548 35.07639 34.88094
# Shear Modulus (GPa) = 22.97970 26.21626 24.59798
#
# Velocity S-wave (km/s) = 3.22586 3.44555 3.33751
# Velocity P-wave (km/s) = 5.43893 5.63144 5.53602
#
# Compressibility (1/GPa) = 0.02883050
#
# Stress axis : x y z
#
# Youngs Moduli (GPa) = 40.50211 64.22560 83.39656
#
# Poissons Ratio (x) = 0.50175 0.41021
# Poissons Ratio (y) = 0.31642 -0.08513
# Poissons Ratio (z) = 0.19922 -0.06556
#
# Static dielectric constant tensor:
#      x y z
#    x 1.863210 0.000000 0.000000 
#    y 0.000000 1.838650 0.000000 
#    z 0.000000 0.000000 1.922110 
# 
# From -- ./inp_files/14259.got.cif
#   From: 2010.05.17/outbox.cif.g08.bks.cpg/sg54_8_cif.got.tgz:14259.got - 2010.06.03 13:09:01.
