data_PCOD9420866
_publ_section_title
;
Structure prediction by ZEFSAII (Michael W. Deem and Ramdas Pophale) SiO2 
 PCOD9420866
Probable space group: P C C A
;
_chemical_formula_sum "Si O2"
_cell_formula_units_Z 56
_cell_length_a 5.386902
_cell_length_b 27.849866
_cell_length_c 17.168431
_cell_angle_alpha 90.000000
_cell_angle_beta 90.000000
_cell_angle_gamma 90.000000
_cell_volume 2575.685257
_symmetry_space_group_name_H-M "P C C A"
_symmetry_group_IT_number 54
_symmetry_cell_setting 'orthorhombic'
loop_
_space_group_symop_operation_xyz
x,y,z
1/2-x,-y,z
1/2+x,-y,1/2-z
-x,y,1/2-z
-x,-y,-z
1/2+x,y,-z
1/2-x,y,1/2+z
x,-y,1/2+z
loop_
_atom_site_type_symbol
_atom_site_label
_atom_site_fract_x
_atom_site_fract_y
_atom_site_fract_z
Si Si1 0.817782 0.089086 0.031539
Si Si2 0.316913 0.200274 0.967643
Si Si3 0.270445 0.343324 0.449482
Si Si4 0.249832 0.693186 0.783326
Si Si5 0.196747 0.550163 0.950270
Si Si6 0.249861 0.943832 0.299082
Si Si7 0.250375 0.195869 0.783854
O O1 0.841479 0.144692 0.004559
O O2 0.758305 0.086842 0.122497
O O3 0.585338 0.066672 0.986276
O O4 0.260793 0.197949 0.876548
O O5 0.583670 0.222819 0.987312
O O6 0.534829 0.338427 0.492799
O O7 0.251726 0.308265 0.376389
O O8 0.244408 0.397569 0.414580
O O9 0.500000 0.670481 0.750000
O O10 0.249874 0.748621 0.755115
O O11 0.000000 0.670494 0.750000
O O12 0.250000 0.500000 0.906434
O O13 0.413690 0.549198 0.017500
O O14 0.500000 0.936332 0.250000
O O15 0.000000 0.935917 0.250000
O O16 0.250000 0.000000 0.323087
O O17 0.500000 0.173148 0.750000
O O18 0.000000 0.173606 0.750000
#
# Coordination Sequence:
#
# PCOD9420866 Si02
#       7
#     8   8   8   8   8   8   8
#     4  10  21  36  54  78 106 136 169 205 253 306
#     4  10  21  36  54  78 106 132 164 211 256 292
#     4  10  19  31  51  76  96 124 169 207 239 290
#     4  10  21  36  51  71 103 135 161 200 253 299
#     4   8  14  25  42  66  94 120 152 199 244 280
#     4  10  21  36  54  78 106 136 173 214 251 290
#     4  10  21  36  54  75  99 133 172 202 242 303
#
# _framework density 21.741786000000001
#
# number of rings (size 3 to 8) (size 9 to 14) (size 15 to 20)
#    0.000    2.286    0.000    2.571    0.000    2.857 
#    0.000    0.000    0.000    0.857    0.000    0.000 
#    0.000    0.000    0.000    0.000    0.000    0.000 
#
# Total GULP energy -312479.833464 kJ/mol
# GULP energy per Si atom -5579.997026 kJ/mol
# Density = 2.169230 g / cm^3
# Si number density = 21.741786 Si / 1000 Ang^3
#
#
#
# Elastic Constant Matrix: (Units=GPa)
#
#
# Indices 1 2 3 4 5 6 
#
# 1 172.5059 -4.3809 23.8964 0.0000 0.0000 0.0000
# 2 -4.3809 71.7087 -25.8060 0.0000 0.0000 0.0000
# 3 23.8964 -25.8060 48.8586 0.0000 0.0000 0.0000
# 4 0.0000 0.0000 0.0000 8.4030 0.0000 0.0000
# 5 0.0000 0.0000 0.0000 0.0000 35.2913 0.0000
# 6 0.0000 0.0000 0.0000 0.0000 0.0000 -17.3198
#
#
#
# Elastic Compliance Matrix: (Units=1/GPa)
#
#
# Indices 1 2 3 4 5 6 
#
# 1 0.006264 -0.000889 -0.003533 0.000000 0.000000 0.000000
# 2 -0.000889 0.017344 0.009595 0.000000 0.000000 0.000000
# 3 -0.003533 0.009595 0.027263 0.000000 0.000000 0.000000
# 4 0.000000 0.000000 0.000000 0.119005 0.000000 0.000000
# 5 0.000000 0.000000 0.000000 0.000000 0.028336 0.000000
# 6 0.000000 0.000000 0.000000 0.000000 0.000000 -0.057737
#
#
# Mechanical properties :
#
#
# Convention : Reuss Voigt Hill
#
# Bulk Modulus (GPa) = 16.33490 31.16582 23.75036
# Shear Modulus (GPa) = 33.21532 25.23249 29.22390
#
# Velocity S-wave (km/s) = 3.91284 3.41038 3.67022
# Velocity P-wave (km/s) = 5.28614 5.46564 5.37664
#
# Compressibility (1/GPa) = 0.06121863
#
# Stress axis : x y z
#
# Youngs Moduli (GPa) = 159.64909 57.65631 36.67939
#
# Poissons Ratio (x) = 0.05124 0.12959
# Poissons Ratio (y) = 0.14189 -0.35196
# Poissons Ratio (z) = 0.56404 -0.55324
#
# Static dielectric constant tensor:
#      x y z
#    x 1.792870 0.000000 0.000000 
#    y 0.000000 1.870640 0.000000 
#    z 0.000000 0.000000 1.728900 
# 
# From -- ./inp_files/10989.got.cif
#   From: 2010.05.17/outbox.cif.g08.bks.cpg/sg54_6_cif.got.tgz:10989.got - 2010.06.03 13:09:01.
