data_PCOD9420312
_publ_section_title
;
Structure prediction by ZEFSAII (Michael W. Deem and Ramdas Pophale) SiO2 
 PCOD9420312
Probable space group: P C C A
;
_chemical_formula_sum "Si O2"
_cell_formula_units_Z 48
_cell_length_a 14.297879
_cell_length_b 28.572426
_cell_length_c 5.329253
_cell_angle_alpha 90.000000
_cell_angle_beta 90.000000
_cell_angle_gamma 90.000000
_cell_volume 2177.133560
_symmetry_space_group_name_H-M "P C C A"
_symmetry_group_IT_number 54
_symmetry_cell_setting 'orthorhombic'
loop_
_space_group_symop_operation_xyz
x,y,z
1/2-x,-y,z
1/2+x,-y,1/2-z
-x,y,1/2-z
-x,-y,-z
1/2+x,y,-z
1/2-x,y,1/2+z
x,-y,1/2+z
loop_
_atom_site_type_symbol
_atom_site_label
_atom_site_fract_x
_atom_site_fract_y
_atom_site_fract_z
Si Si1 0.189195 0.621826 0.267761
Si Si2 0.644666 0.019218 0.868094
Si Si3 0.641367 0.481066 0.354980
Si Si4 0.190678 0.720388 0.154388
Si Si5 0.386483 0.125939 0.751018
Si Si6 0.111706 0.177988 0.750994
O O1 0.229931 0.621487 0.550487
O O2 0.138248 0.573041 0.221014
O O3 0.138927 0.671232 0.212719
O O4 0.646465 0.073507 0.800369
O O5 0.750000 0.000000 0.898763
O O6 0.600239 0.990994 0.637469
O O7 0.750000 0.500000 0.379902
O O8 0.600326 0.489456 0.627465
O O9 0.272134 0.719938 0.368428
O O10 0.137830 0.768494 0.201809
O O11 0.500000 0.124473 0.750000
O O12 0.356595 0.159485 0.522143
O O13 0.355420 0.145836 0.019443
O O14 0.000000 0.174468 0.750000
#
# Coordination Sequence:
#
# PCOD9420312 Si02
#       6
#     8   8   8   8   8   8
#     4  10  16  25  39  59  95 129 158 207 252 311
#     4  10  21  38  53  80 111 139 167 205 256 304
#     4  10  14  20  34  55  81 126 165 194 247 302
#     4  10  21  35  50  79 109 137 170 216 274 313
#     4  10  21  38  61  81 103 137 179 216 249 297
#     4  10  21  40  59  80 107 140 179 218 257 309
#
# _framework density 22.047339999999998
#
# number of rings (size 3 to 8) (size 9 to 14) (size 15 to 20)
#    0.000    2.000    3.333    2.000    0.000    0.667 
#   18.000    0.000    0.000    0.000    0.000    0.000 
#    0.000    1.333    0.000    0.000    0.000    6.667 
#
# Total GULP energy -268005.707610 kJ/mol
# GULP energy per Si atom -5583.452242 kJ/mol
# Density = 2.199716 g / cm^3
# Si number density = 22.047340 Si / 1000 Ang^3
#
#
#
# Elastic Constant Matrix: (Units=GPa)
#
#
# Indices 1 2 3 4 5 6 
#
# 1 56.4036 3.6421 9.1163 0.0000 0.0000 0.0000
# 2 3.6421 146.8560 10.6922 0.0000 0.0000 0.0000
# 3 9.1163 10.6922 137.2672 0.0000 0.0000 0.0000
# 4 0.0000 0.0000 0.0000 41.1782 0.0000 0.0000
# 5 0.0000 0.0000 0.0000 0.0000 4.6284 0.0000
# 6 0.0000 0.0000 0.0000 0.0000 0.0000 -83.4147
#
#
#
# Elastic Compliance Matrix: (Units=1/GPa)
#
#
# Indices 1 2 3 4 5 6 
#
# 1 0.017941 -0.000360 -0.001163 0.000000 0.000000 0.000000
# 2 -0.000360 0.006855 -0.000510 0.000000 0.000000 0.000000
# 3 -0.001163 -0.000510 0.007402 0.000000 0.000000 0.000000
# 4 0.000000 0.000000 0.000000 0.024285 0.000000 0.000000
# 5 0.000000 0.000000 0.000000 0.000000 0.216057 0.000000
# 6 0.000000 0.000000 0.000000 0.000000 0.000000 -0.011988
#
#
# Mechanical properties :
#
#
# Convention : Reuss Voigt Hill
#
# Bulk Modulus (GPa) = 35.54836 43.04759 39.29797
# Shear Modulus (GPa) = 18.24848 13.61680 15.93264
#
# Velocity S-wave (km/s) = 2.88009 2.48789 2.69114
# Velocity P-wave (km/s) = 5.21714 5.27449 5.24589
#
# Compressibility (1/GPa) = 0.02813070
#
# Stress axis : x y z
#
# Youngs Moduli (GPa) = 55.73931 145.86910 135.09754
#
# Poissons Ratio (x) = 0.05255 0.15718
# Poissons Ratio (y) = 0.02008 0.06891
# Poissons Ratio (z) = 0.06485 0.07440
#
# Static dielectric constant tensor:
#      x y z
#    x 1.841960 0.000000 0.000000 
#    y 0.000000 1.797540 0.000000 
#    z 0.000000 0.000000 1.849780 
# 
# From -- ./inp_files/1015.got.cif
#   From: 2010.05.17/outbox.cif.g08.bks.cpg/sg54_1_cif.got.tgz:1015.got - 2010.06.03 13:09:01.
