data_PCOD9420612
_publ_section_title
;
Structure prediction by ZEFSAII (Michael W. Deem and Ramdas Pophale) SiO2 
 PCOD9420612
Probable space group: P C C A
;
_chemical_formula_sum "Si O2"
_cell_formula_units_Z 40
_cell_length_a 7.969266
_cell_length_b 14.043681
_cell_length_c 14.723559
_cell_angle_alpha 90.000000
_cell_angle_beta 90.000000
_cell_angle_gamma 90.000000
_cell_volume 1647.828766
_symmetry_space_group_name_H-M "P C C A"
_symmetry_group_IT_number 54
_symmetry_cell_setting 'orthorhombic'
loop_
_space_group_symop_operation_xyz
x,y,z
1/2-x,-y,z
1/2+x,-y,1/2-z
-x,y,1/2-z
-x,-y,-z
1/2+x,y,-z
1/2-x,y,1/2+z
x,-y,1/2+z
loop_
_atom_site_type_symbol
_atom_site_label
_atom_site_fract_x
_atom_site_fract_y
_atom_site_fract_z
Si Si1 0.500000 0.581449 0.250000
Si Si2 0.250000 0.500000 0.107374
Si Si3 0.815645 0.105059 0.433678
Si Si4 0.876775 0.694534 0.396011
Si Si5 0.286001 0.704149 0.811788
Si Si6 0.197533 0.097008 0.366136
O O1 0.401321 0.520362 0.176792
O O2 0.615845 0.645375 0.184114
O O3 0.298116 0.400371 0.057918
O O4 0.706878 0.202315 0.417291
O O5 0.812025 0.097719 0.543190
O O6 0.004736 0.110444 0.396103
O O7 0.750000 0.000000 0.403457
O O8 0.842756 0.678825 0.289274
O O9 0.079490 0.693380 0.392671
O O10 0.245166 0.814753 0.806049
O O11 0.250000 0.000000 0.318311
#
# Coordination Sequence:
#
# PCOD9420612 Si02
#       6
#     4   4   8   8   8   8
#     4  10  18  32  54  80 112 144 182 228 274 330
#     4  10  18  32  54  80 110 146 184 222 274 324
#     4  11  22  38  58  82 111 146 184 226 277 332
#     4  10  21  36  57  82 113 145 185 231 272 325
#     4  10  20  35  55  83 111 145 183 228 277 323
#     4  11  21  36  58  81 110 146 185 226 276 334
#
# _framework density 24.274366000000001
#
# number of rings (size 3 to 8) (size 9 to 14) (size 15 to 20)
#    0.000    1.600    0.000    9.600    0.000    0.800 
#    0.000    2.000    0.000   15.600    0.000    0.000 
#    0.000    0.000    0.000    0.000    0.000    0.000 
#
# Total GULP energy -223154.129898 kJ/mol
# GULP energy per Si atom -5578.853247 kJ/mol
# Density = 2.421912 g / cm^3
# Si number density = 24.274366 Si / 1000 Ang^3
#
#
#
# Elastic Constant Matrix: (Units=GPa)
#
#
# Indices 1 2 3 4 5 6 
#
# 1 99.1726 73.0406 -1.2044 0.0000 0.0000 0.0000
# 2 73.0406 239.4214 19.5800 0.0000 0.0000 0.0000
# 3 -1.2044 19.5800 24.8323 0.0000 0.0000 0.0000
# 4 0.0000 0.0000 0.0000 16.6349 0.0000 0.0000
# 5 0.0000 0.0000 0.0000 0.0000 8.9059 0.0000
# 6 0.0000 0.0000 0.0000 0.0000 0.0000 49.9366
#
#
#
# Elastic Compliance Matrix: (Units=1/GPa)
#
#
# Indices 1 2 3 4 5 6 
#
# 1 0.013392 -0.004424 0.004138 0.000000 0.000000 0.000000
# 2 -0.004424 0.005926 -0.004887 0.000000 0.000000 0.000000
# 3 0.004138 -0.004887 0.044324 0.000000 0.000000 0.000000
# 4 0.000000 0.000000 0.000000 0.060115 0.000000 0.000000
# 5 0.000000 0.000000 0.000000 0.000000 0.112285 0.000000
# 6 0.000000 0.000000 0.000000 0.000000 0.000000 0.020025
#
#
# Mechanical properties :
#
#
# Convention : Reuss Voigt Hill
#
# Bulk Modulus (GPa) = 18.76332 60.69540 39.72936
# Shear Modulus (GPa) = 17.59454 33.22950 25.41202
#
# Velocity S-wave (km/s) = 2.69517 3.70390 3.23904
# Velocity P-wave (km/s) = 4.17513 6.58407 5.51279
#
# Compressibility (1/GPa) = 0.05329546
#
# Stress axis : x y z
#
# Youngs Moduli (GPa) = 74.67229 168.74791 22.56102
#
# Poissons Ratio (x) = 0.74652 -0.09335
# Poissons Ratio (y) = 0.33034 0.11026
# Poissons Ratio (z) = -0.30897 0.82470
#
# Static dielectric constant tensor:
#      x y z
#    x 2.763420 0.000000 0.000000 
#    y 0.000000 2.050150 0.000000 
#    z 0.000000 0.000000 1.902880 
# 
# From -- ./inp_files/16350.got.cif
#   From: 2010.05.17/outbox.cif.g08.bks.cpg/sg54_9_cif.got.tgz:16350.got - 2010.06.03 13:09:01.
