data_PCOD9420692
_publ_section_title
;
Structure prediction by ZEFSAII (Michael W. Deem and Ramdas Pophale) SiO2 
 PCOD9420692
Probable space group: P C C A
;
_chemical_formula_sum "Si O2"
_cell_formula_units_Z 44
_cell_length_a 13.073573
_cell_length_b 9.371214
_cell_length_c 17.535116
_cell_angle_alpha 90.000000
_cell_angle_beta 90.000000
_cell_angle_gamma 90.000000
_cell_volume 2148.319126
_symmetry_space_group_name_H-M "P C C A"
_symmetry_group_IT_number 54
_symmetry_cell_setting 'orthorhombic'
loop_
_space_group_symop_operation_xyz
x,y,z
1/2-x,-y,z
1/2+x,-y,1/2-z
-x,y,1/2-z
-x,-y,-z
1/2+x,y,-z
1/2-x,y,1/2+z
x,-y,1/2+z
loop_
_atom_site_type_symbol
_atom_site_label
_atom_site_fract_x
_atom_site_fract_y
_atom_site_fract_z
Si Si1 0.559119 0.126910 0.108288
Si Si2 0.395021 0.118037 0.985294
Si Si3 0.274784 0.344493 0.065212
Si Si4 0.055646 0.733295 0.628632
Si Si5 0.980704 0.593254 0.339625
Si Si6 0.500000 0.954740 0.250000
O O1 0.557541 0.297949 0.116092
O O2 0.631580 0.030976 0.055067
O O3 0.560382 0.056210 0.191659
O O4 0.450294 0.092380 0.066574
O O5 0.479725 0.197511 0.933170
O O6 0.309477 0.232669 0.002257
O O7 0.250000 0.500000 0.032314
O O8 0.170233 0.290218 0.101029
O O9 0.367360 0.366388 0.127093
O O10 0.010303 0.576236 0.647419
O O11 0.062262 0.844183 0.698103
O O12 0.000000 0.619535 0.250000
#
# Coordination Sequence:
#
# PCOD9420692 Si02
#       6
#     8   8   8   8   8   4
#     4   9  18  33  59  81 119 157 190 241 308 355
#     4   9  19  37  59  85 117 159 193 247 303 362
#     4   9  20  35  60  87 117 155 201 247 300 364
#     4  10  20  36  65  86 114 157 206 246 304 363
#     4  10  18  34  60  88 117 156 195 247 310 360
#     4  10  18  34  60  82 110 156 198 248 300 360
#
# _framework density 20.48113
#
# number of rings (size 3 to 8) (size 9 to 14) (size 15 to 20)
#    0.000    2.545    1.818    0.000    0.000    6.545 
#    0.000   22.727   28.000    0.000    0.000    0.000 
#    0.000    0.000    0.000    0.000    0.000    0.000 
#
# Total GULP energy -245012.646943 kJ/mol
# GULP energy per Si atom -5568.469249 kJ/mol
# Density = 2.043451 g / cm^3
# Si number density = 20.481130 Si / 1000 Ang^3
#
#
#
# Elastic Constant Matrix: (Units=GPa)
#
#
# Indices 1 2 3 4 5 6 
#
# 1 55.1724 48.6982 14.8096 0.0000 0.0000 0.0000
# 2 48.6982 152.1158 51.4396 0.0000 0.0000 0.0000
# 3 14.8096 51.4396 71.1013 0.0000 0.0000 0.0000
# 4 0.0000 0.0000 0.0000 36.7385 0.0000 0.0000
# 5 0.0000 0.0000 0.0000 0.0000 8.1951 0.0000
# 6 0.0000 0.0000 0.0000 0.0000 0.0000 29.7169
#
#
#
# Elastic Compliance Matrix: (Units=1/GPa)
#
#
# Indices 1 2 3 4 5 6 
#
# 1 0.025297 -0.008363 0.000781 0.000000 0.000000 0.000000
# 2 -0.008363 0.011468 -0.006555 0.000000 0.000000 0.000000
# 3 0.000781 -0.006555 0.018644 0.000000 0.000000 0.000000
# 4 0.000000 0.000000 0.000000 0.027219 0.000000 0.000000
# 5 0.000000 0.000000 0.000000 0.000000 0.122024 0.000000
# 6 0.000000 0.000000 0.000000 0.000000 0.000000 0.033651
#
#
# Mechanical properties :
#
#
# Convention : Reuss Voigt Hill
#
# Bulk Modulus (GPa) = 36.85174 56.47606 46.66390
# Shear Modulus (GPa) = 18.14092 25.82624 21.98358
#
# Velocity S-wave (km/s) = 2.97936 3.55488 3.27977
# Velocity P-wave (km/s) = 5.46512 6.66964 6.09720
#
# Compressibility (1/GPa) = 0.02713576
#
# Stress axis : x y z
#
# Youngs Moduli (GPa) = 39.53098 87.20178 53.63698
#
# Poissons Ratio (x) = 0.72923 -0.04189
# Poissons Ratio (y) = 0.33058 0.35157
# Poissons Ratio (z) = -0.03088 0.57158
#
# Static dielectric constant tensor:
#      x y z
#    x 1.761310 0.000000 0.000000 
#    y 0.000000 1.786680 0.000000 
#    z 0.000000 0.000000 1.752330 
# 
# From -- ./inp_files/17901.got.cif
#   From: 2010.05.17/outbox.cif.g08.bks.cpg/sg54_9_cif.got.tgz:17901.got - 2010.06.03 13:09:01.
