data_PCOD9420885
_publ_section_title
;
Structure prediction by ZEFSAII (Michael W. Deem and Ramdas Pophale) SiO2 
 PCOD9420885
Probable space group: P C C A
;
_chemical_formula_sum "Si O2"
_cell_formula_units_Z 60
_cell_length_a 28.935789
_cell_length_b 11.636139
_cell_length_c 8.734302
_cell_angle_alpha 90.000000
_cell_angle_beta 90.000000
_cell_angle_gamma 90.000000
_cell_volume 2940.847020
_symmetry_space_group_name_H-M "P C C A"
_symmetry_group_IT_number 54
_symmetry_cell_setting 'orthorhombic'
loop_
_space_group_symop_operation_xyz
x,y,z
1/2-x,-y,z
1/2+x,-y,1/2-z
-x,y,1/2-z
-x,-y,-z
1/2+x,y,-z
1/2-x,y,1/2+z
x,-y,1/2+z
loop_
_atom_site_type_symbol
_atom_site_label
_atom_site_fract_x
_atom_site_fract_y
_atom_site_fract_z
Si Si1 0.455920 0.579191 0.461141
Si Si2 0.191350 0.888968 0.613836
Si Si3 0.971239 0.835031 0.602603
Si Si4 0.250000 0.000000 0.350790
Si Si5 0.559092 0.847400 0.561936
Si Si6 0.611341 0.540809 0.779224
Si Si7 0.597416 0.976130 0.270345
Si Si8 0.135217 0.332670 0.999964
O O1 0.500000 0.500000 0.500000
O O2 0.469544 0.698965 0.389041
O O3 0.423364 0.606492 0.606805
O O4 0.423158 0.516211 0.342000
O O5 0.151058 0.962170 0.695893
O O6 0.168982 0.767166 0.563330
O O7 0.210730 0.950939 0.463229
O O8 0.231941 0.897762 0.739911
O O9 0.921448 0.888872 0.638147
O O10 0.000000 0.878996 0.750000
O O11 0.003792 0.853824 0.454400
O O12 0.575910 0.931821 0.427651
O O13 0.584228 0.727827 0.518425
O O14 0.580383 0.899708 0.715555
O O15 0.644295 0.617976 0.671412
O O16 0.633672 0.438565 0.880480
#
# Coordination Sequence:
#
# PCOD9420885 Si02
#       8
#     8   8   8   4   8   8   8   8
#     4  11  19  31  50  74 109 157 214 264 296 326
#     4  10  20  40  65  94 121 150 184 239 306 371
#     4  10  19  32  49  76 116 164 210 257 301 343
#     4  10  22  40  70 100 122 142 184 240 304 386
#     4  10  20  34  52  79 117 161 205 250 294 345
#     4  10  21  35  53  80 109 152 203 249 295 346
#     4  10  20  34  54  79 115 155 194 238 297 364
#     4  10  21  39  60  83 119 156 197 245 296 356
#
# _framework density 20.402284000000002
#
# number of rings (size 3 to 8) (size 9 to 14) (size 15 to 20)
#    0.000    1.867    0.000    7.200    0.000    1.067 
#    0.000   12.000    0.000    2.400    0.000    0.000 
#    0.000    0.000    0.000    0.000    0.000    0.000 
#
# Total GULP energy -334314.771411 kJ/mol
# GULP energy per Si atom -5571.912857 kJ/mol
# Density = 2.035585 g / cm^3
# Si number density = 20.402284 Si / 1000 Ang^3
#
#
#
# Elastic Constant Matrix: (Units=GPa)
#
#
# Indices 1 2 3 4 5 6 
#
# 1 71.6946 29.8042 36.5305 0.0000 0.0000 0.0000
# 2 29.8042 81.2491 38.2913 0.0000 0.0000 0.0000
# 3 36.5305 38.2913 109.6246 0.0000 0.0000 0.0000
# 4 0.0000 0.0000 0.0000 25.1190 0.0000 0.0000
# 5 0.0000 0.0000 0.0000 0.0000 28.0624 0.0000
# 6 0.0000 0.0000 0.0000 0.0000 0.0000 22.2467
#
#
#
# Elastic Compliance Matrix: (Units=1/GPa)
#
#
# Indices 1 2 3 4 5 6 
#
# 1 0.018102 -0.004546 -0.004444 0.000000 0.000000 0.000000
# 2 -0.004546 0.015875 -0.004030 0.000000 0.000000 0.000000
# 3 -0.004444 -0.004030 0.012011 0.000000 0.000000 0.000000
# 4 0.000000 0.000000 0.000000 0.039810 0.000000 0.000000
# 5 0.000000 0.000000 0.000000 0.000000 0.035635 0.000000
# 6 0.000000 0.000000 0.000000 0.000000 0.000000 0.044950
#
#
# Mechanical properties :
#
#
# Convention : Reuss Voigt Hill
#
# Bulk Modulus (GPa) = 50.13282 52.42449 51.27866
# Shear Modulus (GPa) = 25.11636 25.61512 25.36574
#
# Velocity S-wave (km/s) = 3.51245 3.54715 3.52984
# Velocity P-wave (km/s) = 6.40900 6.52132 6.46540
#
# Compressibility (1/GPa) = 0.01994701
#
# Stress axis : x y z
#
# Youngs Moduli (GPa) = 55.24136 62.99339 83.25845
#
# Poissons Ratio (x) = 0.28636 0.37004
# Poissons Ratio (y) = 0.25112 0.33554
# Poissons Ratio (z) = 0.24552 0.25387
#
# Static dielectric constant tensor:
#      x y z
#    x 1.799030 0.000000 0.000000 
#    y 0.000000 1.782800 0.000000 
#    z 0.000000 0.000000 1.828190 
# 
# From -- ./inp_files/5944.got.cif
#   From: 2010.05.17/outbox.cif.g08.bks.cpg/sg54_3_cif.got.tgz:5944.got - 2010.06.03 13:09:01.
