data_PCOD9420478
_publ_section_title
;
Structure prediction by ZEFSAII (Michael W. Deem and Ramdas Pophale) SiO2 
 PCOD9420478
Probable space group: P C C A
;
_chemical_formula_sum "Si O2"
_cell_formula_units_Z 40
_cell_length_a 19.112081
_cell_length_b 16.300244
_cell_length_c 5.554291
_cell_angle_alpha 90.000000
_cell_angle_beta 90.000000
_cell_angle_gamma 90.000000
_cell_volume 1730.337071
_symmetry_space_group_name_H-M "P C C A"
_symmetry_group_IT_number 54
_symmetry_cell_setting 'orthorhombic'
loop_
_space_group_symop_operation_xyz
x,y,z
1/2-x,-y,z
1/2+x,-y,1/2-z
-x,y,1/2-z
-x,-y,-z
1/2+x,y,-z
1/2-x,y,1/2+z
x,-y,1/2+z
loop_
_atom_site_type_symbol
_atom_site_label
_atom_site_fract_x
_atom_site_fract_y
_atom_site_fract_z
Si Si1 0.000000 0.351628 0.250000
Si Si2 0.631615 0.226510 0.731577
Si Si3 0.000000 0.343345 0.750000
Si Si4 0.329547 0.469633 0.405502
Si Si5 0.584139 0.040547 0.735658
Si Si6 0.347091 0.717906 0.769868
O O1 0.068117 0.292401 0.250468
O O2 0.000270 0.394781 0.506372
O O3 0.602736 0.135496 0.701082
O O4 0.674714 0.252404 0.494232
O O5 0.669099 0.231626 0.990301
O O6 0.932044 0.285883 0.749588
O O7 0.250000 0.500000 0.436543
O O8 0.360960 0.482432 0.673726
O O9 0.327019 0.375586 0.324962
O O10 0.500000 0.032547 0.750000
O O11 0.609621 0.992555 0.496146
#
# Coordination Sequence:
#
# PCOD9420478 Si02
#       6
#     4   8   4   8   8   8
#     4   8  14  24  38  58  88 124 164 208 252 262
#     4  10  17  29  45  67  98 134 180 224 244 303
#     4   8  16  26  42  66  92 122 162 208 240 290
#     4  10  21  38  57  76 101 132 161 209 280 331
#     4  10  19  28  41  65 100 143 187 224 258 293
#     4  10  19  31  51  73  96 135 178 213 263 306
#
# _framework density 23.116885
#
# number of rings (size 3 to 8) (size 9 to 14) (size 15 to 20)
#    0.000    2.400    1.000    2.400    0.000    0.000 
#    0.000    1.000    0.000    0.000    0.000    0.000 
#    0.000    0.000    0.000  252.000    0.000    0.000 
#
# Total GULP energy -223184.633551 kJ/mol
# GULP energy per Si atom -5579.615839 kJ/mol
# Density = 2.306427 g / cm^3
# Si number density = 23.116885 Si / 1000 Ang^3
#
#
#
# Elastic Constant Matrix: (Units=GPa)
#
#
# Indices 1 2 3 4 5 6 
#
# 1 68.0648 -15.2746 -13.5309 0.0000 0.0000 0.0000
# 2 -15.2746 59.1050 20.0523 0.0000 0.0000 0.0000
# 3 -13.5309 20.0523 253.3234 0.0000 0.0000 0.0000
# 4 0.0000 0.0000 0.0000 37.7095 0.0000 0.0000
# 5 0.0000 0.0000 0.0000 0.0000 -18.5255 0.0000
# 6 0.0000 0.0000 0.0000 0.0000 0.0000 -4.8436
#
#
#
# Elastic Compliance Matrix: (Units=1/GPa)
#
#
# Indices 1 2 3 4 5 6 
#
# 1 0.015665 0.003868 0.000531 0.000000 0.000000 0.000000
# 2 0.003868 0.018341 -0.001245 0.000000 0.000000 0.000000
# 3 0.000531 -0.001245 0.004074 0.000000 0.000000 0.000000
# 4 0.000000 0.000000 0.000000 0.026518 0.000000 0.000000
# 5 0.000000 0.000000 0.000000 0.000000 -0.053980 0.000000
# 6 0.000000 0.000000 0.000000 0.000000 0.000000 -0.206458
#
#
# Mechanical properties :
#
#
# Convention : Reuss Voigt Hill
#
# Bulk Modulus (GPa) = 22.52826 40.33188 31.43007
# Shear Modulus (GPa) = -26.68809 28.81785 1.06488
#
# Velocity S-wave (km/s) = -3.40146 3.53457 0.67945
# Velocity P-wave (km/s) = 2.37908 5.84315 3.77375
#
# Compressibility (1/GPa) = 0.04438868
#
# Stress axis : x y z
#
# Youngs Moduli (GPa) = 63.83465 54.52197 245.43326
#
# Poissons Ratio (x) = -0.21092 -0.13021
# Poissons Ratio (y) = -0.24694 0.30562
# Poissons Ratio (z) = -0.03387 0.06789
#
# Static dielectric constant tensor:
#      x y z
#    x 1.959480 0.000000 0.000000 
#    y 0.000000 1.774710 0.000000 
#    z 0.000000 0.000000 2.028310 
# 
# From -- ./inp_files/1620.got.cif
#   From: 2010.05.17/outbox.cif.g08.bks.cpg/sg54_1_cif.got.tgz:1620.got - 2010.06.03 13:09:01.
