data_PCOD9420609
_publ_section_title
;
Structure prediction by ZEFSAII (Michael W. Deem and Ramdas Pophale) SiO2 
 PCOD9420609
Probable space group: P C C A
;
_chemical_formula_sum "Si O2"
_cell_formula_units_Z 40
_cell_length_a 5.450360
_cell_length_b 20.184930
_cell_length_c 13.790536
_cell_angle_alpha 90.000000
_cell_angle_beta 90.000000
_cell_angle_gamma 90.000000
_cell_volume 1517.167681
_symmetry_space_group_name_H-M "P C C A"
_symmetry_group_IT_number 54
_symmetry_cell_setting 'orthorhombic'
loop_
_space_group_symop_operation_xyz
x,y,z
1/2-x,-y,z
1/2+x,-y,1/2-z
-x,y,1/2-z
-x,-y,-z
1/2+x,y,-z
1/2-x,y,1/2+z
x,-y,1/2+z
loop_
_atom_site_type_symbol
_atom_site_label
_atom_site_fract_x
_atom_site_fract_y
_atom_site_fract_z
Si Si1 0.219802 0.276377 0.643171
Si Si2 0.505032 0.471704 0.609434
Si Si3 0.369901 0.877056 0.622773
Si Si4 0.360496 0.072738 0.903111
Si Si5 0.707024 0.674810 0.136148
O O1 0.156085 0.199698 0.646832
O O2 0.254787 0.308777 0.749851
O O3 0.495728 0.275704 0.599841
O O4 0.986899 0.316923 0.598904
O O5 0.750000 0.500000 0.655811
O O6 0.500000 0.500000 0.500000
O O7 0.566724 0.394222 0.615639
O O8 0.250000 0.500000 0.648468
O O9 0.640068 0.896643 0.658966
O O10 0.390986 0.889081 0.505580
O O11 0.127102 0.920350 0.645287
O O12 0.250000 0.000000 0.925168
#
# Coordination Sequence:
#
# PCOD9420609 Si02
#       5
#     8   8   8   8   8
#     4  10  21  37  58  85 114 158 200 242 294 359
#     4  10  21  40  63  90 119 152 190 244 305 364
#     4  10  18  32  53  83 117 152 197 245 298 358
#     4  10  19  33  53  84 118 155 197 252 305 352
#     4  10  21  40  60  83 116 154 196 241 292 359
#
# _framework density 26.364917999999999
#
# number of rings (size 3 to 8) (size 9 to 14) (size 15 to 20)
#    0.000    2.000    0.000    5.400    0.000    0.000 
#    0.000   32.000    0.000    0.000    0.000   95.200 
#    0.000    0.000    0.000    0.000    0.000    0.000 
#
# Total GULP energy -223224.360257 kJ/mol
# GULP energy per Si atom -5580.609006 kJ/mol
# Density = 2.630491 g / cm^3
# Si number density = 26.364918 Si / 1000 Ang^3
#
#
#
# Elastic Constant Matrix: (Units=GPa)
#
#
# Indices 1 2 3 4 5 6 
#
# 1 310.2755 38.9763 18.2139 0.0000 0.0000 0.0000
# 2 38.9763 158.4543 22.8031 0.0000 0.0000 0.0000
# 3 18.2139 22.8031 141.9240 0.0000 0.0000 0.0000
# 4 0.0000 0.0000 0.0000 2.8376 0.0000 0.0000
# 5 0.0000 0.0000 0.0000 0.0000 -55.0038 0.0000
# 6 0.0000 0.0000 0.0000 0.0000 0.0000 58.0631
#
#
#
# Elastic Compliance Matrix: (Units=1/GPa)
#
#
# Indices 1 2 3 4 5 6 
#
# 1 0.003338 -0.000778 -0.000304 0.000000 0.000000 0.000000
# 2 -0.000778 0.006641 -0.000967 0.000000 0.000000 0.000000
# 3 -0.000304 -0.000967 0.007240 0.000000 0.000000 0.000000
# 4 0.000000 0.000000 0.000000 0.352409 0.000000 0.000000
# 5 0.000000 0.000000 0.000000 0.000000 -0.018181 0.000000
# 6 0.000000 0.000000 0.000000 0.000000 0.000000 0.017223
#
#
# Mechanical properties :
#
#
# Convention : Reuss Voigt Hill
#
# Bulk Modulus (GPa) = 76.19862 85.62671 80.91266
# Shear Modulus (GPa) = 13.25758 36.55675 24.90717
#
# Velocity S-wave (km/s) = 2.24486 3.72770 3.07695
# Velocity P-wave (km/s) = 5.97356 7.14673 6.58632
#
# Compressibility (1/GPa) = 0.01312360
#
# Stress axis : x y z
#
# Youngs Moduli (GPa) = 299.54214 150.57018 138.11407
#
# Poissons Ratio (x) = 0.11707 0.04192
# Poissons Ratio (y) = 0.23289 0.13360
# Poissons Ratio (z) = 0.09092 0.14565
#
# Static dielectric constant tensor:
#      x y z
#    x 2.191360 0.000000 0.000000 
#    y 0.000000 2.130500 0.000000 
#    z 0.000000 0.000000 2.096310 
# 
# From -- ./inp_files/19702.got.cif
#   From: 2010.05.17/outbox.cif.g08.bks.cpg/sg54_10_cif.got.tgz:19702.got - 2010.06.03 13:09:01.
