data_PCOD9420147
_publ_section_title
;
Structure prediction by ZEFSAII (Michael W. Deem and Ramdas Pophale) SiO2 
 PCOD9420147
Probable space group: P M N A
;
_chemical_formula_sum "Si O2"
_cell_formula_units_Z 64
_cell_length_a 9.000000
_cell_length_b 21.000000
_cell_length_c 18.000000
_cell_angle_alpha 90.000000
_cell_angle_beta 90.000000
_cell_angle_gamma 90.000000
_cell_volume 3402.000000
_symmetry_space_group_name_H-M "P M N A"
_symmetry_group_IT_number 53
_symmetry_cell_setting 'orthorhombic'
loop_
_space_group_symop_operation_xyz
x,y,z
1/2-x,-y,1/2+z
x,-y,-z
1/2-x,y,1/2-z
-x,-y,-z
1/2+x,y,1/2-z
-x,y,z
1/2+x,-y,1/2+z
loop_
_atom_site_type_symbol
_atom_site_label
_atom_site_fract_x
_atom_site_fract_y
_atom_site_fract_z
Si Si1 0.675774 0.688453 0.449671
Si Si2 0.822216 0.100653 0.566176
Si Si3 0.320958 0.209534 0.668542
Si Si4 0.822986 0.372515 0.323516
Si Si5 0.677436 0.249608 0.391055
Si Si6 0.823908 0.116503 0.389900
Si Si7 0.823241 0.996901 0.173158
Si Si8 0.823309 0.568961 0.516905
O O1 0.500000 0.677641 0.450652
O O2 0.713007 0.724336 0.373710
O O3 0.707981 0.731928 0.522457
O O4 0.757445 0.622976 0.464589
O O5 0.749035 0.157436 0.613337
O O6 0.794893 0.105346 0.478106
O O7 0.000000 0.099675 0.577066
O O8 0.747642 0.039418 0.603254
O O9 0.250000 0.205557 0.750000
O O10 0.500000 0.201265 0.672364
O O11 0.750000 0.401004 0.250000
O O12 0.738084 0.306829 0.341089
O O13 0.797127 0.413511 0.397408
O O14 0.000000 0.362912 0.314924
O O15 0.500000 0.241143 0.382719
O O16 0.769798 0.187164 0.373104
O O17 0.727929 0.068842 0.340488
O O18 0.000000 0.107361 0.376977
O O19 0.750000 0.972922 0.250000
O O20 0.000000 0.989484 0.176010
O O21 0.760491 0.500000 0.500000
O O22 0.000000 0.568604 0.505573
#
# Coordination Sequence:
#
# PCOD9420147 Si02
#       8
#     8   8   8   8   8   8   8   8
#     4   9  19  35  56  82 114 147 185 232 278 333
#     4  11  23  40  62  86 114 149 190 236 287 345
#     4  11  22  37  57  85 117 150 191 237 289 342
#     4  10  20  35  56  84 117 152 192 236 286 338
#     4  10  19  35  58  84 113 146 186 231 283 337
#     4  11  23  39  61  88 116 147 189 235 286 346
#     4  12  26  43  61  81 112 150 191 239 292 344
#     4   9  19  36  59  85 114 152 195 236 281 336
#
# _framework density 18.812463000000001
#
# number of rings (size 3 to 8) (size 9 to 14) (size 15 to 20)
#    0.000    1.625    1.250    3.750    0.000    5.750 
#    0.000    3.125    0.000    3.000    0.000    0.000 
#    0.000    0.000    0.000    0.000    0.000    0.000 
#
# Total GULP energy -357454.723267 kJ/mol
# GULP energy per Si atom -5585.230051 kJ/mol
# Density = 1.876965 g / cm^3
# Si number density = 18.812463 Si / 1000 Ang^3
#
#
#
# Elastic Constant Matrix: (Units=GPa)
#
#
# Indices 1 2 3 4 5 6 
#
# 1 52.1201 15.6261 26.7505 0.0000 0.0000 0.0000
# 2 15.6261 76.3363 3.2296 0.0000 0.0000 0.0000
# 3 26.7505 3.2296 44.3221 0.0000 0.0000 0.0000
# 4 0.0000 0.0000 0.0000 -32.8939 0.0000 0.0000
# 5 0.0000 0.0000 0.0000 0.0000 29.6953 0.0000
# 6 0.0000 0.0000 0.0000 0.0000 0.0000 33.9661
#
#
#
# Elastic Compliance Matrix: (Units=1/GPa)
#
#
# Indices 1 2 3 4 5 6 
#
# 1 0.029836 -0.005362 -0.017617 0.000000 0.000000 0.000000
# 2 -0.005362 0.014104 0.002209 0.000000 0.000000 0.000000
# 3 -0.017617 0.002209 0.033034 0.000000 0.000000 0.000000
# 4 0.000000 0.000000 0.000000 -0.030401 0.000000 0.000000
# 5 0.000000 0.000000 0.000000 0.000000 0.033675 0.000000
# 6 0.000000 0.000000 0.000000 0.000000 0.000000 0.029441
#
#
# Mechanical properties :
#
#
# Convention : Reuss Voigt Hill
#
# Bulk Modulus (GPa) = 28.22210 29.33235 28.77722
# Shear Modulus (GPa) = 30.66727 14.63166 22.64947
#
# Velocity S-wave (km/s) = 4.04190 2.79187 3.47358
# Velocity P-wave (km/s) = 6.06770 5.10084 5.60515
#
# Compressibility (1/GPa) = 0.03543322
#
# Stress axis : x y z
#
# Youngs Moduli (GPa) = 33.51692 70.90131 30.27225
#
# Poissons Ratio (x) = 0.38018 0.53329
# Poissons Ratio (y) = 0.17972 -0.06686
# Poissons Ratio (z) = 0.59045 -0.15659
#
# Static dielectric constant tensor:
#      x y z
#    x 1.618400 0.000000 0.000000 
#    y 0.000000 1.716720 0.000000 
#    z 0.000000 0.000000 1.641420 
# 
# From -- ./inp_files/26944.got.cif
#   From: 2010.05.17/outbox.ucp.g08.bks.cvg/sg53_14_cif.got.tgz:26944.got - 2010.06.11 16:32:34.
