data_PCOD9420650
_publ_section_title
;
Structure prediction by ZEFSAII (Michael W. Deem and Ramdas Pophale) SiO2 
 PCOD9420650
Probable space group: P C C A
;
_chemical_formula_sum "Si O2"
_cell_formula_units_Z 32
_cell_length_a 16.593893
_cell_length_b 6.925036
_cell_length_c 15.129555
_cell_angle_alpha 90.000000
_cell_angle_beta 90.000000
_cell_angle_gamma 90.000000
_cell_volume 1738.587189
_symmetry_space_group_name_H-M "P C C A"
_symmetry_group_IT_number 54
_symmetry_cell_setting 'orthorhombic'
loop_
_space_group_symop_operation_xyz
x,y,z
1/2-x,-y,z
1/2+x,-y,1/2-z
-x,y,1/2-z
-x,-y,-z
1/2+x,y,-z
1/2-x,y,1/2+z
x,-y,1/2+z
loop_
_atom_site_type_symbol
_atom_site_label
_atom_site_fract_x
_atom_site_fract_y
_atom_site_fract_z
Si Si1 0.841827 0.451932 0.771477
Si Si2 0.953099 0.124046 0.838987
Si Si3 0.564734 0.290511 0.904510
Si Si4 0.420368 0.436045 0.412755
O O1 0.750000 0.500000 0.791399
O O2 0.875776 0.250597 0.810671
O O3 0.897879 0.614004 0.816988
O O4 0.857552 0.447604 0.666523
O O5 0.000000 0.059231 0.750000
O O6 0.014756 0.270304 0.886432
O O7 0.932687 0.938361 0.896486
O O8 0.473296 0.368669 0.914724
O O9 0.609607 0.378209 0.990323
#
# Coordination Sequence:
#
# PCOD9420650 Si02
#       4
#     8   8   8   8
#     4  10  21  34  49  75 110 139 167 206 259 317
#     4   9  17  32  54  77 101 134 175 216 257 304
#     4  10  18  33  56  76 100 135 176 218 258 301
#     4   9  19  33  53  79 101 131 175 220 258 300
#
# _framework density 18.405749
#
# number of rings (size 3 to 8) (size 9 to 14) (size 15 to 20)
#    0.000    2.500    0.000    4.500    0.000    2.000 
#    0.000    0.000    0.000    9.000    0.000    0.000 
#    0.000    0.000    0.000    0.000    0.000    0.000 
#
# Total GULP energy -178448.410050 kJ/mol
# GULP energy per Si atom -5576.512814 kJ/mol
# Density = 1.836386 g / cm^3
# Si number density = 18.405749 Si / 1000 Ang^3
#
#
#
# Elastic Constant Matrix: (Units=GPa)
#
#
# Indices 1 2 3 4 5 6 
#
# 1 59.5092 30.1891 6.8727 0.0000 0.0000 0.0000
# 2 30.1891 75.8890 15.1463 0.0000 0.0000 0.0000
# 3 6.8727 15.1463 71.2460 0.0000 0.0000 0.0000
# 4 0.0000 0.0000 0.0000 21.7395 0.0000 0.0000
# 5 0.0000 0.0000 0.0000 0.0000 14.0126 0.0000
# 6 0.0000 0.0000 0.0000 0.0000 0.0000 7.6224
#
#
#
# Elastic Compliance Matrix: (Units=1/GPa)
#
#
# Indices 1 2 3 4 5 6 
#
# 1 0.021057 -0.008325 -0.000262 0.000000 0.000000 0.000000
# 2 -0.008325 0.017052 -0.002822 0.000000 0.000000 0.000000
# 3 -0.000262 -0.002822 0.014661 0.000000 0.000000 0.000000
# 4 0.000000 0.000000 0.000000 0.045999 0.000000 0.000000
# 5 0.000000 0.000000 0.000000 0.000000 0.071364 0.000000
# 6 0.000000 0.000000 0.000000 0.000000 0.000000 0.131193
#
#
# Mechanical properties :
#
#
# Convention : Reuss Voigt Hill
#
# Bulk Modulus (GPa) = 33.38450 34.56226 33.97338
# Shear Modulus (GPa) = 14.96435 18.97064 16.96749
#
# Velocity S-wave (km/s) = 2.85445 3.21392 3.03951
# Velocity P-wave (km/s) = 5.38900 5.70886 5.55124
#
# Compressibility (1/GPa) = 0.02995402
#
# Stress axis : x y z
#
# Youngs Moduli (GPa) = 47.48924 58.64434 68.20790
#
# Poissons Ratio (x) = 0.48819 0.01784
# Poissons Ratio (y) = 0.39533 0.19249
# Poissons Ratio (z) = 0.01242 0.16550
#
# Static dielectric constant tensor:
#      x y z
#    x 1.606070 0.000000 0.000000 
#    y 0.000000 1.620880 0.000000 
#    z 0.000000 0.000000 1.696530 
# 
# From -- ./inp_files/13702.got.cif
#   From: 2010.05.17/outbox.cif.g08.bks.cpg/sg54_7_cif.got.tgz:13702.got - 2010.06.03 13:09:01.
