data_PCOD9420489
_publ_section_title
;
Structure prediction by ZEFSAII (Michael W. Deem and Ramdas Pophale) SiO2 
 PCOD9420489
Probable space group: P C C A
;
_chemical_formula_sum "Si O2"
_cell_formula_units_Z 60
_cell_length_a 17.638687
_cell_length_b 31.723755
_cell_length_c 5.355468
_cell_angle_alpha 90.000000
_cell_angle_beta 90.000000
_cell_angle_gamma 90.000000
_cell_volume 2996.734513
_symmetry_space_group_name_H-M "P C C A"
_symmetry_group_IT_number 54
_symmetry_cell_setting 'orthorhombic'
loop_
_space_group_symop_operation_xyz
x,y,z
1/2-x,-y,z
1/2+x,-y,1/2-z
-x,y,1/2-z
-x,-y,-z
1/2+x,y,-z
1/2-x,y,1/2+z
x,-y,1/2+z
loop_
_atom_site_type_symbol
_atom_site_label
_atom_site_fract_x
_atom_site_fract_y
_atom_site_fract_z
Si Si1 0.419960 0.100084 0.868480
Si Si2 0.798186 0.828777 0.630657
Si Si3 0.642908 0.015359 0.702139
Si Si4 0.297340 0.269753 0.875715
Si Si5 0.000000 0.960654 0.250000
Si Si6 0.837296 0.483085 0.631146
Si Si7 0.590832 0.396029 0.256033
Si Si8 0.089323 0.656582 0.745363
O O1 0.500000 0.112607 0.750000
O O2 0.368039 0.140020 0.908563
O O3 0.371717 0.063885 0.723416
O O4 0.448023 0.072203 0.099390
O O5 0.741121 0.836191 0.399072
O O6 0.820419 0.779423 0.630951
O O7 0.562643 0.992127 0.636251
O O8 0.678150 0.011327 0.426982
O O9 0.235704 0.276661 0.653996
O O10 0.363569 0.301809 0.806632
O O11 0.750000 0.500000 0.606760
O O12 0.871795 0.489834 0.357485
O O13 0.853494 0.435479 0.712240
O O14 0.500000 0.407436 0.250000
O O15 0.605305 0.375757 0.526939
O O16 0.605198 0.363898 0.025801
O O17 0.000000 0.665833 0.750000
#
# Coordination Sequence:
#
# PCOD9420489 Si02
#       8
#     8   8   8   8   4   8   8   8
#     4  11  20  34  62  90 114 149 216 246 296 353
#     4  10  25  43  61  82 128 167 190 243 310 381
#     4  10  17  30  50  84 111 147 181 257 299 334
#     4  10  21  43  63  89 117 159 202 235 306 369
#     4  10  18  32  54  92 116 146 196 266 298 342
#     4  10  21  38  53  79 122 162 200 251 288 329
#     4  10  21  38  60  89 120 160 200 241 310 360
#     4  10  21  39  64  92 124 149 194 262 309 356
#
# _framework density 20.021792999999999
#
# number of rings (size 3 to 8) (size 9 to 14) (size 15 to 20)
#    0.000    1.867    2.000    2.400    1.867    1.067 
#   14.400    0.000    4.400    9.600    0.000    0.000 
#    0.000    0.000    0.000    0.000    0.000    0.000 
#
# Total GULP energy -334210.006133 kJ/mol
# GULP energy per Si atom -5570.166769 kJ/mol
# Density = 1.997622 g / cm^3
# Si number density = 20.021793 Si / 1000 Ang^3
#
#
#
# Elastic Constant Matrix: (Units=GPa)
#
#
# Indices 1 2 3 4 5 6 
#
# 1 63.0405 51.9679 -1.3662 0.0000 0.0000 0.0000
# 2 51.9679 88.5138 2.9049 0.0000 0.0000 0.0000
# 3 -1.3662 2.9049 91.2016 0.0000 0.0000 0.0000
# 4 0.0000 0.0000 0.0000 14.9438 0.0000 0.0000
# 5 0.0000 0.0000 0.0000 0.0000 -29.5540 0.0000
# 6 0.0000 0.0000 0.0000 0.0000 0.0000 29.5792
#
#
#
# Elastic Compliance Matrix: (Units=1/GPa)
#
#
# Indices 1 2 3 4 5 6 
#
# 1 0.030840 -0.018141 0.001040 0.000000 0.000000 0.000000
# 2 -0.018141 0.021980 -0.000972 0.000000 0.000000 0.000000
# 3 0.001040 -0.000972 0.011011 0.000000 0.000000 0.000000
# 4 0.000000 0.000000 0.000000 0.066917 0.000000 0.000000
# 5 0.000000 0.000000 0.000000 0.000000 -0.033836 0.000000
# 6 0.000000 0.000000 0.000000 0.000000 0.000000 0.033808
#
#
# Mechanical properties :
#
#
# Convention : Reuss Voigt Hill
#
# Bulk Modulus (GPa) = 36.11957 38.86323 37.49140
# Shear Modulus (GPa) = 28.39397 15.61041 22.00219
#
# Velocity S-wave (km/s) = 3.76992 2.79529 3.31858
# Velocity P-wave (km/s) = 6.08515 5.46542 5.78359
#
# Compressibility (1/GPa) = 0.02768582
#
# Stress axis : x y z
#
# Youngs Moduli (GPa) = 32.42573 45.49547 90.81619
#
# Poissons Ratio (x) = 0.82532 -0.09443
# Poissons Ratio (y) = 0.58822 0.08826
# Poissons Ratio (z) = -0.03372 0.04422
#
# Static dielectric constant tensor:
#      x y z
#    x 1.714020 0.000000 0.000000 
#    y 0.000000 1.672820 0.000000 
#    z 0.000000 0.000000 1.845350 
# 
# From -- ./inp_files/1070.got.cif
#   From: 2010.05.17/outbox.cif.g08.bks.cpg/sg54_1_cif.got.tgz:1070.got - 2010.06.03 13:09:01.
