data_PCOD9420464
_publ_section_title
;
Structure prediction by ZEFSAII (Michael W. Deem and Ramdas Pophale) SiO2 
 PCOD9420464
Probable space group: P C C A
;
_chemical_formula_sum "Si O2"
_cell_formula_units_Z 64
_cell_length_a 12.337349
_cell_length_b 11.257415
_cell_length_c 25.581453
_cell_angle_alpha 90.000000
_cell_angle_beta 90.000000
_cell_angle_gamma 90.000000
_cell_volume 3552.922506
_symmetry_space_group_name_H-M "P C C A"
_symmetry_group_IT_number 54
_symmetry_cell_setting 'orthorhombic'
loop_
_space_group_symop_operation_xyz
x,y,z
1/2-x,-y,z
1/2+x,-y,1/2-z
-x,y,1/2-z
-x,-y,-z
1/2+x,y,-z
1/2-x,y,1/2+z
x,-y,1/2+z
loop_
_atom_site_type_symbol
_atom_site_label
_atom_site_fract_x
_atom_site_fract_y
_atom_site_fract_z
Si Si1 0.259435 0.135902 0.006463
Si Si2 0.206303 0.133031 0.319806
Si Si3 0.439934 0.291462 0.949972
Si Si4 0.604900 0.138595 0.391484
Si Si5 0.928729 0.711984 0.044416
Si Si6 0.754377 0.857591 0.801344
Si Si7 0.248055 0.626280 0.881914
Si Si8 0.465347 0.870547 0.136944
O O1 0.294849 0.140475 0.067277
O O2 0.250000 0.000000 0.991193
O O3 0.358118 0.196066 0.975721
O O4 0.150652 0.199743 0.987749
O O5 0.240526 0.161937 0.260350
O O6 0.248048 0.246432 0.352641
O O7 0.077163 0.126185 0.330087
O O8 0.250000 0.000000 0.333341
O O9 0.362639 0.372368 0.915274
O O10 0.516143 0.217766 0.911185
O O11 0.501833 0.348977 0.998610
O O12 0.509851 0.216126 0.417427
O O13 0.652859 0.185093 0.336260
O O14 0.562820 0.003554 0.383335
O O15 0.849275 0.633168 0.078837
O O16 0.867425 0.822840 0.827780
O O17 0.750000 0.000000 0.807181
O O18 0.250000 0.500000 0.852048
#
# Coordination Sequence:
#
# PCOD9420464 Si02
#       8
#     8   8   8   8   8   8   8   8
#     4  10  17  26  43  74 113 144 170 207 258 311
#     4  10  20  35  55  78 102 134 177 221 264 310
#     4   9  19  30  48  73  98 135 175 206 248 309
#     4  10  18  28  47  76 110 143 175 216 263 312
#     4  10  19  32  49  72 103 139 175 210 252 310
#     4   9  18  30  48  75 104 136 176 220 264 307
#     4  10  22  38  55  76 103 135 171 213 260 313
#     4  10  17  29  48  74 108 141 172 214 263 310
#
# _framework density 18.013338999999998
#
# number of rings (size 3 to 8) (size 9 to 14) (size 15 to 20)
#    0.000    2.250    0.000    4.500    0.000    6.000 
#    0.000    1.875    0.000    6.000    0.000    3.500 
#    0.000    0.000    0.000    0.000    0.000    0.000 
#
# Total GULP energy -356555.726353 kJ/mol
# GULP energy per Si atom -5571.183224 kJ/mol
# Density = 1.797234 g / cm^3
# Si number density = 18.013339 Si / 1000 Ang^3
#
#
#
# Elastic Constant Matrix: (Units=GPa)
#
#
# Indices 1 2 3 4 5 6 
#
# 1 84.2354 27.5774 43.3509 0.0000 0.0000 0.0000
# 2 27.5774 85.2875 42.3827 0.0000 0.0000 0.0000
# 3 43.3509 42.3827 97.4255 0.0000 0.0000 0.0000
# 4 0.0000 0.0000 0.0000 1.8930 0.0000 0.0000
# 5 0.0000 0.0000 0.0000 0.0000 13.9015 0.0000
# 6 0.0000 0.0000 0.0000 0.0000 0.0000 -17.8130
#
#
#
# Elastic Compliance Matrix: (Units=1/GPa)
#
#
# Indices 1 2 3 4 5 6 
#
# 1 0.015672 -0.002044 -0.006084 0.000000 0.000000 0.000000
# 2 -0.002044 0.015225 -0.005714 0.000000 0.000000 0.000000
# 3 -0.006084 -0.005714 0.015457 0.000000 0.000000 0.000000
# 4 0.000000 0.000000 0.000000 0.528248 0.000000 0.000000
# 5 0.000000 0.000000 0.000000 0.000000 0.071934 0.000000
# 6 0.000000 0.000000 0.000000 0.000000 0.000000 -0.056139
#
#
# Mechanical properties :
#
#
# Convention : Reuss Voigt Hill
#
# Bulk Modulus (GPa) = 53.56128 54.84116 54.20122
# Shear Modulus (GPa) = 8.00889 9.83881 8.92385
#
# Velocity S-wave (km/s) = 2.11086 2.33962 2.22818
# Velocity P-wave (km/s) = 5.97827 6.14892 6.06420
#
# Compressibility (1/GPa) = 0.01867021
#
# Stress axis : x y z
#
# Youngs Moduli (GPa) = 63.80872 65.67946 64.69443
#
# Poissons Ratio (x) = 0.13424 0.39362
# Poissons Ratio (y) = 0.13042 0.36967
# Poissons Ratio (z) = 0.38823 0.37529
#
# Static dielectric constant tensor:
#      x y z
#    x 1.645470 0.000000 0.000000 
#    y 0.000000 1.591510 0.000000 
#    z 0.000000 0.000000 1.659630 
# 
# From -- ./inp_files/24262.got.cif
#   From: 2010.05.17/outbox.cif.g08.bks.cpg/sg54_13_cif.got.tgz:24262.got - 2010.06.03 13:09:01.
