data_PCOD9420917
_publ_section_title
;
Structure prediction by ZEFSAII (Michael W. Deem and Ramdas Pophale) SiO2 
 PCOD9420917
Probable space group: P C C A
;
_chemical_formula_sum "Si O2"
_cell_formula_units_Z 56
_cell_length_a 5.256579
_cell_length_b 15.312891
_cell_length_c 32.778366
_cell_angle_alpha 90.000000
_cell_angle_beta 90.000000
_cell_angle_gamma 90.000000
_cell_volume 2638.442823
_symmetry_space_group_name_H-M "P C C A"
_symmetry_group_IT_number 54
_symmetry_cell_setting 'orthorhombic'
loop_
_space_group_symop_operation_xyz
x,y,z
1/2-x,-y,z
1/2+x,-y,1/2-z
-x,y,1/2-z
-x,-y,-z
1/2+x,y,-z
1/2-x,y,1/2+z
x,-y,1/2+z
loop_
_atom_site_type_symbol
_atom_site_label
_atom_site_fract_x
_atom_site_fract_y
_atom_site_fract_z
Si Si1 0.504686 0.443816 0.402523
Si Si2 0.649743 0.909093 0.148263
Si Si3 0.129944 0.259159 0.293827
Si Si4 0.635261 0.318839 0.332584
Si Si5 0.290523 0.152422 0.514606
Si Si6 0.352368 0.150418 0.108462
Si Si7 0.643242 0.650609 0.518905
O O1 0.250000 0.500000 0.401214
O O2 0.562016 0.402361 0.358786
O O3 0.449249 0.368424 0.435770
O O4 0.750000 0.500000 0.415012
O O5 0.644513 0.832285 0.181704
O O6 0.370978 0.908146 0.128411
O O7 0.864848 0.887107 0.114388
O O8 0.750000 0.000000 0.166390
O O9 0.413754 0.298163 0.299518
O O10 0.000000 0.243926 0.250000
O O11 0.920233 0.321284 0.315263
O O12 0.643618 0.238913 0.364984
O O13 0.558916 0.107018 0.508166
O O14 0.223815 0.164550 0.561786
O O15 0.328842 0.247061 0.492321
O O16 0.422048 0.612940 0.489880
#
# Coordination Sequence:
#
# PCOD9420917 Si02
#       7
#     8   8   8   8   8   8   8
#     4  12  25  39  58  85 120 158 196 248 307 355
#     4  10  21  38  61  91 123 153 186 231 293 356
#     4  10  21  39  66  95 118 149 190 236 289 349
#     4  10  21  39  61  85 118 156 200 239 281 352
#     4  10  19  32  54  80 107 145 202 254 288 327
#     4  10  20  36  60  84 113 160 205 239 279 347
#     4  10  21  35  52  78 113 149 192 241 295 344
#
# _framework density 21.224641999999999
#
# number of rings (size 3 to 8) (size 9 to 14) (size 15 to 20)
#    0.000    1.714    0.000    5.143    0.000    8.571 
#    0.000    4.286    0.000   17.143    0.000    0.000 
#    0.000    0.000    0.000    0.000    0.000    0.000 
#
# Total GULP energy -312576.980340 kJ/mol
# GULP energy per Si atom -5581.731792 kJ/mol
# Density = 2.117633 g / cm^3
# Si number density = 21.224642 Si / 1000 Ang^3
#
#
#
# Elastic Constant Matrix: (Units=GPa)
#
#
# Indices 1 2 3 4 5 6 
#
# 1 158.2849 21.3404 19.2439 0.0000 0.0000 0.0000
# 2 21.3404 44.9800 16.5526 0.0000 0.0000 0.0000
# 3 19.2439 16.5526 85.2419 0.0000 0.0000 0.0000
# 4 0.0000 0.0000 0.0000 8.6475 0.0000 0.0000
# 5 0.0000 0.0000 0.0000 0.0000 28.5593 0.0000
# 6 0.0000 0.0000 0.0000 0.0000 0.0000 17.8109
#
#
#
# Elastic Compliance Matrix: (Units=1/GPa)
#
#
# Indices 1 2 3 4 5 6 
#
# 1 0.006825 -0.002877 -0.000982 0.000000 0.000000 0.000000
# 2 -0.002877 0.025155 -0.004235 0.000000 0.000000 0.000000
# 3 -0.000982 -0.004235 0.012775 0.000000 0.000000 0.000000
# 4 0.000000 0.000000 0.000000 0.115641 0.000000 0.000000
# 5 0.000000 0.000000 0.000000 0.000000 0.035015 0.000000
# 6 0.000000 0.000000 0.000000 0.000000 0.000000 0.056146
#
#
# Mechanical properties :
#
#
# Convention : Reuss Voigt Hill
#
# Bulk Modulus (GPa) = 35.00465 44.75339 39.87902
# Shear Modulus (GPa) = 18.03311 26.42818 22.23064
#
# Velocity S-wave (km/s) = 2.91800 3.53252 3.23986
# Velocity P-wave (km/s) = 5.28027 6.14570 5.72935
#
# Compressibility (1/GPa) = 0.02856763
#
# Stress axis : x y z
#
# Youngs Moduli (GPa) = 146.52086 39.75275 78.27485
#
# Poissons Ratio (x) = 0.11435 0.07688
# Poissons Ratio (y) = 0.42148 0.33152
# Poissons Ratio (z) = 0.14391 0.16837
#
# Static dielectric constant tensor:
#      x y z
#    x 1.830130 0.000000 0.000000 
#    y 0.000000 1.850690 0.000000 
#    z 0.000000 0.000000 1.749850 
# 
# From -- ./inp_files/27224.got.cif
#   From: 2010.05.17/outbox.cif.g08.bks.cpg/sg54_14_cif.got.tgz:27224.got - 2010.06.03 13:09:01.
