data_PCOD9420831
_publ_section_title
;
Structure prediction by ZEFSAII (Michael W. Deem and Ramdas Pophale) SiO2 
 PCOD9420831
Probable space group: P C C A
;
_chemical_formula_sum "Si O2"
_cell_formula_units_Z 44
_cell_length_a 13.325957
_cell_length_b 29.724704
_cell_length_c 5.086785
_cell_angle_alpha 90.000000
_cell_angle_beta 90.000000
_cell_angle_gamma 90.000000
_cell_volume 2014.927054
_symmetry_space_group_name_H-M "P C C A"
_symmetry_group_IT_number 54
_symmetry_cell_setting 'orthorhombic'
loop_
_space_group_symop_operation_xyz
x,y,z
1/2-x,-y,z
1/2+x,-y,1/2-z
-x,y,1/2-z
-x,-y,-z
1/2+x,y,-z
1/2-x,y,1/2+z
x,-y,1/2+z
loop_
_atom_site_type_symbol
_atom_site_label
_atom_site_fract_x
_atom_site_fract_y
_atom_site_fract_z
Si Si1 0.320407 0.795310 0.846778
Si Si2 0.500000 0.467711 0.250000
Si Si3 0.822023 0.396647 0.723229
Si Si4 0.178173 0.887464 0.497237
Si Si5 0.318946 0.698480 0.922233
Si Si6 0.887470 0.981053 0.837460
O O1 0.226274 0.796184 0.054243
O O2 0.378374 0.840577 0.932394
O O3 0.371007 0.746712 0.882924
O O4 0.500000 0.500000 0.500000
O O5 0.403572 0.435564 0.276555
O O6 0.737403 0.399438 0.497172
O O7 0.871749 0.347808 0.660033
O O8 0.261353 0.887545 0.269444
O O9 0.115491 0.933036 0.519871
O O10 0.276082 0.698026 0.218594
O O11 0.000000 0.992572 0.750000
O O12 0.842531 0.982833 0.542298
#
# Coordination Sequence:
#
# PCOD9420831 Si02
#       6
#     8   4   8   8   8   8
#     4   8  14  25  43  72 100 123 156 199 254 313
#     4  12  26  40  58  88 120 158 198 248 298 336
#     4  10  21  38  60  86 114 155 199 239 289 347
#     4  10  19  30  48  75  98 123 159 209 259 304
#     4   8  14  27  49  76 101 133 173 210 257 320
#     4  10  21  35  48  65  91 132 170 203 252 308
#
# _framework density 21.837019000000002
#
# number of rings (size 3 to 8) (size 9 to 14) (size 15 to 20)
#    0.000    2.545    0.000    2.182    0.000    4.364 
#    0.000    0.000    0.000    0.000   56.727    0.000 
#    0.000    0.000    0.000    0.000    0.000    0.000 
#
# Total GULP energy -245020.304803 kJ/mol
# GULP energy per Si atom -5568.643291 kJ/mol
# Density = 2.178732 g / cm^3
# Si number density = 21.837019 Si / 1000 Ang^3
#
#
#
# Elastic Constant Matrix: (Units=GPa)
#
#
# Indices 1 2 3 4 5 6 
#
# 1 31.3141 29.4894 1.9721 0.0000 0.0000 0.0000
# 2 29.4894 206.4567 33.7972 0.0000 0.0000 0.0000
# 3 1.9721 33.7972 140.0390 0.0000 0.0000 0.0000
# 4 0.0000 0.0000 0.0000 28.2427 0.0000 0.0000
# 5 0.0000 0.0000 0.0000 0.0000 10.5808 0.0000
# 6 0.0000 0.0000 0.0000 0.0000 0.0000 -9.1743
#
#
#
# Elastic Compliance Matrix: (Units=1/GPa)
#
#
# Indices 1 2 3 4 5 6 
#
# 1 0.036980 -0.005411 0.000785 0.000000 0.000000 0.000000
# 2 -0.005411 0.005835 -0.001332 0.000000 0.000000 0.000000
# 3 0.000785 -0.001332 0.007451 0.000000 0.000000 0.000000
# 4 0.000000 0.000000 0.000000 0.035407 0.000000 0.000000
# 5 0.000000 0.000000 0.000000 0.000000 0.094511 0.000000
# 6 0.000000 0.000000 0.000000 0.000000 0.000000 -0.109000
#
#
# Mechanical properties :
#
#
# Convention : Reuss Voigt Hill
#
# Bulk Modulus (GPa) = 26.07486 56.48082 41.27784
# Shear Modulus (GPa) = 52.14695 26.76658 39.45677
#
# Velocity S-wave (km/s) = 4.89203 3.50486 4.25535
# Velocity P-wave (km/s) = 6.62388 6.50381 6.56412
#
# Compressibility (1/GPa) = 0.03835112
#
# Stress axis : x y z
#
# Youngs Moduli (GPa) = 27.04135 171.39427 134.20551
#
# Poissons Ratio (x) = 0.92735 -0.10536
# Poissons Ratio (y) = 0.14631 0.17875
# Poissons Ratio (z) = -0.02123 0.22828
#
# Static dielectric constant tensor:
#      x y z
#    x 1.844110 0.000000 0.000000 
#    y 0.000000 1.923160 0.000000 
#    z 0.000000 0.000000 1.829100 
# 
# From -- ./inp_files/668.got.cif
#   From: 2010.05.17/outbox.cif.g08.bks.cpg/sg54_1_cif.got.tgz:668.got - 2010.06.03 13:09:01.
