data_PCOD9420008
_publ_section_title
;
Structure prediction by ZEFSAII (Michael W. Deem and Ramdas Pophale) SiO2 
 PCOD9420008
Probable space group: P M N A
;
_chemical_formula_sum "Si O2"
_cell_formula_units_Z 34
_cell_length_a 16.060527
_cell_length_b 4.882071
_cell_length_c 18.703455
_cell_angle_alpha 90.000000
_cell_angle_beta 90.000000
_cell_angle_gamma 90.000000
_cell_volume 1466.512341
_symmetry_space_group_name_H-M "P M N A"
_symmetry_group_IT_number 53
_symmetry_cell_setting 'orthorhombic'
loop_
_space_group_symop_operation_xyz
x,y,z
1/2-x,-y,1/2+z
x,-y,-z
1/2-x,y,1/2-z
-x,-y,-z
1/2+x,y,1/2-z
-x,y,z
1/2+x,-y,1/2+z
loop_
_atom_site_type_symbol
_atom_site_label
_atom_site_fract_x
_atom_site_fract_y
_atom_site_fract_z
Si Si1 0.594595 0.122806 0.861025
Si Si2 0.342152 0.104066 0.283615
Si Si3 0.356862 0.415007 0.617654
Si Si4 0.000000 0.500000 0.000000
Si Si5 0.675668 0.384805 0.076285
O O1 0.500000 0.102957 0.885525
O O2 0.604340 0.015667 0.780825
O O3 0.652403 0.927984 0.909900
O O4 0.626897 0.431731 0.865997
O O5 0.250000 0.155404 0.250000
O O6 0.379454 0.375480 0.318621
O O7 0.337820 0.875791 0.345904
O O8 0.427180 0.404556 0.557732
O O9 0.272370 0.546446 0.586143
O O10 0.647951 0.500000 0.000000
#
# Coordination Sequence:
#
# PCOD9420008 Si02
#       5
#     8   8   8   2   8
#     4  12  27  43  69 106 137 177 239 295 351 421
#     4  12  24  46  74 102 141 190 243 296 363 421
#     4  12  26  46  71 107 141 192 235 295 362 438
#     4  12  32  50  76 114 158 194 250 306 380 462
#     4  12  24  46  70  97 140 186 228 283 361 430
#
# _framework density 23.184256999999999
#
# number of rings (size 3 to 8) (size 9 to 14) (size 15 to 20)
#    0.000    0.000    5.882    3.529    3.294    4.706 
#    0.000    0.000    0.000    0.000    0.000    0.000 
#    0.000    0.000    0.000    0.000    0.000    0.000 
#
# Total GULP energy -189986.973276 kJ/mol
# GULP energy per Si atom -5587.852155 kJ/mol
# Density = 2.313149 g / cm^3
# Si number density = 23.184257 Si / 1000 Ang^3
#
#
#
# Elastic Constant Matrix: (Units=GPa)
#
#
# Indices 1 2 3 4 5 6 
#
# 1 126.4860 -7.9765 3.1065 0.0000 0.0000 0.0000
# 2 -7.9765 86.3083 3.0093 0.0000 0.0000 0.0000
# 3 3.1065 3.0093 85.6240 0.0000 0.0000 0.0000
# 4 0.0000 0.0000 0.0000 18.2623 0.0000 0.0000
# 5 0.0000 0.0000 0.0000 0.0000 101.6277 0.0000
# 6 0.0000 0.0000 0.0000 0.0000 0.0000 -21.3995
#
#
#
# Elastic Compliance Matrix: (Units=1/GPa)
#
#
# Indices 1 2 3 4 5 6 
#
# 1 0.007961 0.000747 -0.000315 0.000000 0.000000 0.000000
# 2 0.000747 0.011671 -0.000437 0.000000 0.000000 0.000000
# 3 -0.000315 -0.000437 0.011706 0.000000 0.000000 0.000000
# 4 0.000000 0.000000 0.000000 0.054758 0.000000 0.000000
# 5 0.000000 0.000000 0.000000 0.000000 0.009840 0.000000
# 6 0.000000 0.000000 0.000000 0.000000 0.000000 -0.046730
#
#
# Mechanical properties :
#
#
# Convention : Reuss Voigt Hill
#
# Bulk Modulus (GPa) = 31.92238 32.74412 32.33325
# Shear Modulus (GPa) = 83.81116 39.71669 61.76393
#
# Velocity S-wave (km/s) = 6.01901 4.14344 5.16704
# Velocity P-wave (km/s) = 7.88058 6.08645 7.04090
#
# Compressibility (1/GPa) = 0.03132599
#
# Stress axis : x y z
#
# Youngs Moduli (GPa) = 125.61487 85.68520 85.42799
#
# Poissons Ratio (x) = -0.06398 0.02692
# Poissons Ratio (y) = -0.09380 0.03735
# Poissons Ratio (z) = 0.03958 0.03747
#
# Static dielectric constant tensor:
#      x y z
#    x 1.837740 0.000000 0.000000 
#    y 0.000000 1.834070 0.000000 
#    z 0.000000 0.000000 1.901530 
# 
# From -- ./inp_files/27911.got.cif
#   From: 2010.05.17/outbox.cif.g08.bks.cpg/sg53_14_cif.got.tgz:27911.got - 2010.06.03 12:45:16.
