data_PCOD9420420
_publ_section_title
;
Structure prediction by ZEFSAII (Michael W. Deem and Ramdas Pophale) SiO2 
 PCOD9420420
Probable space group: P C C A
;
_chemical_formula_sum "Si O2"
_cell_formula_units_Z 64
_cell_length_a 32.866040
_cell_length_b 20.054309
_cell_length_c 5.242822
_cell_angle_alpha 90.000000
_cell_angle_beta 90.000000
_cell_angle_gamma 90.000000
_cell_volume 3455.573978
_symmetry_space_group_name_H-M "P C C A"
_symmetry_group_IT_number 54
_symmetry_cell_setting 'orthorhombic'
loop_
_space_group_symop_operation_xyz
x,y,z
1/2-x,-y,z
1/2+x,-y,1/2-z
-x,y,1/2-z
-x,-y,-z
1/2+x,y,-z
1/2-x,y,1/2+z
x,-y,1/2+z
loop_
_atom_site_type_symbol
_atom_site_label
_atom_site_fract_x
_atom_site_fract_y
_atom_site_fract_z
Si Si1 0.776108 0.680468 0.011131
Si Si2 0.364342 0.304983 0.603048
Si Si3 0.958159 0.232307 0.890480
Si Si4 0.204001 0.527096 0.413621
Si Si5 0.047978 0.043091 0.266184
Si Si6 0.574453 0.180201 0.892709
Si Si7 0.519320 0.574527 0.999114
Si Si8 0.400560 0.638902 0.598430
O O1 0.755615 0.692557 0.283768
O O2 0.789781 0.602814 0.007782
O O3 0.818447 0.716259 0.957764
O O4 0.390508 0.236841 0.618664
O O5 0.379831 0.354328 0.375386
O O6 0.369609 0.344862 0.868847
O O7 0.938373 0.180422 0.688988
O O8 0.931336 0.298537 0.896001
O O9 0.000000 0.245599 0.750000
O O10 0.957207 0.207356 0.179433
O O11 0.250000 0.500000 0.369266
O O12 0.183752 0.485208 0.640336
O O13 0.077876 0.104245 0.199718
O O14 0.000000 0.064593 0.250000
O O15 0.053515 0.012184 0.545580
O O16 0.500000 0.607657 0.250000
O O17 0.500000 0.606396 0.750000
O O18 0.500000 0.500000 0.000000
O O19 0.568106 0.578956 0.971406
#
# Coordination Sequence:
#
# PCOD9420420 Si02
#       8
#     8   8   8   8   8   8   8   8
#     4  12  21  35  60  81 103 133 175 218 271 342
#     4  10  23  37  54  79 108 140 169 226 277 327
#     4  10  18  28  49  74  91 134 179 215 252 303
#     4  10  16  30  51  74  98 119 155 197 246 316
#     4  10  19  30  48  75 107 144 182 219 249 296
#     4  10  20  34  48  71 113 138 171 217 269 307
#     4  10  20  34  57  72  93 135 178 221 264 312
#     4  10  20  36  52  72 105 133 174 220 270 315
#
# _framework density 18.520803000000001
#
# number of rings (size 3 to 8) (size 9 to 14) (size 15 to 20)
#    0.000    1.750    2.500    3.750    0.000    3.000 
#    0.000    0.000   16.500    0.000    0.000    0.000 
#    0.000    3.000    0.000    0.000    0.000    0.000 
#
# Total GULP energy -356563.900724 kJ/mol
# GULP energy per Si atom -5571.310949 kJ/mol
# Density = 1.847865 g / cm^3
# Si number density = 18.520803 Si / 1000 Ang^3
#
#
#
# Elastic Constant Matrix: (Units=GPa)
#
#
# Indices 1 2 3 4 5 6 
#
# 1 51.1206 12.5107 10.5498 0.0000 0.0000 0.0000
# 2 12.5107 54.2645 7.5104 0.0000 0.0000 0.0000
# 3 10.5498 7.5104 103.2861 0.0000 0.0000 0.0000
# 4 0.0000 0.0000 0.0000 7.7265 0.0000 0.0000
# 5 0.0000 0.0000 0.0000 0.0000 -505.7232 0.0000
# 6 0.0000 0.0000 0.0000 0.0000 0.0000 14.3036
#
#
#
# Elastic Compliance Matrix: (Units=1/GPa)
#
#
# Indices 1 2 3 4 5 6 
#
# 1 0.021063 -0.004605 -0.001817 0.000000 0.000000 0.000000
# 2 -0.004605 0.019622 -0.000956 0.000000 0.000000 0.000000
# 3 -0.001817 -0.000956 0.009937 0.000000 0.000000 0.000000
# 4 0.000000 0.000000 0.000000 0.129424 0.000000 0.000000
# 5 0.000000 0.000000 0.000000 0.000000 -0.001977 0.000000
# 6 0.000000 0.000000 0.000000 0.000000 0.000000 0.069912
#
#
# Mechanical properties :
#
#
# Convention : Reuss Voigt Hill
#
# Bulk Modulus (GPa) = 27.88083 29.97920 28.93001
# Shear Modulus (GPa) = 18.20216 -84.86524 -33.33154
#
# Velocity S-wave (km/s) = 3.13836 -6.77651 -4.24687
# Velocity P-wave (km/s) = 5.31214 6.70866 2.89718
#
# Compressibility (1/GPa) = 0.03586694
#
# Stress axis : x y z
#
# Youngs Moduli (GPa) = 47.47570 50.96252 100.63452
#
# Poissons Ratio (x) = 0.23467 0.18281
# Poissons Ratio (y) = 0.21861 0.09626
# Poissons Ratio (z) = 0.08625 0.04874
#
# Static dielectric constant tensor:
#      x y z
#    x 1.671780 0.000000 0.000000 
#    y 0.000000 1.589770 0.000000 
#    z 0.000000 0.000000 1.710070 
# 
# From -- ./inp_files/2025.got.cif
#   From: 2010.05.17/outbox.cif.g08.bks.cpg/sg54_2_cif.got.tgz:2025.got - 2010.06.03 13:09:01.
