data_PCOD9420655
_publ_section_title
;
Structure prediction by ZEFSAII (Michael W. Deem and Ramdas Pophale) SiO2 
 PCOD9420655
Probable space group: P C C A
;
_chemical_formula_sum "Si O2"
_cell_formula_units_Z 64
_cell_length_a 16.607367
_cell_length_b 9.322674
_cell_length_c 22.358798
_cell_angle_alpha 90.000000
_cell_angle_beta 90.000000
_cell_angle_gamma 90.000000
_cell_volume 3461.702433
_symmetry_space_group_name_H-M "P C C A"
_symmetry_group_IT_number 54
_symmetry_cell_setting 'orthorhombic'
loop_
_space_group_symop_operation_xyz
x,y,z
1/2-x,-y,z
1/2+x,-y,1/2-z
-x,y,1/2-z
-x,-y,-z
1/2+x,y,-z
1/2-x,y,1/2+z
x,-y,1/2+z
loop_
_atom_site_type_symbol
_atom_site_label
_atom_site_fract_x
_atom_site_fract_y
_atom_site_fract_z
Si Si1 0.452255 0.641905 0.018236
Si Si2 0.915671 0.841175 0.720621
Si Si3 0.589594 0.188445 0.229829
Si Si4 0.068736 0.138552 0.417921
Si Si5 0.243493 0.826470 0.706081
Si Si6 0.891263 0.816504 0.092788
Si Si7 0.763863 0.845350 0.517282
Si Si8 0.708515 0.352124 0.911815
O O1 0.501154 0.770642 0.049364
O O2 0.381039 0.613406 0.065290
O O3 0.500000 0.500000 0.000000
O O4 0.420851 0.703663 0.955478
O O5 0.919508 0.811556 0.650182
O O6 0.831656 0.790703 0.749843
O O7 0.000000 0.790190 0.750000
O O8 0.913510 0.014272 0.728927
O O9 0.500000 0.237624 0.250000
O O10 0.668746 0.225444 0.269417
O O11 0.603747 0.231908 0.161017
O O12 0.148601 0.164784 0.455817
O O13 0.059146 0.965686 0.414706
O O14 0.219261 0.756678 0.643048
O O15 0.250000 0.000000 0.701297
O O16 0.799802 0.846253 0.071932
O O17 0.748249 0.721360 0.470040
O O18 0.750000 0.000000 0.486464
O O19 0.750000 0.500000 0.895134
#
# Coordination Sequence:
#
# PCOD9420655 Si02
#       8
#     8   8   8   8   8   8   8   8
#     4  11  23  37  54  79 110 147 188 232 281 331
#     4   9  17  31  53  82 111 137 173 221 273 329
#     4   9  18  31  52  82 111 140 174 219 273 328
#     4  10  18  33  58  83 107 138 177 224 275 330
#     4  10  20  36  59  84 111 144 183 230 282 338
#     4   9  19  35  55  81 111 139 177 223 272 333
#     4   9  18  33  55  80 104 135 175 221 272 325
#     4  11  23  38  53  75 110 146 184 228 277 332
#
# _framework density 18.488014
#
# number of rings (size 3 to 8) (size 9 to 14) (size 15 to 20)
#    0.000    2.250    0.000    3.000    0.000    6.000 
#    0.000    1.250    0.000    3.000    0.000    0.000 
#    0.000    0.000    0.000    0.000    0.000    0.000 
#
# Total GULP energy -356722.494320 kJ/mol
# GULP energy per Si atom -5573.788974 kJ/mol
# Density = 1.844593 g / cm^3
# Si number density = 18.488014 Si / 1000 Ang^3
#
#
#
# Elastic Constant Matrix: (Units=GPa)
#
#
# Indices 1 2 3 4 5 6 
#
# 1 101.6355 15.1440 28.6375 0.0000 0.0000 0.0000
# 2 15.1440 27.0371 3.9163 0.0000 0.0000 0.0000
# 3 28.6375 3.9163 84.4224 0.0000 0.0000 0.0000
# 4 0.0000 0.0000 0.0000 -73.6005 0.0000 0.0000
# 5 0.0000 0.0000 0.0000 0.0000 12.0587 0.0000
# 6 0.0000 0.0000 0.0000 0.0000 0.0000 19.4835
#
#
#
# Elastic Compliance Matrix: (Units=1/GPa)
#
#
# Indices 1 2 3 4 5 6 
#
# 1 0.011791 -0.006066 -0.003718 0.000000 0.000000 0.000000
# 2 -0.006066 0.040357 0.000185 0.000000 0.000000 0.000000
# 3 -0.003718 0.000185 0.013098 0.000000 0.000000 0.000000
# 4 0.000000 0.000000 0.000000 -0.013587 0.000000 0.000000
# 5 0.000000 0.000000 0.000000 0.000000 0.082928 0.000000
# 6 0.000000 0.000000 0.000000 0.000000 0.000000 0.051326
#
#
# Mechanical properties :
#
#
# Convention : Reuss Voigt Hill
#
# Bulk Modulus (GPa) = 21.71623 34.27674 27.99648
# Shear Modulus (GPa) = 22.68007 2.61481 12.64744
#
# Velocity S-wave (km/s) = 3.50629 1.19055 2.61835
# Velocity P-wave (km/s) = 5.30695 4.52439 4.93122
#
# Compressibility (1/GPa) = 0.04604852
#
# Stress axis : x y z
#
# Youngs Moduli (GPa) = 84.81385 24.77902 76.34837
#
# Poissons Ratio (x) = 0.15030 0.28388
# Poissons Ratio (y) = 0.51444 -0.01416
# Poissons Ratio (z) = 0.31535 -0.00459
#
# Static dielectric constant tensor:
#      x y z
#    x 1.655270 0.000000 0.000000 
#    y 0.000000 1.639650 0.000000 
#    z 0.000000 0.000000 1.611090 
# 
# From -- ./inp_files/21946.got.cif
#   From: 2010.05.17/outbox.cif.g08.bks.cpg/sg54_11_cif.got.tgz:21946.got - 2010.06.03 13:09:01.
