data_PCOD9420636
_publ_section_title
;
Structure prediction by ZEFSAII (Michael W. Deem and Ramdas Pophale) SiO2 
 PCOD9420636
Probable space group: P C C A
;
_chemical_formula_sum "Si O2"
_cell_formula_units_Z 36
_cell_length_a 19.401170
_cell_length_b 5.082810
_cell_length_c 18.674468
_cell_angle_alpha 90.000000
_cell_angle_beta 90.000000
_cell_angle_gamma 90.000000
_cell_volume 1841.535245
_symmetry_space_group_name_H-M "P C C A"
_symmetry_group_IT_number 54
_symmetry_cell_setting 'orthorhombic'
loop_
_space_group_symop_operation_xyz
x,y,z
1/2-x,-y,z
1/2+x,-y,1/2-z
-x,y,1/2-z
-x,-y,-z
1/2+x,y,-z
1/2-x,y,1/2+z
x,-y,1/2+z
loop_
_atom_site_type_symbol
_atom_site_label
_atom_site_fract_x
_atom_site_fract_y
_atom_site_fract_z
Si Si1 0.360936 0.877476 0.835585
Si Si2 0.250000 0.000000 0.235323
Si Si3 0.825418 0.361774 0.360030
Si Si4 0.077630 0.401685 0.266539
Si Si5 0.297998 0.248140 0.485904
O O1 0.290732 0.811980 0.790441
O O2 0.417370 0.665266 0.813136
O O3 0.341852 0.844793 0.918191
O O4 0.383718 0.168709 0.810518
O O5 0.308722 0.907815 0.181035
O O6 0.750000 0.500000 0.356016
O O7 0.884250 0.471689 0.308615
O O8 0.840695 0.327233 0.443289
O O9 0.000000 0.320758 0.250000
O O10 0.250000 0.500000 0.467348
O O11 0.250000 0.000000 0.506570
#
# Coordination Sequence:
#
# PCOD9420636 Si02
#       5
#     8   4   8   8   8
#     4  11  22  37  61  86 121 149 200 242 299 346
#     4  10  18  32  60  86 112 148 192 246 288 340
#     4  10  20  36  58  86 117 152 196 248 295 352
#     4  11  24  41  61  86 120 163 203 241 289 355
#     4  11  22  35  56  92 123 148 189 251 309 349
#
# _framework density 19.548907
#
# number of rings (size 3 to 8) (size 9 to 14) (size 15 to 20)
#    0.000    1.333    4.444    2.000    3.111    0.000 
#    0.000    2.222    0.000    0.000    0.000    0.000 
#    0.000    0.000    0.000    0.000    0.000    0.000 
#
# Total GULP energy -200540.568822 kJ/mol
# GULP energy per Si atom -5570.571356 kJ/mol
# Density = 1.950441 g / cm^3
# Si number density = 19.548907 Si / 1000 Ang^3
#
#
#
# Elastic Constant Matrix: (Units=GPa)
#
#
# Indices 1 2 3 4 5 6 
#
# 1 57.1723 -1.0391 37.3160 0.0000 0.0000 0.0000
# 2 -1.0391 70.3197 9.6210 0.0000 0.0000 0.0000
# 3 37.3160 9.6210 167.7688 0.0000 0.0000 0.0000
# 4 0.0000 0.0000 0.0000 21.1717 0.0000 0.0000
# 5 0.0000 0.0000 0.0000 0.0000 11.8453 0.0000
# 6 0.0000 0.0000 0.0000 0.0000 0.0000 22.9664
#
#
#
# Elastic Compliance Matrix: (Units=1/GPa)
#
#
# Indices 1 2 3 4 5 6 
#
# 1 0.020522 0.000935 -0.004618 0.000000 0.000000 0.000000
# 2 0.000935 0.014376 -0.001032 0.000000 0.000000 0.000000
# 3 -0.004618 -0.001032 0.007047 0.000000 0.000000 0.000000
# 4 0.000000 0.000000 0.000000 0.047233 0.000000 0.000000
# 5 0.000000 0.000000 0.000000 0.000000 0.084421 0.000000
# 6 0.000000 0.000000 0.000000 0.000000 0.000000 0.043542
#
#
# Mechanical properties :
#
#
# Convention : Reuss Voigt Hill
#
# Bulk Modulus (GPa) = 30.75600 43.00628 36.88114
# Shear Modulus (GPa) = 21.06058 27.82089 24.44073
#
# Velocity S-wave (km/s) = 3.28583 3.77655 3.53970
# Velocity P-wave (km/s) = 5.49205 6.40808 5.96767
#
# Compressibility (1/GPa) = 0.03251398
#
# Stress axis : x y z
#
# Youngs Moduli (GPa) = 48.72746 69.56120 141.90405
#
# Poissons Ratio (x) = -0.06505 0.65536
# Poissons Ratio (y) = -0.04557 0.14650
# Poissons Ratio (z) = 0.22504 0.07181
#
# Static dielectric constant tensor:
#      x y z
#    x 1.706810 0.000000 0.000000 
#    y 0.000000 1.784100 0.000000 
#    z 0.000000 0.000000 1.679690 
# 
# From -- ./inp_files/18755.got.cif
#   From: 2010.05.17/outbox.cif.g08.bks.cpg/sg54_10_cif.got.tgz:18755.got - 2010.06.03 13:09:01.
