data_PCOD9420717
_publ_section_title
;
Structure prediction by ZEFSAII (Michael W. Deem and Ramdas Pophale) SiO2 
 PCOD9420717
Probable space group: P C C A
;
_chemical_formula_sum "Si O2"
_cell_formula_units_Z 64
_cell_length_a 18.565683
_cell_length_b 9.025983
_cell_length_c 19.856607
_cell_angle_alpha 90.000000
_cell_angle_beta 90.000000
_cell_angle_gamma 90.000000
_cell_volume 3327.441910
_symmetry_space_group_name_H-M "P C C A"
_symmetry_group_IT_number 54
_symmetry_cell_setting 'orthorhombic'
loop_
_space_group_symop_operation_xyz
x,y,z
1/2-x,-y,z
1/2+x,-y,1/2-z
-x,y,1/2-z
-x,-y,-z
1/2+x,y,-z
1/2-x,y,1/2+z
x,-y,1/2+z
loop_
_atom_site_type_symbol
_atom_site_label
_atom_site_fract_x
_atom_site_fract_y
_atom_site_fract_z
Si Si1 0.078974 0.201954 0.385632
Si Si2 0.786608 0.839554 0.043126
Si Si3 0.085784 0.004671 0.503663
Si Si4 0.268981 0.671093 0.092847
Si Si5 0.587123 0.826558 0.367795
Si Si6 0.420012 0.019970 0.263539
Si Si7 0.718458 0.663881 0.164065
Si Si8 0.717399 0.164839 0.284472
O O1 0.087283 0.059216 0.335816
O O2 0.134722 0.321860 0.357130
O O3 0.993420 0.233716 0.383001
O O4 0.102620 0.152495 0.460872
O O5 0.761299 0.770482 0.112597
O O6 0.750000 0.000000 0.033162
O O7 0.871457 0.874467 0.035291
O O8 0.764525 0.732098 0.982644
O O9 0.102741 0.965727 0.581335
O O10 0.000000 0.000000 0.500000
O O11 0.250000 0.500000 0.096608
O O12 0.349902 0.710080 0.118240
O O13 0.217375 0.764024 0.142132
O O14 0.588501 0.890805 0.292773
O O15 0.500000 0.079130 0.250000
O O16 0.359950 0.141659 0.249463
O O17 0.750000 0.500000 0.159575
O O18 0.733775 0.731899 0.237186
O O19 0.750000 0.000000 0.288072
#
# Coordination Sequence:
#
# PCOD9420717 Si02
#       8
#     8   8   8   8   8   8   8   8
#     4  10  18  35  56  81 113 147 187 232 281 333
#     4  11  21  37  62  83 112 149 195 236 277 333
#     4   9  18  32  57  85 108 139 189 241 279 323
#     4  11  23  38  57  86 120 150 186 234 287 340
#     4   9  19  34  57  82 111 148 188 230 283 332
#     4  10  20  34  56  87 111 141 191 242 279 324
#     4  12  24  37  57  87 119 152 187 234 288 339
#     4  12  21  37  61  85 112 149 197 237 278 333
#
# _framework density 19.233993999999999
#
# number of rings (size 3 to 8) (size 9 to 14) (size 15 to 20)
#    0.000    1.500    3.750    2.250    1.750    0.000 
#    0.000    1.250    2.750    3.000    0.000    0.000 
#    0.000    0.000    0.000    0.000    0.000    0.000 
#
# Total GULP energy -357060.067696 kJ/mol
# GULP energy per Si atom -5579.063558 kJ/mol
# Density = 1.919022 g / cm^3
# Si number density = 19.233994 Si / 1000 Ang^3
#
#
#
# Elastic Constant Matrix: (Units=GPa)
#
#
# Indices 1 2 3 4 5 6 
#
# 1 108.6944 47.6036 15.3844 0.0000 0.0000 0.0000
# 2 47.6036 77.9607 10.7797 0.0000 0.0000 0.0000
# 3 15.3844 10.7797 69.0698 0.0000 0.0000 0.0000
# 4 0.0000 0.0000 0.0000 18.4903 0.0000 0.0000
# 5 0.0000 0.0000 0.0000 0.0000 25.6240 0.0000
# 6 0.0000 0.0000 0.0000 0.0000 0.0000 22.9799
#
#
#
# Elastic Compliance Matrix: (Units=1/GPa)
#
#
# Indices 1 2 3 4 5 6 
#
# 1 0.012742 -0.007551 -0.001660 0.000000 0.000000 0.000000
# 2 -0.007551 0.017585 -0.001063 0.000000 0.000000 0.000000
# 3 -0.001660 -0.001063 0.015014 0.000000 0.000000 0.000000
# 4 0.000000 0.000000 0.000000 0.054082 0.000000 0.000000
# 5 0.000000 0.000000 0.000000 0.000000 0.039026 0.000000
# 6 0.000000 0.000000 0.000000 0.000000 0.000000 0.043516
#
#
# Mechanical properties :
#
#
# Convention : Reuss Voigt Hill
#
# Bulk Modulus (GPa) = 40.33246 44.80672 42.56959
# Shear Modulus (GPa) = 23.72190 25.54931 24.63560
#
# Velocity S-wave (km/s) = 3.51569 3.64860 3.58276
# Velocity P-wave (km/s) = 6.12332 6.41060 6.26861
#
# Compressibility (1/GPa) = 0.02479393
#
# Stress axis : x y z
#
# Youngs Moduli (GPa) = 78.48061 56.86802 66.60630
#
# Poissons Ratio (x) = 0.42941 0.11054
# Poissons Ratio (y) = 0.59260 0.07077
# Poissons Ratio (z) = 0.13025 0.06043
#
# Static dielectric constant tensor:
#      x y z
#    x 1.738300 0.000000 0.000000 
#    y 0.000000 1.617970 0.000000 
#    z 0.000000 0.000000 1.688090 
# 
# From -- ./inp_files/18965.got.cif
#   From: 2010.05.17/outbox.cif.g08.bks.cpg/sg54_10_cif.got.tgz:18965.got - 2010.06.03 13:09:01.
