data_PCOD9420585
_publ_section_title
;
Structure prediction by ZEFSAII (Michael W. Deem and Ramdas Pophale) SiO2 
 PCOD9420585
Probable space group: P C C A
;
_chemical_formula_sum "Si O2"
_cell_formula_units_Z 60
_cell_length_a 21.673405
_cell_length_b 13.187518
_cell_length_c 9.505954
_cell_angle_alpha 90.000000
_cell_angle_beta 90.000000
_cell_angle_gamma 90.000000
_cell_volume 2716.976739
_symmetry_space_group_name_H-M "P C C A"
_symmetry_group_IT_number 54
_symmetry_cell_setting 'orthorhombic'
loop_
_space_group_symop_operation_xyz
x,y,z
1/2-x,-y,z
1/2+x,-y,1/2-z
-x,y,1/2-z
-x,-y,-z
1/2+x,y,-z
1/2-x,y,1/2+z
x,-y,1/2+z
loop_
_atom_site_type_symbol
_atom_site_label
_atom_site_fract_x
_atom_site_fract_y
_atom_site_fract_z
Si Si1 0.351043 0.125750 0.178459
Si Si2 0.250000 0.500000 0.200625
Si Si3 0.070314 0.700002 0.280749
Si Si4 0.322384 0.972870 0.414303
Si Si5 0.173094 0.695383 0.486918
Si Si6 0.670572 0.547254 0.040858
Si Si7 0.042581 0.527436 0.867090
Si Si8 0.771830 0.214654 0.240096
O O1 0.389752 0.229615 0.176139
O O2 0.279496 0.156685 0.167717
O O3 0.352552 0.061167 0.321725
O O4 0.361447 0.048476 0.052602
O O5 0.205928 0.443530 0.311646
O O6 0.290719 0.425577 0.099659
O O7 0.106423 0.726917 0.425162
O O8 0.067995 0.575750 0.287974
O O9 0.000000 0.727933 0.250000
O O10 0.315903 0.866167 0.334165
O O11 0.250000 0.000000 0.440955
O O12 0.169099 0.573788 0.484367
O O13 0.227209 0.732437 0.378559
O O14 0.187879 0.729922 0.642525
O O15 0.601804 0.584038 0.068740
O O16 0.000000 0.579977 0.750000
O O17 0.000000 0.500000 0.000000
#
# Coordination Sequence:
#
# PCOD9420585 Si02
#       8
#     8   4   8   8   8   8   8   8
#     4  10  20  33  56  83 118 157 198 245 299 349
#     4  10  20  34  52  78 124 150 176 234 300 406
#     4   9  21  39  59  78 118 160 199 249 306 366
#     4  10  19  31  55  88 121 154 200 244 295 363
#     4  10  19  32  56  81 116 150 191 251 305 361
#     4  10  20  34  53  83 115 153 191 236 312 376
#     4  10  20  38  66  87 111 153 209 260 305 359
#     4  10  18  31  52  86 118 151 193 246 300 357
#
# _framework density 22.083369000000001
#
# number of rings (size 3 to 8) (size 9 to 14) (size 15 to 20)
#    0.000    2.133    1.333    2.800    3.733    0.000 
#    0.000    2.000   11.733    0.000    0.000    0.000 
#    0.000    0.000    0.000    0.000    0.000    0.000 
#
# Total GULP energy -334416.604661 kJ/mol
# GULP energy per Si atom -5573.610078 kJ/mol
# Density = 2.203311 g / cm^3
# Si number density = 22.083369 Si / 1000 Ang^3
#
#
#
# Elastic Constant Matrix: (Units=GPa)
#
#
# Indices 1 2 3 4 5 6 
#
# 1 65.2395 -10.1574 22.4941 0.0000 0.0000 0.0000
# 2 -10.1574 65.9504 22.6236 0.0000 0.0000 0.0000
# 3 22.4941 22.6236 102.5817 0.0000 0.0000 0.0000
# 4 0.0000 0.0000 0.0000 33.1660 0.0000 0.0000
# 5 0.0000 0.0000 0.0000 0.0000 15.4881 0.0000
# 6 0.0000 0.0000 0.0000 0.0000 0.0000 21.1431
#
#
#
# Elastic Compliance Matrix: (Units=1/GPa)
#
#
# Indices 1 2 3 4 5 6 
#
# 1 0.017681 0.004385 -0.004844 0.000000 0.000000 0.000000
# 2 0.004385 0.017491 -0.004819 0.000000 0.000000 0.000000
# 3 -0.004844 -0.004819 0.011873 0.000000 0.000000 0.000000
# 4 0.000000 0.000000 0.000000 0.030151 0.000000 0.000000
# 5 0.000000 0.000000 0.000000 0.000000 0.064566 0.000000
# 6 0.000000 0.000000 0.000000 0.000000 0.000000 0.047297
#
#
# Mechanical properties :
#
#
# Convention : Reuss Voigt Hill
#
# Bulk Modulus (GPa) = 27.40542 33.74358 30.57450
# Shear Modulus (GPa) = 23.60944 27.21352 25.41148
#
# Velocity S-wave (km/s) = 3.27326 3.51423 3.39589
# Velocity P-wave (km/s) = 5.16939 5.63735 5.40843
#
# Compressibility (1/GPa) = 0.03648913
#
# Stress axis : x y z
#
# Youngs Moduli (GPa) = 56.55761 57.17088 84.22202
#
# Poissons Ratio (x) = -0.25069 0.40799
# Poissons Ratio (y) = -0.24800 0.40588
# Poissons Ratio (z) = 0.27397 0.27551
#
# Static dielectric constant tensor:
#      x y z
#    x 1.854500 0.000000 0.000000 
#    y 0.000000 1.917540 0.000000 
#    z 0.000000 0.000000 1.939650 
# 
# From -- ./inp_files/5281.got.cif
#   From: 2010.05.17/outbox.cif.g08.bks.cpg/sg54_3_cif.got.tgz:5281.got - 2010.06.03 13:09:01.
