data_PCOD9420440
_publ_section_title
;
Structure prediction by ZEFSAII (Michael W. Deem and Ramdas Pophale) SiO2 
 PCOD9420440
Probable space group: P C C A
;
_chemical_formula_sum "Si O2"
_cell_formula_units_Z 64
_cell_length_a 13.546862
_cell_length_b 13.394254
_cell_length_c 19.284854
_cell_angle_alpha 90.000000
_cell_angle_beta 90.000000
_cell_angle_gamma 90.000000
_cell_volume 3499.238890
_symmetry_space_group_name_H-M "P C C A"
_symmetry_group_IT_number 54
_symmetry_cell_setting 'orthorhombic'
loop_
_space_group_symop_operation_xyz
x,y,z
1/2-x,-y,z
1/2+x,-y,1/2-z
-x,y,1/2-z
-x,-y,-z
1/2+x,y,-z
1/2-x,y,1/2+z
x,-y,1/2+z
loop_
_atom_site_type_symbol
_atom_site_label
_atom_site_fract_x
_atom_site_fract_y
_atom_site_fract_z
Si Si1 0.246139 0.638089 0.557346
Si Si2 0.708647 0.134797 0.466019
Si Si3 0.113026 0.858748 0.889962
Si Si4 0.117389 0.124442 0.238314
Si Si5 0.089379 0.374763 0.349335
Si Si6 0.137286 0.650369 0.696468
Si Si7 0.387735 0.493299 0.480644
Si Si8 0.600628 0.967018 0.400182
O O1 0.284358 0.749527 0.550974
O O2 0.209085 0.618485 0.635076
O O3 0.332115 0.565608 0.533763
O O4 0.159745 0.613346 0.500624
O O5 0.685022 0.120791 0.546698
O O6 0.814567 0.090618 0.443300
O O7 0.618734 0.079145 0.426191
O O8 0.154600 0.894430 0.815552
O O9 0.102422 0.737979 0.880105
O O10 0.006826 0.913668 0.904902
O O11 0.149265 0.229643 0.205281
O O12 0.130483 0.041240 0.180555
O O13 0.000000 0.138400 0.250000
O O14 0.145046 0.386676 0.275683
O O15 0.122141 0.458342 0.404457
O O16 0.972815 0.376808 0.330431
O O17 0.500000 0.500000 0.500000
#
# Coordination Sequence:
#
# PCOD9420440 Si02
#       8
#     8   8   8   8   8   8   8   8
#     4  11  22  36  56  87 116 154 199 247 306 363
#     4  11  21  33  55  83 119 150 190 239 299 349
#     4  10  18  34  57  84 113 152 194 239 289 354
#     4   9  15  30  57  82 107 145 195 239 286 346
#     4  10  17  33  60  85 109 148 192 248 296 353
#     4  10  16  32  60  84 109 144 192 244 299 359
#     4  11  23  37  57  85 116 154 201 253 307 361
#     4  10  20  34  53  87 116 151 193 237 288 353
#
# _framework density 18.289691000000001
#
# number of rings (size 3 to 8) (size 9 to 14) (size 15 to 20)
#    0.000    1.750    7.500    0.375    0.000    0.000 
#    0.000    5.000    0.000    0.000    0.000   10.500 
#    0.000    0.000    0.000    0.000    0.000    0.000 
#
# Total GULP energy -356428.757369 kJ/mol
# GULP energy per Si atom -5569.199334 kJ/mol
# Density = 1.824806 g / cm^3
# Si number density = 18.289691 Si / 1000 Ang^3
#
#
#
# Elastic Constant Matrix: (Units=GPa)
#
#
# Indices 1 2 3 4 5 6 
#
# 1 64.4948 5.5522 40.8472 0.0000 0.0000 0.0000
# 2 5.5522 56.6933 48.6117 0.0000 0.0000 0.0000
# 3 40.8472 48.6117 171.7959 0.0000 0.0000 0.0000
# 4 0.0000 0.0000 0.0000 30.7036 0.0000 0.0000
# 5 0.0000 0.0000 0.0000 0.0000 35.1143 0.0000
# 6 0.0000 0.0000 0.0000 0.0000 0.0000 19.8088
#
#
#
# Elastic Compliance Matrix: (Units=1/GPa)
#
#
# Indices 1 2 3 4 5 6 
#
# 1 0.018538 0.002593 -0.005142 0.000000 0.000000 0.000000
# 2 0.002593 0.023652 -0.007309 0.000000 0.000000 0.000000
# 3 -0.005142 -0.007309 0.009112 0.000000 0.000000 0.000000
# 4 0.000000 0.000000 0.000000 0.032569 0.000000 0.000000
# 5 0.000000 0.000000 0.000000 0.000000 0.028478 0.000000
# 6 0.000000 0.000000 0.000000 0.000000 0.000000 0.050483
#
#
# Mechanical properties :
#
#
# Convention : Reuss Voigt Hill
#
# Bulk Modulus (GPa) = 31.65896 53.66735 42.66315
# Shear Modulus (GPa) = 25.89647 30.32353 28.11000
#
# Velocity S-wave (km/s) = 3.76693 4.07622 3.92462
# Velocity P-wave (km/s) = 6.02221 7.18058 6.62676
#
# Compressibility (1/GPa) = 0.03158664
#
# Stress axis : x y z
#
# Youngs Moduli (GPa) = 53.94256 42.27958 109.75067
#
# Poissons Ratio (x) = -0.10963 0.56428
# Poissons Ratio (y) = -0.13988 0.80219
# Poissons Ratio (z) = 0.27735 0.30903
#
# Static dielectric constant tensor:
#      x y z
#    x 1.785250 0.000000 0.000000 
#    y 0.000000 1.704110 0.000000 
#    z 0.000000 0.000000 1.664050 
# 
# From -- ./inp_files/18282.got.cif
#   From: 2010.05.17/outbox.cif.g08.bks.cpg/sg54_10_cif.got.tgz:18282.got - 2010.06.03 13:09:01.
