data_PCOD9420579
_publ_section_title
;
Structure prediction by ZEFSAII (Michael W. Deem and Ramdas Pophale) SiO2 
 PCOD9420579
Probable space group: P C C A
;
_chemical_formula_sum "Si O2"
_cell_formula_units_Z 56
_cell_length_a 22.460034
_cell_length_b 8.630967
_cell_length_c 15.676011
_cell_angle_alpha 90.000000
_cell_angle_beta 90.000000
_cell_angle_gamma 90.000000
_cell_volume 3038.823142
_symmetry_space_group_name_H-M "P C C A"
_symmetry_group_IT_number 54
_symmetry_cell_setting 'orthorhombic'
loop_
_space_group_symop_operation_xyz
x,y,z
1/2-x,-y,z
1/2+x,-y,1/2-z
-x,y,1/2-z
-x,-y,-z
1/2+x,y,-z
1/2-x,y,1/2+z
x,-y,1/2+z
loop_
_atom_site_type_symbol
_atom_site_label
_atom_site_fract_x
_atom_site_fract_y
_atom_site_fract_z
Si Si1 0.901312 0.488373 0.354973
Si Si2 0.585351 0.087693 0.672993
Si Si3 0.685142 0.560103 0.508857
Si Si4 0.553327 0.129752 0.860473
Si Si5 0.126114 0.568846 0.827153
Si Si6 0.983366 0.408669 0.586536
Si Si7 0.609610 0.851723 0.532879
O O1 0.860970 0.502313 0.438246
O O2 0.930607 0.314409 0.354607
O O3 0.864810 0.495456 0.267701
O O4 0.955305 0.609262 0.362641
O O5 0.575946 0.051027 0.773105
O O6 0.517996 0.112309 0.636873
O O7 0.621750 0.247011 0.671458
O O8 0.617055 0.965627 0.611873
O O9 0.750000 0.500000 0.484701
O O10 0.670523 0.492787 0.601878
O O11 0.666660 0.741859 0.514889
O O12 0.586991 0.071626 0.944927
O O13 0.061171 0.509099 0.856376
O O14 0.945624 0.259689 0.560071
O O15 0.000000 0.500000 0.500000
#
# Coordination Sequence:
#
# PCOD9420579 Si02
#       7
#     8   8   8   8   8   8   8
#     4  10  18  33  57  80 107 147 183 223 274 342
#     4  10  18  31  49  80 113 148 174 207 282 344
#     4  10  22  39  55  76 105 143 195 242 272 315
#     4   9  17  30  50  76 115 146 170 207 273 347
#     4  10  19  33  56  79 109 148 179 222 282 343
#     4  11  16  31  54  83 116 139 176 219 279 336
#     4  10  20  33  53  81 114 144 182 229 268 333
#
# _framework density 18.428187000000001
#
# number of rings (size 3 to 8) (size 9 to 14) (size 15 to 20)
#    0.000    2.000    5.714    0.857    0.000    0.571 
#   10.286    0.714    0.000    0.000    0.000    6.000 
#    0.000    0.000    0.000    0.000    0.000    0.000 
#
# Total GULP energy -312182.569978 kJ/mol
# GULP energy per Si atom -5574.688750 kJ/mol
# Density = 1.838624 g / cm^3
# Si number density = 18.428187 Si / 1000 Ang^3
#
#
#
# Elastic Constant Matrix: (Units=GPa)
#
#
# Indices 1 2 3 4 5 6 
#
# 1 64.5805 10.7911 3.3734 0.0000 0.0000 0.0000
# 2 10.7911 23.1842 24.5363 0.0000 0.0000 0.0000
# 3 3.3734 24.5363 86.0883 0.0000 0.0000 0.0000
# 4 0.0000 0.0000 0.0000 26.2774 0.0000 0.0000
# 5 0.0000 0.0000 0.0000 0.0000 12.0489 0.0000
# 6 0.0000 0.0000 0.0000 0.0000 0.0000 13.5485
#
#
#
# Elastic Compliance Matrix: (Units=1/GPa)
#
#
# Indices 1 2 3 4 5 6 
#
# 1 0.017100 -0.010381 0.002289 0.000000 0.000000 0.000000
# 2 -0.010381 0.068065 -0.018993 0.000000 0.000000 0.000000
# 3 0.002289 -0.018993 0.016939 0.000000 0.000000 0.000000
# 4 0.000000 0.000000 0.000000 0.038056 0.000000 0.000000
# 5 0.000000 0.000000 0.000000 0.000000 0.082995 0.000000
# 6 0.000000 0.000000 0.000000 0.000000 0.000000 0.073809
#
#
# Mechanical properties :
#
#
# Convention : Reuss Voigt Hill
#
# Bulk Modulus (GPa) = 20.86208 27.91717 24.38963
# Shear Modulus (GPa) = 13.61982 19.38511 16.50246
#
# Velocity S-wave (km/s) = 2.72154 3.24686 2.99574
# Velocity P-wave (km/s) = 4.60663 5.40724 5.02291
#
# Compressibility (1/GPa) = 0.04793386
#
# Stress axis : x y z
#
# Youngs Moduli (GPa) = 58.48067 14.69180 59.03380
#
# Poissons Ratio (x) = 0.15252 -0.13511
# Poissons Ratio (y) = 0.60711 1.12121
# Poissons Ratio (z) = -0.13385 0.27904
#
# Static dielectric constant tensor:
#      x y z
#    x 1.621260 0.000000 0.000000 
#    y 0.000000 1.661510 0.000000 
#    z 0.000000 0.000000 1.679470 
# 
# From -- ./inp_files/14658.got.cif
#   From: 2010.05.17/outbox.cif.g08.bks.cpg/sg54_8_cif.got.tgz:14658.got - 2010.06.03 13:09:01.
