data_PCOD9420059
_publ_section_title
;
Structure prediction by ZEFSAII (Michael W. Deem and Ramdas Pophale) SiO2 
 PCOD9420059
Probable space group: P M N A
;
_chemical_formula_sum "Si O2"
_cell_formula_units_Z 64
_cell_length_a 7.440742
_cell_length_b 27.566882
_cell_length_c 15.101142
_cell_angle_alpha 90.000000
_cell_angle_beta 90.000000
_cell_angle_gamma 90.000000
_cell_volume 3097.516901
_symmetry_space_group_name_H-M "P M N A"
_symmetry_group_IT_number 53
_symmetry_cell_setting 'orthorhombic'
loop_
_space_group_symop_operation_xyz
x,y,z
1/2-x,-y,1/2+z
x,-y,-z
1/2-x,y,1/2-z
-x,-y,-z
1/2+x,y,1/2-z
-x,y,z
1/2+x,-y,1/2+z
loop_
_atom_site_type_symbol
_atom_site_label
_atom_site_fract_x
_atom_site_fract_y
_atom_site_fract_z
Si Si1 0.780284 0.576592 1.000000
Si Si2 0.214704 0.238030 0.146742
Si Si3 0.720189 0.944531 0.500000
Si Si4 0.714536 0.500000 0.354970
Si Si5 0.714704 0.870101 0.353252
Si Si6 0.714704 0.761970 0.353258
Si Si7 0.785296 0.129899 0.146748
Si Si8 0.220178 0.687524 1.000000
O O1 0.723076 0.546591 0.087608
O O2 0.000000 0.577021 1.000000
O O3 0.723077 0.546591 0.912392
O O4 0.719485 0.632042 1.000000
O O5 0.250000 0.246608 0.250000
O O6 0.284312 0.183964 0.124092
O O7 0.279792 0.281154 0.084680
O O8 0.000000 0.236102 0.134534
O O9 0.500000 0.945867 0.500000
O O10 0.779822 0.913229 0.415299
O O11 0.779823 0.913230 0.584702
O O12 0.780856 0.000000 0.500000
O O13 0.750000 0.500000 0.250000
O O14 0.500000 0.500000 0.362639
O O15 0.750000 0.878685 0.250000
O O16 0.500000 0.868165 0.365435
O O17 0.784312 0.816036 0.375908
O O18 0.750000 0.753392 0.250000
O O19 0.500000 0.763898 0.365466
O O20 0.779792 0.718846 0.415320
O O21 0.750000 0.121315 0.250000
O O22 0.000000 0.131835 0.134564
O O23 0.000000 0.686070 1.000000
#
# Coordination Sequence:
#
# PCOD9420059 Si02
#       8
#     8   8   8   8   8   8   8   8
#     4   8  16  30  46  66  91 119 150 180 216 264
#     4   9  17  29  46  67  89 115 147 180 215 258
#     4   9  17  29  46  66  86 112 147 182 216 258
#     4   9  17  31  50  68  88 117 151 185 220 258
#     4   9  17  30  47  66  88 114 145 180 217 258
#     4   9  17  29  46  67  89 115 147 180 215 258
#     4   9  17  30  47  66  88 114 145 180 217 258
#     4   9  16  28  47  67  89 119 151 180 212 258
#
# _framework density 20.661711
#
# number of rings (size 3 to 8) (size 9 to 14) (size 15 to 20)
#    0.000    3.125    0.000    1.500    0.000    4.500 
#    0.000    2.500    0.000    8.250    0.000    0.000 
#    0.000    0.000    0.000    0.000    0.000    0.000 
#
# Total GULP energy -357004.792349 kJ/mol
# GULP energy per Si atom -5578.199880 kJ/mol
# Density = 2.061468 g / cm^3
# Si number density = 20.661711 Si / 1000 Ang^3
#
#
#
# Elastic Constant Matrix: (Units=GPa)
#
#
# Indices 1 2 3 4 5 6 
#
# 1 62.4341 11.0717 -2.1214 0.0000 0.0000 0.0000
# 2 11.0717 259.3896 148.9311 0.0000 0.0000 0.0000
# 3 -2.1214 148.9311 157.8280 0.0000 0.0000 0.0000
# 4 0.0000 0.0000 0.0000 17.4447 0.0000 0.0000
# 5 0.0000 0.0000 0.0000 0.0000 22.4858 0.0000
# 6 0.0000 0.0000 0.0000 0.0000 0.0000 0.9410
#
#
#
# Elastic Compliance Matrix: (Units=1/GPa)
#
#
# Indices 1 2 3 4 5 6 
#
# 1 0.016402 -0.001804 0.001923 0.000000 0.000000 0.000000
# 2 -0.001804 0.008612 -0.008151 0.000000 0.000000 0.000000
# 3 0.001923 -0.008151 0.014053 0.000000 0.000000 0.000000
# 4 0.000000 0.000000 0.000000 0.057324 0.000000 0.000000
# 5 0.000000 0.000000 0.000000 0.000000 0.044473 0.000000
# 6 0.000000 0.000000 0.000000 0.000000 0.000000 1.062651
#
#
# Mechanical properties :
#
#
# Convention : Reuss Voigt Hill
#
# Bulk Modulus (GPa) = 43.47201 88.37937 65.92569
# Shear Modulus (GPa) = 4.07416 29.62567 16.84992
#
# Velocity S-wave (km/s) = 1.40575 3.79072 2.85882
# Velocity P-wave (km/s) = 4.87036 7.87571 6.54779
#
# Compressibility (1/GPa) = 0.02300331
#
# Stress axis : x y z
#
# Youngs Moduli (GPa) = 60.96754 116.11514 71.15770
#
# Poissons Ratio (x) = 0.20949 -0.13683
# Poissons Ratio (y) = 0.11000 0.58000
# Poissons Ratio (z) = -0.11724 0.94644
#
# Static dielectric constant tensor:
#      x y z
#    x 1.782160 0.000000 0.000000 
#    y 0.000000 1.722390 0.000000 
#    z 0.000000 0.000000 1.711310 
# 
# From -- ./inp_files/15040.got.cif
#   From: 2010.05.17/outbox.cif.g08.bks.cpg/sg53_8_cif.got.tgz:15040.got - 2010.06.03 12:45:16.
