data_PCOD9420686
_publ_section_title
;
Structure prediction by ZEFSAII (Michael W. Deem and Ramdas Pophale) SiO2 
 PCOD9420686
Probable space group: P C C A
;
_chemical_formula_sum "Si O2"
_cell_formula_units_Z 44
_cell_length_a 12.393928
_cell_length_b 12.232859
_cell_length_c 12.100615
_cell_angle_alpha 90.000000
_cell_angle_beta 90.000000
_cell_angle_gamma 90.000000
_cell_volume 1834.612644
_symmetry_space_group_name_H-M "P C C A"
_symmetry_group_IT_number 54
_symmetry_cell_setting 'orthorhombic'
loop_
_space_group_symop_operation_xyz
x,y,z
1/2-x,-y,z
1/2+x,-y,1/2-z
-x,y,1/2-z
-x,-y,-z
1/2+x,y,-z
1/2-x,y,1/2+z
x,-y,1/2+z
loop_
_atom_site_type_symbol
_atom_site_label
_atom_site_fract_x
_atom_site_fract_y
_atom_site_fract_z
Si Si1 0.667826 0.917759 0.014870
Si Si2 0.548529 0.063252 0.849865
Si Si3 0.812879 0.680198 0.413196
Si Si4 0.095011 0.696849 0.669080
Si Si5 0.539500 0.605924 0.567162
Si Si6 0.750000 0.500000 0.092857
O O1 0.702863 0.800465 0.967683
O O2 0.750000 0.000000 0.078859
O O3 0.633999 0.994987 0.914411
O O4 0.554761 0.903136 0.077774
O O5 0.500000 0.994464 0.750000
O O6 0.599576 0.174732 0.805359
O O7 0.717939 0.655004 0.324417
O O8 0.795234 0.595221 0.512805
O O9 0.936156 0.661163 0.375424
O O10 0.070533 0.682437 0.538301
O O11 0.000000 0.652049 0.750000
O O12 0.500000 0.500000 0.500000
O O13 0.641536 0.560793 0.637372
#
# Coordination Sequence:
#
# PCOD9420686 Si02
#       6
#     8   8   8   8   8   4
#     4  11  21  36  60  86 118 162 212 264 328 398
#     4  10  22  37  53  85 123 158 209 266 325 395
#     4  10  18  34  58  87 119 158 208 255 319 394
#     4  10  19  34  56  84 117 157 208 264 321 384
#     4   9  17  33  58  86 111 157 202 257 313 384
#     4   8  18  30  58  88 114 150 202 260 310 388
#
# _framework density 23.983264999999999
#
# number of rings (size 3 to 8) (size 9 to 14) (size 15 to 20)
#    0.000    2.182    3.636    0.000    0.000    0.727 
#    0.000    0.000    0.000   49.091    0.000    0.000 
#    0.000    0.000    0.000    0.000    0.000    0.000 
#
# Total GULP energy -245017.685847 kJ/mol
# GULP energy per Si atom -5568.583769 kJ/mol
# Density = 2.392868 g / cm^3
# Si number density = 23.983265 Si / 1000 Ang^3
#
#
#
# Elastic Constant Matrix: (Units=GPa)
#
#
# Indices 1 2 3 4 5 6 
#
# 1 213.4605 31.2611 37.1778 0.0000 0.0000 0.0000
# 2 31.2611 104.0524 0.8943 0.0000 0.0000 0.0000
# 3 37.1778 0.8943 40.9446 0.0000 0.0000 0.0000
# 4 0.0000 0.0000 0.0000 44.3087 0.0000 0.0000
# 5 0.0000 0.0000 0.0000 0.0000 13.6528 0.0000
# 6 0.0000 0.0000 0.0000 0.0000 0.0000 39.5361
#
#
#
# Elastic Compliance Matrix: (Units=1/GPa)
#
#
# Indices 1 2 3 4 5 6 
#
# 1 0.005855 -0.001714 -0.005279 0.000000 0.000000 0.000000
# 2 -0.001714 0.010114 0.001335 0.000000 0.000000 0.000000
# 3 -0.005279 0.001335 0.029187 0.000000 0.000000 0.000000
# 4 0.000000 0.000000 0.000000 0.022569 0.000000 0.000000
# 5 0.000000 0.000000 0.000000 0.000000 0.073245 0.000000
# 6 0.000000 0.000000 0.000000 0.000000 0.000000 0.025293
#
#
# Mechanical properties :
#
#
# Convention : Reuss Voigt Hill
#
# Bulk Modulus (GPa) = 29.54970 55.23599 42.39285
# Shear Modulus (GPa) = 26.47472 38.77447 32.62459
#
# Velocity S-wave (km/s) = 3.32608 4.02522 3.69223
# Velocity P-wave (km/s) = 5.20558 6.68463 5.99092
#
# Compressibility (1/GPa) = 0.03384129
#
# Stress axis : x y z
#
# Youngs Moduli (GPa) = 170.79103 98.87351 34.26132
#
# Poissons Ratio (x) = 0.16944 0.18087
# Poissons Ratio (y) = 0.29269 -0.04574
# Poissons Ratio (z) = 0.90161 -0.13201
#
# Static dielectric constant tensor:
#      x y z
#    x 2.189280 0.000000 0.000000 
#    y 0.000000 3.925180 0.000000 
#    z 0.000000 0.000000 2.278600 
# 
# From -- ./inp_files/12582.got.cif
#   From: 2010.05.17/outbox.cif.g08.bks.cpg/sg54_7_cif.got.tgz:12582.got - 2010.06.03 13:09:01.
