data_PCOD9420532
_publ_section_title
;
Structure prediction by ZEFSAII (Michael W. Deem and Ramdas Pophale) SiO2 
 PCOD9420532
Probable space group: P C C A
;
_chemical_formula_sum "Si O2"
_cell_formula_units_Z 64
_cell_length_a 17.800178
_cell_length_b 9.413904
_cell_length_c 21.637124
_cell_angle_alpha 90.000000
_cell_angle_beta 90.000000
_cell_angle_gamma 90.000000
_cell_volume 3625.714842
_symmetry_space_group_name_H-M "P C C A"
_symmetry_group_IT_number 54
_symmetry_cell_setting 'orthorhombic'
loop_
_space_group_symop_operation_xyz
x,y,z
1/2-x,-y,z
1/2+x,-y,1/2-z
-x,y,1/2-z
-x,-y,-z
1/2+x,y,-z
1/2-x,y,1/2+z
x,-y,1/2+z
loop_
_atom_site_type_symbol
_atom_site_label
_atom_site_fract_x
_atom_site_fract_y
_atom_site_fract_z
Si Si1 0.539336 0.638454 0.529928
Si Si2 0.663154 0.958679 0.863305
Si Si3 0.667254 0.440515 0.533869
Si Si4 0.393761 0.341921 0.099461
Si Si5 0.537588 0.572046 0.313288
Si Si6 0.911747 0.865484 0.758456
Si Si7 0.964639 0.096201 0.446944
Si Si8 0.410595 0.756437 0.371942
O O1 0.500000 0.500000 0.500000
O O2 0.615029 0.572199 0.555189
O O3 0.477931 0.701778 0.576543
O O4 0.555895 0.753271 0.477685
O O5 0.634113 0.021308 0.797886
O O6 0.607078 0.029997 0.913461
O O7 0.750000 0.000000 0.872623
O O8 0.649336 0.790683 0.871233
O O9 0.750000 0.500000 0.537585
O O10 0.647267 0.396567 0.463007
O O11 0.646445 0.307564 0.578016
O O12 0.410807 0.465522 0.148658
O O13 0.500000 0.513888 0.250000
O O14 0.582103 0.715826 0.295311
O O15 0.466832 0.627784 0.352999
O O16 0.879698 0.823815 0.691250
O O17 0.000000 0.908328 0.750000
O O18 0.033218 0.128327 0.400910
O O19 0.000000 0.000000 0.500000
#
# Coordination Sequence:
#
# PCOD9420532 Si02
#       8
#     8   8   8   8   8   8   8   8
#     4  10  19  34  59  86 116 153 199 243 300 372
#     4  12  26  39  58  92 129 163 207 266 311 361
#     4  11  22  34  61  96 126 154 196 266 329 368
#     4  11  21  38  57  90 124 158 199 253 309 376
#     4   9  18  35  63  90 106 150 213 256 280 354
#     4   9  20  38  67  81 107 171 213 247 302 377
#     4  12  20  37  62  87 118 163 204 244 301 388
#     4  10  17  39  64  82 112 157 217 243 302 382
#
# _framework density 17.651692000000001
#
# number of rings (size 3 to 8) (size 9 to 14) (size 15 to 20)
#    0.000    1.750    7.500    0.750    1.750    0.500 
#    0.000    2.500    5.500    0.000    0.000    0.000 
#    0.000    0.000    0.000    0.000    0.000    0.000 
#
# Total GULP energy -356659.010973 kJ/mol
# GULP energy per Si atom -5572.797046 kJ/mol
# Density = 1.761152 g / cm^3
# Si number density = 17.651692 Si / 1000 Ang^3
#
#
#
# Elastic Constant Matrix: (Units=GPa)
#
#
# Indices 1 2 3 4 5 6 
#
# 1 117.8276 39.8311 47.0861 0.0000 0.0000 0.0000
# 2 39.8311 74.5615 47.9232 0.0000 0.0000 0.0000
# 3 47.0861 47.9232 116.6285 0.0000 0.0000 0.0000
# 4 0.0000 0.0000 0.0000 32.6969 0.0000 0.0000
# 5 0.0000 0.0000 0.0000 0.0000 18.9766 0.0000
# 6 0.0000 0.0000 0.0000 0.0000 0.0000 20.6330
#
#
#
# Elastic Compliance Matrix: (Units=1/GPa)
#
#
# Indices 1 2 3 4 5 6 
#
# 1 0.010968 -0.004095 -0.002746 0.000000 0.000000 0.000000
# 2 -0.004095 0.019754 -0.006464 0.000000 0.000000 0.000000
# 3 -0.002746 -0.006464 0.012339 0.000000 0.000000 0.000000
# 4 0.000000 0.000000 0.000000 0.030584 0.000000 0.000000
# 5 0.000000 0.000000 0.000000 0.000000 0.052696 0.000000
# 6 0.000000 0.000000 0.000000 0.000000 0.000000 0.048466
#
#
# Mechanical properties :
#
#
# Convention : Reuss Voigt Hill
#
# Bulk Modulus (GPa) = 60.78083 64.29983 62.54033
# Shear Modulus (GPa) = 24.16633 26.07312 25.11972
#
# Velocity S-wave (km/s) = 3.70410 3.84746 3.77646
# Velocity P-wave (km/s) = 7.26650 7.49956 7.38395
#
# Compressibility (1/GPa) = 0.01645256
#
# Stress axis : x y z
#
# Youngs Moduli (GPa) = 91.17118 50.62380 81.04551
#
# Poissons Ratio (x) = 0.20728 0.22253
# Poissons Ratio (y) = 0.37331 0.52386
# Poissons Ratio (z) = 0.25033 0.32722
#
# Static dielectric constant tensor:
#      x y z
#    x 1.608740 0.000000 0.000000 
#    y 0.000000 1.618650 0.000000 
#    z 0.000000 0.000000 1.658080 
# 
# From -- ./inp_files/24650.got.cif
#   From: 2010.05.17/outbox.cif.g08.bks.cpg/sg54_13_cif.got.tgz:24650.got - 2010.06.03 13:09:01.
