data_PCOD9420063
_publ_section_title
;
Structure prediction by ZEFSAII (Michael W. Deem and Ramdas Pophale) SiO2 
 PCOD9420063
Probable space group: P M N A
;
_chemical_formula_sum "Si O2"
_cell_formula_units_Z 56
_cell_length_a 7.279599
_cell_length_b 12.356345
_cell_length_c 29.298441
_cell_angle_alpha 90.000000
_cell_angle_beta 90.000000
_cell_angle_gamma 90.000000
_cell_volume 2635.372405
_symmetry_space_group_name_H-M "P M N A"
_symmetry_group_IT_number 53
_symmetry_cell_setting 'orthorhombic'
loop_
_space_group_symop_operation_xyz
x,y,z
1/2-x,-y,1/2+z
x,-y,-z
1/2-x,y,1/2-z
-x,-y,-z
1/2+x,y,1/2-z
-x,y,z
1/2+x,-y,1/2+z
loop_
_atom_site_type_symbol
_atom_site_label
_atom_site_fract_x
_atom_site_fract_y
_atom_site_fract_z
Si Si1 0.223877 0.949419 0.614772
Si Si2 0.718239 0.550535 0.803105
Si Si3 0.223780 0.816441 0.525704
Si Si4 0.723018 0.571935 0.957354
Si Si5 0.219421 0.793924 0.696083
Si Si6 0.224050 0.175441 0.579101
Si Si7 0.776618 0.405322 0.619028
O O1 0.280534 0.893245 0.567130
O O2 0.285941 0.881654 0.659103
O O3 0.000000 0.947664 0.615592
O O4 0.279430 0.074388 0.610351
O O5 0.750000 0.534227 0.750000
O O6 0.500000 0.556169 0.811565
O O7 0.789240 0.671837 0.814100
O O8 0.784725 0.448038 0.831870
O O9 0.282663 0.694771 0.538017
O O10 0.281068 0.841007 0.473755
O O11 0.000000 0.819560 0.525187
O O12 0.500000 0.575439 0.957758
O O13 0.777152 0.505095 0.913278
O O14 0.780963 0.500000 0.000000
O O15 0.250000 0.817609 0.750000
O O16 0.000000 0.790140 0.690608
O O17 0.286044 0.290793 0.599066
O O18 0.000000 0.177430 0.578167
O O19 0.000000 0.397946 0.618164
#
# Coordination Sequence:
#
# PCOD9420063 Si02
#       7
#     8   8   8   8   8   8   8
#     4   9  16  24  35  53  78 109 140 167 203 247
#     4   9  17  29  45  63  83 107 138 174 211 248
#     4   9  14  20  31  49  76 109 138 164 198 246
#     4   9  13  18  29  47  72 102 133 161 196 244
#     4   9  17  30  46  63  83 107 137 175 213 245
#     4   9  15  22  32  50  79 112 139 163 198 248
#     4   9  15  23  35  53  79 109 136 166 205 246
#
# _framework density 21.249369000000002
#
# number of rings (size 3 to 8) (size 9 to 14) (size 15 to 20)
#    0.000    3.000    1.429    1.286    0.000    5.143 
#    0.000    0.714    0.000    0.000    0.000    0.000 
#    0.000    4.000    0.000    0.429    0.000    0.000 
#
# Total GULP energy -312461.137463 kJ/mol
# GULP energy per Si atom -5579.663169 kJ/mol
# Density = 2.120100 g / cm^3
# Si number density = 21.249369 Si / 1000 Ang^3
#
#
#
# Elastic Constant Matrix: (Units=GPa)
#
#
# Indices 1 2 3 4 5 6 
#
# 1 90.6732 1.9081 -1.2605 0.0000 0.0000 0.0000
# 2 1.9081 111.0291 82.8571 0.0000 0.0000 0.0000
# 3 -1.2605 82.8571 130.9424 0.0000 0.0000 0.0000
# 4 0.0000 0.0000 0.0000 35.2466 0.0000 0.0000
# 5 0.0000 0.0000 0.0000 0.0000 -12.3541 0.0000
# 6 0.0000 0.0000 0.0000 0.0000 0.0000 -26.7067
#
#
#
# Elastic Compliance Matrix: (Units=1/GPa)
#
#
# Indices 1 2 3 4 5 6 
#
# 1 0.011045 -0.000510 0.000429 0.000000 0.000000 0.000000
# 2 -0.000510 0.017089 -0.010818 0.000000 0.000000 0.000000
# 3 0.000429 -0.010818 0.014487 0.000000 0.000000 0.000000
# 4 0.000000 0.000000 0.000000 0.028372 0.000000 0.000000
# 5 0.000000 0.000000 0.000000 0.000000 -0.080945 0.000000
# 6 0.000000 0.000000 0.000000 0.000000 0.000000 -0.037444
#
#
# Mechanical properties :
#
#
# Convention : Reuss Voigt Hill
#
# Bulk Modulus (GPa) = 48.02559 55.51712 51.77136
# Shear Modulus (GPa) = -267.98985 15.84648 -126.07168
#
# Velocity S-wave (km/s) = -11.24235 2.73378 -7.71093
# Velocity P-wave (km/s) = 12.07769 6.01232 7.40684
#
# Compressibility (1/GPa) = 0.02082223
#
# Stress axis : x y z
#
# Youngs Moduli (GPa) = 90.53615 58.51848 69.02962
#
# Poissons Ratio (x) = 0.02984 -0.02962
# Poissons Ratio (y) = 0.04617 0.74677
# Poissons Ratio (z) = -0.03884 0.63306
#
# Static dielectric constant tensor:
#      x y z
#    x 1.902760 0.000000 0.000000 
#    y 0.000000 1.742680 0.000000 
#    z 0.000000 0.000000 1.762670 
# 
# From -- ./inp_files/34988.got.cif
#   From: 2010.05.17/outbox.cif.g08.bks.cpg/sg53_18_cif.got.tgz:34988.got - 2010.06.03 12:45:16.
