data_PCOD9420458
_publ_section_title
;
Structure prediction by ZEFSAII (Michael W. Deem and Ramdas Pophale) SiO2 
 PCOD9420458
Probable space group: P C C A
;
_chemical_formula_sum "Si O2"
_cell_formula_units_Z 40
_cell_length_a 22.889552
_cell_length_b 7.469282
_cell_length_c 8.486153
_cell_angle_alpha 90.000000
_cell_angle_beta 90.000000
_cell_angle_gamma 90.000000
_cell_volume 1450.865008
_symmetry_space_group_name_H-M "P C C A"
_symmetry_group_IT_number 54
_symmetry_cell_setting 'orthorhombic'
loop_
_space_group_symop_operation_xyz
x,y,z
1/2-x,-y,z
1/2+x,-y,1/2-z
-x,y,1/2-z
-x,-y,-z
1/2+x,y,-z
1/2-x,y,1/2+z
x,-y,1/2+z
loop_
_atom_site_type_symbol
_atom_site_label
_atom_site_fract_x
_atom_site_fract_y
_atom_site_fract_z
Si Si1 0.576493 0.828147 0.920268
Si Si2 0.677521 0.645362 0.104449
Si Si3 0.531448 0.239857 0.918596
Si Si4 0.338258 0.287976 0.541819
Si Si5 0.306162 0.086947 0.139719
O O1 0.552392 0.030955 0.923965
O O2 0.614596 0.738770 0.061739
O O3 0.514811 0.725670 0.939819
O O4 0.630694 0.841741 0.793530
O O5 0.686839 0.675003 0.285206
O O6 0.714388 0.754842 0.975574
O O7 0.683380 0.435899 0.077496
O O8 0.500000 0.267912 0.750000
O O9 0.592649 0.336644 0.941410
O O10 0.327482 0.076537 0.526456
O O11 0.250000 0.000000 0.225446
#
# Coordination Sequence:
#
# PCOD9420458 Si02
#       5
#     8   8   8   8   8
#     4   8  19  35  58  91 120 163 214 254 315 374
#     4  10  23  42  61 100 127 167 219 256 325 382
#     4  10  16  36  62  86 129 167 209 260 310 381
#     4  11  23  41  65  94 134 168 211 267 316 390
#     4   9  21  43  65  89 125 167 216 268 324 374
#
# _framework density 27.569763999999999
#
# number of rings (size 3 to 8) (size 9 to 14) (size 15 to 20)
#    1.200    1.200    2.000    0.000    0.000    4.000 
#   10.800    2.000    0.000    0.000    0.000    0.000 
#    0.000    0.000    0.000    0.000    0.000    0.000 
#
# Total GULP energy -222726.067752 kJ/mol
# GULP energy per Si atom -5568.151694 kJ/mol
# Density = 2.750701 g / cm^3
# Si number density = 27.569764 Si / 1000 Ang^3
#
#
#
# Elastic Constant Matrix: (Units=GPa)
#
#
# Indices 1 2 3 4 5 6 
#
# 1 149.0876 9.9365 40.6884 0.0000 0.0000 0.0000
# 2 9.9365 117.3055 28.7136 0.0000 0.0000 0.0000
# 3 40.6884 28.7136 69.5346 0.0000 0.0000 0.0000
# 4 0.0000 0.0000 0.0000 16.2585 0.0000 0.0000
# 5 0.0000 0.0000 0.0000 0.0000 25.2632 0.0000
# 6 0.0000 0.0000 0.0000 0.0000 0.0000 27.4481
#
#
#
# Elastic Compliance Matrix: (Units=1/GPa)
#
#
# Indices 1 2 3 4 5 6 
#
# 1 0.008011 0.000522 -0.004903 0.000000 0.000000 0.000000
# 2 0.000522 0.009517 -0.004235 0.000000 0.000000 0.000000
# 3 -0.004903 -0.004235 0.018999 0.000000 0.000000 0.000000
# 4 0.000000 0.000000 0.000000 0.061506 0.000000 0.000000
# 5 0.000000 0.000000 0.000000 0.000000 0.039583 0.000000
# 6 0.000000 0.000000 0.000000 0.000000 0.000000 0.036432
#
#
# Mechanical properties :
#
#
# Convention : Reuss Voigt Hill
#
# Bulk Modulus (GPa) = 51.82948 54.95607 53.39278
# Shear Modulus (GPa) = 25.28908 30.89990 28.09449
#
# Velocity S-wave (km/s) = 3.03194 3.35145 3.19569
# Velocity P-wave (km/s) = 5.57648 5.91211 5.74674
#
# Compressibility (1/GPa) = 0.01929404
#
# Stress axis : x y z
#
# Youngs Moduli (GPa) = 124.83165 105.07234 52.63382
#
# Poissons Ratio (x) = -0.05480 0.25806
# Poissons Ratio (y) = -0.06511 0.22292
# Poissons Ratio (z) = 0.61204 0.44501
#
# Static dielectric constant tensor:
#      x y z
#    x 2.325830 0.000000 0.000000 
#    y 0.000000 2.207400 0.000000 
#    z 0.000000 0.000000 2.104480 
# 
# From -- ./inp_files/4999.got.cif
#   From: 2010.05.17/outbox.cif.g08.bks.cpg/sg54_3_cif.got.tgz:4999.got - 2010.06.03 13:09:01.
