data_PCOD9420203
_publ_section_title
;
Structure prediction by ZEFSAII (Michael W. Deem and Ramdas Pophale) SiO2 
 PCOD9420203
Probable space group: P M N A
;
_chemical_formula_sum "Si O2"
_cell_formula_units_Z 48
_cell_length_a 9.000000
_cell_length_b 30.000000
_cell_length_c 9.000000
_cell_angle_alpha 90.000000
_cell_angle_beta 90.000000
_cell_angle_gamma 90.000000
_cell_volume 2430.000000
_symmetry_space_group_name_H-M "P M N A"
_symmetry_group_IT_number 53
_symmetry_cell_setting 'orthorhombic'
loop_
_space_group_symop_operation_xyz
x,y,z
1/2-x,-y,1/2+z
x,-y,-z
1/2-x,y,1/2-z
-x,-y,-z
1/2+x,y,1/2-z
-x,y,z
1/2+x,-y,1/2+z
loop_
_atom_site_type_symbol
_atom_site_label
_atom_site_fract_x
_atom_site_fract_y
_atom_site_fract_z
Si Si1 0.322596 0.544073 0.912549
Si Si2 0.822122 0.111905 0.403891
Si Si3 0.175428 0.783780 0.595508
Si Si4 0.669782 0.371216 0.405676
Si Si5 0.662637 0.039581 0.885518
Si Si6 0.331670 0.715131 0.394789
O O1 0.250000 0.542066 0.750000
O O2 0.500000 0.546430 0.903257
O O3 0.257846 0.588944 0.984852
O O4 0.280036 0.500000 0.000000
O O5 0.750000 0.097815 0.250000
O O6 0.793524 0.163960 0.425049
O O7 0.763640 0.081917 0.537016
O O8 0.000000 0.105082 0.394463
O O9 0.250000 0.769473 0.750000
O O10 0.243801 0.756100 0.463201
O O11 0.000000 0.777128 0.606048
O O12 0.750000 0.363691 0.250000
O O13 0.500000 0.385463 0.382051
O O14 0.669680 0.325291 0.491191
O O15 0.750000 0.021198 0.750000
O O16 0.500000 0.053693 0.834424
O O17 0.650565 0.000000 0.000000
O O18 0.250000 0.698798 0.250000
O O19 0.500000 0.728303 0.362718
#
# Coordination Sequence:
#
# PCOD9420203 Si02
#       6
#     8   8   8   8   8   8
#     4  10  21  36  56  82 110 142 179 219 264 315
#     4   9  19  35  55  81 109 139 178 221 265 317
#     4  10  20  36  58  82 110 144 182 223 268 323
#     4  10  21  37  58  81 106 140 180 221 266 318
#     4  10  21  36  54  78 108 141 179 222 268 319
#     4  11  24  39  56  81 111 144 182 226 276 324
#
# _framework density 19.753086
#
# number of rings (size 3 to 8) (size 9 to 14) (size 15 to 20)
#    0.000    2.000    0.000    4.000    0.000    8.333 
#    0.000    5.000    0.000    0.000    0.000    0.000 
#    0.000    0.000    0.000    0.000    0.000    0.000 
#
# Total GULP energy -267560.374100 kJ/mol
# GULP energy per Si atom -5574.174460 kJ/mol
# Density = 1.970813 g / cm^3
# Si number density = 19.753086 Si / 1000 Ang^3
#
#
#
# Elastic Constant Matrix: (Units=GPa)
#
#
# Indices 1 2 3 4 5 6 
#
# 1 43.4135 46.0940 41.6505 0.0000 0.0000 0.0000
# 2 46.0940 38.0318 25.2916 0.0000 0.0000 0.0000
# 3 41.6505 25.2916 48.4717 0.0000 0.0000 0.0000
# 4 0.0000 0.0000 0.0000 34.6190 0.0000 0.0000
# 5 0.0000 0.0000 0.0000 0.0000 14.5204 0.0000
# 6 0.0000 0.0000 0.0000 0.0000 0.0000 5.7376
#
#
#
# Elastic Compliance Matrix: (Units=1/GPa)
#
#
# Indices 1 2 3 4 5 6 
#
# 1 -0.061452 0.060280 0.021351 0.000000 0.000000 0.000000
# 2 0.060280 -0.018865 -0.041954 0.000000 0.000000 0.000000
# 3 0.021351 -0.041954 0.024175 0.000000 0.000000 0.000000
# 4 0.000000 0.000000 0.000000 0.028886 0.000000 0.000000
# 5 0.000000 0.000000 0.000000 0.000000 0.068869 0.000000
# 6 0.000000 0.000000 0.000000 0.000000 0.000000 0.174290
#
#
# Mechanical properties :
#
#
# Convention : Reuss Voigt Hill
#
# Bulk Modulus (GPa) = 43.07997 39.55435 41.31716
# Shear Modulus (GPa) = 34.65385 12.10078 23.37731
#
# Velocity S-wave (km/s) = 4.19304 2.47776 3.44390
# Velocity P-wave (km/s) = 6.73043 5.31541 6.06434
#
# Compressibility (1/GPa) = 0.02321264
#
# Stress axis : x y z
#
# Youngs Moduli (GPa) = -16.27283 -53.00722 41.36545
#
# Poissons Ratio (x) = 3.19529 -0.88320
# Poissons Ratio (y) = 0.98093 1.73544
# Poissons Ratio (z) = 0.34744 -2.22386
#
# Static dielectric constant tensor:
#      x y z
#    x 1.716840 0.000000 0.000000 
#    y 0.000000 1.694180 0.000000 
#    z 0.000000 0.000000 1.700070 
# 
# From -- ./inp_files/6748.got.cif
#   From: 2010.05.17/outbox.ucp.g08.bks.cvg/sg53_4_cif.got.tgz:6748.got - 2010.06.11 16:32:34.
