data_PCOD9420864
_publ_section_title
;
Structure prediction by ZEFSAII (Michael W. Deem and Ramdas Pophale) SiO2 
 PCOD9420864
Probable space group: P C C A
;
_chemical_formula_sum "Si O2"
_cell_formula_units_Z 60
_cell_length_a 13.901218
_cell_length_b 5.441160
_cell_length_c 31.127309
_cell_angle_alpha 90.000000
_cell_angle_beta 90.000000
_cell_angle_gamma 90.000000
_cell_volume 2354.430785
_symmetry_space_group_name_H-M "P C C A"
_symmetry_group_IT_number 54
_symmetry_cell_setting 'orthorhombic'
loop_
_space_group_symop_operation_xyz
x,y,z
1/2-x,-y,z
1/2+x,-y,1/2-z
-x,y,1/2-z
-x,-y,-z
1/2+x,y,-z
1/2-x,y,1/2+z
x,-y,1/2+z
loop_
_atom_site_type_symbol
_atom_site_label
_atom_site_fract_x
_atom_site_fract_y
_atom_site_fract_z
Si Si1 0.917641 0.355304 0.626785
Si Si2 0.388746 0.850405 0.402237
Si Si3 0.875053 0.355091 0.913211
Si Si4 0.564532 0.249782 0.502930
Si Si5 0.936117 0.249391 0.719054
Si Si6 0.845825 0.627692 0.786764
Si Si7 0.887135 0.857502 0.875215
Si Si8 0.750000 0.000000 0.221818
O O1 0.861078 0.613339 0.625997
O O2 0.972915 0.335498 0.672951
O O3 0.008264 0.377060 0.594199
O O4 0.855641 0.123820 0.610059
O O5 0.380503 0.778038 0.451894
O O6 0.503146 0.878557 0.391487
O O7 0.864830 0.271364 0.962192
O O8 0.841668 0.629634 0.901569
O O9 0.844657 0.127952 0.882862
O O10 0.500000 0.500000 0.500000
O O11 0.500000 0.000000 0.500000
O O12 0.906388 0.438524 0.757343
O O13 0.836940 0.139275 0.700473
O O14 0.000000 0.073544 0.750000
O O15 0.750000 0.500000 0.805437
O O16 0.891038 0.776896 0.825738
O O17 0.803773 0.810081 0.751879
#
# Coordination Sequence:
#
# PCOD9420864 Si02
#       8
#     8   8   8   8   8   8   8   4
#     4  10  20  32  51  83 116 157 214 258 308 380
#     4  10  19  31  50  85 123 155 205 257 312 389
#     4  10  19  31  51  87 120 158 202 258 311 392
#     4  12  16  30  47  78 129 162 189 258 330 374
#     4  11  24  41  65  91 130 180 220 275 338 388
#     4  10  24  42  59  84 123 167 216 275 331 392
#     4  10  19  32  54  76 116 153 204 249 310 375
#     4  10  26  44  62  96 126 170 228 278 330 404
#
# _framework density 25.483868000000001
#
# number of rings (size 3 to 8) (size 9 to 14) (size 15 to 20)
#    0.000    1.600    5.333    1.600    9.333    0.533 
#    0.000    0.000    0.000    0.000    0.000    0.000 
#   12.000    0.000    0.000    0.000    0.000    0.000 
#
# Total GULP energy -334894.800638 kJ/mol
# GULP energy per Si atom -5581.580011 kJ/mol
# Density = 2.542587 g / cm^3
# Si number density = 25.483868 Si / 1000 Ang^3
#
#
#
# Elastic Constant Matrix: (Units=GPa)
#
#
# Indices 1 2 3 4 5 6 
#
# 1 39.8893 2.0254 -3.3287 0.0000 0.0000 0.0000
# 2 2.0254 177.0780 6.4686 0.0000 0.0000 0.0000
# 3 -3.3287 6.4686 155.1136 0.0000 0.0000 0.0000
# 4 0.0000 0.0000 0.0000 -317.3218 0.0000 0.0000
# 5 0.0000 0.0000 0.0000 0.0000 7.4068 0.0000
# 6 0.0000 0.0000 0.0000 0.0000 0.0000 23.8903
#
#
#
# Elastic Compliance Matrix: (Units=1/GPa)
#
#
# Indices 1 2 3 4 5 6 
#
# 1 0.025131 -0.000308 0.000552 0.000000 0.000000 0.000000
# 2 -0.000308 0.005660 -0.000243 0.000000 0.000000 0.000000
# 3 0.000552 -0.000243 0.006469 0.000000 0.000000 0.000000
# 4 0.000000 0.000000 0.000000 -0.003151 0.000000 0.000000
# 5 0.000000 0.000000 0.000000 0.000000 0.135012 0.000000
# 6 0.000000 0.000000 0.000000 0.000000 0.000000 0.041858
#
#
# Mechanical properties :
#
#
# Convention : Reuss Voigt Hill
#
# Bulk Modulus (GPa) = 26.83600 42.49014 34.66307
# Shear Modulus (GPa) = 22.38188 -32.74389 -5.18101
#
# Velocity S-wave (km/s) = 2.96679 -3.58842 -1.42740
# Velocity P-wave (km/s) = 4.72115 0.67785 3.30377
#
# Compressibility (1/GPa) = 0.03726337
#
# Stress axis : x y z
#
# Youngs Moduli (GPa) = 39.79135 176.69059 154.58687
#
# Poissons Ratio (x) = 0.05435 -0.08535
# Poissons Ratio (y) = 0.01224 0.03751
# Poissons Ratio (z) = -0.02197 0.04287
#
# Static dielectric constant tensor:
#      x y z
#    x 1.503050 0.000000 0.000000 
#    y 0.000000 2.173740 0.000000 
#    z 0.000000 0.000000 1.934640 
# 
# From -- ./inp_files/28342.got.cif
#   From: 2010.05.17/outbox.cif.g08.bks.cpg/sg54_15_cif.got.tgz:28342.got - 2010.06.03 13:09:01.
