data_PCOD9420271
_publ_section_title
;
Structure prediction by ZEFSAII (Michael W. Deem and Ramdas Pophale) SiO2 
 PCOD9420271
Probable space group: P M N A
;
_chemical_formula_sum "Si O2"
_cell_formula_units_Z 56
_cell_length_a 15.000000
_cell_length_b 12.000000
_cell_length_c 15.000000
_cell_angle_alpha 90.000000
_cell_angle_beta 90.000000
_cell_angle_gamma 90.000000
_cell_volume 2700.000000
_symmetry_space_group_name_H-M "P M N A"
_symmetry_group_IT_number 53
_symmetry_cell_setting 'orthorhombic'
loop_
_space_group_symop_operation_xyz
x,y,z
1/2-x,-y,1/2+z
x,-y,-z
1/2-x,y,1/2-z
-x,-y,-z
1/2+x,y,1/2-z
-x,y,z
1/2+x,-y,1/2+z
loop_
_atom_site_type_symbol
_atom_site_label
_atom_site_fract_x
_atom_site_fract_y
_atom_site_fract_z
Si Si1 0.600721 0.612076 0.943954
Si Si2 0.750102 0.751819 0.046552
Si Si3 0.891584 0.559366 0.096730
Si Si4 0.353378 0.889487 0.751613
Si Si5 0.105279 0.626626 0.756895
Si Si6 0.903408 0.114487 0.053012
Si Si7 0.103360 0.935831 0.405890
O O1 0.500000 0.663713 0.945793
O O2 0.619575 0.579812 0.841993
O O3 0.597932 0.500000 0.000000
O O4 0.677634 0.687611 0.985853
O O5 0.818366 0.662245 0.096122
O O6 0.684396 0.842540 0.098327
O O7 0.819594 0.815639 0.981839
O O8 0.864661 0.463088 0.168942
O O9 0.000000 0.588122 0.110645
O O10 0.886255 0.500000 0.000000
O O11 0.250000 0.917091 0.750000
O O12 0.360890 0.754137 0.753261
O O13 0.395332 0.916221 0.656269
O O14 0.391055 0.966827 0.830574
O O15 0.000000 0.639149 0.774443
O O16 0.000000 0.172370 0.038510
O O17 0.903158 0.000000 0.000000
O O18 0.000000 0.890421 0.402754
O O19 0.114830 0.000000 0.500000
#
# Coordination Sequence:
#
# PCOD9420271 Si02
#       7
#     8   8   8   8   8   8   8
#     4  10  22  41  63  89 124 166 213 264 320 386
#     4  12  22  40  66  95 132 174 217 272 338 396
#     4  10  22  40  64  98 136 173 219 276 336 399
#     4  12  23  39  67  98 127 166 219 273 326 392
#     4  10  21  40  66  93 123 164 215 269 325 386
#     4  11  24  42  63  90 128 170 212 262 323 391
#     4  11  24  42  65  97 136 175 222 281 340 397
#
# _framework density 20.740741
#
# number of rings (size 3 to 8) (size 9 to 14) (size 15 to 20)
#    0.000    1.143    0.000    7.286    0.000    4.571 
#    0.000    4.286    0.000    6.857    0.000    2.000 
#    0.000    0.000    0.000    0.000    0.000    0.000 
#
# Total GULP energy -312519.838279 kJ/mol
# GULP energy per Si atom -5580.711398 kJ/mol
# Density = 2.069353 g / cm^3
# Si number density = 20.740741 Si / 1000 Ang^3
#
#
#
# Elastic Constant Matrix: (Units=GPa)
#
#
# Indices 1 2 3 4 5 6 
#
# 1 166.7528 57.4084 36.6294 0.0000 0.0000 0.0000
# 2 57.4084 108.5789 74.0484 0.0000 0.0000 0.0000
# 3 36.6294 74.0484 149.6824 0.0000 0.0000 0.0000
# 4 0.0000 0.0000 0.0000 43.7672 0.0000 0.0000
# 5 0.0000 0.0000 0.0000 0.0000 21.6869 0.0000
# 6 0.0000 0.0000 0.0000 0.0000 0.0000 62.7091
#
#
#
# Elastic Compliance Matrix: (Units=1/GPa)
#
#
# Indices 1 2 3 4 5 6 
#
# 1 0.007335 -0.004005 0.000186 0.000000 0.000000 0.000000
# 2 -0.004005 0.016086 -0.006978 0.000000 0.000000 0.000000
# 3 0.000186 -0.006978 0.010087 0.000000 0.000000 0.000000
# 4 0.000000 0.000000 0.000000 0.022848 0.000000 0.000000
# 5 0.000000 0.000000 0.000000 0.000000 0.046111 0.000000
# 6 0.000000 0.000000 0.000000 0.000000 0.000000 0.015947
#
#
# Mechanical properties :
#
#
# Convention : Reuss Voigt Hill
#
# Bulk Modulus (GPa) = 83.92743 84.57630 84.25187
# Shear Modulus (GPa) = 34.72734 42.76117 38.74425
#
# Velocity S-wave (km/s) = 4.09633 4.54552 4.32676
# Velocity P-wave (km/s) = 7.93259 8.27136 8.10375
#
# Compressibility (1/GPa) = 0.01191506
#
# Stress axis : x y z
#
# Youngs Moduli (GPa) = 136.33545 62.16469 99.13640
#
# Poissons Ratio (x) = 0.24899 -0.01849
# Poissons Ratio (y) = 0.54606 0.69175
# Poissons Ratio (z) = -0.02543 0.43377
#
# Static dielectric constant tensor:
#      x y z
#    x 1.805790 0.000000 0.000000 
#    y 0.000000 1.753980 0.000000 
#    z 0.000000 0.000000 1.686670 
# 
# From -- ./inp_files/22843.got.cif
#   From: 2010.05.17/outbox.ucp.g08.bks.cvg/sg53_12_cif.got.tgz:22843.got - 2010.06.11 16:32:34.
