data_PCOD9420189
_publ_section_title
;
Structure prediction by ZEFSAII (Michael W. Deem and Ramdas Pophale) SiO2 
 PCOD9420189
Probable space group: P M N A
;
_chemical_formula_sum "Si O2"
_cell_formula_units_Z 48
_cell_length_a 9.000000
_cell_length_b 21.000000
_cell_length_c 15.000000
_cell_angle_alpha 90.000000
_cell_angle_beta 90.000000
_cell_angle_gamma 90.000000
_cell_volume 2835.000000
_symmetry_space_group_name_H-M "P M N A"
_symmetry_group_IT_number 53
_symmetry_cell_setting 'orthorhombic'
loop_
_space_group_symop_operation_xyz
x,y,z
1/2-x,-y,1/2+z
x,-y,-z
1/2-x,y,1/2-z
-x,-y,-z
1/2+x,y,1/2-z
-x,y,z
1/2+x,-y,1/2+z
loop_
_atom_site_type_symbol
_atom_site_label
_atom_site_fract_x
_atom_site_fract_y
_atom_site_fract_z
Si Si1 0.678329 0.500435 0.847874
Si Si2 0.322040 0.835429 0.348538
Si Si3 0.179157 0.399098 0.500742
Si Si4 0.822458 0.074132 0.508131
Si Si5 0.677614 0.738331 0.507367
Si Si6 0.321301 0.830217 0.848785
O O1 0.750000 0.500786 0.750000
O O2 0.500000 0.500410 0.837352
O O3 0.716711 0.560329 0.911779
O O4 0.717146 0.440077 0.910833
O O5 0.250000 0.831460 0.250000
O O6 0.500000 0.839789 0.338827
O O7 0.260581 0.893885 0.408275
O O8 0.287732 0.776086 0.415111
O O9 0.262634 0.332742 0.500218
O O10 0.000000 0.390505 0.500874
O O11 0.787703 0.109964 0.414722
O O12 0.000000 0.081456 0.522446
O O13 0.786999 0.000000 0.500000
O O14 0.500000 0.740772 0.519610
O O15 0.755838 0.772414 0.591778
O O16 0.250000 0.834320 0.750000
O O17 0.500000 0.824701 0.840314
#
# Coordination Sequence:
#
# PCOD9420189 Si02
#       6
#     8   8   8   8   8   8
#     4   9  19  35  54  76 103 135 171 210 254 306
#     4  10  21  36  54  77 106 139 176 217 260 309
#     4   9  19  36  54  74 104 139 170 206 258 312
#     4   9  19  36  56  79 107 138 173 214 261 310
#     4  10  21  36  54  78 105 135 175 218 259 307
#     4  10  20  35  55  77 105 139 173 213 259 308
#
# _framework density 16.931217
#
# number of rings (size 3 to 8) (size 9 to 14) (size 15 to 20)
#    0.000    2.500    0.000    2.500    0.000    6.333 
#    0.000    8.333    0.000    0.000    0.000    0.000 
#    0.000    0.000    0.000    0.000    0.000    0.000 
#
# Total GULP energy -267647.538690 kJ/mol
# GULP energy per Si atom -5575.990389 kJ/mol
# Density = 1.689268 g / cm^3
# Si number density = 16.931217 Si / 1000 Ang^3
#
#
#
# Elastic Constant Matrix: (Units=GPa)
#
#
# Indices 1 2 3 4 5 6 
#
# 1 67.0752 57.9874 75.2896 0.0000 0.0000 0.0000
# 2 57.9874 145.9752 86.6552 0.0000 0.0000 0.0000
# 3 75.2896 86.6552 206.3222 0.0000 0.0000 0.0000
# 4 0.0000 0.0000 0.0000 10.5915 0.0000 0.0000
# 5 0.0000 0.0000 0.0000 0.0000 41.1428 0.0000
# 6 0.0000 0.0000 0.0000 0.0000 0.0000 25.5687
#
#
#
# Elastic Compliance Matrix: (Units=1/GPa)
#
#
# Indices 1 2 3 4 5 6 
#
# 1 0.030069 -0.007235 -0.007934 0.000000 0.000000 0.000000
# 2 -0.007235 0.010866 -0.001924 0.000000 0.000000 0.000000
# 3 -0.007934 -0.001924 0.008550 0.000000 0.000000 0.000000
# 4 0.000000 0.000000 0.000000 0.094415 0.000000 0.000000
# 5 0.000000 0.000000 0.000000 0.000000 0.024306 0.000000
# 6 0.000000 0.000000 0.000000 0.000000 0.000000 0.039110
#
#
# Mechanical properties :
#
#
# Convention : Reuss Voigt Hill
#
# Bulk Modulus (GPa) = 65.35871 95.47078 80.41475
# Shear Modulus (GPa) = 20.27563 28.75662 24.51612
#
# Velocity S-wave (km/s) = 3.46429 4.12568 3.80937
# Velocity P-wave (km/s) = 7.39513 8.89971 8.18208
#
# Compressibility (1/GPa) = 0.01530018
#
# Stress axis : x y z
#
# Youngs Moduli (GPa) = 33.25727 92.02612 116.95951
#
# Poissons Ratio (x) = 0.66579 0.92794
# Poissons Ratio (y) = 0.24061 0.22501
# Poissons Ratio (z) = 0.26386 0.17705
#
# Static dielectric constant tensor:
#      x y z
#    x 1.568600 0.000000 0.000000 
#    y 0.000000 1.579040 0.000000 
#    z 0.000000 0.000000 1.534120 
# 
# From -- ./inp_files/20329.got.cif
#   From: 2010.05.17/outbox.ucp.g08.bks.cvg/sg53_11_cif.got.tgz:20329.got - 2010.06.11 16:32:34.
