data_PCOD9420814
_publ_section_title
;
Structure prediction by ZEFSAII (Michael W. Deem and Ramdas Pophale) SiO2 
 PCOD9420814
Probable space group: P C C A
;
_chemical_formula_sum "Si O2"
_cell_formula_units_Z 52
_cell_length_a 5.074686
_cell_length_b 16.917944
_cell_length_c 30.562250
_cell_angle_alpha 90.000000
_cell_angle_beta 90.000000
_cell_angle_gamma 90.000000
_cell_volume 2623.868599
_symmetry_space_group_name_H-M "P C C A"
_symmetry_group_IT_number 54
_symmetry_cell_setting 'orthorhombic'
loop_
_space_group_symop_operation_xyz
x,y,z
1/2-x,-y,z
1/2+x,-y,1/2-z
-x,y,1/2-z
-x,-y,-z
1/2+x,y,-z
1/2-x,y,1/2+z
x,-y,1/2+z
loop_
_atom_site_type_symbol
_atom_site_label
_atom_site_fract_x
_atom_site_fract_y
_atom_site_fract_z
Si Si1 0.481969 0.110405 0.388470
Si Si2 0.926236 0.209263 0.204848
Si Si3 0.512397 0.784134 0.389619
Si Si4 0.646568 0.915971 0.982942
Si Si5 0.425875 0.900384 0.704895
Si Si6 0.319817 0.326410 0.968052
Si Si7 0.250000 0.500000 0.968363
O O1 0.182498 0.139776 0.389837
O O2 0.555172 0.070361 0.433872
O O3 0.527349 0.064046 0.343187
O O4 0.686513 0.184946 0.390212
O O5 0.969247 0.252070 0.158859
O O6 0.633384 0.173091 0.205595
O O7 0.000000 0.252327 0.250000
O O8 0.132832 0.135144 0.205100
O O9 0.408481 0.730306 0.428728
O O10 0.750000 0.000000 0.001534
O O11 0.424827 0.872302 0.010909
O O12 0.500000 0.944621 0.750000
O O13 0.285279 0.414495 0.946632
O O14 0.545171 0.317458 0.005545
O O15 0.500000 0.500000 0.000000
#
# Coordination Sequence:
#
# PCOD9420814 Si02
#       7
#     8   8   8   8   8   8   4
#     4  10  19  30  45  66  89 113 141 180 222 258
#     4   8  14  25  39  57  85 112 135 165 202 250
#     4  10  19  28  43  68  91 111 141 178 223 262
#     4  10  21  35  48  62  83 116 154 182 209 256
#     4   8  14  25  41  61  83 108 134 164 207 255
#     4  10  19  30  43  61  88 118 146 178 215 258
#     4   8  16  30  44  56  78 116 152 174 200 248
#
# _framework density 19.818066999999999
#
# number of rings (size 3 to 8) (size 9 to 14) (size 15 to 20)
#    0.000    2.769    0.000    1.846    0.000    3.692 
#    0.000    0.000    0.000    0.000    0.000   14.000 
#    0.000   19.692    0.000    0.000    0.000   28.000 
#
# Total GULP energy -289483.751068 kJ/mol
# GULP energy per Si atom -5566.995213 kJ/mol
# Density = 1.977296 g / cm^3
# Si number density = 19.818067 Si / 1000 Ang^3
#
#
#
# Elastic Constant Matrix: (Units=GPa)
#
#
# Indices 1 2 3 4 5 6 
#
# 1 107.4131 -4.8141 8.9321 0.0000 0.0000 0.0000
# 2 -4.8141 48.0638 22.2756 0.0000 0.0000 0.0000
# 3 8.9321 22.2756 165.8899 0.0000 0.0000 0.0000
# 4 0.0000 0.0000 0.0000 53.0532 0.0000 0.0000
# 5 0.0000 0.0000 0.0000 0.0000 29.7660 0.0000
# 6 0.0000 0.0000 0.0000 0.0000 0.0000 15.3249
#
#
#
# Elastic Compliance Matrix: (Units=1/GPa)
#
#
# Indices 1 2 3 4 5 6 
#
# 1 0.009422 0.001257 -0.000676 0.000000 0.000000 0.000000
# 2 0.001257 0.022354 -0.003069 0.000000 0.000000 0.000000
# 3 -0.000676 -0.003069 0.006477 0.000000 0.000000 0.000000
# 4 0.000000 0.000000 0.000000 0.018849 0.000000 0.000000
# 5 0.000000 0.000000 0.000000 0.000000 0.033595 0.000000
# 6 0.000000 0.000000 0.000000 0.000000 0.000000 0.065253
#
#
# Mechanical properties :
#
#
# Convention : Reuss Voigt Hill
#
# Bulk Modulus (GPa) = 30.05135 41.57267 35.81201
# Shear Modulus (GPa) = 29.06641 39.29369 34.18005
#
# Velocity S-wave (km/s) = 3.83386 4.45761 4.15745
# Velocity P-wave (km/s) = 5.89868 6.89321 6.41525
#
# Compressibility (1/GPa) = 0.03327638
#
# Stress axis : x y z
#
# Youngs Moduli (GPa) = 106.12988 44.73449 154.40069
#
# Poissons Ratio (x) = -0.05624 0.10440
# Poissons Ratio (y) = -0.13342 0.47392
# Poissons Ratio (z) = 0.07176 0.13731
#
# Static dielectric constant tensor:
#      x y z
#    x 2.007780 0.000000 0.000000 
#    y 0.000000 1.833580 0.000000 
#    z 0.000000 0.000000 1.787180 
# 
# From -- ./inp_files/27266.got.cif
#   From: 2010.05.17/outbox.cif.g08.bks.cpg/sg54_14_cif.got.tgz:27266.got - 2010.06.03 13:09:01.
