data_PCOD9420794
_publ_section_title
;
Structure prediction by ZEFSAII (Michael W. Deem and Ramdas Pophale) SiO2 
 PCOD9420794
Probable space group: P C C A
;
_chemical_formula_sum "Si O2"
_cell_formula_units_Z 40
_cell_length_a 15.096167
_cell_length_b 13.985630
_cell_length_c 9.655435
_cell_angle_alpha 90.000000
_cell_angle_beta 90.000000
_cell_angle_gamma 90.000000
_cell_volume 2038.546257
_symmetry_space_group_name_H-M "P C C A"
_symmetry_group_IT_number 54
_symmetry_cell_setting 'orthorhombic'
loop_
_space_group_symop_operation_xyz
x,y,z
1/2-x,-y,z
1/2+x,-y,1/2-z
-x,y,1/2-z
-x,-y,-z
1/2+x,y,-z
1/2-x,y,1/2+z
x,-y,1/2+z
loop_
_atom_site_type_symbol
_atom_site_label
_atom_site_fract_x
_atom_site_fract_y
_atom_site_fract_z
Si Si1 0.649432 0.777308 0.517556
Si Si2 0.050996 0.387682 0.120718
Si Si3 0.813760 0.215564 0.838999
Si Si4 0.483700 0.905230 0.588131
Si Si5 0.573807 0.600836 0.861685
O O1 0.624219 0.672801 0.459950
O O2 0.688299 0.787225 0.672158
O O3 0.721581 0.812699 0.408209
O O4 0.556318 0.831570 0.529496
O O5 0.090456 0.489387 0.172032
O O6 0.000000 0.339973 0.250000
O O7 0.973610 0.402092 0.009147
O O8 0.888833 0.147324 0.906220
O O9 0.846260 0.324719 0.866782
O O10 0.500000 0.926442 0.750000
O O11 0.500000 0.000000 0.500000
O O12 0.500000 0.636829 0.750000
#
# Coordination Sequence:
#
# PCOD9420794 Si02
#       5
#     8   8   8   8   8
#     4  11  24  41  62  93 126 164 206 254 312 373
#     4  10  21  34  62  92 121 167 215 250 300 360
#     4  11  23  41  63  89 127 164 204 257 312 371
#     4  10  23  45  68  88 119 157 199 256 319 374
#     4  10  18  39  61  84 127 170 205 255 304 357
#
# _framework density 19.621827
#
# number of rings (size 3 to 8) (size 9 to 14) (size 15 to 20)
#    0.000    1.600    4.000    0.600    2.800    4.000 
#    0.000    6.000    0.000    0.000    0.000    0.000 
#    0.000    0.000    0.000    0.000    0.000    0.000 
#
# Total GULP energy -222937.372795 kJ/mol
# GULP energy per Si atom -5573.434320 kJ/mol
# Density = 1.957717 g / cm^3
# Si number density = 19.621827 Si / 1000 Ang^3
#
#
#
# Elastic Constant Matrix: (Units=GPa)
#
#
# Indices 1 2 3 4 5 6 
#
# 1 47.9307 -1.4287 21.4359 0.0000 0.0000 0.0000
# 2 -1.4287 56.6835 6.2322 0.0000 0.0000 0.0000
# 3 21.4359 6.2322 71.7888 0.0000 0.0000 0.0000
# 4 0.0000 0.0000 0.0000 34.6713 0.0000 0.0000
# 5 0.0000 0.0000 0.0000 0.0000 35.4027 0.0000
# 6 0.0000 0.0000 0.0000 0.0000 0.0000 0.6295
#
#
#
# Elastic Compliance Matrix: (Units=1/GPa)
#
#
# Indices 1 2 3 4 5 6 
#
# 1 0.024191 0.001417 -0.007346 0.000000 0.000000 0.000000
# 2 0.001417 0.017895 -0.001977 0.000000 0.000000 0.000000
# 3 -0.007346 -0.001977 0.016295 0.000000 0.000000 0.000000
# 4 0.000000 0.000000 0.000000 0.028842 0.000000 0.000000
# 5 0.000000 0.000000 0.000000 0.000000 0.028246 0.000000
# 6 0.000000 0.000000 0.000000 0.000000 0.000000 1.588677
#
#
# Mechanical properties :
#
#
# Convention : Reuss Voigt Hill
#
# Bulk Modulus (GPa) = 23.49096 25.43131 24.46114
# Shear Modulus (GPa) = 2.88326 24.15160 13.51743
#
# Velocity S-wave (km/s) = 1.21351 3.51216 2.62753
# Velocity P-wave (km/s) = 3.73648 5.42548 4.65817
#
# Compressibility (1/GPa) = 0.04256956
#
# Stress axis : x y z
#
# Youngs Moduli (GPa) = 41.33725 55.88193 61.36852
#
# Poissons Ratio (x) = -0.07921 0.45084
# Poissons Ratio (y) = -0.05859 0.12131
# Poissons Ratio (z) = 0.30368 0.11046
#
# Static dielectric constant tensor:
#      x y z
#    x 1.684600 0.000000 0.000000 
#    y 0.000000 1.758600 0.000000 
#    z 0.000000 0.000000 1.689710 
# 
# From -- ./inp_files/3435.got.cif
#   From: 2010.05.17/outbox.cif.g08.bks.cpg/sg54_2_cif.got.tgz:3435.got - 2010.06.03 13:09:01.
