data_PCOD9420521
_publ_section_title
;
Structure prediction by ZEFSAII (Michael W. Deem and Ramdas Pophale) SiO2 
 PCOD9420521
Probable space group: P C C A
;
_chemical_formula_sum "Si O2"
_cell_formula_units_Z 64
_cell_length_a 11.804072
_cell_length_b 14.088333
_cell_length_c 20.374711
_cell_angle_alpha 90.000000
_cell_angle_beta 90.000000
_cell_angle_gamma 90.000000
_cell_volume 3388.308268
_symmetry_space_group_name_H-M "P C C A"
_symmetry_group_IT_number 54
_symmetry_cell_setting 'orthorhombic'
loop_
_space_group_symop_operation_xyz
x,y,z
1/2-x,-y,z
1/2+x,-y,1/2-z
-x,y,1/2-z
-x,-y,-z
1/2+x,y,-z
1/2-x,y,1/2+z
x,-y,1/2+z
loop_
_atom_site_type_symbol
_atom_site_label
_atom_site_fract_x
_atom_site_fract_y
_atom_site_fract_z
Si Si1 0.001381 0.109145 0.482795
Si Si2 0.298360 0.105098 0.880245
Si Si3 0.003466 0.620858 0.915996
Si Si4 0.243472 0.703166 0.931825
Si Si5 0.530222 0.594684 0.574356
Si Si6 0.133638 0.250000 0.571421
Si Si7 0.129417 0.942952 0.736556
Si Si8 0.143281 0.199914 0.119566
O O1 0.093161 0.120543 0.425499
O O2 0.046974 0.173441 0.541611
O O3 0.888478 0.147200 0.448908
O O4 0.000000 0.000000 0.500000
O O5 0.222719 0.194669 0.901621
O O6 0.334284 0.105458 0.804902
O O7 0.250000 0.000000 0.894179
O O8 0.125899 0.665883 0.901824
O O9 0.004918 0.509885 0.898944
O O10 0.914530 0.695943 0.886033
O O11 0.987601 0.611438 0.995328
O O12 0.341551 0.628467 0.917544
O O13 0.210370 0.713649 0.009165
O O14 0.438645 0.666639 0.602771
O O15 0.222165 0.208067 0.621757
O O16 0.107514 0.866514 0.679526
O O17 0.000000 0.987691 0.750000
O O18 0.250000 0.000000 0.719891
#
# Coordination Sequence:
#
# PCOD9420521 Si02
#       8
#     8   8   8   8   8   8   8   8
#     4  11  23  34  56  86 126 158 192 239 310 379
#     4  10  22  37  59  84 114 161 202 245 304 362
#     4  10  19  32  54  85 116 160 198 241 304 374
#     4  10  17  36  54  83 119 152 201 242 301 371
#     4  10  19  32  53  83 124 155 191 248 308 371
#     4  10  21  33  50  89 122 152 193 245 307 373
#     4  11  24  45  65  89 120 166 219 260 300 370
#     4  12  22  40  58  88 123 156 210 246 307 371
#
# _framework density 18.888483000000001
#
# number of rings (size 3 to 8) (size 9 to 14) (size 15 to 20)
#    0.000    1.500    6.250    0.375    7.000    0.500 
#    2.250    0.000    0.000    0.000   16.250    0.000 
#    0.000    0.000    0.000    0.000    0.000    0.000 
#
# Total GULP energy -356376.221127 kJ/mol
# GULP energy per Si atom -5568.378455 kJ/mol
# Density = 1.884549 g / cm^3
# Si number density = 18.888483 Si / 1000 Ang^3
#
#
#
# Elastic Constant Matrix: (Units=GPa)
#
#
# Indices 1 2 3 4 5 6 
#
# 1 87.3653 42.5037 15.0014 0.0000 0.0000 0.0000
# 2 42.5037 147.8998 21.2778 0.0000 0.0000 0.0000
# 3 15.0014 21.2778 21.5832 0.0000 0.0000 0.0000
# 4 0.0000 0.0000 0.0000 13.6234 0.0000 0.0000
# 5 0.0000 0.0000 0.0000 0.0000 14.1352 0.0000
# 6 0.0000 0.0000 0.0000 0.0000 0.0000 26.4191
#
#
#
# Elastic Compliance Matrix: (Units=1/GPa)
#
#
# Indices 1 2 3 4 5 6 
#
# 1 0.014107 -0.003080 -0.006768 0.000000 0.000000 0.000000
# 2 -0.003080 0.008551 -0.006289 0.000000 0.000000 0.000000
# 3 -0.006768 -0.006289 0.057237 0.000000 0.000000 0.000000
# 4 0.000000 0.000000 0.000000 0.073403 0.000000 0.000000
# 5 0.000000 0.000000 0.000000 0.000000 0.070745 0.000000
# 6 0.000000 0.000000 0.000000 0.000000 0.000000 0.037851
#
#
# Mechanical properties :
#
#
# Convention : Reuss Voigt Hill
#
# Bulk Modulus (GPa) = 20.99992 46.04602 33.52297
# Shear Modulus (GPa) = 16.12671 22.70656 19.41664
#
# Velocity S-wave (km/s) = 2.92513 3.47095 3.20966
# Velocity P-wave (km/s) = 4.74874 6.36349 5.61447
#
# Compressibility (1/GPa) = 0.04761923
#
# Stress axis : x y z
#
# Youngs Moduli (GPa) = 70.88686 116.93991 17.47125
#
# Poissons Ratio (x) = 0.36022 0.11825
# Poissons Ratio (y) = 0.21836 0.10988
# Poissons Ratio (z) = 0.47978 0.73548
#
# Static dielectric constant tensor:
#      x y z
#    x 1.724060 0.000000 0.000000 
#    y 0.000000 1.830960 0.000000 
#    z 0.000000 0.000000 1.638350 
# 
# From -- ./inp_files/24269.got.cif
#   From: 2010.05.17/outbox.cif.g08.bks.cpg/sg54_13_cif.got.tgz:24269.got - 2010.06.03 13:09:01.
