data_PCOD9420697
_publ_section_title
;
Structure prediction by ZEFSAII (Michael W. Deem and Ramdas Pophale) SiO2 
 PCOD9420697
Probable space group: P C C A
;
_chemical_formula_sum "Si O2"
_cell_formula_units_Z 64
_cell_length_a 22.431124
_cell_length_b 8.084461
_cell_length_c 14.985772
_cell_angle_alpha 90.000000
_cell_angle_beta 90.000000
_cell_angle_gamma 90.000000
_cell_volume 2717.573051
_symmetry_space_group_name_H-M "P C C A"
_symmetry_group_IT_number 54
_symmetry_cell_setting 'orthorhombic'
loop_
_space_group_symop_operation_xyz
x,y,z
1/2-x,-y,z
1/2+x,-y,1/2-z
-x,y,1/2-z
-x,-y,-z
1/2+x,y,-z
1/2-x,y,1/2+z
x,-y,1/2+z
loop_
_atom_site_type_symbol
_atom_site_label
_atom_site_fract_x
_atom_site_fract_y
_atom_site_fract_z
Si Si1 0.823303 0.185183 0.453179
Si Si2 0.124126 0.215802 0.301123
Si Si3 0.432417 0.696102 0.748105
Si Si4 0.246446 0.194993 0.223412
Si Si5 0.586655 0.602821 0.368527
Si Si6 0.065064 0.045762 0.600626
Si Si7 0.474144 0.748852 0.438172
Si Si8 0.345070 0.161662 0.350062
O O1 0.769707 0.195685 0.381655
O O2 0.861119 0.350865 0.436051
O O3 0.810001 0.168323 0.557170
O O4 0.872045 0.040136 0.428860
O O5 0.190611 0.275602 0.274968
O O6 0.089047 0.253885 0.209036
O O7 0.082813 0.290251 0.377270
O O8 0.135956 0.027215 0.331653
O O9 0.500000 0.638755 0.750000
O O10 0.401695 0.560431 0.686628
O O11 0.430423 0.870813 0.696587
O O12 0.405383 0.730669 0.845419
O O13 0.307681 0.244667 0.269309
O O14 0.250000 0.000000 0.245298
O O15 0.524654 0.612776 0.420747
O O16 0.049221 0.197589 0.534478
O O17 0.010478 0.916059 0.592515
#
# Coordination Sequence:
#
# PCOD9420697 Si02
#       8
#     8   8   8   8   8   8   8   8
#     4  10  21  43  65  91 126 166 209 268 321 378
#     4  10  18  37  60  88 119 160 207 253 311 372
#     4  12  25  39  59  92 130 170 210 264 317 384
#     4   9  20  36  62  95 122 157 206 270 318 372
#     4  10  23  39  60  87 129 170 203 258 315 370
#     4  10  21  35  59  93 122 161 207 258 307 379
#     4  10  18  34  60  88 123 162 206 250 313 375
#     4  11  22  41  66  93 122 164 212 260 321 376
#
# _framework density 23.550424
#
# number of rings (size 3 to 8) (size 9 to 14) (size 15 to 20)
#    0.000    1.750    1.250    4.875    3.500    2.000 
#    4.500    2.500    0.000    3.000    0.000    0.000 
#    0.000    0.000    0.000    0.000    0.000    0.000 
#
# Total GULP energy -356936.714776 kJ/mol
# GULP energy per Si atom -5577.136168 kJ/mol
# Density = 2.349682 g / cm^3
# Si number density = 23.550424 Si / 1000 Ang^3
#
#
#
# Elastic Constant Matrix: (Units=GPa)
#
#
# Indices 1 2 3 4 5 6 
#
# 1 52.2414 0.2182 12.1449 0.0000 0.0000 0.0000
# 2 0.2182 49.6390 8.8996 0.0000 0.0000 0.0000
# 3 12.1449 8.8996 78.1627 0.0000 0.0000 0.0000
# 4 0.0000 0.0000 0.0000 21.0597 0.0000 0.0000
# 5 0.0000 0.0000 0.0000 0.0000 26.5650 0.0000
# 6 0.0000 0.0000 0.0000 0.0000 0.0000 6.5158
#
#
#
# Elastic Compliance Matrix: (Units=1/GPa)
#
#
# Indices 1 2 3 4 5 6 
#
# 1 0.019870 0.000476 -0.003142 0.000000 0.000000 0.000000
# 2 0.000476 0.020577 -0.002417 0.000000 0.000000 0.000000
# 3 -0.003142 -0.002417 0.013557 0.000000 0.000000 0.000000
# 4 0.000000 0.000000 0.000000 0.047484 0.000000 0.000000
# 5 0.000000 0.000000 0.000000 0.000000 0.037643 0.000000
# 6 0.000000 0.000000 0.000000 0.000000 0.000000 0.153473
#
#
# Mechanical properties :
#
#
# Convention : Reuss Voigt Hill
#
# Bulk Modulus (GPa) = 22.81073 24.72984 23.77029
# Shear Modulus (GPa) = 15.75386 21.41348 18.58367
#
# Velocity S-wave (km/s) = 2.58920 3.01867 2.81214
# Velocity P-wave (km/s) = 4.31805 4.76166 4.54527
#
# Compressibility (1/GPa) = 0.04383902
#
# Stress axis : x y z
#
# Youngs Moduli (GPa) = 50.32647 48.59876 73.76184
#
# Poissons Ratio (x) = -0.02313 0.23173
# Poissons Ratio (y) = -0.02395 0.17827
# Poissons Ratio (z) = 0.15811 0.11745
#
# Static dielectric constant tensor:
#      x y z
#    x 1.990050 0.000000 0.000000 
#    y 0.000000 1.914640 0.000000 
#    z 0.000000 0.000000 1.914740 
# 
# From -- ./inp_files/15012.got.cif
#   From: 2010.05.17/outbox.cif.g08.bks.cpg/sg54_8_cif.got.tgz:15012.got - 2010.06.03 13:09:01.
