data_PCOD9420890
_publ_section_title
;
Structure prediction by ZEFSAII (Michael W. Deem and Ramdas Pophale) SiO2 
 PCOD9420890
Probable space group: P C C A
;
_chemical_formula_sum "Si O2"
_cell_formula_units_Z 56
_cell_length_a 5.257217
_cell_length_b 31.865859
_cell_length_c 17.918588
_cell_angle_alpha 90.000000
_cell_angle_beta 90.000000
_cell_angle_gamma 90.000000
_cell_volume 3001.824637
_symmetry_space_group_name_H-M "P C C A"
_symmetry_group_IT_number 54
_symmetry_cell_setting 'orthorhombic'
loop_
_space_group_symop_operation_xyz
x,y,z
1/2-x,-y,z
1/2+x,-y,1/2-z
-x,y,1/2-z
-x,-y,-z
1/2+x,y,-z
1/2-x,y,1/2+z
x,-y,1/2+z
loop_
_atom_site_type_symbol
_atom_site_label
_atom_site_fract_x
_atom_site_fract_y
_atom_site_fract_z
Si Si1 0.498765 0.472282 0.338429
Si Si2 0.181945 0.306519 0.952803
Si Si3 0.751531 0.936054 0.705567
Si Si4 0.156412 0.789127 0.449944
Si Si5 0.536796 0.606126 0.552366
Si Si6 0.249627 0.951560 0.467097
Si Si7 0.249959 0.834785 0.295777
O O1 0.250000 0.500000 0.353728
O O2 0.500000 0.462285 0.250000
O O3 0.478174 0.430858 0.388096
O O4 0.750000 0.500000 0.355010
O O5 0.476311 0.308891 0.978708
O O6 0.152971 0.259580 0.922614
O O7 0.091069 0.348190 0.909780
O O8 0.500000 0.948498 0.750000
O O9 0.748994 0.951742 0.621336
O O10 0.757685 0.885439 0.701202
O O11 0.000000 0.950189 0.750000
O O12 0.383362 0.795455 0.510284
O O13 0.220058 0.817502 0.379006
O O14 0.276422 0.603318 0.504519
O O15 0.499894 0.930602 0.499836
O O16 0.250000 0.000000 0.494957
O O17 0.500000 0.820918 0.250000
O O18 0.000000 0.822339 0.250000
#
# Coordination Sequence:
#
# PCOD9420890 Si02
#       7
#     8   8   8   8   8   8   8
#     4  10  21  35  49  68  98 130 157 194 244 290
#     4   8  16  30  48  72  99 124 156 202 246 283
#     4  10  21  36  54  76 104 140 176 211 257 314
#     4  10  19  33  55  78 100 134 176 207 246 310
#     4  10  19  32  52  74  96 124 161 203 240 281
#     4  10  21  36  54  78 107 136 171 220 267 305
#     4  10  21  36  52  76 110 138 167 216 267 301
#
# _framework density 18.655321000000001
#
# number of rings (size 3 to 8) (size 9 to 14) (size 15 to 20)
#    0.000    2.286    0.000    2.571    0.000    3.429 
#    0.000    0.714    0.000    2.571    0.000    0.000 
#    0.000    0.000    0.000    0.000    0.000    0.000 
#
# Total GULP energy -312146.687836 kJ/mol
# GULP energy per Si atom -5574.047997 kJ/mol
# Density = 1.861286 g / cm^3
# Si number density = 18.655321 Si / 1000 Ang^3
#
#
#
# Elastic Constant Matrix: (Units=GPa)
#
#
# Indices 1 2 3 4 5 6 
#
# 1 166.6389 24.9560 41.6890 0.0000 0.0000 0.0000
# 2 24.9560 58.9207 24.5593 0.0000 0.0000 0.0000
# 3 41.6890 24.5593 60.5229 0.0000 0.0000 0.0000
# 4 0.0000 0.0000 0.0000 25.1307 0.0000 0.0000
# 5 0.0000 0.0000 0.0000 0.0000 22.2104 0.0000
# 6 0.0000 0.0000 0.0000 0.0000 0.0000 13.2133
#
#
#
# Elastic Compliance Matrix: (Units=1/GPa)
#
#
# Indices 1 2 3 4 5 6 
#
# 1 0.007320 -0.001202 -0.004555 0.000000 0.000000 0.000000
# 2 -0.001202 0.020624 -0.007541 0.000000 0.000000 0.000000
# 3 -0.004555 -0.007541 0.022720 0.000000 0.000000 0.000000
# 4 0.000000 0.000000 0.000000 0.039792 0.000000 0.000000
# 5 0.000000 0.000000 0.000000 0.000000 0.045024 0.000000
# 6 0.000000 0.000000 0.000000 0.000000 0.000000 0.075681
#
#
# Mechanical properties :
#
#
# Convention : Reuss Voigt Hill
#
# Bulk Modulus (GPa) = 41.54677 52.05457 46.80067
# Shear Modulus (GPa) = 20.34332 25.10275 22.72304
#
# Velocity S-wave (km/s) = 3.30583 3.67223 3.49384
# Velocity P-wave (km/s) = 6.07375 6.77822 6.43563
#
# Compressibility (1/GPa) = 0.02406926
#
# Stress axis : x y z
#
# Youngs Moduli (GPa) = 136.60276 48.48627 44.01405
#
# Poissons Ratio (x) = 0.05829 0.20047
# Poissons Ratio (y) = 0.16422 0.33191
# Poissons Ratio (z) = 0.62218 0.36564
#
# Static dielectric constant tensor:
#      x y z
#    x 1.655340 0.000000 0.000000 
#    y 0.000000 1.686940 0.000000 
#    z 0.000000 0.000000 1.590340 
# 
# From -- ./inp_files/10985.got.cif
#   From: 2010.05.17/outbox.cif.g08.bks.cpg/sg54_6_cif.got.tgz:10985.got - 2010.06.03 13:09:01.
