data_PCOD9420213
_publ_section_title
;
Structure prediction by ZEFSAII (Michael W. Deem and Ramdas Pophale) SiO2 
 PCOD9420213
Probable space group: P M N A
;
_chemical_formula_sum "Si O2"
_cell_formula_units_Z 56
_cell_length_a 9.000000
_cell_length_b 21.000000
_cell_length_c 15.000000
_cell_angle_alpha 90.000000
_cell_angle_beta 90.000000
_cell_angle_gamma 90.000000
_cell_volume 2835.000000
_symmetry_space_group_name_H-M "P M N A"
_symmetry_group_IT_number 53
_symmetry_cell_setting 'orthorhombic'
loop_
_space_group_symop_operation_xyz
x,y,z
1/2-x,-y,1/2+z
x,-y,-z
1/2-x,y,1/2-z
-x,-y,-z
1/2+x,y,1/2-z
-x,y,z
1/2+x,-y,1/2+z
loop_
_atom_site_type_symbol
_atom_site_label
_atom_site_fract_x
_atom_site_fract_y
_atom_site_fract_z
Si Si1 0.326558 0.140554 0.033869
Si Si2 0.678493 0.715586 0.966892
Si Si3 0.176549 0.958489 0.841671
Si Si4 0.676618 0.663938 0.153378
Si Si5 0.678069 0.393306 0.349060
Si Si6 0.322190 0.480039 0.848406
Si Si7 0.325128 0.903611 0.161677
O O1 0.500000 0.125309 0.053246
O O2 0.295254 0.212269 0.063782
O O3 0.309164 0.136847 0.927392
O O4 0.224424 0.088718 0.080412
O O5 0.500000 0.703105 0.961149
O O6 0.721073 0.708266 0.071104
O O7 0.766923 0.665470 0.907813
O O8 0.250000 0.934025 0.750000
O O9 0.000000 0.963099 0.833727
O O10 0.247080 0.028312 0.855216
O O11 0.750000 0.673762 0.250000
O O12 0.500000 0.669779 0.166985
O O13 0.704868 0.591529 0.118572
O O14 0.750000 0.387222 0.250000
O O15 0.500000 0.396497 0.342320
O O16 0.743422 0.458921 0.390907
O O17 0.250000 0.478167 0.750000
O O18 0.500000 0.490372 0.845115
O O19 0.250000 0.875485 0.250000
O O20 0.500000 0.913921 0.178190
#
# Coordination Sequence:
#
# PCOD9420213 Si02
#       7
#     8   8   8   8   8   8   8
#     4  10  22  39  58  80 112 151 187 225 269 320
#     4  10  22  40  57  78 110 150 190 223 266 326
#     4  11  22  37  60  87 114 144 181 226 275 325
#     4   9  19  35  57  82 110 144 182 226 275 325
#     4  11  22  37  57  81 108 141 181 229 281 330
#     4   9  16  30  53  80 107 138 177 223 276 329
#     4  10  20  36  59  87 116 146 182 224 271 321
#
# _framework density 19.753086
#
# number of rings (size 3 to 8) (size 9 to 14) (size 15 to 20)
#    0.000    2.000    0.000    5.571    0.000    6.286 
#    0.000    2.857    0.000    0.000    0.000    0.000 
#    0.000    0.000    0.000    0.000    0.000    0.000 
#
# Total GULP energy -312636.605234 kJ/mol
# GULP energy per Si atom -5582.796522 kJ/mol
# Density = 1.970813 g / cm^3
# Si number density = 19.753086 Si / 1000 Ang^3
#
#
#
# Elastic Constant Matrix: (Units=GPa)
#
#
# Indices 1 2 3 4 5 6 
#
# 1 99.2943 26.2774 19.7844 0.0000 0.0000 0.0000
# 2 26.2774 33.5129 8.4880 0.0000 0.0000 0.0000
# 3 19.7844 8.4880 48.6388 0.0000 0.0000 0.0000
# 4 0.0000 0.0000 0.0000 201.8521 0.0000 0.0000
# 5 0.0000 0.0000 0.0000 0.0000 30.7295 0.0000
# 6 0.0000 0.0000 0.0000 0.0000 0.0000 7.6903
#
#
#
# Elastic Compliance Matrix: (Units=1/GPa)
#
#
# Indices 1 2 3 4 5 6 
#
# 1 0.013336 -0.009503 -0.003766 0.000000 0.000000 0.000000
# 2 -0.009503 0.037991 -0.002764 0.000000 0.000000 0.000000
# 3 -0.003766 -0.002764 0.022574 0.000000 0.000000 0.000000
# 4 0.000000 0.000000 0.000000 0.004954 0.000000 0.000000
# 5 0.000000 0.000000 0.000000 0.000000 0.032542 0.000000
# 6 0.000000 0.000000 0.000000 0.000000 0.000000 0.130034
#
#
# Mechanical properties :
#
#
# Convention : Reuss Voigt Hill
#
# Bulk Modulus (GPa) = 23.90412 32.28285 28.09348
# Shear Modulus (GPa) = 17.39474 56.51412 36.95443
#
# Velocity S-wave (km/s) = 2.97072 5.35466 4.32999
# Velocity P-wave (km/s) = 4.88822 7.38976 6.26511
#
# Compressibility (1/GPa) = 0.04183380
#
# Stress axis : x y z
#
# Youngs Moduli (GPa) = 74.98249 26.32219 44.29854
#
# Poissons Ratio (x) = 0.25014 0.16684
# Poissons Ratio (y) = 0.71257 0.12245
# Poissons Ratio (z) = 0.28241 0.07276
#
# Static dielectric constant tensor:
#      x y z
#    x 1.657150 0.000000 0.000000 
#    y 0.000000 1.712990 0.000000 
#    z 0.000000 0.000000 1.674680 
# 
# From -- ./inp_files/20472.got.cif
#   From: 2010.05.17/outbox.ucp.g08.bks.cvg/sg53_11_cif.got.tgz:20472.got - 2010.06.11 16:32:34.
