data_PCOD9420049
_publ_section_title
;
Structure prediction by ZEFSAII (Michael W. Deem and Ramdas Pophale) SiO2 
 PCOD9420049
Probable space group: P M N A
;
_chemical_formula_sum "Si O2"
_cell_formula_units_Z 48
_cell_length_a 7.397424
_cell_length_b 17.151361
_cell_length_c 19.056052
_cell_angle_alpha 90.000000
_cell_angle_beta 90.000000
_cell_angle_gamma 90.000000
_cell_volume 2417.753548
_symmetry_space_group_name_H-M "P M N A"
_symmetry_group_IT_number 53
_symmetry_cell_setting 'orthorhombic'
loop_
_space_group_symop_operation_xyz
x,y,z
1/2-x,-y,1/2+z
x,-y,-z
1/2-x,y,1/2-z
-x,-y,-z
1/2+x,y,1/2-z
-x,y,z
1/2+x,-y,1/2+z
loop_
_atom_site_type_symbol
_atom_site_label
_atom_site_fract_x
_atom_site_fract_y
_atom_site_fract_z
Si Si1 0.284629 0.164319 0.169824
Si Si2 0.719933 0.758161 0.041900
Si Si3 0.279101 0.083162 0.028812
Si Si4 0.783692 0.656085 0.331633
Si Si5 0.779501 0.676878 0.601370
Si Si6 0.284034 0.481725 0.167745
O O1 0.250000 0.142151 0.250000
O O2 0.500000 0.167148 0.161744
O O3 0.220389 0.106900 0.107763
O O4 0.219512 0.252164 0.151998
O O5 0.500000 0.760296 0.043116
O O6 0.783854 0.720884 0.114386
O O7 0.776950 0.845261 0.021331
O O8 0.770997 0.702463 0.976954
O O9 0.500000 0.081517 0.029207
O O10 0.217961 0.000000 0.000000
O O11 0.750000 0.672768 0.250000
O O12 0.714027 0.568684 0.348055
O O13 0.000000 0.652998 0.340089
O O14 0.714240 0.592176 0.624729
O O15 0.000000 0.675029 0.603864
O O16 0.250000 0.467417 0.250000
O O17 0.500000 0.484309 0.157039
#
# Coordination Sequence:
#
# PCOD9420049 Si02
#       6
#     8   8   8   8   8   8
#     4   9  16  26  42  63  85 107 131 163 201 239
#     4   8  14  25  41  60  79 101 133 169 201 233
#     4   8  14  26  44  63  82 106 136 167 198 236
#     4   9  17  28  42  59  80 107 136 167 200 233
#     4   8  14  24  39  60  82 103 132 168 199 231
#     4   9  16  25  38  57  81 108 135 163 197 234
#
# _framework density 19.853141000000001
#
# number of rings (size 3 to 8) (size 9 to 14) (size 15 to 20)
#    0.000    3.500    0.000    2.500    0.000    0.667 
#    0.000    4.167    0.000    5.500    0.000    4.667 
#    0.000    0.000    0.000    0.000    0.000    0.000 
#
# Total GULP energy -267552.113514 kJ/mol
# GULP energy per Si atom -5574.002365 kJ/mol
# Density = 1.980795 g / cm^3
# Si number density = 19.853141 Si / 1000 Ang^3
#
#
#
# Elastic Constant Matrix: (Units=GPa)
#
#
# Indices 1 2 3 4 5 6 
#
# 1 66.2885 7.2504 1.0835 0.0000 0.0000 0.0000
# 2 7.2504 181.5399 135.0473 0.0000 0.0000 0.0000
# 3 1.0835 135.0473 148.3762 0.0000 0.0000 0.0000
# 4 0.0000 0.0000 0.0000 25.3907 0.0000 0.0000
# 5 0.0000 0.0000 0.0000 0.0000 16.1236 0.0000
# 6 0.0000 0.0000 0.0000 0.0000 0.0000 -6.3300
#
#
#
# Elastic Compliance Matrix: (Units=1/GPa)
#
#
# Indices 1 2 3 4 5 6 
#
# 1 0.015241 -0.001629 0.001371 0.000000 0.000000 0.000000
# 2 -0.001629 0.017232 -0.015672 0.000000 0.000000 0.000000
# 3 0.001371 -0.015672 0.020994 0.000000 0.000000 0.000000
# 4 0.000000 0.000000 0.000000 0.039385 0.000000 0.000000
# 5 0.000000 0.000000 0.000000 0.000000 0.062021 0.000000
# 6 0.000000 0.000000 0.000000 0.000000 0.000000 -0.157978
#
#
# Mechanical properties :
#
#
# Convention : Reuss Voigt Hill
#
# Bulk Modulus (GPa) = 46.27975 75.88524 61.08249
# Shear Modulus (GPa) = 139.05763 23.89173 81.47468
#
# Velocity S-wave (km/s) = 8.37826 3.47280 6.41309
# Velocity P-wave (km/s) = 10.81458 7.37474 9.25586
#
# Compressibility (1/GPa) = 0.02160772
#
# Stress axis : x y z
#
# Youngs Moduli (GPa) = 65.61123 58.03200 47.63314
#
# Poissons Ratio (x) = 0.09451 -0.06530
# Poissons Ratio (y) = 0.10685 0.74651
# Poissons Ratio (z) = -0.08995 0.90948
#
# Static dielectric constant tensor:
#      x y z
#    x 1.772220 0.000000 0.000000 
#    y 0.000000 1.689580 0.000000 
#    z 0.000000 0.000000 1.680010 
# 
# From -- ./inp_files/14912.got.cif
#   From: 2010.05.17/outbox.cif.g08.bks.cpg/sg53_8_cif.got.tgz:14912.got - 2010.06.03 12:45:16.
