data_PCOD9420048
_publ_section_title
;
Structure prediction by ZEFSAII (Michael W. Deem and Ramdas Pophale) SiO2 
 PCOD9420048
Probable space group: P M N A
;
_chemical_formula_sum "Si O2"
_cell_formula_units_Z 48
_cell_length_a 8.860189
_cell_length_b 7.377793
_cell_length_c 33.658884
_cell_angle_alpha 90.000000
_cell_angle_beta 90.000000
_cell_angle_gamma 90.000000
_cell_volume 2200.235484
_symmetry_space_group_name_H-M "P M N A"
_symmetry_group_IT_number 53
_symmetry_cell_setting 'orthorhombic'
loop_
_space_group_symop_operation_xyz
x,y,z
1/2-x,-y,1/2+z
x,-y,-z
1/2-x,y,1/2-z
-x,-y,-z
1/2+x,y,1/2-z
-x,y,z
1/2+x,-y,1/2+z
loop_
_atom_site_type_symbol
_atom_site_label
_atom_site_fract_x
_atom_site_fract_y
_atom_site_fract_z
Si Si1 0.172515 0.968463 0.042869
Si Si2 0.825195 0.493676 0.709399
Si Si3 0.672521 0.534492 0.456436
Si Si4 0.681749 0.535056 0.123972
Si Si5 0.182551 0.940944 0.127562
Si Si6 0.675503 0.050889 0.791097
O O1 0.165378 0.751611 0.046690
O O2 0.232781 0.031602 0.085763
O O3 0.000000 0.039411 0.039870
O O4 0.247949 0.000000 0.000000
O O5 0.750000 0.557007 0.750000
O O6 0.766622 0.552010 0.665867
O O7 0.815375 0.272424 0.709256
O O8 0.000000 0.542585 0.711368
O O9 0.739935 0.500000 0.500000
O O10 0.500000 0.465721 0.456251
O O11 0.758220 0.461543 0.417912
O O12 0.500000 0.540498 0.123913
O O13 0.746943 0.739252 0.126123
O O14 0.241162 0.016471 0.169299
O O15 0.000000 0.931555 0.127428
O O16 0.750000 0.989886 0.750000
O O17 0.500000 0.002918 0.792752
#
# Coordination Sequence:
#
# PCOD9420048 Si02
#       6
#     8   8   8   8   8   8
#     4   8  14  25  41  59  79 105 135 165 198 238
#     4   8  14  21  30  46  68  95 125 154 184 224
#     4   9  17  28  42  60  80 103 134 170 203 236
#     4   9  16  25  36  52  75 103 133 162 197 241
#     4   9  15  23  36  53  74 101 132 165 201 238
#     4   9  15  22  32  48  72 101 132 163 197 240
#
# _framework density 21.815847000000002
#
# number of rings (size 3 to 8) (size 9 to 14) (size 15 to 20)
#    0.000    3.333    0.000    3.500    0.000    5.000 
#    0.000    0.000    0.000   12.500    0.000    0.000 
#    0.000    1.333    0.000    5.667    0.000    4.667 
#
# Total GULP energy -267327.615083 kJ/mol
# GULP energy per Si atom -5569.325314 kJ/mol
# Density = 2.176619 g / cm^3
# Si number density = 21.815847 Si / 1000 Ang^3
#
#
#
# Elastic Constant Matrix: (Units=GPa)
#
#
# Indices 1 2 3 4 5 6 
#
# 1 58.9034 1.5322 76.1432 0.0000 0.0000 0.0000
# 2 1.5322 70.8132 8.3606 0.0000 0.0000 0.0000
# 3 76.1432 8.3606 314.3634 0.0000 0.0000 0.0000
# 4 0.0000 0.0000 0.0000 6.0820 0.0000 0.0000
# 5 0.0000 0.0000 0.0000 0.0000 39.7502 0.0000
# 6 0.0000 0.0000 0.0000 0.0000 0.0000 -9.6068
#
#
#
# Elastic Compliance Matrix: (Units=1/GPa)
#
#
# Indices 1 2 3 4 5 6 
#
# 1 0.024718 0.000173 -0.005992 0.000000 0.000000 0.000000
# 2 0.000173 0.014167 -0.000419 0.000000 0.000000 0.000000
# 3 -0.005992 -0.000419 0.004643 0.000000 0.000000 0.000000
# 4 0.000000 0.000000 0.000000 0.164419 0.000000 0.000000
# 5 0.000000 0.000000 0.000000 0.000000 0.025157 0.000000
# 6 0.000000 0.000000 0.000000 0.000000 0.000000 -0.104093
#
#
# Mechanical properties :
#
#
# Convention : Reuss Voigt Hill
#
# Bulk Modulus (GPa) = 32.20276 68.46132 50.33204
# Shear Modulus (GPa) = 32.93011 31.11471 32.02241
#
# Velocity S-wave (km/s) = 3.88939 3.78066 3.83541
# Velocity P-wave (km/s) = 5.91295 7.10686 6.53722
#
# Compressibility (1/GPa) = 0.03105324
#
# Stress axis : x y z
#
# Youngs Moduli (GPa) = 40.45705 70.58484 215.35961
#
# Poissons Ratio (x) = -0.01218 1.29033
# Poissons Ratio (y) = -0.00698 0.09015
# Poissons Ratio (z) = 0.24240 0.02955
#
# Static dielectric constant tensor:
#      x y z
#    x 1.736660 0.000000 0.000000 
#    y 0.000000 1.954590 0.000000 
#    z 0.000000 0.000000 1.892870 
# 
# From -- ./inp_files/37908.got.cif
#   From: 2010.05.17/outbox.cif.g08.bks.cpg/sg53_19_cif.got.tgz:37908.got - 2010.06.03 12:45:16.
