data_PCOD9420448
_publ_section_title
;
Structure prediction by ZEFSAII (Michael W. Deem and Ramdas Pophale) SiO2 
 PCOD9420448
Probable space group: P C C A
;
_chemical_formula_sum "Si O2"
_cell_formula_units_Z 48
_cell_length_a 14.380092
_cell_length_b 10.390702
_cell_length_c 13.967313
_cell_angle_alpha 90.000000
_cell_angle_beta 90.000000
_cell_angle_gamma 90.000000
_cell_volume 2086.985443
_symmetry_space_group_name_H-M "P C C A"
_symmetry_group_IT_number 54
_symmetry_cell_setting 'orthorhombic'
loop_
_space_group_symop_operation_xyz
x,y,z
1/2-x,-y,z
1/2+x,-y,1/2-z
-x,y,1/2-z
-x,-y,-z
1/2+x,y,-z
1/2-x,y,1/2+z
x,-y,1/2+z
loop_
_atom_site_type_symbol
_atom_site_label
_atom_site_fract_x
_atom_site_fract_y
_atom_site_fract_z
Si Si1 0.247185 0.265499 0.484942
Si Si2 0.000000 0.722754 0.750000
Si Si3 0.658467 0.557700 0.185248
Si Si4 0.750000 0.000000 0.629693
Si Si5 0.578111 0.846924 0.929693
Si Si6 0.062471 0.385274 0.958020
Si Si7 0.946860 0.955401 0.634407
O O1 0.191665 0.355479 0.407126
O O2 0.178457 0.222715 0.571108
O O3 0.342190 0.339661 0.509869
O O4 0.269392 0.132082 0.429268
O O5 0.908260 0.638290 0.752150
O O6 0.010900 0.818857 0.837804
O O7 0.750000 0.500000 0.232112
O O8 0.599637 0.440206 0.142471
O O9 0.652837 0.023299 0.684887
O O10 0.503804 0.735299 0.946236
O O11 0.526909 0.939090 0.854317
O O12 0.583379 0.938217 0.023784
O O13 0.000000 0.500000 0.000000
#
# Coordination Sequence:
#
# PCOD9420448 Si02
#       7
#     8   4   8   4   8   8   8
#     4  10  19  34  59  91 119 159 205 248 308 377
#     4  12  20  42  66  82 122 170 214 260 310 382
#     4  10  22  37  62  89 116 170 216 247 305 386
#     4  10  16  34  58  90 110 158 206 256 286 382
#     4  10  19  36  58  95 119 154 202 262 311 370
#     4  11  19  33  61  89 122 154 202 259 302 374
#     4  10  21  34  65  89 121 156 209 256 317 365
#
# _framework density 22.999683999999998
#
# number of rings (size 3 to 8) (size 9 to 14) (size 15 to 20)
#    0.000    1.667    6.667    0.000    0.000    0.000 
#    0.000    0.833   14.667    0.000    0.000    0.000 
#    0.000    0.000    0.000    0.000    0.000    0.000 
#
# Total GULP energy -267686.057525 kJ/mol
# GULP energy per Si atom -5576.792865 kJ/mol
# Density = 2.294734 g / cm^3
# Si number density = 22.999684 Si / 1000 Ang^3
#
#
#
# Elastic Constant Matrix: (Units=GPa)
#
#
# Indices 1 2 3 4 5 6 
#
# 1 220.2927 90.8603 32.0137 0.0000 0.0000 0.0000
# 2 90.8603 110.2376 7.1434 0.0000 0.0000 0.0000
# 3 32.0137 7.1434 24.7851 0.0000 0.0000 0.0000
# 4 0.0000 0.0000 0.0000 64.6704 0.0000 0.0000
# 5 0.0000 0.0000 0.0000 0.0000 22.9571 0.0000
# 6 0.0000 0.0000 0.0000 0.0000 0.0000 61.3231
#
#
#
# Elastic Compliance Matrix: (Units=1/GPa)
#
#
# Indices 1 2 3 4 5 6 
#
# 1 0.008522 -0.006431 -0.009154 0.000000 0.000000 0.000000
# 2 -0.006431 0.014097 0.004244 0.000000 0.000000 0.000000
# 3 -0.009154 0.004244 0.050948 0.000000 0.000000 0.000000
# 4 0.000000 0.000000 0.000000 0.015463 0.000000 0.000000
# 5 0.000000 0.000000 0.000000 0.000000 0.043560 0.000000
# 6 0.000000 0.000000 0.000000 0.000000 0.000000 0.016307
#
#
# Mechanical properties :
#
#
# Convention : Reuss Voigt Hill
#
# Bulk Modulus (GPa) = 19.65258 68.37224 44.01241
# Shear Modulus (GPa) = 26.51942 44.80998 35.66470
#
# Velocity S-wave (km/s) = 3.39932 4.41873 3.94211
# Velocity P-wave (km/s) = 4.89596 7.47165 6.31649
#
# Compressibility (1/GPa) = 0.05088390
#
# Stress axis : x y z
#
# Youngs Moduli (GPa) = 117.34012 70.93752 19.62792
#
# Poissons Ratio (x) = 0.45620 0.17968
# Poissons Ratio (y) = 0.75462 -0.08330
# Poissons Ratio (z) = 1.07416 -0.30104
#
# Static dielectric constant tensor:
#      x y z
#    x 1.922970 0.000000 0.000000 
#    y 0.000000 1.845530 0.000000 
#    z 0.000000 0.000000 1.944840 
# 
# From -- ./inp_files/17346.got.cif
#   From: 2010.05.17/outbox.cif.g08.bks.cpg/sg54_9_cif.got.tgz:17346.got - 2010.06.03 13:09:01.
