data_PCOD9420985
_publ_section_title
;
Structure prediction by ZEFSAII (Michael W. Deem and Ramdas Pophale) SiO2 
 PCOD9420985
Probable space group: P C C A
;
_chemical_formula_sum "Si O2"
_cell_formula_units_Z 40
_cell_length_a 8.947548
_cell_length_b 10.565037
_cell_length_c 23.143961
_cell_angle_alpha 90.000000
_cell_angle_beta 90.000000
_cell_angle_gamma 90.000000
_cell_volume 2187.825843
_symmetry_space_group_name_H-M "P C C A"
_symmetry_group_IT_number 54
_symmetry_cell_setting 'orthorhombic'
loop_
_space_group_symop_operation_xyz
x,y,z
1/2-x,-y,z
1/2+x,-y,1/2-z
-x,y,1/2-z
-x,-y,-z
1/2+x,y,-z
1/2-x,y,1/2+z
x,-y,1/2+z
loop_
_atom_site_type_symbol
_atom_site_label
_atom_site_fract_x
_atom_site_fract_y
_atom_site_fract_z
Si Si1 0.673748 0.139784 0.323978
Si Si2 0.240208 0.362680 0.585782
Si Si3 0.262597 0.849872 0.425065
Si Si4 0.682541 0.860218 0.694892
Si Si5 0.990751 0.721337 0.000159
O O1 0.723498 0.241982 0.371765
O O2 0.492741 0.127745 0.322067
O O3 0.706868 0.192103 0.259187
O O4 0.750000 0.000000 0.332525
O O5 0.250000 0.500000 0.615425
O O6 0.385479 0.349173 0.545325
O O7 0.100032 0.357712 0.541532
O O8 0.262918 0.796536 0.359731
O O9 0.119085 0.798059 0.458307
O O10 0.404612 0.811840 0.462258
O O11 0.250000 0.000000 0.421056
O O12 0.750000 0.000000 0.700172
#
# Coordination Sequence:
#
# PCOD9420985 Si02
#       5
#     8   8   8   8   8
#     4  10  21  37  62  86 112 152 193 235 286 340
#     4  11  23  40  60  82 116 153 194 237 287 343
#     4  10  19  33  56  88 117 145 184 242 285 338
#     4   9  19  36  59  83 120 149 185 230 293 339
#     4  10  22  36  56  81 115 154 192 228 291 346
#
# _framework density 18.282990000000002
#
# number of rings (size 3 to 8) (size 9 to 14) (size 15 to 20)
#    0.000    2.000    2.000    1.200    5.600    3.200 
#    0.000    0.000    8.800    0.000    0.000    0.000 
#    0.000    0.000    0.000    0.000    0.000    0.000 
#
# Total GULP energy -222832.824226 kJ/mol
# GULP energy per Si atom -5570.820606 kJ/mol
# Density = 1.824138 g / cm^3
# Si number density = 18.282990 Si / 1000 Ang^3
#
#
#
# Elastic Constant Matrix: (Units=GPa)
#
#
# Indices 1 2 3 4 5 6 
#
# 1 55.6660 27.4067 25.8495 0.0000 0.0000 0.0000
# 2 27.4067 95.5278 48.9358 0.0000 0.0000 0.0000
# 3 25.8495 48.9358 129.7405 0.0000 0.0000 0.0000
# 4 0.0000 0.0000 0.0000 -9.2649 0.0000 0.0000
# 5 0.0000 0.0000 0.0000 0.0000 11.2872 0.0000
# 6 0.0000 0.0000 0.0000 0.0000 0.0000 -9.4005
#
#
#
# Elastic Compliance Matrix: (Units=1/GPa)
#
#
# Indices 1 2 3 4 5 6 
#
# 1 0.021519 -0.004930 -0.002428 0.000000 0.000000 0.000000
# 2 -0.004930 0.014105 -0.004338 0.000000 0.000000 0.000000
# 3 -0.002428 -0.004338 0.009828 0.000000 0.000000 0.000000
# 4 0.000000 0.000000 0.000000 -0.107934 0.000000 0.000000
# 5 0.000000 0.000000 0.000000 0.000000 0.088596 0.000000
# 6 0.000000 0.000000 0.000000 0.000000 0.000000 -0.106377
#
#
# Mechanical properties :
#
#
# Convention : Reuss Voigt Hill
#
# Bulk Modulus (GPa) = 45.33134 53.92427 49.62781
# Shear Modulus (GPa) = -100.96978 10.44051 -45.26464
#
# Velocity S-wave (km/s) = -7.43949 2.39226 -4.98112
# Velocity P-wave (km/s) = 6.99618 6.09826 2.42464
#
# Compressibility (1/GPa) = 0.02205979
#
# Stress axis : x y z
#
# Youngs Moduli (GPa) = 46.47061 70.89852 101.75453
#
# Poissons Ratio (x) = 0.34953 0.24705
# Poissons Ratio (y) = 0.22910 0.44139
# Poissons Ratio (z) = 0.11283 0.30754
#
# Static dielectric constant tensor:
#      x y z
#    x 1.634660 0.000000 0.000000 
#    y 0.000000 1.600450 0.000000 
#    z 0.000000 0.000000 1.674670 
# 
# From -- ./inp_files/20274.got.cif
#   From: 2010.05.17/outbox.cif.g08.bks.cpg/sg54_11_cif.got.tgz:20274.got - 2010.06.03 13:09:01.
