data_PCOD9420480
_publ_section_title
;
Structure prediction by ZEFSAII (Michael W. Deem and Ramdas Pophale) SiO2 
 PCOD9420480
Probable space group: P C C A
;
_chemical_formula_sum "Si O2"
_cell_formula_units_Z 60
_cell_length_a 22.448554
_cell_length_b 16.023220
_cell_length_c 9.332862
_cell_angle_alpha 90.000000
_cell_angle_beta 90.000000
_cell_angle_gamma 90.000000
_cell_volume 3357.012910
_symmetry_space_group_name_H-M "P C C A"
_symmetry_group_IT_number 54
_symmetry_cell_setting 'orthorhombic'
loop_
_space_group_symop_operation_xyz
x,y,z
1/2-x,-y,z
1/2+x,-y,1/2-z
-x,y,1/2-z
-x,-y,-z
1/2+x,y,-z
1/2-x,y,1/2+z
x,-y,1/2+z
loop_
_atom_site_type_symbol
_atom_site_label
_atom_site_fract_x
_atom_site_fract_y
_atom_site_fract_z
Si Si1 0.119628 0.049339 0.832074
Si Si2 0.500000 0.338731 0.250000
Si Si3 0.548953 0.188882 0.076409
Si Si4 0.808831 0.944709 0.889252
Si Si5 0.372514 0.206013 0.709829
Si Si6 0.436810 0.466790 0.056039
Si Si7 0.957433 0.098628 0.109992
Si Si8 0.425691 0.615388 0.258768
O O1 0.087070 0.136898 0.808598
O O2 0.141264 0.998453 0.695363
O O3 0.070927 0.991404 0.911450
O O4 0.173584 0.059967 0.943883
O O5 0.529522 0.278234 0.133198
O O6 0.451427 0.397239 0.174890
O O7 0.589842 0.193135 0.935932
O O8 0.491906 0.137777 0.022381
O O9 0.813600 0.850763 0.822221
O O10 0.750000 0.000000 0.872099
O O11 0.404749 0.160316 0.841903
O O12 0.384379 0.303496 0.738538
O O13 0.410611 0.546977 0.137053
O O14 0.500000 0.500000 0.000000
O O15 0.411067 0.424635 0.913708
O O16 0.000000 0.093732 0.250000
O O17 0.500000 0.632634 0.250000
#
# Coordination Sequence:
#
# PCOD9420480 Si02
#       8
#     8   4   8   8   8   8   8   8
#     4  10  21  33  52  74  97 139 175 209 271 315
#     4  12  20  26  42  68 104 144 180 206 252 292
#     4  10  20  27  43  72 106 138 170 215 243 307
#     4  10  21  38  55  71  96 134 177 230 274 311
#     4   9  18  32  49  69  96 139 179 211 258 312
#     4  10  18  29  43  66  97 150 178 206 247 301
#     4   9  17  31  47  68 104 140 171 202 254 310
#     4  10  17  29  48  66 103 141 179 208 250 311
#
# _framework density 17.873034000000001
#
# number of rings (size 3 to 8) (size 9 to 14) (size 15 to 20)
#    0.000    2.133    2.000    5.200    2.800    0.000 
#    0.000    0.000    0.000    0.000    0.000    0.000 
#    0.000    1.067    5.867    0.267    0.000    0.000 
#
# Total GULP energy -334046.834911 kJ/mol
# GULP energy per Si atom -5567.447249 kJ/mol
# Density = 1.783235 g / cm^3
# Si number density = 17.873034 Si / 1000 Ang^3
#
#
#
# Elastic Constant Matrix: (Units=GPa)
#
#
# Indices 1 2 3 4 5 6 
#
# 1 38.9264 26.7754 9.7551 0.0000 0.0000 0.0000
# 2 26.7754 121.5913 15.6774 0.0000 0.0000 0.0000
# 3 9.7551 15.6774 56.7792 0.0000 0.0000 0.0000
# 4 0.0000 0.0000 0.0000 27.2317 0.0000 0.0000
# 5 0.0000 0.0000 0.0000 0.0000 10.4429 0.0000
# 6 0.0000 0.0000 0.0000 0.0000 0.0000 26.1817
#
#
#
# Elastic Compliance Matrix: (Units=1/GPa)
#
#
# Indices 1 2 3 4 5 6 
#
# 1 0.030955 -0.006357 -0.003563 0.000000 0.000000 0.000000
# 2 -0.006357 0.009833 -0.001623 0.000000 0.000000 0.000000
# 3 -0.003563 -0.001623 0.018672 0.000000 0.000000 0.000000
# 4 0.000000 0.000000 0.000000 0.036722 0.000000 0.000000
# 5 0.000000 0.000000 0.000000 0.000000 0.095759 0.000000
# 6 0.000000 0.000000 0.000000 0.000000 0.000000 0.038195
#
#
# Mechanical properties :
#
#
# Convention : Reuss Voigt Hill
#
# Bulk Modulus (GPa) = 27.49166 35.74586 31.61876
# Shear Modulus (GPa) = 18.84321 23.77720 21.31021
#
# Velocity S-wave (km/s) = 3.25049 3.65134 3.45673
# Velocity P-wave (km/s) = 5.43163 6.14977 5.80182
#
# Compressibility (1/GPa) = 0.03637467
#
# Stress axis : x y z
#
# Youngs Moduli (GPa) = 32.30473 101.69391 53.55515
#
# Poissons Ratio (x) = 0.64649 0.19082
# Poissons Ratio (y) = 0.20537 0.08691
# Poissons Ratio (z) = 0.11510 0.16504
#
# Static dielectric constant tensor:
#      x y z
#    x 1.634060 0.000000 0.000000 
#    y 0.000000 1.655590 0.000000 
#    z 0.000000 0.000000 1.654700 
# 
# From -- ./inp_files/5627.got.cif
#   From: 2010.05.17/outbox.cif.g08.bks.cpg/sg54_3_cif.got.tgz:5627.got - 2010.06.03 13:09:01.
