data_PCOD9420651
_publ_section_title
;
Structure prediction by ZEFSAII (Michael W. Deem and Ramdas Pophale) SiO2 
 PCOD9420651
Probable space group: P C C A
;
_chemical_formula_sum "Si O2"
_cell_formula_units_Z 48
_cell_length_a 15.784037
_cell_length_b 8.881696
_cell_length_c 17.803743
_cell_angle_alpha 90.000000
_cell_angle_beta 90.000000
_cell_angle_gamma 90.000000
_cell_volume 2495.889253
_symmetry_space_group_name_H-M "P C C A"
_symmetry_group_IT_number 54
_symmetry_cell_setting 'orthorhombic'
loop_
_space_group_symop_operation_xyz
x,y,z
1/2-x,-y,z
1/2+x,-y,1/2-z
-x,y,1/2-z
-x,-y,-z
1/2+x,y,-z
1/2-x,y,1/2+z
x,-y,1/2+z
loop_
_atom_site_type_symbol
_atom_site_label
_atom_site_fract_x
_atom_site_fract_y
_atom_site_fract_z
Si Si1 0.630860 0.616782 0.275161
Si Si2 0.029335 0.389082 0.374911
Si Si3 0.406593 0.725818 0.896624
Si Si4 0.190638 0.273295 0.749971
Si Si5 0.956452 0.139132 0.458937
Si Si6 0.551326 0.062175 0.321817
O O1 0.567376 0.610467 0.345059
O O2 0.582280 0.656896 0.198355
O O3 0.712686 0.722988 0.276554
O O4 0.658278 0.442652 0.265722
O O5 0.063500 0.552134 0.398752
O O6 0.026968 0.264908 0.439389
O O7 0.328225 0.745980 0.839206
O O8 0.484700 0.819740 0.859463
O O9 0.393353 0.787703 0.980494
O O10 0.132059 0.154316 0.707164
O O11 0.925353 0.066325 0.381123
O O12 0.000000 0.000000 0.500000
O O13 0.500000 0.998901 0.250000
#
# Coordination Sequence:
#
# PCOD9420651 Si02
#       6
#     8   8   8   8   8   8
#     4   9  18  30  59  87 103 135 187 243 269 322
#     4  10  18  33  56  83 107 137 194 231 271 320
#     4   9  17  33  56  82 108 145 179 230 276 336
#     4   9  16  33  57  83 112 136 182 233 289 315
#     4  10  21  33  54  78 111 149 186 217 276 342
#     4   9  17  31  54  80 111 145 180 228 277 336
#
# _framework density 19.231624
#
# number of rings (size 3 to 8) (size 9 to 14) (size 15 to 20)
#    0.000    2.667    1.667    0.500    2.333    0.000 
#    0.000    0.833   11.000    2.000    0.000    0.000 
#    0.000    0.000    0.000    0.000    0.000    0.000 
#
# Total GULP energy -267455.372830 kJ/mol
# GULP energy per Si atom -5571.986934 kJ/mol
# Density = 1.918785 g / cm^3
# Si number density = 19.231624 Si / 1000 Ang^3
#
#
#
# Elastic Constant Matrix: (Units=GPa)
#
#
# Indices 1 2 3 4 5 6 
#
# 1 76.2127 11.7649 24.3441 0.0000 0.0000 0.0000
# 2 11.7649 70.4126 42.6965 0.0000 0.0000 0.0000
# 3 24.3441 42.6965 96.1774 0.0000 0.0000 0.0000
# 4 0.0000 0.0000 0.0000 45.2276 0.0000 0.0000
# 5 0.0000 0.0000 0.0000 0.0000 12.0492 0.0000
# 6 0.0000 0.0000 0.0000 0.0000 0.0000 2.8320
#
#
#
# Elastic Compliance Matrix: (Units=1/GPa)
#
#
# Indices 1 2 3 4 5 6 
#
# 1 0.014279 -0.000266 -0.003496 0.000000 0.000000 0.000000
# 2 -0.000266 0.019438 -0.008562 0.000000 0.000000 0.000000
# 3 -0.003496 -0.008562 0.015083 0.000000 0.000000 0.000000
# 4 0.000000 0.000000 0.000000 0.022110 0.000000 0.000000
# 5 0.000000 0.000000 0.000000 0.000000 0.082993 0.000000
# 6 0.000000 0.000000 0.000000 0.000000 0.000000 0.353103
#
#
# Mechanical properties :
#
#
# Convention : Reuss Voigt Hill
#
# Bulk Modulus (GPa) = 41.40358 44.49039 42.94699
# Shear Modulus (GPa) = 9.26431 22.95493 16.10962
#
# Velocity S-wave (km/s) = 2.19720 3.45860 2.89738
# Velocity P-wave (km/s) = 5.29269 6.25567 5.79422
#
# Compressibility (1/GPa) = 0.02415250
#
# Stress axis : x y z
#
# Youngs Moduli (GPa) = 70.03302 51.44498 66.29797
#
# Poissons Ratio (x) = 0.01367 0.23180
# Poissons Ratio (y) = 0.01861 0.56765
# Poissons Ratio (z) = 0.24485 0.44047
#
# Static dielectric constant tensor:
#      x y z
#    x 1.662540 0.000000 0.000000 
#    y 0.000000 1.688250 0.000000 
#    z 0.000000 0.000000 1.726730 
# 
# From -- ./inp_files/18008.got.cif
#   From: 2010.05.17/outbox.cif.g08.bks.cpg/sg54_10_cif.got.tgz:18008.got - 2010.06.03 13:09:01.
