data_PCOD9420834
_publ_section_title
;
Structure prediction by ZEFSAII (Michael W. Deem and Ramdas Pophale) SiO2 
 PCOD9420834
Probable space group: P C C A
;
_chemical_formula_sum "Si O2"
_cell_formula_units_Z 40
_cell_length_a 5.114632
_cell_length_b 19.939154
_cell_length_c 19.782490
_cell_angle_alpha 90.000000
_cell_angle_beta 90.000000
_cell_angle_gamma 90.000000
_cell_volume 2017.446720
_symmetry_space_group_name_H-M "P C C A"
_symmetry_group_IT_number 54
_symmetry_cell_setting 'orthorhombic'
loop_
_space_group_symop_operation_xyz
x,y,z
1/2-x,-y,z
1/2+x,-y,1/2-z
-x,y,1/2-z
-x,-y,-z
1/2+x,y,-z
1/2-x,y,1/2+z
x,-y,1/2+z
loop_
_atom_site_type_symbol
_atom_site_label
_atom_site_fract_x
_atom_site_fract_y
_atom_site_fract_z
Si Si1 0.143052 0.782819 0.951291
Si Si2 0.957251 0.695814 0.824261
Si Si3 0.951799 0.606964 0.177704
Si Si4 0.785460 0.927650 0.044928
Si Si5 0.490486 0.425642 0.030350
O O1 0.055679 0.738352 0.887712
O O2 0.190101 0.858649 0.922036
O O3 0.413618 0.773883 0.992794
O O4 0.154739 0.632277 0.823982
O O5 0.000000 0.728111 0.750000
O O6 0.659127 0.669027 0.827237
O O7 0.006121 0.566864 0.109974
O O8 0.000000 0.573398 0.250000
O O9 0.750000 0.000000 0.079530
O O10 0.585467 0.927081 0.980316
O O11 0.500000 0.500000 0.000000
O O12 0.741678 0.389450 0.000354
#
# Coordination Sequence:
#
# PCOD9420834 Si02
#       5
#     8   8   8   8   8
#     4  10  19  30  48  76 102 130 172 214 252 297
#     4  10  21  35  51  75 105 137 168 205 256 306
#     4  10  21  37  55  74 101 136 169 199 247 313
#     4   8  14  25  41  64  95 127 161 203 246 287
#     4  10  21  37  55  79 104 128 162 206 252 294
#
# _framework density 19.827038999999999
#
# number of rings (size 3 to 8) (size 9 to 14) (size 15 to 20)
#    0.000    2.400    0.000    2.400    0.000    4.800 
#    0.000    4.000    0.000    0.000    0.000   18.200 
#    0.000    0.000    0.000    0.000    0.000    0.000 
#
# Total GULP energy -222729.918590 kJ/mol
# GULP energy per Si atom -5568.247965 kJ/mol
# Density = 1.978191 g / cm^3
# Si number density = 19.827039 Si / 1000 Ang^3
#
#
#
# Elastic Constant Matrix: (Units=GPa)
#
#
# Indices 1 2 3 4 5 6 
#
# 1 126.8022 -5.0561 8.5169 0.0000 0.0000 0.0000
# 2 -5.0561 42.8076 34.0295 0.0000 0.0000 0.0000
# 3 8.5169 34.0295 153.2966 0.0000 0.0000 0.0000
# 4 0.0000 0.0000 0.0000 -0.2922 0.0000 0.0000
# 5 0.0000 0.0000 0.0000 0.0000 19.7419 0.0000
# 6 0.0000 0.0000 0.0000 0.0000 0.0000 -1.4960
#
#
#
# Elastic Compliance Matrix: (Units=1/GPa)
#
#
# Indices 1 2 3 4 5 6 
#
# 1 0.008003 0.001577 -0.000795 0.000000 0.000000 0.000000
# 2 0.001577 0.028677 -0.006453 0.000000 0.000000 0.000000
# 3 -0.000795 -0.006453 0.008000 0.000000 0.000000 0.000000
# 4 0.000000 0.000000 0.000000 -3.422699 0.000000 0.000000
# 5 0.000000 0.000000 0.000000 0.000000 0.050654 0.000000
# 6 0.000000 0.000000 0.000000 0.000000 0.000000 -0.668441
#
#
# Mechanical properties :
#
#
# Convention : Reuss Voigt Hill
#
# Bulk Modulus (GPa) = 29.99674 44.20967 37.10320
# Shear Modulus (GPa) = -1.25838 22.61848 10.68005
#
# Velocity S-wave (km/s) = -0.79753 3.38122 2.32342
# Velocity P-wave (km/s) = 3.78338 6.13104 5.09429
#
# Compressibility (1/GPa) = 0.03333696
#
# Stress axis : x y z
#
# Youngs Moduli (GPa) = 124.96014 34.87153 124.99985
#
# Poissons Ratio (x) = -0.05499 0.09933
# Poissons Ratio (y) = -0.19705 0.80667
# Poissons Ratio (z) = 0.09930 0.22504
#
# Static dielectric constant tensor:
#      x y z
#    x 1.742980 0.000000 0.000000 
#    y 0.000000 1.635960 0.000000 
#    z 0.000000 0.000000 1.690760 
# 
# From -- ./inp_files/10843.got.cif
#   From: 2010.05.17/outbox.cif.g08.bks.cpg/sg54_6_cif.got.tgz:10843.got - 2010.06.03 13:09:01.
