data_PCOD9420859
_publ_section_title
;
Structure prediction by ZEFSAII (Michael W. Deem and Ramdas Pophale) SiO2 
 PCOD9420859
Probable space group: P C C A
;
_chemical_formula_sum "Si O2"
_cell_formula_units_Z 48
_cell_length_a 8.816948
_cell_length_b 11.913551
_cell_length_c 25.879949
_cell_angle_alpha 90.000000
_cell_angle_beta 90.000000
_cell_angle_gamma 90.000000
_cell_volume 2718.459855
_symmetry_space_group_name_H-M "P C C A"
_symmetry_group_IT_number 54
_symmetry_cell_setting 'orthorhombic'
loop_
_space_group_symop_operation_xyz
x,y,z
1/2-x,-y,z
1/2+x,-y,1/2-z
-x,y,1/2-z
-x,-y,-z
1/2+x,y,-z
1/2-x,y,1/2+z
x,-y,1/2+z
loop_
_atom_site_type_symbol
_atom_site_label
_atom_site_fract_x
_atom_site_fract_y
_atom_site_fract_z
Si Si1 0.506050 0.210264 0.812830
Si Si2 0.974136 0.425286 0.927193
Si Si3 0.750000 0.500000 0.512464
Si Si4 0.102054 0.570117 0.847424
Si Si5 0.500000 0.426083 0.250000
Si Si6 0.148846 0.273121 0.665105
Si Si7 0.572878 0.032374 0.305540
O O1 0.500000 0.213512 0.750000
O O2 0.386623 0.298268 0.836285
O O3 0.670317 0.254440 0.831943
O O4 0.493664 0.079472 0.827934
O O5 0.858133 0.431015 0.974225
O O6 0.918268 0.337639 0.884299
O O7 0.984431 0.540460 0.893143
O O8 0.139179 0.419817 0.954319
O O9 0.250000 0.500000 0.861724
O O10 0.059527 0.510016 0.793763
O O11 0.608867 0.344244 0.283053
O O12 0.071918 0.150567 0.665881
O O13 0.500000 0.052581 0.250000
O O14 0.750000 0.000000 0.298886
#
# Coordination Sequence:
#
# PCOD9420859 Si02
#       7
#     8   8   4   8   4   8   8
#     4  10  19  31  50  75 115 156 187 211 255 313
#     4  10  21  35  59  78 109 134 189 224 306 326
#     4  10  20  40  54  82 104 138 170 254 290 356
#     4  11  20  32  47  80 111 145 175 214 262 338
#     4  10  20  26  46  68 118 138 170 214 258 312
#     4  10  19  34  52  80 106 152 182 224 263 332
#     4   9  18  33  51  76 110 155 192 217 255 309
#
# _framework density 17.657056999999998
#
# number of rings (size 3 to 8) (size 9 to 14) (size 15 to 20)
#    0.000    2.000    2.500    2.000    0.000    1.333 
#    0.000    0.000    0.000    0.000    0.000   31.500 
#    0.000    0.000    0.000    0.000    0.000    0.000 
#
# Total GULP energy -267208.001837 kJ/mol
# GULP energy per Si atom -5566.833372 kJ/mol
# Density = 1.761687 g / cm^3
# Si number density = 17.657057 Si / 1000 Ang^3
#
#
#
# Elastic Constant Matrix: (Units=GPa)
#
#
# Indices 1 2 3 4 5 6 
#
# 1 50.6732 18.6651 30.6390 0.0000 0.0000 0.0000
# 2 18.6651 87.2852 17.8717 0.0000 0.0000 0.0000
# 3 30.6390 17.8717 89.0556 0.0000 0.0000 0.0000
# 4 0.0000 0.0000 0.0000 19.8496 0.0000 0.0000
# 5 0.0000 0.0000 0.0000 0.0000 28.5463 0.0000
# 6 0.0000 0.0000 0.0000 0.0000 0.0000 22.0330
#
#
#
# Elastic Compliance Matrix: (Units=1/GPa)
#
#
# Indices 1 2 3 4 5 6 
#
# 1 0.026137 -0.003909 -0.008208 0.000000 0.000000 0.000000
# 2 -0.003909 0.012532 -0.001170 0.000000 0.000000 0.000000
# 3 -0.008208 -0.001170 0.014288 0.000000 0.000000 0.000000
# 4 0.000000 0.000000 0.000000 0.050379 0.000000 0.000000
# 5 0.000000 0.000000 0.000000 0.000000 0.035031 0.000000
# 6 0.000000 0.000000 0.000000 0.000000 0.000000 0.045386
#
#
# Mechanical properties :
#
#
# Convention : Reuss Voigt Hill
#
# Bulk Modulus (GPa) = 37.90276 40.15173 39.02724
# Shear Modulus (GPa) = 22.81852 24.74165 23.78009
#
# Velocity S-wave (km/s) = 3.59878 3.74737 3.67383
# Velocity P-wave (km/s) = 6.22744 6.44304 6.33616
#
# Compressibility (1/GPa) = 0.02638331
#
# Stress axis : x y z
#
# Youngs Moduli (GPa) = 38.26030 79.79498 69.99060
#
# Poissons Ratio (x) = 0.31188 0.57447
# Poissons Ratio (y) = 0.14954 0.08191
# Poissons Ratio (z) = 0.31403 0.09338
#
# Static dielectric constant tensor:
#      x y z
#    x 1.460140 0.000000 0.000000 
#    y 0.000000 1.629670 0.000000 
#    z 0.000000 0.000000 1.607910 
# 
# From -- ./inp_files/23553.got.cif
#   From: 2010.05.17/outbox.cif.g08.bks.cpg/sg54_12_cif.got.tgz:23553.got - 2010.06.03 13:09:01.
