data_PCOD9420275
_publ_section_title
;
Structure prediction by ZEFSAII (Michael W. Deem and Ramdas Pophale) SiO2 
 PCOD9420275
Probable space group: P M N A
;
_chemical_formula_sum "Si O2"
_cell_formula_units_Z 64
_cell_length_a 9.000000
_cell_length_b 12.000000
_cell_length_c 30.000000
_cell_angle_alpha 90.000000
_cell_angle_beta 90.000000
_cell_angle_gamma 90.000000
_cell_volume 3240.000000
_symmetry_space_group_name_H-M "P M N A"
_symmetry_group_IT_number 53
_symmetry_cell_setting 'orthorhombic'
loop_
_space_group_symop_operation_xyz
x,y,z
1/2-x,-y,1/2+z
x,-y,-z
1/2-x,y,1/2-z
-x,-y,-z
1/2+x,y,1/2-z
-x,y,z
1/2+x,-y,1/2+z
loop_
_atom_site_type_symbol
_atom_site_label
_atom_site_fract_x
_atom_site_fract_y
_atom_site_fract_z
Si Si1 0.669702 0.671586 0.630246
Si Si2 0.176964 0.588713 0.116440
Si Si3 0.178369 0.271607 0.796206
Si Si4 0.328933 0.268166 0.958754
Si Si5 0.169511 0.817961 0.958827
Si Si6 0.676883 0.978047 0.324293
Si Si7 0.171146 0.980299 0.418734
Si Si8 0.173784 0.797648 0.706818
O O1 0.500000 0.678972 0.648273
O O2 0.700703 0.543061 0.619809
O O3 0.674408 0.747287 0.586413
O O4 0.783505 0.723234 0.664830
O O5 0.220256 0.650640 0.162281
O O6 0.265996 0.644871 0.076544
O O7 0.000000 0.608103 0.109846
O O8 0.250000 0.307787 0.750000
O O9 0.000000 0.273858 0.792419
O O10 0.222618 0.143606 0.806571
O O11 0.500000 0.291818 0.969722
O O12 0.321367 0.143929 0.937871
O O13 0.228828 0.260506 0.002304
O O14 0.272604 0.925974 0.952749
O O15 0.000000 0.852939 0.967426
O O16 0.500000 0.989359 0.319756
O O17 0.723754 0.985625 0.375816
O O18 0.756817 0.080148 0.300533
O O19 0.000000 0.003600 0.406034
O O20 0.250000 0.746239 0.750000
O O21 0.000000 0.807511 0.712853
#
# Coordination Sequence:
#
# PCOD9420275 Si02
#       8
#     8   8   8   8   8   8   8   8
#     4  10  23  43  65  89 120 159 209 260 305 360
#     4  10  22  43  65  87 119 161 208 255 305 361
#     4  10  22  38  61  90 121 157 196 245 299 360
#     4  11  24  40  61  91 126 161 201 252 307 367
#     4  11  23  39  63  91 122 162 204 252 307 367
#     4  11  21  37  62  92 124 158 200 245 301 366
#     4  11  22  37  60  91 125 160 197 248 309 365
#     4  12  25  41  64  92 126 164 203 251 305 363
#
# _framework density 19.753086
#
# number of rings (size 3 to 8) (size 9 to 14) (size 15 to 20)
#    0.000    1.250    2.500    3.375    0.000    7.500 
#    0.000    3.750    0.000    0.000    0.000    0.000 
#    0.000    0.000    0.000    0.000    0.000    0.000 
#
# Total GULP energy -357841.456703 kJ/mol
# GULP energy per Si atom -5591.272761 kJ/mol
# Density = 1.970813 g / cm^3
# Si number density = 19.753086 Si / 1000 Ang^3
#
#
#
# Elastic Constant Matrix: (Units=GPa)
#
#
# Indices 1 2 3 4 5 6 
#
# 1 82.0243 34.1803 24.0448 0.0000 0.0000 0.0000
# 2 34.1803 63.1908 -9.9066 0.0000 0.0000 0.0000
# 3 24.0448 -9.9066 56.9494 0.0000 0.0000 0.0000
# 4 0.0000 0.0000 0.0000 79.8300 0.0000 0.0000
# 5 0.0000 0.0000 0.0000 0.0000 30.5294 0.0000
# 6 0.0000 0.0000 0.0000 0.0000 0.0000 15.6494
#
#
#
# Elastic Compliance Matrix: (Units=1/GPa)
#
#
# Indices 1 2 3 4 5 6 
#
# 1 0.020864 -0.013022 -0.011074 0.000000 0.000000 0.000000
# 2 -0.013022 0.024396 0.009742 0.000000 0.000000 0.000000
# 3 -0.011074 0.009742 0.023930 0.000000 0.000000 0.000000
# 4 0.000000 0.000000 0.000000 0.012527 0.000000 0.000000
# 5 0.000000 0.000000 0.000000 0.000000 0.032755 0.000000
# 6 0.000000 0.000000 0.000000 0.000000 0.000000 0.063900
#
#
# Mechanical properties :
#
#
# Convention : Reuss Voigt Hill
#
# Bulk Modulus (GPa) = 24.70285 33.20018 28.95152
# Shear Modulus (GPa) = 22.66813 35.45816 29.06315
#
# Velocity S-wave (km/s) = 3.39126 4.24142 3.83994
# Velocity P-wave (km/s) = 5.27894 6.38986 5.86078
#
# Compressibility (1/GPa) = 0.04048115
#
# Stress axis : x y z
#
# Youngs Moduli (GPa) = 47.92921 40.99062 41.78893
#
# Poissons Ratio (x) = 0.53377 0.46278
# Poissons Ratio (y) = 0.62412 -0.40709
# Poissons Ratio (z) = 0.53078 -0.39932
#
# Static dielectric constant tensor:
#      x y z
#    x 1.669860 0.000000 0.000000 
#    y 0.000000 1.662000 0.000000 
#    z 0.000000 0.000000 1.730160 
# 
# From -- ./inp_files/38274.got.cif
#   From: 2010.05.17/outbox.ucp.g08.bks.cvg/sg53_20_cif.got.tgz:38274.got - 2010.06.11 16:32:34.
