data_PCOD9420959
_publ_section_title
;
Structure prediction by ZEFSAII (Michael W. Deem and Ramdas Pophale) SiO2 
 PCOD9420959
Probable space group: P C C A
;
_chemical_formula_sum "Si O2"
_cell_formula_units_Z 56
_cell_length_a 5.381495
_cell_length_b 29.619157
_cell_length_c 17.239432
_cell_angle_alpha 90.000000
_cell_angle_beta 90.000000
_cell_angle_gamma 90.000000
_cell_volume 2747.885216
_symmetry_space_group_name_H-M "P C C A"
_symmetry_group_IT_number 54
_symmetry_cell_setting 'orthorhombic'
loop_
_space_group_symop_operation_xyz
x,y,z
1/2-x,-y,z
1/2+x,-y,1/2-z
-x,y,1/2-z
-x,-y,-z
1/2+x,y,-z
1/2-x,y,1/2+z
x,-y,1/2+z
loop_
_atom_site_type_symbol
_atom_site_label
_atom_site_fract_x
_atom_site_fract_y
_atom_site_fract_z
Si Si1 0.750000 0.216583 0.448923
Si Si2 0.750000 0.883142 0.447271
Si Si3 0.750000 0.552434 0.530996
Si Si4 0.750000 0.333033 0.276575
Si Si5 0.250000 0.433181 0.788836
Si Si6 0.750000 0.946006 0.298418
Si Si7 0.250000 0.317914 0.552243
O O1 0.500000 0.216446 0.500000
O O2 0.750000 0.167481 0.409624
O O3 0.750000 0.266485 0.412673
O O4 0.500000 0.887244 0.500000
O O5 0.750000 0.919615 0.379337
O O6 0.750000 0.500000 0.503699
O O7 0.500000 0.574194 0.500000
O O8 0.750000 0.554616 0.622243
O O9 0.500000 0.308612 0.250000
O O10 0.750000 0.379160 0.225334
O O11 0.750000 0.345988 0.367643
O O12 0.000000 0.308612 0.250000
O O13 0.500000 0.450218 0.750000
O O14 0.000000 0.450218 0.750000
O O15 0.500000 0.935081 0.250000
O O16 0.000000 0.935081 0.250000
O O17 0.750000 0.000000 0.311982
O O18 0.500000 0.322985 0.500000
#
# Coordination Sequence:
#
# PCOD9420959 Si02
#       7
#     8   8   8   8   8   8   8
#     4   8  16  30  50  76 103 130 165 215 267 307
#     4  10  19  33  54  78 102 131 174 221 259 308
#     4  10  21  38  60  85 110 140 182 224 260 309
#     4  10  21  38  53  77 113 141 174 219 264 309
#     4  10  21  38  56  80 113 145 174 214 267 314
#     4  10  21  36  51  71 105 142 172 210 262 316
#     4  10  19  35  58  79 102 139 181 215 257 315
#
# _framework density 20.379311000000001
#
# number of rings (size 3 to 8) (size 9 to 14) (size 15 to 20)
#    0.000    2.286    0.000    2.571    0.000    1.143 
#    0.000   18.571    0.000    0.000    0.000    0.000 
#    0.000    0.000    0.000    0.000    0.000    0.000 
#
# Total GULP energy -312295.803862 kJ/mol
# GULP energy per Si atom -5576.710783 kJ/mol
# Density = 2.033293 g / cm^3
# Si number density = 20.379311 Si / 1000 Ang^3
#
#
#
# Elastic Constant Matrix: (Units=GPa)
#
#
# Indices 1 2 3 4 5 6 
#
# 1 219.1502 7.9457 56.2421 0.0000 0.0000 0.0000
# 2 7.9457 78.1817 10.3360 0.0000 0.0000 0.0000
# 3 56.2421 10.3360 71.9805 0.0000 0.0000 0.0000
# 4 0.0000 0.0000 0.0000 8.2247 0.0000 0.0000
# 5 0.0000 0.0000 0.0000 0.0000 36.3789 0.0000
# 6 0.0000 0.0000 0.0000 0.0000 0.0000 7.7621
#
#
#
# Elastic Compliance Matrix: (Units=1/GPa)
#
#
# Indices 1 2 3 4 5 6 
#
# 1 0.005708 0.000010 -0.004461 0.000000 0.000000 0.000000
# 2 0.000010 0.013038 -0.001880 0.000000 0.000000 0.000000
# 3 -0.004461 -0.001880 0.017648 0.000000 0.000000 0.000000
# 4 0.000000 0.000000 0.000000 0.121585 0.000000 0.000000
# 5 0.000000 0.000000 0.000000 0.000000 0.027488 0.000000
# 6 0.000000 0.000000 0.000000 0.000000 0.000000 0.128830
#
#
# Mechanical properties :
#
#
# Convention : Reuss Voigt Hill
#
# Bulk Modulus (GPa) = 42.13759 57.59558 49.86659
# Shear Modulus (GPa) = 14.93114 30.12572 22.52843
#
# Velocity S-wave (km/s) = 2.70971 3.84897 3.32845
# Velocity P-wave (km/s) = 5.52373 6.93368 6.26847
#
# Compressibility (1/GPa) = 0.02373178
#
# Stress axis : x y z
#
# Youngs Moduli (GPa) = 175.20507 76.69740 56.66294
#
# Poissons Ratio (x) = -0.00074 0.25278
# Poissons Ratio (y) = -0.00170 0.10652
# Poissons Ratio (z) = 0.78160 0.14418
#
# Static dielectric constant tensor:
#      x y z
#    x 1.828560 0.000000 0.000000 
#    y 0.000000 1.775110 0.000000 
#    z 0.000000 0.000000 1.671030 
# 
# From -- ./inp_files/11010.got.cif
#   From: 2010.05.17/outbox.cif.g08.bks.cpg/sg54_6_cif.got.tgz:11010.got - 2010.06.03 13:09:01.
