data_PCOD9420401
_publ_section_title
;
Structure prediction by ZEFSAII (Michael W. Deem and Ramdas Pophale) SiO2 
 PCOD9420401
Probable space group: P C C A
;
_chemical_formula_sum "Si O2"
_cell_formula_units_Z 40
_cell_length_a 22.446580
_cell_length_b 16.495457
_cell_length_c 5.416361
_cell_angle_alpha 90.000000
_cell_angle_beta 90.000000
_cell_angle_gamma 90.000000
_cell_volume 2005.497546
_symmetry_space_group_name_H-M "P C C A"
_symmetry_group_IT_number 54
_symmetry_cell_setting 'orthorhombic'
loop_
_space_group_symop_operation_xyz
x,y,z
1/2-x,-y,z
1/2+x,-y,1/2-z
-x,y,1/2-z
-x,-y,-z
1/2+x,y,-z
1/2-x,y,1/2+z
x,-y,1/2+z
loop_
_atom_site_type_symbol
_atom_site_label
_atom_site_fract_x
_atom_site_fract_y
_atom_site_fract_z
Si Si1 0.935625 0.725612 0.304446
Si Si2 0.930739 0.217628 0.303246
Si Si3 0.225321 0.592099 0.039457
Si Si4 0.586351 0.449645 0.429595
Si Si5 0.931632 0.968208 0.968963
O O1 0.902956 0.768745 0.532482
O O2 0.947237 0.634738 0.396853
O O3 0.000000 0.766833 0.250000
O O4 0.906540 0.729536 0.032717
O O5 0.929652 0.124809 0.387455
O O6 0.000000 0.240432 0.250000
O O7 0.250000 0.500000 0.021978
O O8 0.244607 0.630756 0.780375
O O9 0.155185 0.579788 0.071653
O O10 0.575247 0.494357 0.689475
O O11 0.904824 0.018157 0.739847
O O12 0.000000 0.000000 0.000000
#
# Coordination Sequence:
#
# PCOD9420401 Si02
#       5
#     8   8   8   8   8
#     4  10  23  34  44  62  89 136 161 191 236 261
#     4  10  18  32  45  59  95 119 155 196 225 282
#     4  10  16  30  49  74  87 104 130 201 261 289
#     4  12  21  33  52  67  88 115 167 209 230 279
#     4  10  17  24  44  72  83 107 150 203 226 256
#
# _framework density 19.945174000000002
#
# number of rings (size 3 to 8) (size 9 to 14) (size 15 to 20)
#    0.000    1.600    6.000    2.400    5.600    0.800 
#    0.000    0.000    0.000    0.000    0.000    0.000 
#    0.000    0.000    0.000    0.000    0.000   70.000 
#
# Total GULP energy -222873.969384 kJ/mol
# GULP energy per Si atom -5571.849235 kJ/mol
# Density = 1.989978 g / cm^3
# Si number density = 19.945174 Si / 1000 Ang^3
#
#
#
# Elastic Constant Matrix: (Units=GPa)
#
#
# Indices 1 2 3 4 5 6 
#
# 1 20.6840 -2.7284 -5.5827 0.0000 0.0000 0.0000
# 2 -2.7284 73.2649 36.3981 0.0000 0.0000 0.0000
# 3 -5.5827 36.3981 213.8779 0.0000 0.0000 0.0000
# 4 0.0000 0.0000 0.0000 28.2063 0.0000 0.0000
# 5 0.0000 0.0000 0.0000 0.0000 9.9474 0.0000
# 6 0.0000 0.0000 0.0000 0.0000 0.0000 -3.5552
#
#
#
# Elastic Compliance Matrix: (Units=1/GPa)
#
#
# Indices 1 2 3 4 5 6 
#
# 1 0.048802 0.001294 0.001054 0.000000 0.000000 0.000000
# 2 0.001294 0.014944 -0.002509 0.000000 0.000000 0.000000
# 3 0.001054 -0.002509 0.005130 0.000000 0.000000 0.000000
# 4 0.000000 0.000000 0.000000 0.035453 0.000000 0.000000
# 5 0.000000 0.000000 0.000000 0.000000 0.100529 0.000000
# 6 0.000000 0.000000 0.000000 0.000000 0.000000 -0.281276
#
#
# Mechanical properties :
#
#
# Convention : Reuss Voigt Hill
#
# Bulk Modulus (GPa) = 14.58746 40.44452 27.51599
# Shear Modulus (GPa) = -93.90783 25.56901 -34.16941
#
# Velocity S-wave (km/s) = -6.86915 3.58434 -4.14353
# Velocity P-wave (km/s) = 7.45546 6.11979 3.01099
#
# Compressibility (1/GPa) = 0.06855205
#
# Stress axis : x y z
#
# Youngs Moduli (GPa) = 20.49109 66.91666 194.92706
#
# Poissons Ratio (x) = -0.08658 -0.20538
# Poissons Ratio (y) = -0.02651 0.48915
# Poissons Ratio (z) = -0.02159 0.16792
#
# Static dielectric constant tensor:
#      x y z
#    x 1.655160 0.000000 0.000000 
#    y 0.000000 1.664100 0.000000 
#    z 0.000000 0.000000 1.851460 
# 
# From -- ./inp_files/1606.got.cif
#   From: 2010.05.17/outbox.cif.g08.bks.cpg/sg54_1_cif.got.tgz:1606.got - 2010.06.03 13:09:01.
