data_PCOD9420616
_publ_section_title
;
Structure prediction by ZEFSAII (Michael W. Deem and Ramdas Pophale) SiO2 
 PCOD9420616
Probable space group: P C C A
;
_chemical_formula_sum "Si O2"
_cell_formula_units_Z 40
_cell_length_a 5.069994
_cell_length_b 18.897004
_cell_length_c 22.548287
_cell_angle_alpha 90.000000
_cell_angle_beta 90.000000
_cell_angle_gamma 90.000000
_cell_volume 2160.299446
_symmetry_space_group_name_H-M "P C C A"
_symmetry_group_IT_number 54
_symmetry_cell_setting 'orthorhombic'
loop_
_space_group_symop_operation_xyz
x,y,z
1/2-x,-y,z
1/2+x,-y,1/2-z
-x,y,1/2-z
-x,-y,-z
1/2+x,y,-z
1/2-x,y,1/2+z
x,-y,1/2+z
loop_
_atom_site_type_symbol
_atom_site_label
_atom_site_fract_x
_atom_site_fract_y
_atom_site_fract_z
Si Si1 0.945311 0.920016 0.961095
Si Si2 0.213292 0.344388 0.043622
Si Si3 0.250000 0.000000 0.860523
Si Si4 0.598967 0.151459 0.184014
Si Si5 0.405357 0.207877 0.616221
Si Si6 0.250000 0.500000 0.542945
O O1 0.982414 0.839266 0.940569
O O2 0.032311 0.965547 0.904202
O O3 0.154868 0.931185 0.013602
O O4 0.156849 0.286076 0.093455
O O5 0.228880 0.423109 0.072709
O O6 0.482060 0.337096 0.005720
O O7 0.151403 0.067292 0.823384
O O8 0.500000 0.166880 0.250000
O O9 0.362113 0.173345 0.140814
O O10 0.860338 0.194137 0.163466
O O11 0.500000 0.500000 0.500000
#
# Coordination Sequence:
#
# PCOD9420616 Si02
#       6
#     8   8   4   8   8   4
#     4  11  21  34  50  75 106 134 164 208 258 324
#     4  10  18  32  54  85 121 152 176 210 254 320
#     4  10  24  38  56  74  98 136 180 220 278 330
#     4  11  25  42  57  75  99 134 186 243 280 313
#     4  11  22  37  56  80 105 142 183 216 270 325
#     4   8  16  28  48  80 120 154 178 200 242 304
#
# _framework density 18.515953
#
# number of rings (size 3 to 8) (size 9 to 14) (size 15 to 20)
#    0.000    1.600    0.000    6.000    0.000    9.600 
#    0.000    0.000    0.000    0.000    0.000    2.800 
#    0.000    0.000    0.000    0.000    0.000    0.000 
#
# Total GULP energy -223308.378955 kJ/mol
# GULP energy per Si atom -5582.709474 kJ/mol
# Density = 1.847381 g / cm^3
# Si number density = 18.515953 Si / 1000 Ang^3
#
#
#
# Elastic Constant Matrix: (Units=GPa)
#
#
# Indices 1 2 3 4 5 6 
#
# 1 109.0625 23.7005 10.3242 0.0000 0.0000 0.0000
# 2 23.7005 164.0046 36.7323 0.0000 0.0000 0.0000
# 3 10.3242 36.7323 45.7507 0.0000 0.0000 0.0000
# 4 0.0000 0.0000 0.0000 12.8740 0.0000 0.0000
# 5 0.0000 0.0000 0.0000 0.0000 18.6635 0.0000
# 6 0.0000 0.0000 0.0000 0.0000 0.0000 24.9050
#
#
#
# Elastic Compliance Matrix: (Units=1/GPa)
#
#
# Indices 1 2 3 4 5 6 
#
# 1 0.009527 -0.001092 -0.001273 0.000000 0.000000 0.000000
# 2 -0.001092 0.007559 -0.005823 0.000000 0.000000 0.000000
# 3 -0.001273 -0.005823 0.026820 0.000000 0.000000 0.000000
# 4 0.000000 0.000000 0.000000 0.077676 0.000000 0.000000
# 5 0.000000 0.000000 0.000000 0.000000 0.053581 0.000000
# 6 0.000000 0.000000 0.000000 0.000000 0.000000 0.040153
#
#
# Mechanical properties :
#
#
# Convention : Reuss Voigt Hill
#
# Bulk Modulus (GPa) = 36.32351 51.14798 43.73574
# Shear Modulus (GPa) = 20.75828 27.82589 24.29209
#
# Velocity S-wave (km/s) = 3.35192 3.88081 3.62602
# Velocity P-wave (km/s) = 5.88562 6.91120 6.41892
#
# Compressibility (1/GPa) = 0.02753038
#
# Stress axis : x y z
#
# Youngs Moduli (GPa) = 104.96697 132.28767 37.28555
#
# Poissons Ratio (x) = 0.14439 0.04748
# Poissons Ratio (y) = 0.11457 0.21711
# Poissons Ratio (z) = 0.13367 0.77030
#
# Static dielectric constant tensor:
#      x y z
#    x 1.667460 0.000000 0.000000 
#    y 0.000000 1.713770 0.000000 
#    z 0.000000 0.000000 1.628080 
# 
# From -- ./inp_files/19711.got.cif
#   From: 2010.05.17/outbox.cif.g08.bks.cpg/sg54_10_cif.got.tgz:19711.got - 2010.06.03 13:09:01.
