data_PCOD9420942
_publ_section_title
;
Structure prediction by ZEFSAII (Michael W. Deem and Ramdas Pophale) SiO2 
 PCOD9420942
Probable space group: P C C A
;
_chemical_formula_sum "Si O2"
_cell_formula_units_Z 32
_cell_length_a 5.147013
_cell_length_b 19.124799
_cell_length_c 14.367110
_cell_angle_alpha 90.000000
_cell_angle_beta 90.000000
_cell_angle_gamma 90.000000
_cell_volume 1414.234936
_symmetry_space_group_name_H-M "P C C A"
_symmetry_group_IT_number 54
_symmetry_cell_setting 'orthorhombic'
loop_
_space_group_symop_operation_xyz
x,y,z
1/2-x,-y,z
1/2+x,-y,1/2-z
-x,y,1/2-z
-x,-y,-z
1/2+x,y,-z
1/2-x,y,1/2+z
x,-y,1/2+z
loop_
_atom_site_type_symbol
_atom_site_label
_atom_site_fract_x
_atom_site_fract_y
_atom_site_fract_z
Si Si1 0.996894 0.955955 0.863594
Si Si2 0.235574 0.421272 0.440504
Si Si3 0.485903 0.715407 0.860390
Si Si4 0.506735 0.796205 0.364244
O O1 0.964499 0.876051 0.895153
O O2 0.000000 0.952821 0.750000
O O3 0.750000 0.000000 0.892424
O O4 0.250000 0.000000 0.890712
O O5 0.250000 0.500000 0.401279
O O6 0.434869 0.415745 0.528696
O O7 0.358385 0.360144 0.379298
O O8 0.500000 0.721891 0.750000
O O9 0.768712 0.741303 0.893307
O O10 0.272108 0.769421 0.896367
O O11 0.500000 0.796305 0.250000
#
# Coordination Sequence:
#
# PCOD9420942 Si02
#       4
#     8   8   8   8
#     4   9  15  23  37  60  94 135 169 198 244 303
#     4  10  21  38  57  77 104 136 170 212 258 304
#     4  10  19  33  52  76 105 136 169 210 259 308
#     4   9  17  28  44  69 103 136 167 209 257 300
#
# _framework density 22.627072999999999
#
# number of rings (size 3 to 8) (size 9 to 14) (size 15 to 20)
#    0.000    2.500    0.000    3.000    0.000    6.000 
#    0.000    7.500    0.000    0.000    0.000    0.000 
#    0.000   70.000    0.000    0.000    0.000    0.000 
#
# Total GULP energy -178548.716742 kJ/mol
# GULP energy per Si atom -5579.647398 kJ/mol
# Density = 2.257557 g / cm^3
# Si number density = 22.627073 Si / 1000 Ang^3
#
#
#
# Elastic Constant Matrix: (Units=GPa)
#
#
# Indices 1 2 3 4 5 6 
#
# 1 133.5108 71.2055 -8.7684 0.0000 0.0000 0.0000
# 2 71.2055 199.0460 8.6464 0.0000 0.0000 0.0000
# 3 -8.7684 8.6464 49.7032 0.0000 0.0000 0.0000
# 4 0.0000 0.0000 0.0000 1.8469 0.0000 0.0000
# 5 0.0000 0.0000 0.0000 0.0000 -89.5033 0.0000
# 6 0.0000 0.0000 0.0000 0.0000 0.0000 32.5125
#
#
#
# Elastic Compliance Matrix: (Units=1/GPa)
#
#
# Indices 1 2 3 4 5 6 
#
# 1 0.009507 -0.003500 0.002286 0.000000 0.000000 0.000000
# 2 -0.003500 0.006351 -0.001722 0.000000 0.000000 0.000000
# 3 0.002286 -0.001722 0.020822 0.000000 0.000000 0.000000
# 4 0.000000 0.000000 0.000000 0.541436 0.000000 0.000000
# 5 0.000000 0.000000 0.000000 0.000000 -0.011173 0.000000
# 6 0.000000 0.000000 0.000000 0.000000 0.000000 0.030757
#
#
# Mechanical properties :
#
#
# Convention : Reuss Voigt Hill
#
# Bulk Modulus (GPa) = 32.45989 58.26967 45.36478
# Shear Modulus (GPa) = 8.14540 9.71630 8.93085
#
# Velocity S-wave (km/s) = 1.89938 2.07447 1.98886
# Velocity P-wave (km/s) = 4.38029 5.61658 5.03651
#
# Compressibility (1/GPa) = 0.03080725
#
# Stress axis : x y z
#
# Youngs Moduli (GPa) = 105.18586 157.45677 48.02535
#
# Poissons Ratio (x) = 0.55114 -0.10979
# Poissons Ratio (y) = 0.36818 0.08271
# Poissons Ratio (z) = -0.24046 0.27119
#
# Static dielectric constant tensor:
#      x y z
#    x 1.792620 0.000000 0.000000 
#    y 0.000000 1.882650 0.000000 
#    z 0.000000 0.000000 1.880880 
# 
# From -- ./inp_files/15672.got.cif
#   From: 2010.05.17/outbox.cif.g08.bks.cpg/sg54_8_cif.got.tgz:15672.got - 2010.06.03 13:09:01.
