data_PCOD9420126
_publ_section_title
;
Structure prediction by ZEFSAII (Michael W. Deem and Ramdas Pophale) SiO2 
 PCOD9420126
Probable space group: P M N A
;
_chemical_formula_sum "Si O2"
_cell_formula_units_Z 56
_cell_length_a 9.000000
_cell_length_b 21.000000
_cell_length_c 15.000000
_cell_angle_alpha 90.000000
_cell_angle_beta 90.000000
_cell_angle_gamma 90.000000
_cell_volume 2835.000000
_symmetry_space_group_name_H-M "P M N A"
_symmetry_group_IT_number 53
_symmetry_cell_setting 'orthorhombic'
loop_
_space_group_symop_operation_xyz
x,y,z
1/2-x,-y,1/2+z
x,-y,-z
1/2-x,y,1/2-z
-x,-y,-z
1/2+x,y,1/2-z
-x,y,z
1/2+x,-y,1/2+z
loop_
_atom_site_type_symbol
_atom_site_label
_atom_site_fract_x
_atom_site_fract_y
_atom_site_fract_z
Si Si1 0.665131 0.227124 0.665024
Si Si2 0.179135 0.226238 0.035161
Si Si3 0.335191 0.378821 0.664822
Si Si4 0.178214 0.913581 0.962607
Si Si5 0.819899 0.965660 0.152125
Si Si6 0.677903 0.427960 0.006855
Si Si7 0.676627 0.666119 0.845369
O O1 0.750000 0.200162 0.750000
O O2 0.500000 0.198543 0.661391
O O3 0.732938 0.223366 0.567103
O O4 0.651743 0.303056 0.679314
O O5 0.260023 0.278742 0.091967
O O6 0.000000 0.238163 0.032974
O O7 0.209088 0.156385 0.072512
O O8 0.250000 0.406138 0.750000
O O9 0.500000 0.405825 0.658471
O O10 0.249704 0.389397 0.573510
O O11 0.000000 0.921294 0.967505
O O12 0.224413 0.921115 0.066955
O O13 0.228005 0.966676 0.892357
O O14 0.750000 0.955482 0.250000
O O15 0.000000 0.964022 0.161512
O O16 0.500000 0.425352 0.996242
O O17 0.714690 0.398332 0.101963
O O18 0.728569 0.500000 0.000000
O O19 0.750000 0.668957 0.750000
O O20 0.500000 0.671496 0.837876
#
# Coordination Sequence:
#
# PCOD9420126 Si02
#       7
#     8   8   8   8   8   8   8
#     4   9  18  30  49  76 106 138 173 214 265 325
#     4  10  19  36  58  81 111 147 188 231 275 328
#     4  10  19  33  54  81 109 140 175 217 268 325
#     4   8  17  33  54  77 108 148 185 223 273 331
#     4   9  17  33  54  78 107 145 187 227 275 323
#     4  10  22  40  60  83 111 143 183 230 278 327
#     4  11  24  41  61  83 112 148 184 229 278 328
#
# _framework density 19.753086
#
# number of rings (size 3 to 8) (size 9 to 14) (size 15 to 20)
#    0.000    2.429    1.429    1.714    0.000    3.714 
#    0.000    5.714    0.000    0.000    0.000    0.000 
#    0.000    0.000    0.000    0.000    0.000    0.000 
#
# Total GULP energy -311987.016212 kJ/mol
# GULP energy per Si atom -5571.196718 kJ/mol
# Density = 1.970813 g / cm^3
# Si number density = 19.753086 Si / 1000 Ang^3
#
#
#
# Elastic Constant Matrix: (Units=GPa)
#
#
# Indices 1 2 3 4 5 6 
#
# 1 14.3616 35.2155 42.0631 0.0000 0.0000 0.0000
# 2 35.2155 92.2506 49.3278 0.0000 0.0000 0.0000
# 3 42.0631 49.3278 138.8519 0.0000 0.0000 0.0000
# 4 0.0000 0.0000 0.0000 -6.0716 0.0000 0.0000
# 5 0.0000 0.0000 0.0000 0.0000 15.3411 0.0000
# 6 0.0000 0.0000 0.0000 0.0000 0.0000 -9.1176
#
#
#
# Elastic Compliance Matrix: (Units=1/GPa)
#
#
# Indices 1 2 3 4 5 6 
#
# 1 -0.257703 0.069911 0.053231 0.000000 0.000000 0.000000
# 2 0.069911 -0.005584 -0.019195 0.000000 0.000000 0.000000
# 3 0.053231 -0.019195 -0.002104 0.000000 0.000000 0.000000
# 4 0.000000 0.000000 0.000000 -0.164701 0.000000 0.000000
# 5 0.000000 0.000000 0.000000 0.000000 0.065184 0.000000
# 6 0.000000 0.000000 0.000000 0.000000 0.000000 -0.109677
#
#
# Mechanical properties :
#
#
# Convention : Reuss Voigt Hill
#
# Bulk Modulus (GPa) = -17.39238 55.40851 19.00807
# Shear Modulus (GPa) = -7.12610 7.95422 0.41406
#
# Velocity S-wave (km/s) = -1.90143 2.00887 0.45834
# Velocity P-wave (km/s) = 3.69386 5.78725 3.15021
#
# Compressibility (1/GPa) = -0.05749646
#
# Stress axis : x y z
#
# Youngs Moduli (GPa) = -3.88044 -179.08303 -475.18241
#
# Poissons Ratio (x) = 12.51996 25.29431
# Poissons Ratio (y) = 0.27129 -9.12107
# Poissons Ratio (z) = 0.20656 -3.43748
#
# Static dielectric constant tensor:
#      x y z
#    x 1.700740 0.000000 0.000000 
#    y 0.000000 1.754250 0.000000 
#    z 0.000000 0.000000 1.679570 
# 
# From -- ./inp_files/20603.got.cif
#   From: 2010.05.17/outbox.ucp.g08.bks.cvg/sg53_11_cif.got.tgz:20603.got - 2010.06.11 16:32:34.
