data_PCOD9420164
_publ_section_title
;
Structure prediction by ZEFSAII (Michael W. Deem and Ramdas Pophale) SiO2 
 PCOD9420164
Probable space group: P M N A
;
_chemical_formula_sum "Si O2"
_cell_formula_units_Z 48
_cell_length_a 9.000000
_cell_length_b 9.000000
_cell_length_c 30.000000
_cell_angle_alpha 90.000000
_cell_angle_beta 90.000000
_cell_angle_gamma 90.000000
_cell_volume 2430.000000
_symmetry_space_group_name_H-M "P M N A"
_symmetry_group_IT_number 53
_symmetry_cell_setting 'orthorhombic'
loop_
_space_group_symop_operation_xyz
x,y,z
1/2-x,-y,1/2+z
x,-y,-z
1/2-x,y,1/2-z
-x,-y,-z
1/2+x,y,1/2-z
-x,y,z
1/2+x,-y,1/2+z
loop_
_atom_site_type_symbol
_atom_site_label
_atom_site_fract_x
_atom_site_fract_y
_atom_site_fract_z
Si Si1 0.162018 0.837837 0.383249
Si Si2 0.838675 0.886615 0.870636
Si Si3 0.829971 0.366994 0.053735
Si Si4 0.830901 0.837951 0.489143
Si Si5 0.676550 0.561958 0.369823
Si Si6 0.331785 0.651381 0.704584
O O1 0.166840 0.825567 0.436432
O O2 0.285478 0.731078 0.363817
O O3 0.000000 0.793071 0.367250
O O4 0.201940 0.004911 0.372601
O O5 0.829507 0.766681 0.910087
O O6 0.837641 0.799453 0.824585
O O7 0.000000 0.962747 0.876185
O O8 0.764250 0.501381 0.082763
O O9 0.000000 0.399104 0.041695
O O10 0.747511 0.301274 0.011632
O O11 0.000000 0.842170 0.506721
O O12 0.761029 0.000000 0.500000
O O13 0.500000 0.533778 0.371595
O O14 0.738705 0.468410 0.328859
O O15 0.250000 0.671301 0.750000
O O16 0.500000 0.603242 0.714131
#
# Coordination Sequence:
#
# PCOD9420164 Si02
#       6
#     8   8   8   8   8   8
#     4  11  22  34  51  78 108 142 181 217 261 313
#     4   9  18  34  55  78 105 135 170 215 261 305
#     4   9  18  33  54  76  98 137 187 220 252 307
#     4  10  20  33  48  72 109 144 177 224 270 302
#     4   9  20  38  55  76 109 142 173 217 268 313
#     4   9  19  37  61  85 106 132 169 212 263 320
#
# _framework density 19.753086
#
# number of rings (size 3 to 8) (size 9 to 14) (size 15 to 20)
#    0.000    2.500    1.667    2.500    0.000    4.333 
#    0.000    7.500    0.000    0.000    0.000    0.000 
#    0.000    0.000    0.000    0.000    0.000    0.000 
#
# Total GULP energy -267212.023444 kJ/mol
# GULP energy per Si atom -5566.917155 kJ/mol
# Density = 1.970813 g / cm^3
# Si number density = 19.753086 Si / 1000 Ang^3
#
#
#
# Elastic Constant Matrix: (Units=GPa)
#
#
# Indices 1 2 3 4 5 6 
#
# 1 11.4486 11.2737 27.8583 0.0000 0.0000 0.0000
# 2 11.2737 41.9881 21.9334 0.0000 0.0000 0.0000
# 3 27.8583 21.9334 74.1406 0.0000 0.0000 0.0000
# 4 0.0000 0.0000 0.0000 0.1194 0.0000 0.0000
# 5 0.0000 0.0000 0.0000 0.0000 10.0491 0.0000
# 6 0.0000 0.0000 0.0000 0.0000 0.0000 24.0838
#
#
#
# Elastic Compliance Matrix: (Units=1/GPa)
#
#
# Indices 1 2 3 4 5 6 
#
# 1 1.385461 -0.118342 -0.485578 0.000000 0.000000 0.000000
# 2 -0.118342 0.038278 0.033143 0.000000 0.000000 0.000000
# 3 -0.485578 0.033143 0.186139 0.000000 0.000000 0.000000
# 4 0.000000 0.000000 0.000000 8.374485 0.000000 0.000000
# 5 0.000000 0.000000 0.000000 0.000000 0.099512 0.000000
# 6 0.000000 0.000000 0.000000 0.000000 0.000000 0.041522
#
#
# Mechanical properties :
#
#
# Convention : Reuss Voigt Hill
#
# Bulk Modulus (GPa) = 2.13527 27.74534 14.94031
# Shear Modulus (GPa) = 0.43771 11.28458 5.86115
#
# Velocity S-wave (km/s) = 0.47125 2.39274 1.72443
# Velocity P-wave (km/s) = 1.17449 4.65942 3.39777
#
# Compressibility (1/GPa) = 0.46832468
#
# Stress axis : x y z
#
# Youngs Moduli (GPa) = 0.72178 26.12471 5.37233
#
# Poissons Ratio (x) = 3.09166 2.60868
# Poissons Ratio (y) = 0.08542 -0.17806
# Poissons Ratio (z) = 0.35048 -0.86586
#
# Static dielectric constant tensor:
#      x y z
#    x 1.718200 0.000000 0.000000 
#    y 0.000000 1.708140 0.000000 
#    z 0.000000 0.000000 1.674820 
# 
# From -- ./inp_files/37662.got.cif
#   From: 2010.05.17/outbox.ucp.g08.bks.cvg/sg53_19_cif.got.tgz:37662.got - 2010.06.11 16:32:34.
