data_PCOD9420424
_publ_section_title
;
Structure prediction by ZEFSAII (Michael W. Deem and Ramdas Pophale) SiO2 
 PCOD9420424
Probable space group: P C C A
;
_chemical_formula_sum "Si O2"
_cell_formula_units_Z 48
_cell_length_a 14.245209
_cell_length_b 9.684575
_cell_length_c 20.113210
_cell_angle_alpha 90.000000
_cell_angle_beta 90.000000
_cell_angle_gamma 90.000000
_cell_volume 2774.794214
_symmetry_space_group_name_H-M "P C C A"
_symmetry_group_IT_number 54
_symmetry_cell_setting 'orthorhombic'
loop_
_space_group_symop_operation_xyz
x,y,z
1/2-x,-y,z
1/2+x,-y,1/2-z
-x,y,1/2-z
-x,-y,-z
1/2+x,y,-z
1/2-x,y,1/2+z
x,-y,1/2+z
loop_
_atom_site_type_symbol
_atom_site_label
_atom_site_fract_x
_atom_site_fract_y
_atom_site_fract_z
Si Si1 0.414549 0.612046 0.414108
Si Si2 0.458651 0.969693 0.574597
Si Si3 0.750000 0.000000 0.950557
Si Si4 0.233142 0.769560 0.445460
Si Si5 0.935685 0.857217 0.686001
Si Si6 0.750000 0.000000 0.165476
Si Si7 0.974266 0.680078 0.049698
O O1 0.305328 0.646071 0.430848
O O2 0.429053 0.708011 0.349753
O O3 0.453749 0.456881 0.406818
O O4 0.470073 0.656542 0.481080
O O5 0.350791 0.018052 0.583818
O O6 0.473600 0.806335 0.585309
O O7 0.500000 0.000000 0.500000
O O8 0.521368 0.050273 0.627101
O O9 0.772437 0.130738 0.997578
O O10 0.131316 0.723763 0.468233
O O11 0.220789 0.872078 0.382521
O O12 0.837256 0.932389 0.703536
O O13 0.000000 0.851582 0.750000
#
# Coordination Sequence:
#
# PCOD9420424 Si02
#       7
#     8   8   4   8   8   4   8
#     4  10  21  33  51  85 112 147 181 232 280 339
#     4  12  19  35  56  83 112 145 186 239 280 332
#     4  11  18  27  52  84 116 140 180 238 294 316
#     4  10  16  30  53  83 111 142 181 234 271 332
#     4  11  22  38  58  81 113 150 186 229 285 336
#     4   9  18  33  58  80 104 138 196 222 264 340
#     4  11  19  32  55  82 113 138 189 229 284 323
#
# _framework density 17.298579
#
# number of rings (size 3 to 8) (size 9 to 14) (size 15 to 20)
#    0.000    1.333    6.667    1.500    0.000    0.667 
#    0.000    0.833    0.000    0.000    8.667    0.000 
#    0.000    0.000    0.000    0.000    0.000    0.000 
#
# Total GULP energy -267202.758546 kJ/mol
# GULP energy per Si atom -5566.724136 kJ/mol
# Density = 1.725921 g / cm^3
# Si number density = 17.298579 Si / 1000 Ang^3
#
#
#
# Elastic Constant Matrix: (Units=GPa)
#
#
# Indices 1 2 3 4 5 6 
#
# 1 107.4041 22.6487 18.6676 0.0000 0.0000 0.0000
# 2 22.6487 104.7692 17.4688 0.0000 0.0000 0.0000
# 3 18.6676 17.4688 41.3483 0.0000 0.0000 0.0000
# 4 0.0000 0.0000 0.0000 9.9696 0.0000 0.0000
# 5 0.0000 0.0000 0.0000 0.0000 21.0487 0.0000
# 6 0.0000 0.0000 0.0000 0.0000 0.0000 28.2594
#
#
#
# Elastic Compliance Matrix: (Units=1/GPa)
#
#
# Indices 1 2 3 4 5 6 
#
# 1 0.010337 -0.001567 -0.004005 0.000000 0.000000 0.000000
# 2 -0.001567 0.010506 -0.003731 0.000000 0.000000 0.000000
# 3 -0.004005 -0.003731 0.027569 0.000000 0.000000 0.000000
# 4 0.000000 0.000000 0.000000 0.100305 0.000000 0.000000
# 5 0.000000 0.000000 0.000000 0.000000 0.047509 0.000000
# 6 0.000000 0.000000 0.000000 0.000000 0.000000 0.035386
#
#
# Mechanical properties :
#
#
# Convention : Reuss Voigt Hill
#
# Bulk Modulus (GPa) = 33.54999 41.23241 37.39120
# Shear Modulus (GPa) = 19.21944 24.83797 22.02870
#
# Velocity S-wave (km/s) = 3.33684 3.79336 3.57240
# Velocity P-wave (km/s) = 5.85515 6.56304 6.21918
#
# Compressibility (1/GPa) = 0.02980626
#
# Stress axis : x y z
#
# Youngs Moduli (GPa) = 96.73866 95.18728 36.27243
#
# Poissons Ratio (x) = 0.14915 0.14527
# Poissons Ratio (y) = 0.15158 0.13533
# Poissons Ratio (z) = 0.38743 0.35514
#
# Static dielectric constant tensor:
#      x y z
#    x 1.656350 0.000000 0.000000 
#    y 0.000000 1.666880 0.000000 
#    z 0.000000 0.000000 1.558920 
# 
# From -- ./inp_files/18058.got.cif
#   From: 2010.05.17/outbox.cif.g08.bks.cpg/sg54_10_cif.got.tgz:18058.got - 2010.06.03 13:09:01.
