data_PCOD9420118
_publ_section_title
;
Structure prediction by ZEFSAII (Michael W. Deem and Ramdas Pophale) SiO2 
 PCOD9420118
Probable space group: P M N A
;
_chemical_formula_sum "Si O2"
_cell_formula_units_Z 40
_cell_length_a 9.000000
_cell_length_b 12.000000
_cell_length_c 21.000000
_cell_angle_alpha 90.000000
_cell_angle_beta 90.000000
_cell_angle_gamma 90.000000
_cell_volume 2268.000000
_symmetry_space_group_name_H-M "P M N A"
_symmetry_group_IT_number 53
_symmetry_cell_setting 'orthorhombic'
loop_
_space_group_symop_operation_xyz
x,y,z
1/2-x,-y,1/2+z
x,-y,-z
1/2-x,y,1/2-z
-x,-y,-z
1/2+x,y,1/2-z
-x,y,z
1/2+x,-y,1/2+z
loop_
_atom_site_type_symbol
_atom_site_label
_atom_site_fract_x
_atom_site_fract_y
_atom_site_fract_z
Si Si1 0.675383 0.726909 0.317950
Si Si2 0.327851 0.548777 0.096573
Si Si3 0.178775 0.023172 0.819429
Si Si4 0.820895 0.908928 0.947846
Si Si5 0.827883 0.674181 0.538812
O O1 0.750000 0.718918 0.250000
O O2 0.500000 0.723699 0.311968
O O3 0.731061 0.624955 0.358855
O O4 0.715211 0.850777 0.342537
O O5 0.500000 0.546403 0.117541
O O6 0.275934 0.421711 0.087672
O O7 0.325197 0.611406 0.028742
O O8 0.250000 0.004730 0.750000
O O9 0.000000 0.015885 0.812530
O O10 0.227082 0.942923 0.876474
O O11 0.764374 0.786175 0.963066
O O12 0.000000 0.910364 0.948883
O O13 0.770023 0.000000 0.000000
O O14 0.000000 0.700507 0.553059
#
# Coordination Sequence:
#
# PCOD9420118 Si02
#       5
#     8   8   8   8   8
#     4  10  19  32  52  76 100 129 166 205 247 295
#     4   9  18  34  52  72 101 131 162 204 250 295
#     4   9  19  34  51  73 102 134 166 205 252 299
#     4  10  20  34  52  76 105 133 167 212 255 299
#     4   9  19  34  52  74 100 131 165 204 250 297
#
# _framework density 17.636683999999999
#
# number of rings (size 3 to 8) (size 9 to 14) (size 15 to 20)
#    0.000    2.600    0.000    3.000    0.000    5.200 
#    0.000    3.000    0.000    2.400    0.000    0.000 
#    0.000    0.000    0.000    0.000    0.000    0.000 
#
# Total GULP energy -222817.718046 kJ/mol
# GULP energy per Si atom -5570.442951 kJ/mol
# Density = 1.759654 g / cm^3
# Si number density = 17.636684 Si / 1000 Ang^3
#
#
#
# Elastic Constant Matrix: (Units=GPa)
#
#
# Indices 1 2 3 4 5 6 
#
# 1 17.8258 37.1104 21.4265 0.0000 0.0000 0.0000
# 2 37.1104 114.0335 41.4477 0.0000 0.0000 0.0000
# 3 21.4265 41.4477 32.0367 0.0000 0.0000 0.0000
# 4 0.0000 0.0000 0.0000 33.4138 0.0000 0.0000
# 5 0.0000 0.0000 0.0000 0.0000 22.2313 0.0000
# 6 0.0000 0.0000 0.0000 0.0000 0.0000 21.7871
#
#
#
# Elastic Compliance Matrix: (Units=1/GPa)
#
#
# Indices 1 2 3 4 5 6 
#
# 1 0.491149 -0.076341 -0.229719 0.000000 0.000000 0.000000
# 2 -0.076341 0.028419 0.014290 0.000000 0.000000 0.000000
# 3 -0.229719 0.014290 0.166365 0.000000 0.000000 0.000000
# 4 0.000000 0.000000 0.000000 0.029928 0.000000 0.000000
# 5 0.000000 0.000000 0.000000 0.000000 0.044982 0.000000
# 6 0.000000 0.000000 0.000000 0.000000 0.000000 0.045899
#
#
# Mechanical properties :
#
#
# Convention : Reuss Voigt Hill
#
# Bulk Modulus (GPa) = 9.76624 40.42947 25.09785
# Shear Modulus (GPa) = 3.51022 19.74718 11.62870
#
# Velocity S-wave (km/s) = 1.41231 3.34977 2.57056
# Velocity P-wave (km/s) = 2.86513 6.15910 4.80331
#
# Compressibility (1/GPa) = 0.10239360
#
# Stress axis : x y z
#
# Youngs Moduli (GPa) = 2.03604 35.18719 6.01087
#
# Poissons Ratio (x) = 2.68622 1.38081
# Poissons Ratio (y) = 0.15543 -0.08589
# Poissons Ratio (z) = 0.46772 -0.50281
#
# Static dielectric constant tensor:
#      x y z
#    x 1.592000 0.000000 0.000000 
#    y 0.000000 1.644640 0.000000 
#    z 0.000000 0.000000 1.547800 
# 
# From -- ./inp_files/25839.got.cif
#   From: 2010.05.17/outbox.ucp.g08.bks.cvg/sg53_13_cif.got.tgz:25839.got - 2010.06.11 16:32:34.
