data_PCOD9420980
_publ_section_title
;
Structure prediction by ZEFSAII (Michael W. Deem and Ramdas Pophale) SiO2 
 PCOD9420980
Probable space group: P C C A
;
_chemical_formula_sum "Si O2"
_cell_formula_units_Z 48
_cell_length_a 16.231384
_cell_length_b 8.834126
_cell_length_c 18.861498
_cell_angle_alpha 90.000000
_cell_angle_beta 90.000000
_cell_angle_gamma 90.000000
_cell_volume 2704.551922
_symmetry_space_group_name_H-M "P C C A"
_symmetry_group_IT_number 54
_symmetry_cell_setting 'orthorhombic'
loop_
_space_group_symop_operation_xyz
x,y,z
1/2-x,-y,z
1/2+x,-y,1/2-z
-x,y,1/2-z
-x,-y,-z
1/2+x,y,-z
1/2-x,y,1/2+z
x,-y,1/2+z
loop_
_atom_site_type_symbol
_atom_site_label
_atom_site_fract_x
_atom_site_fract_y
_atom_site_fract_z
Si Si1 0.482325 0.077707 0.574923
Si Si2 0.079771 0.628494 0.203068
Si Si3 0.839309 0.565024 0.672940
Si Si4 0.583295 0.876494 0.207946
Si Si5 0.004636 0.436871 0.421423
Si Si6 0.658274 0.061055 0.333429
O O1 0.551726 0.048544 0.635264
O O2 0.480056 0.260216 0.574288
O O3 0.500000 0.000000 0.500000
O O4 0.398614 0.009145 0.605475
O O5 0.129254 0.526850 0.258721
O O6 0.048475 0.527432 0.137117
O O7 0.137279 0.761891 0.173242
O O8 0.000000 0.684056 0.250000
O O9 0.750000 0.500000 0.655451
O O10 0.853263 0.740922 0.692999
O O11 0.902796 0.545798 0.608337
O O12 0.500000 0.818833 0.250000
O O13 0.625323 0.993955 0.259555
O O14 0.000000 0.500000 0.500000
O O15 0.750000 0.000000 0.343519
#
# Coordination Sequence:
#
# PCOD9420980 Si02
#       6
#     8   8   8   8   8   8
#     4  10  20  37  57  75 106 147 181 215 265 330
#     4  10  19  33  56  81 108 142 179 218 268 328
#     4  10  19  34  55  81 107 135 177 229 269 309
#     4   9  18  35  56  77 106 145 179 211 264 326
#     4  10  21  37  56  77 106 146 184 215 263 329
#     4  11  21  34  54  83 109 135 177 228 270 312
#
# _framework density 17.747857
#
# number of rings (size 3 to 8) (size 9 to 14) (size 15 to 20)
#    0.000    2.000    0.000    7.000    0.000    1.333 
#    0.000    6.667    0.000    0.000    0.000    0.000 
#    0.000    0.000    0.000    0.000    0.000    0.000 
#
# Total GULP energy -267680.624712 kJ/mol
# GULP energy per Si atom -5576.679682 kJ/mol
# Density = 1.770746 g / cm^3
# Si number density = 17.747857 Si / 1000 Ang^3
#
#
#
# Elastic Constant Matrix: (Units=GPa)
#
#
# Indices 1 2 3 4 5 6 
#
# 1 62.9094 66.6110 47.9355 0.0000 0.0000 0.0000
# 2 66.6110 91.5569 67.7596 0.0000 0.0000 0.0000
# 3 47.9355 67.7596 154.7603 0.0000 0.0000 0.0000
# 4 0.0000 0.0000 0.0000 28.4454 0.0000 0.0000
# 5 0.0000 0.0000 0.0000 0.0000 4.6938 0.0000
# 6 0.0000 0.0000 0.0000 0.0000 0.0000 18.3751
#
#
#
# Elastic Compliance Matrix: (Units=1/GPa)
#
#
# Indices 1 2 3 4 5 6 
#
# 1 0.069301 -0.051087 0.000902 0.000000 0.000000 0.000000
# 2 -0.051087 0.053818 -0.007740 0.000000 0.000000 0.000000
# 3 0.000902 -0.007740 0.009571 0.000000 0.000000 0.000000
# 4 0.000000 0.000000 0.000000 0.035155 0.000000 0.000000
# 5 0.000000 0.000000 0.000000 0.000000 0.213048 0.000000
# 6 0.000000 0.000000 0.000000 0.000000 0.000000 0.054421
#
#
# Mechanical properties :
#
#
# Convention : Reuss Voigt Hill
#
# Bulk Modulus (GPa) = 59.37808 74.87096 67.12452
# Shear Modulus (GPa) = 8.98026 18.76423 13.87224
#
# Velocity S-wave (km/s) = 2.25186 3.25509 2.79880
# Velocity P-wave (km/s) = 6.34746 7.51033 6.95325
#
# Compressibility (1/GPa) = 0.01684123
#
# Stress axis : x y z
#
# Youngs Moduli (GPa) = 14.42975 18.58120 104.48421
#
# Poissons Ratio (x) = 0.94926 -0.09428
# Poissons Ratio (y) = 0.73717 0.80867
# Poissons Ratio (z) = -0.01302 0.14381
#
# Static dielectric constant tensor:
#      x y z
#    x 1.596140 0.000000 0.000000 
#    y 0.000000 1.648460 0.000000 
#    z 0.000000 0.000000 1.581730 
# 
# From -- ./inp_files/21461.got.cif
#   From: 2010.05.17/outbox.cif.g08.bks.cpg/sg54_11_cif.got.tgz:21461.got - 2010.06.03 13:09:01.
