data_PCOD9420061
_publ_section_title
;
Structure prediction by ZEFSAII (Michael W. Deem and Ramdas Pophale) SiO2 
 PCOD9420061
Probable space group: P M N A
;
_chemical_formula_sum "Si O2"
_cell_formula_units_Z 32
_cell_length_a 21.414524
_cell_length_b 9.051506
_cell_length_c 7.292836
_cell_angle_alpha 90.000000
_cell_angle_beta 90.000000
_cell_angle_gamma 90.000000
_cell_volume 1413.597330
_symmetry_space_group_name_H-M "P M N A"
_symmetry_group_IT_number 53
_symmetry_cell_setting 'orthorhombic'
loop_
_space_group_symop_operation_xyz
x,y,z
1/2-x,-y,1/2+z
x,-y,-z
1/2-x,y,1/2-z
-x,-y,-z
1/2+x,y,1/2-z
-x,y,z
1/2+x,-y,1/2+z
loop_
_atom_site_type_symbol
_atom_site_label
_atom_site_fract_x
_atom_site_fract_y
_atom_site_fract_z
Si Si1 0.304312 0.261414 0.638769
Si Si2 0.339078 0.566168 0.678575
Si Si3 0.070016 0.107038 0.780723
Si Si4 0.931042 0.220657 0.363985
O O1 0.250000 0.179004 0.750000
O O2 0.315021 0.412194 0.757624
O O3 0.291152 0.329247 0.436253
O O4 0.368492 0.171279 0.624226
O O5 0.377188 0.500000 0.500000
O O6 0.379434 0.663000 0.810059
O O7 0.071958 0.175545 0.576310
O O8 0.000000 0.138957 0.855904
O O9 0.075341 0.931408 0.750077
O O10 0.000000 0.282193 0.327645
#
# Coordination Sequence:
#
# PCOD9420061 Si02
#       4
#     8   8   8   8
#     4   9  20  38  53  78 110 141 182 225 274 332
#     4   8  21  35  51  79 106 145 179 224 281 317
#     4   9  19  35  57  80 107 146 185 226 275 324
#     4   9  18  35  55  80 113 144 183 229 274 331
#
# _framework density 22.637281000000002
#
# number of rings (size 3 to 8) (size 9 to 14) (size 15 to 20)
#    1.500    1.500    0.000    1.500    0.000    8.500 
#    0.000   11.250    0.000    0.000    0.000    0.000 
#    0.000    0.000    0.000    0.000    0.000    0.000 
#
# Total GULP energy -178152.046622 kJ/mol
# GULP energy per Si atom -5567.251457 kJ/mol
# Density = 2.258576 g / cm^3
# Si number density = 22.637281 Si / 1000 Ang^3
#
#
#
# Elastic Constant Matrix: (Units=GPa)
#
#
# Indices 1 2 3 4 5 6 
#
# 1 91.1441 19.3526 34.4724 0.0000 0.0000 0.0000
# 2 19.3526 22.1226 14.2903 0.0000 0.0000 0.0000
# 3 34.4724 14.2903 59.0735 0.0000 0.0000 0.0000
# 4 0.0000 0.0000 0.0000 30.9388 0.0000 0.0000
# 5 0.0000 0.0000 0.0000 0.0000 -0.9710 0.0000
# 6 0.0000 0.0000 0.0000 0.0000 0.0000 19.9191
#
#
#
# Elastic Compliance Matrix: (Units=1/GPa)
#
#
# Indices 1 2 3 4 5 6 
#
# 1 0.015497 -0.009144 -0.006831 0.000000 0.000000 0.000000
# 2 -0.009144 0.058969 -0.008929 0.000000 0.000000 0.000000
# 3 -0.006831 -0.008929 0.023075 0.000000 0.000000 0.000000
# 4 0.000000 0.000000 0.000000 0.032322 0.000000 0.000000
# 5 0.000000 0.000000 0.000000 0.000000 -1.029911 0.000000
# 6 0.000000 0.000000 0.000000 0.000000 0.000000 0.050203
#
#
# Mechanical properties :
#
#
# Convention : Reuss Voigt Hill
#
# Bulk Modulus (GPa) = 20.95024 34.28566 27.61795
# Shear Modulus (GPa) = -6.37653 16.92571 5.27459
#
# Velocity S-wave (km/s) = -1.68016 2.73736 1.52810
# Velocity P-wave (km/s) = 2.34754 5.01691 3.91665
#
# Compressibility (1/GPa) = 0.04773215
#
# Stress axis : x y z
#
# Youngs Moduli (GPa) = 64.52931 16.95795 43.33784
#
# Poissons Ratio (x) = 0.15506 0.29605
# Poissons Ratio (y) = 0.59004 0.38698
# Poissons Ratio (z) = 0.44082 0.15142
#
# Static dielectric constant tensor:
#      x y z
#    x 1.887140 0.000000 0.000000 
#    y 0.000000 1.850740 0.000000 
#    z 0.000000 0.000000 1.945860 
# 
# From -- ./inp_files/11443.got.cif
#   From: 2010.05.17/outbox.cif.g08.bks.cpg/sg53_6_cif.got.tgz:11443.got - 2010.06.03 12:45:16.
