data_PCOD9420295
_publ_section_title
;
Structure prediction by ZEFSAII (Michael W. Deem and Ramdas Pophale) SiO2 
 PCOD9420295
Probable space group: P M N A
;
_chemical_formula_sum "Si O2"
_cell_formula_units_Z 32
_cell_length_a 15.000000
_cell_length_b 12.000000
_cell_length_c 9.000000
_cell_angle_alpha 90.000000
_cell_angle_beta 90.000000
_cell_angle_gamma 90.000000
_cell_volume 1620.000000
_symmetry_space_group_name_H-M "P M N A"
_symmetry_group_IT_number 53
_symmetry_cell_setting 'orthorhombic'
loop_
_space_group_symop_operation_xyz
x,y,z
1/2-x,-y,1/2+z
x,-y,-z
1/2-x,y,1/2-z
-x,-y,-z
1/2+x,y,1/2-z
-x,y,z
1/2+x,-y,1/2+z
loop_
_atom_site_type_symbol
_atom_site_label
_atom_site_fract_x
_atom_site_fract_y
_atom_site_fract_z
Si Si1 0.145046 0.063152 0.775106
Si Si2 0.000000 0.863569 0.452430
Si Si3 0.663343 0.417772 0.350686
Si Si4 0.500000 0.394503 0.117691
Si Si5 0.104677 0.828218 0.905856
O O1 0.250000 0.074102 0.750000
O O2 0.088219 0.129468 0.651309
O O3 0.124135 0.929268 0.788687
O O4 0.119624 0.116306 0.933425
O O5 0.000000 0.738809 0.545017
O O6 0.000000 0.000000 0.500000
O O7 0.655132 0.500000 0.500000
O O8 0.750000 0.445512 0.250000
O O9 0.583330 0.416400 0.228914
O O10 0.661736 0.285721 0.397109
O O11 0.500000 0.500000 0.000000
O O12 0.000000 0.799388 0.891185
#
# Coordination Sequence:
#
# PCOD9420295 Si02
#       5
#     8   4   8   4   8
#     4  11  24  40  69 104 143 189 241 307 372 440
#     4  12  26  43  68 105 152 189 251 305 367 443
#     4  12  28  49  75 103 144 190 248 307 371 444
#     4  12  29  48  74 109 149 195 249 300 371 445
#     4  11  22  45  70  99 141 189 246 299 379 438
#
# _framework density 19.753086
#
# number of rings (size 3 to 8) (size 9 to 14) (size 15 to 20)
#    0.000    0.500    3.750    4.125   10.500    1.000 
#    0.000    0.000    0.000    0.000    0.000    0.000 
#    0.000    0.000    0.000    0.000    0.000    0.000 
#
# Total GULP energy -178211.558685 kJ/mol
# GULP energy per Si atom -5569.111209 kJ/mol
# Density = 1.970813 g / cm^3
# Si number density = 19.753086 Si / 1000 Ang^3
#
#
#
# Elastic Constant Matrix: (Units=GPa)
#
#
# Indices 1 2 3 4 5 6 
#
# 1 157.2848 27.9380 55.0228 0.0000 0.0000 0.0000
# 2 27.9380 161.8829 68.5177 0.0000 0.0000 0.0000
# 3 55.0228 68.5177 122.4995 0.0000 0.0000 0.0000
# 4 0.0000 0.0000 0.0000 54.0687 0.0000 0.0000
# 5 0.0000 0.0000 0.0000 0.0000 38.1386 0.0000
# 6 0.0000 0.0000 0.0000 0.0000 0.0000 24.7432
#
#
#
# Elastic Compliance Matrix: (Units=1/GPa)
#
#
# Indices 1 2 3 4 5 6 
#
# 1 0.007547 0.000173 -0.003487 0.000000 0.000000 0.000000
# 2 0.000173 0.008097 -0.004607 0.000000 0.000000 0.000000
# 3 -0.003487 -0.004607 0.012306 0.000000 0.000000 0.000000
# 4 0.000000 0.000000 0.000000 0.018495 0.000000 0.000000
# 5 0.000000 0.000000 0.000000 0.000000 0.026220 0.000000
# 6 0.000000 0.000000 0.000000 0.000000 0.000000 0.040415
#
#
# Mechanical properties :
#
#
# Convention : Reuss Voigt Hill
#
# Bulk Modulus (GPa) = 82.57840 82.73602 82.65721
# Shear Modulus (GPa) = 37.60587 42.73602 40.17094
#
# Velocity S-wave (km/s) = 4.36799 4.65640 4.51450
# Velocity P-wave (km/s) = 8.20580 8.41935 8.31326
#
# Compressibility (1/GPa) = 0.01210970
#
# Stress axis : x y z
#
# Youngs Moduli (GPa) = 132.50517 123.49810 81.25966
#
# Poissons Ratio (x) = -0.02141 0.28333
# Poissons Ratio (y) = -0.02297 0.37436
# Poissons Ratio (z) = 0.46201 0.56895
#
# Static dielectric constant tensor:
#      x y z
#    x 1.725720 0.000000 0.000000 
#    y 0.000000 1.753800 0.000000 
#    z 0.000000 0.000000 1.743910 
# 
# From -- ./inp_files/8174.got.cif
#   From: 2010.05.17/outbox.ucp.g08.bks.cvg/sg53_5_cif.got.tgz:8174.got - 2010.06.11 16:32:34.
