data_PCOD9420978
_publ_section_title
;
Structure prediction by ZEFSAII (Michael W. Deem and Ramdas Pophale) SiO2 
 PCOD9420978
Probable space group: P C C A
;
_chemical_formula_sum "Si O2"
_cell_formula_units_Z 56
_cell_length_a 5.418833
_cell_length_b 28.580062
_cell_length_c 16.115733
_cell_angle_alpha 90.000000
_cell_angle_beta 90.000000
_cell_angle_gamma 90.000000
_cell_volume 2495.852967
_symmetry_space_group_name_H-M "P C C A"
_symmetry_group_IT_number 54
_symmetry_cell_setting 'orthorhombic'
loop_
_space_group_symop_operation_xyz
x,y,z
1/2-x,-y,z
1/2+x,-y,1/2-z
-x,y,1/2-z
-x,-y,-z
1/2+x,y,-z
1/2-x,y,1/2+z
x,-y,1/2+z
loop_
_atom_site_type_symbol
_atom_site_label
_atom_site_fract_x
_atom_site_fract_y
_atom_site_fract_z
Si Si1 0.752304 0.311279 0.289846
Si Si2 0.714360 0.674444 0.483201
Si Si3 0.250518 0.582245 0.777390
Si Si4 0.803780 0.130078 0.054384
Si Si5 0.250441 0.945132 0.302757
Si Si6 0.316363 0.774474 0.954817
Si Si7 0.808337 0.551863 0.549354
O O1 0.500000 0.291572 0.250000
O O2 0.776052 0.308311 0.388670
O O3 0.750020 0.366629 0.266837
O O4 0.000000 0.290551 0.250000
O O5 0.463859 0.648081 0.499866
O O6 0.711898 0.718192 0.548858
O O7 0.500000 0.558288 0.750000
O O8 0.245056 0.587125 0.875691
O O9 0.000000 0.558227 0.750000
O O10 0.764243 0.088609 0.118633
O O11 0.766716 0.181215 0.099426
O O12 0.575679 0.127567 0.987939
O O13 0.500000 0.937312 0.250000
O O14 0.000000 0.936609 0.250000
O O15 0.250000 0.000000 0.327065
O O16 0.605648 0.781662 0.973443
O O17 0.750000 0.500000 0.585625
O O18 0.594023 0.554059 0.479211
#
# Coordination Sequence:
#
# PCOD9420978 Si02
#       7
#     8   8   8   8   8   8   8
#     4  10  21  38  55  81 116 145 181 226 274 331
#     4  10  19  35  60  81 105 143 185 225 274 326
#     4  10  21  38  56  82 117 147 182 226 275 326
#     4  10  19  33  56  80 107 139 184 230 266 319
#     4  10  21  36  53  77 112 148 179 219 275 330
#     4   8  16  30  52  76 101 132 174 221 267 313
#     4  10  21  38  60  85 112 146 189 231 271 321
#
# _framework density 22.437221000000001
#
# number of rings (size 3 to 8) (size 9 to 14) (size 15 to 20)
#    0.000    2.286    0.000    2.571    0.000    1.143 
#    0.000   17.143    0.000   46.286    0.000    0.000 
#    0.000    0.000    0.000    0.000    0.000    0.000 
#
# Total GULP energy -311941.179619 kJ/mol
# GULP energy per Si atom -5570.378207 kJ/mol
# Density = 2.238615 g / cm^3
# Si number density = 22.437221 Si / 1000 Ang^3
#
#
#
# Elastic Constant Matrix: (Units=GPa)
#
#
# Indices 1 2 3 4 5 6 
#
# 1 221.6169 -0.4502 43.5940 0.0000 0.0000 0.0000
# 2 -0.4502 84.0674 11.5755 0.0000 0.0000 0.0000
# 3 43.5940 11.5755 63.9130 0.0000 0.0000 0.0000
# 4 0.0000 0.0000 0.0000 7.8775 0.0000 0.0000
# 5 0.0000 0.0000 0.0000 0.0000 34.3918 0.0000
# 6 0.0000 0.0000 0.0000 0.0000 0.0000 32.0884
#
#
#
# Elastic Compliance Matrix: (Units=1/GPa)
#
#
# Indices 1 2 3 4 5 6 
#
# 1 0.005235 0.000533 -0.003667 0.000000 0.000000 0.000000
# 2 0.000533 0.012254 -0.002583 0.000000 0.000000 0.000000
# 3 -0.003667 -0.002583 0.018615 0.000000 0.000000 0.000000
# 4 0.000000 0.000000 0.000000 0.126944 0.000000 0.000000
# 5 0.000000 0.000000 0.000000 0.000000 0.029077 0.000000
# 6 0.000000 0.000000 0.000000 0.000000 0.000000 0.031164
#
#
# Mechanical properties :
#
#
# Convention : Reuss Voigt Hill
#
# Bulk Modulus (GPa) = 40.53527 53.22620 46.88073
# Shear Modulus (GPa) = 20.58077 35.86341 28.22209
#
# Velocity S-wave (km/s) = 3.03192 4.00232 3.55043
# Velocity P-wave (km/s) = 5.51017 6.71803 6.14385
#
# Compressibility (1/GPa) = 0.02466988
#
# Stress axis : x y z
#
# Youngs Moduli (GPa) = 191.03255 81.60794 53.71936
#
# Poissons Ratio (x) = -0.04349 0.19699
# Poissons Ratio (y) = -0.10181 0.13875
# Poissons Ratio (z) = 0.70052 0.21078
#
# Static dielectric constant tensor:
#      x y z
#    x 1.911700 0.000000 0.000000 
#    y 0.000000 1.890150 0.000000 
#    z 0.000000 0.000000 1.833710 
# 
# From -- ./inp_files/10978.got.cif
#   From: 2010.05.17/outbox.cif.g08.bks.cpg/sg54_6_cif.got.tgz:10978.got - 2010.06.03 13:09:01.
