data_PCOD9420347
_publ_section_title
;
Structure prediction by ZEFSAII (Michael W. Deem and Ramdas Pophale) SiO2 
 PCOD9420347
Probable space group: P C C A
;
_chemical_formula_sum "Si O2"
_cell_formula_units_Z 52
_cell_length_a 5.629022
_cell_length_b 22.989152
_cell_length_c 17.684225
_cell_angle_alpha 90.000000
_cell_angle_beta 90.000000
_cell_angle_gamma 90.000000
_cell_volume 2288.452643
_symmetry_space_group_name_H-M "P C C A"
_symmetry_group_IT_number 54
_symmetry_cell_setting 'orthorhombic'
loop_
_space_group_symop_operation_xyz
x,y,z
1/2-x,-y,z
1/2+x,-y,1/2-z
-x,y,1/2-z
-x,-y,-z
1/2+x,y,-z
1/2-x,y,1/2+z
x,-y,1/2+z
loop_
_atom_site_type_symbol
_atom_site_label
_atom_site_fract_x
_atom_site_fract_y
_atom_site_fract_z
Si Si1 0.496745 0.522960 0.413320
Si Si2 0.623678 0.920108 0.992922
Si Si3 0.379158 0.164721 0.144128
Si Si4 0.250000 0.000000 0.291050
Si Si5 0.941745 0.338336 0.086144
Si Si6 0.630922 0.872228 0.151281
Si Si7 0.436023 0.292976 0.087648
O O1 0.250000 0.500000 0.377645
O O2 0.500000 0.500000 0.500000
O O3 0.467118 0.592257 0.416461
O O4 0.750000 0.500000 0.380887
O O5 0.615104 0.890511 0.911863
O O6 0.374555 0.950358 0.003008
O O7 0.627634 0.870674 0.059112
O O8 0.635634 0.158837 0.183101
O O9 0.405143 0.224362 0.098005
O O10 0.116286 0.155731 0.177151
O O11 0.159921 0.058728 0.332252
O O12 0.500000 0.018025 0.250000
O O13 0.190149 0.317496 0.122250
O O14 0.689040 0.316423 0.119358
O O15 0.939531 0.313104 0.000159
#
# Coordination Sequence:
#
# PCOD9420347 Si02
#       7
#     8   8   8   4   8   8   8
#     4  10  16  25  35  43  70 111 160 226 267 258
#     4   8  16  27  46  71 100 125 145 165 209 286
#     4  10  19  31  51  76 106 131 144 177 237 305
#     4  12  26  46  66  76  94 120 154 212 250 258
#     4  10  19  24  35  60  80 117 173 197 243 294
#     4  10  21  36  54  78  95 120 161 178 229 307
#     4  10  18  25  39  59  93 118 149 185 236 290
#
# _framework density 22.722777000000001
#
# number of rings (size 3 to 8) (size 9 to 14) (size 15 to 20)
#    0.000    2.154    0.000    6.462   12.923    0.000 
#    0.000    6.923    0.000    0.000    0.000    0.000 
#    0.000    0.000    0.000    0.000    0.000    0.000 
#
# Total GULP energy -289683.146277 kJ/mol
# GULP energy per Si atom -5570.829736 kJ/mol
# Density = 2.267106 g / cm^3
# Si number density = 22.722777 Si / 1000 Ang^3
#
#
#
# Elastic Constant Matrix: (Units=GPa)
#
#
# Indices 1 2 3 4 5 6 
#
# 1 318.7424 72.5779 29.1145 0.0000 0.0000 0.0000
# 2 72.5779 139.4563 -5.0056 0.0000 0.0000 0.0000
# 3 29.1145 -5.0056 27.0320 0.0000 0.0000 0.0000
# 4 0.0000 0.0000 0.0000 10.4732 0.0000 0.0000
# 5 0.0000 0.0000 0.0000 0.0000 27.6798 0.0000
# 6 0.0000 0.0000 0.0000 0.0000 0.0000 41.7611
#
#
#
# Elastic Compliance Matrix: (Units=1/GPa)
#
#
# Indices 1 2 3 4 5 6 
#
# 1 0.004107 -0.002311 -0.004851 0.000000 0.000000 0.000000
# 2 -0.002311 0.008520 0.004067 0.000000 0.000000 0.000000
# 3 -0.004851 0.004067 0.042971 0.000000 0.000000 0.000000
# 4 0.000000 0.000000 0.000000 0.095482 0.000000 0.000000
# 5 0.000000 0.000000 0.000000 0.000000 0.036127 0.000000
# 6 0.000000 0.000000 0.000000 0.000000 0.000000 0.023946
#
#
# Mechanical properties :
#
#
# Convention : Reuss Voigt Hill
#
# Bulk Modulus (GPa) = 20.24022 75.40049 47.82035
# Shear Modulus (GPa) = 21.38465 41.88574 31.63519
#
# Velocity S-wave (km/s) = 3.07108 4.29807 3.73530
# Velocity P-wave (km/s) = 4.63704 7.60829 6.30032
#
# Compressibility (1/GPa) = 0.04940658
#
# Stress axis : x y z
#
# Youngs Moduli (GPa) = 243.50133 117.37596 23.27143
#
# Poissons Ratio (x) = 0.27131 0.11289
# Poissons Ratio (y) = 0.56283 -0.09465
# Poissons Ratio (z) = 1.18126 -0.47738
#
# Static dielectric constant tensor:
#      x y z
#    x 1.993290 0.000000 0.000000 
#    y 0.000000 1.816770 0.000000 
#    z 0.000000 0.000000 1.871950 
# 
# From -- ./inp_files/19827.got.cif
#   From: 2010.05.17/outbox.cif.g08.bks.cpg/sg54_10_cif.got.tgz:19827.got - 2010.06.03 13:09:01.
