data_PCOD9420407
_publ_section_title
;
Structure prediction by ZEFSAII (Michael W. Deem and Ramdas Pophale) SiO2 
 PCOD9420407
Probable space group: P C C A
;
_chemical_formula_sum "Si O2"
_cell_formula_units_Z 48
_cell_length_a 14.705104
_cell_length_b 30.480485
_cell_length_c 5.198764
_cell_angle_alpha 90.000000
_cell_angle_beta 90.000000
_cell_angle_gamma 90.000000
_cell_volume 2330.183252
_symmetry_space_group_name_H-M "P C C A"
_symmetry_group_IT_number 54
_symmetry_cell_setting 'orthorhombic'
loop_
_space_group_symop_operation_xyz
x,y,z
1/2-x,-y,z
1/2+x,-y,1/2-z
-x,y,1/2-z
-x,-y,-z
1/2+x,y,-z
1/2-x,y,1/2+z
x,-y,1/2+z
loop_
_atom_site_type_symbol
_atom_site_label
_atom_site_fract_x
_atom_site_fract_y
_atom_site_fract_z
Si Si1 0.688526 0.710159 0.558752
Si Si2 0.689101 0.618662 0.686754
Si Si3 0.390918 0.475614 0.265709
Si Si4 0.189977 0.804977 0.352641
Si Si5 0.058863 0.116381 0.004152
Si Si6 0.895673 0.981198 0.976531
O O1 0.728850 0.709638 0.269920
O O2 0.638344 0.664613 0.624340
O O3 0.643309 0.757349 0.604637
O O4 0.768819 0.618844 0.472331
O O5 0.634857 0.573739 0.661983
O O6 0.500000 0.478264 0.250000
O O7 0.357324 0.508626 0.487244
O O8 0.271463 0.806556 0.563215
O O9 0.126746 0.845596 0.419827
O O10 0.103308 0.070093 0.083919
O O11 0.000000 0.130909 0.250000
O O12 0.000000 0.105958 0.750000
O O13 0.853216 0.009360 0.750681
O O14 0.000000 0.000000 0.000000
#
# Coordination Sequence:
#
# PCOD9420407 Si02
#       6
#     8   8   8   8   8   8
#     4   8  16  32  53  73  98 135 172 204 254 320
#     4  10  19  32  54  79  97 126 178 223 248 288
#     4  10  21  35  49  70 106 142 167 198 259 323
#     4  10  21  38  56  77 111 147 172 211 277 335
#     4  12  21  33  57  86 105 134 184 229 255 307
#     4  10  16  30  49  76  98 135 174 213 252 310
#
# _framework density 20.599240000000002
#
# number of rings (size 3 to 8) (size 9 to 14) (size 15 to 20)
#    0.000    2.000    3.333    2.000    0.000    2.000 
#    0.000    0.833    0.000    6.000    0.000    0.000 
#    0.000    0.000    0.000    0.000    0.000    0.000 
#
# Total GULP energy -267628.332511 kJ/mol
# GULP energy per Si atom -5575.590261 kJ/mol
# Density = 2.055235 g / cm^3
# Si number density = 20.599240 Si / 1000 Ang^3
#
#
#
# Elastic Constant Matrix: (Units=GPa)
#
#
# Indices 1 2 3 4 5 6 
#
# 1 18.7572 12.9101 -2.7241 0.0000 0.0000 0.0000
# 2 12.9101 157.6781 -8.2005 0.0000 0.0000 0.0000
# 3 -2.7241 -8.2005 103.1995 0.0000 0.0000 0.0000
# 4 0.0000 0.0000 0.0000 33.2318 0.0000 0.0000
# 5 0.0000 0.0000 0.0000 0.0000 7.3316 0.0000
# 6 0.0000 0.0000 0.0000 0.0000 0.0000 20.6182
#
#
#
# Elastic Compliance Matrix: (Units=1/GPa)
#
#
# Indices 1 2 3 4 5 6 
#
# 1 0.056628 -0.004578 0.001131 0.000000 0.000000 0.000000
# 2 -0.004578 0.006738 0.000415 0.000000 0.000000 0.000000
# 3 0.001131 0.000415 0.009753 0.000000 0.000000 0.000000
# 4 0.000000 0.000000 0.000000 0.030092 0.000000 0.000000
# 5 0.000000 0.000000 0.000000 0.000000 0.136396 0.000000
# 6 0.000000 0.000000 0.000000 0.000000 0.000000 0.048501
#
#
# Mechanical properties :
#
#
# Convention : Reuss Voigt Hill
#
# Bulk Modulus (GPa) = 14.91313 31.51176 23.21244
# Shear Modulus (GPa) = 15.79663 30.74627 23.27145
#
# Velocity S-wave (km/s) = 2.77222 3.86760 3.36478
# Velocity P-wave (km/s) = 4.18357 5.93929 5.13700
#
# Compressibility (1/GPa) = 0.06705501
#
# Stress axis : x y z
#
# Youngs Moduli (GPa) = 17.65913 148.40320 102.53498
#
# Poissons Ratio (x) = 0.67934 -0.11597
# Poissons Ratio (y) = 0.08084 -0.04251
# Poissons Ratio (z) = -0.01997 -0.06153
#
# Static dielectric constant tensor:
#      x y z
#    x 1.649360 0.000000 0.000000 
#    y 0.000000 1.777520 0.000000 
#    z 0.000000 0.000000 2.349540 
# 
# From -- ./inp_files/613.got.cif
#   From: 2010.05.17/outbox.cif.g08.bks.cpg/sg54_1_cif.got.tgz:613.got - 2010.06.03 13:09:01.
