data_PCOD9420634
_publ_section_title
;
Structure prediction by ZEFSAII (Michael W. Deem and Ramdas Pophale) SiO2 
 PCOD9420634
Probable space group: P C C A
;
_chemical_formula_sum "Si O2"
_cell_formula_units_Z 48
_cell_length_a 11.942421
_cell_length_b 9.028867
_cell_length_c 24.406230
_cell_angle_alpha 90.000000
_cell_angle_beta 90.000000
_cell_angle_gamma 90.000000
_cell_volume 2631.639112
_symmetry_space_group_name_H-M "P C C A"
_symmetry_group_IT_number 54
_symmetry_cell_setting 'orthorhombic'
loop_
_space_group_symop_operation_xyz
x,y,z
1/2-x,-y,z
1/2+x,-y,1/2-z
-x,y,1/2-z
-x,-y,-z
1/2+x,y,-z
1/2-x,y,1/2+z
x,-y,1/2+z
loop_
_atom_site_type_symbol
_atom_site_label
_atom_site_fract_x
_atom_site_fract_y
_atom_site_fract_z
Si Si1 0.442050 0.705029 0.907394
Si Si2 0.882525 0.234984 0.467402
Si Si3 0.945461 0.956026 0.603594
Si Si4 0.250000 0.000000 0.981561
Si Si5 0.626304 0.523609 0.378168
Si Si6 0.250000 0.500000 0.349929
Si Si7 0.053752 0.706335 0.808973
O O1 0.555159 0.621103 0.891682
O O2 0.334098 0.607787 0.885840
O O3 0.451367 0.870141 0.882651
O O4 0.434578 0.726392 0.973242
O O5 0.773508 0.141942 0.481949
O O6 0.861197 0.381828 0.433617
O O7 0.953844 0.121698 0.429870
O O8 0.923022 0.854617 0.656182
O O9 0.848160 0.953799 0.558799
O O10 0.750000 0.500000 0.354980
O O11 0.545236 0.617980 0.339599
O O12 0.334911 0.603312 0.314612
O O13 0.000000 0.737532 0.750000
#
# Coordination Sequence:
#
# PCOD9420634 Si02
#       7
#     8   8   8   4   8   4   8
#     4  10  20  38  59  85 122 154 192 233 285 355
#     4  10  21  32  55  86 121 158 189 232 280 351
#     4  10  21  37  57  87 115 153 201 234 284 344
#     4  10  18  32  60  80 120 158 186 232 286 348
#     4  10  23  35  56  88 121 153 192 241 289 349
#     4  10  22  38  64  86 112 152 192 236 290 352
#     4  10  22  42  63  83 114 148 198 247 292 338
#
# _framework density 18.239583
#
# number of rings (size 3 to 8) (size 9 to 14) (size 15 to 20)
#    0.000    2.000    0.000    4.500    7.000    0.000 
#    0.000    3.333    7.333    0.000    0.000    0.000 
#    0.000    0.000    0.000    0.000    0.000    0.000 
#
# Total GULP energy -267416.282759 kJ/mol
# GULP energy per Si atom -5571.172557 kJ/mol
# Density = 1.819807 g / cm^3
# Si number density = 18.239583 Si / 1000 Ang^3
#
#
#
# Elastic Constant Matrix: (Units=GPa)
#
#
# Indices 1 2 3 4 5 6 
#
# 1 101.1006 55.3080 9.9196 0.0000 0.0000 0.0000
# 2 55.3080 137.0609 35.4520 0.0000 0.0000 0.0000
# 3 9.9196 35.4520 55.4064 0.0000 0.0000 0.0000
# 4 0.0000 0.0000 0.0000 33.3984 0.0000 0.0000
# 5 0.0000 0.0000 0.0000 0.0000 19.5627 0.0000
# 6 0.0000 0.0000 0.0000 0.0000 0.0000 23.3377
#
#
#
# Elastic Compliance Matrix: (Units=1/GPa)
#
#
# Indices 1 2 3 4 5 6 
#
# 1 0.012761 -0.005462 0.001211 0.000000 0.000000 0.000000
# 2 -0.005462 0.011081 -0.006112 0.000000 0.000000 0.000000
# 3 0.001211 -0.006112 0.021743 0.000000 0.000000 0.000000
# 4 0.000000 0.000000 0.000000 0.029942 0.000000 0.000000
# 5 0.000000 0.000000 0.000000 0.000000 0.051118 0.000000
# 6 0.000000 0.000000 0.000000 0.000000 0.000000 0.042849
#
#
# Mechanical properties :
#
#
# Convention : Reuss Voigt Hill
#
# Bulk Modulus (GPa) = 40.23156 54.99191 47.61174
# Shear Modulus (GPa) = 25.18803 28.11898 26.65350
#
# Velocity S-wave (km/s) = 3.72015 3.93064 3.82684
# Velocity P-wave (km/s) = 6.36851 7.12847 6.75918
#
# Compressibility (1/GPa) = 0.02485611
#
# Stress axis : x y z
#
# Youngs Moduli (GPa) = 78.36620 90.24215 45.99223
#
# Poissons Ratio (x) = 0.49294 -0.05568
# Poissons Ratio (y) = 0.42807 0.28113
# Poissons Ratio (z) = -0.09487 0.55160
#
# Static dielectric constant tensor:
#      x y z
#    x 1.592150 0.000000 0.000000 
#    y 0.000000 1.562800 0.000000 
#    z 0.000000 0.000000 1.615270 
# 
# From -- ./inp_files/24089.got.cif
#   From: 2010.05.17/outbox.cif.g08.bks.cpg/sg54_13_cif.got.tgz:24089.got - 2010.06.03 13:09:01.
