data_PCOD9420516
_publ_section_title
;
Structure prediction by ZEFSAII (Michael W. Deem and Ramdas Pophale) SiO2 
 PCOD9420516
Probable space group: P C C A
;
_chemical_formula_sum "Si O2"
_cell_formula_units_Z 56
_cell_length_a 10.830032
_cell_length_b 13.381957
_cell_length_c 19.581141
_cell_angle_alpha 90.000000
_cell_angle_beta 90.000000
_cell_angle_gamma 90.000000
_cell_volume 2837.836463
_symmetry_space_group_name_H-M "P C C A"
_symmetry_group_IT_number 54
_symmetry_cell_setting 'orthorhombic'
loop_
_space_group_symop_operation_xyz
x,y,z
1/2-x,-y,z
1/2+x,-y,1/2-z
-x,y,1/2-z
-x,-y,-z
1/2+x,y,-z
1/2-x,y,1/2+z
x,-y,1/2+z
loop_
_atom_site_type_symbol
_atom_site_label
_atom_site_fract_x
_atom_site_fract_y
_atom_site_fract_z
Si Si1 0.339123 0.906258 0.526812
Si Si2 0.118182 0.555301 0.915831
Si Si3 0.822232 0.279308 0.431699
Si Si4 0.540188 0.271604 0.675304
Si Si5 0.214535 0.110120 0.366877
Si Si6 0.096260 0.600116 0.075369
Si Si7 0.557951 0.784913 0.573235
O O1 0.269922 0.813250 0.561058
O O2 0.337355 0.898423 0.444606
O O3 0.480272 0.883541 0.549370
O O4 0.250000 0.000000 0.543554
O O5 0.250000 0.500000 0.914889
O O6 0.122109 0.645406 0.862688
O O7 0.995039 0.488842 0.901640
O O8 0.097419 0.595568 0.992531
O O9 0.742486 0.378344 0.413376
O O10 0.883895 0.272105 0.507017
O O11 0.923683 0.261021 0.374727
O O12 0.500000 0.303492 0.750000
O O13 0.615857 0.168830 0.677627
O O14 0.336532 0.176686 0.377115
O O15 0.250000 0.000000 0.342726
O O16 0.028511 0.699191 0.103267
#
# Coordination Sequence:
#
# PCOD9420516 Si02
#       7
#     8   8   8   8   8   8   8
#     4   9  18  29  57  96 121 148 185 255 318 360
#     4  11  22  38  62  92 117 155 202 245 313 365
#     4  10  19  34  54  84 124 152 195 237 300 358
#     4  12  25  43  58  82 122 170 202 245 288 358
#     4  10  21  35  62  89 118 159 197 243 305 363
#     4  10  20  34  63  94 119 151 186 260 311 367
#     4  10  17  34  58  90 129 146 188 252 314 366
#
# _framework density 19.733343000000001
#
# number of rings (size 3 to 8) (size 9 to 14) (size 15 to 20)
#    0.000    1.714    2.857    3.429    4.000    1.714 
#    2.571    0.714    0.000    0.000    0.000    0.000 
#    0.000    0.000    0.000    0.000    0.000    0.000 
#
# Total GULP energy -312056.092926 kJ/mol
# GULP energy per Si atom -5572.430231 kJ/mol
# Density = 1.968843 g / cm^3
# Si number density = 19.733343 Si / 1000 Ang^3
#
#
#
# Elastic Constant Matrix: (Units=GPa)
#
#
# Indices 1 2 3 4 5 6 
#
# 1 100.6943 28.4566 -0.3768 0.0000 0.0000 0.0000
# 2 28.4566 71.5789 6.9883 0.0000 0.0000 0.0000
# 3 -0.3768 6.9883 24.0693 0.0000 0.0000 0.0000
# 4 0.0000 0.0000 0.0000 3.1235 0.0000 0.0000
# 5 0.0000 0.0000 0.0000 0.0000 2.3545 0.0000
# 6 0.0000 0.0000 0.0000 0.0000 0.0000 32.4176
#
#
#
# Elastic Compliance Matrix: (Units=1/GPa)
#
#
# Indices 1 2 3 4 5 6 
#
# 1 0.011242 -0.004617 0.001517 0.000000 0.000000 0.000000
# 2 -0.004617 0.016275 -0.004797 0.000000 0.000000 0.000000
# 3 0.001517 -0.004797 0.042963 0.000000 0.000000 0.000000
# 4 0.000000 0.000000 0.000000 0.320150 0.000000 0.000000
# 5 0.000000 0.000000 0.000000 0.000000 0.424716 0.000000
# 6 0.000000 0.000000 0.000000 0.000000 0.000000 0.030847
#
#
# Mechanical properties :
#
#
# Convention : Reuss Voigt Hill
#
# Bulk Modulus (GPa) = 18.28712 29.60874 23.94793
# Shear Modulus (GPa) = 5.68042 18.33076 12.00559
#
# Velocity S-wave (km/s) = 1.69848 3.05113 2.46923
# Velocity P-wave (km/s) = 3.62404 5.23923 4.50462
#
# Compressibility (1/GPa) = 0.05468331
#
# Stress axis : x y z
#
# Youngs Moduli (GPa) = 88.95561 61.44557 23.27562
#
# Poissons Ratio (x) = 0.28371 -0.03530
# Poissons Ratio (y) = 0.41073 0.11166
# Poissons Ratio (z) = -0.13491 0.29478
#
# Static dielectric constant tensor:
#      x y z
#    x 1.857820 0.000000 0.000000 
#    y 0.000000 1.774440 0.000000 
#    z 0.000000 0.000000 1.618600 
# 
# From -- ./inp_files/21185.got.cif
#   From: 2010.05.17/outbox.cif.g08.bks.cpg/sg54_11_cif.got.tgz:21185.got - 2010.06.03 13:09:01.
