data_PCOD9420214
_publ_section_title
;
Structure prediction by ZEFSAII (Michael W. Deem and Ramdas Pophale) SiO2 
 PCOD9420214
Probable space group: P M N A
;
_chemical_formula_sum "Si O2"
_cell_formula_units_Z 64
_cell_length_a 9.000000
_cell_length_b 15.000000
_cell_length_c 24.000000
_cell_angle_alpha 90.000000
_cell_angle_beta 90.000000
_cell_angle_gamma 90.000000
_cell_volume 3240.000000
_symmetry_space_group_name_H-M "P M N A"
_symmetry_group_IT_number 53
_symmetry_cell_setting 'orthorhombic'
loop_
_space_group_symop_operation_xyz
x,y,z
1/2-x,-y,1/2+z
x,-y,-z
1/2-x,y,1/2-z
-x,-y,-z
1/2+x,y,1/2-z
-x,y,z
1/2+x,-y,1/2+z
loop_
_atom_site_type_symbol
_atom_site_label
_atom_site_fract_x
_atom_site_fract_y
_atom_site_fract_z
Si Si1 0.177955 0.976450 0.808067
Si Si2 0.671349 0.393837 0.990603
Si Si3 0.325462 0.482405 0.306166
Si Si4 0.825619 0.332376 0.102286
Si Si5 0.319649 0.649909 0.372398
Si Si6 0.177902 0.849610 0.131487
Si Si7 0.823206 0.843011 0.606373
Si Si8 0.326731 0.896064 0.015232
O O1 0.250000 0.948678 0.750000
O O2 0.238431 0.916323 0.858120
O O3 0.000000 0.971018 0.804752
O O4 0.226264 0.076615 0.824259
O O5 0.500000 0.361941 0.992876
O O6 0.766202 0.354185 0.041023
O O7 0.670526 0.500000 0.000000
O O8 0.744817 0.370716 0.931688
O O9 0.250000 0.450802 0.250000
O O10 0.500000 0.489124 0.295151
O O11 0.305383 0.417080 0.358181
O O12 0.269893 0.578177 0.326992
O O13 0.728168 0.252802 0.126982
O O14 0.000000 0.308958 0.101009
O O15 0.500000 0.643180 0.378644
O O16 0.279060 0.749312 0.354610
O O17 0.000000 0.853841 0.128937
O O18 0.237975 0.872631 0.070242
O O19 0.779090 0.847394 0.541283
O O20 0.000000 0.857041 0.609641
O O21 0.500000 0.876301 0.025627
O O22 0.314057 0.000000 0.000000
#
# Coordination Sequence:
#
# PCOD9420214 Si02
#       8
#     8   8   8   8   8   8   8   8
#     4  11  24  42  62  87 118 157 203 250 299 353
#     4  11  22  36  59  92 125 158 198 246 299 356
#     4  10  23  41  62  85 115 155 200 245 296 350
#     4  11  23  40  62  89 121 161 201 245 300 361
#     4  10  21  40  62  88 121 159 198 242 299 361
#     4  10  22  38  61  90 120 154 197 244 292 352
#     4  11  23  40  63  91 122 158 197 247 300 357
#     4  10  20  36  59  87 121 156 191 234 295 356
#
# _framework density 19.753086
#
# number of rings (size 3 to 8) (size 9 to 14) (size 15 to 20)
#    0.000    1.500    2.500    2.250    0.000    7.250 
#    0.000    1.250    0.000    0.000    0.000    0.000 
#    0.000    0.000    0.000    0.000    0.000    0.000 
#
# Total GULP energy -357465.720673 kJ/mol
# GULP energy per Si atom -5585.401886 kJ/mol
# Density = 1.970813 g / cm^3
# Si number density = 19.753086 Si / 1000 Ang^3
#
#
#
# Elastic Constant Matrix: (Units=GPa)
#
#
# Indices 1 2 3 4 5 6 
#
# 1 17.4996 14.9712 16.5321 0.0000 0.0000 0.0000
# 2 14.9712 48.5314 -4.1714 0.0000 0.0000 0.0000
# 3 16.5321 -4.1714 37.9093 0.0000 0.0000 0.0000
# 4 0.0000 0.0000 0.0000 -25.7268 0.0000 0.0000
# 5 0.0000 0.0000 0.0000 0.0000 22.7556 0.0000
# 6 0.0000 0.0000 0.0000 0.0000 0.0000 28.8308
#
#
#
# Elastic Compliance Matrix: (Units=1/GPa)
#
#
# Indices 1 2 3 4 5 6 
#
# 1 0.225958 -0.078921 -0.107224 0.000000 0.000000 0.000000
# 2 -0.078921 0.048367 0.039739 0.000000 0.000000 0.000000
# 3 -0.107224 0.039739 0.077511 0.000000 0.000000 0.000000
# 4 0.000000 0.000000 0.000000 -0.038870 0.000000 0.000000
# 5 0.000000 0.000000 0.000000 0.000000 0.043945 0.000000
# 6 0.000000 0.000000 0.000000 0.000000 0.000000 0.034685
#
#
# Mechanical properties :
#
#
# Convention : Reuss Voigt Hill
#
# Bulk Modulus (GPa) = 16.94181 17.62269 17.28225
# Shear Modulus (GPa) = 7.10143 10.27913 8.69028
#
# Velocity S-wave (km/s) = 1.89813 2.28366 2.09976
# Velocity P-wave (km/s) = 3.66050 3.98677 3.82711
#
# Compressibility (1/GPa) = 0.05902558
#
# Stress axis : x y z
#
# Youngs Moduli (GPa) = 4.42560 20.67529 12.90132
#
# Poissons Ratio (x) = 1.63172 1.38333
# Poissons Ratio (y) = 0.34927 -0.51269
# Poissons Ratio (z) = 0.47453 -0.82162
#
# Static dielectric constant tensor:
#      x y z
#    x 1.662800 0.000000 0.000000 
#    y 0.000000 1.773260 0.000000 
#    z 0.000000 0.000000 1.663950 
# 
# From -- ./inp_files/34254.got.cif
#   From: 2010.05.17/outbox.ucp.g08.bks.cvg/sg53_18_cif.got.tgz:34254.got - 2010.06.11 16:32:34.
