data_PCOD9420821
_publ_section_title
;
Structure prediction by ZEFSAII (Michael W. Deem and Ramdas Pophale) SiO2 
 PCOD9420821
Probable space group: P C C A
;
_chemical_formula_sum "Si O2"
_cell_formula_units_Z 48
_cell_length_a 4.961518
_cell_length_b 18.200669
_cell_length_c 32.633317
_cell_angle_alpha 90.000000
_cell_angle_beta 90.000000
_cell_angle_gamma 90.000000
_cell_volume 2946.884691
_symmetry_space_group_name_H-M "P C C A"
_symmetry_group_IT_number 54
_symmetry_cell_setting 'orthorhombic'
loop_
_space_group_symop_operation_xyz
x,y,z
1/2-x,-y,z
1/2+x,-y,1/2-z
-x,y,1/2-z
-x,-y,-z
1/2+x,y,-z
1/2-x,y,1/2+z
x,-y,1/2+z
loop_
_atom_site_type_symbol
_atom_site_label
_atom_site_fract_x
_atom_site_fract_y
_atom_site_fract_z
Si Si1 0.747726 0.914662 0.219761
Si Si2 0.699167 0.417079 0.027957
Si Si3 0.868005 0.653528 0.608682
Si Si4 0.202217 0.773295 0.828526
Si Si5 0.307932 0.701898 0.710182
Si Si6 0.642842 0.582327 0.851867
O O1 0.500000 0.904269 0.250000
O O2 0.708434 0.859054 0.182190
O O3 0.000000 0.898352 0.250000
O O4 0.750000 0.000000 0.207065
O O5 0.750000 0.500000 0.044950
O O6 0.773440 0.358739 0.062545
O O7 0.398789 0.411132 0.010830
O O8 0.864587 0.735034 0.628238
O O9 0.663815 0.601884 0.635732
O O10 0.168148 0.623945 0.615415
O O11 0.507807 0.748292 0.820818
O O12 0.990756 0.735762 0.795935
O O13 0.500000 0.704045 0.750000
O O14 0.298746 0.620031 0.691978
O O15 0.750000 0.500000 0.851951
#
# Coordination Sequence:
#
# PCOD9420821 Si02
#       6
#     8   8   8   8   8   8
#     4  10  19  30  47  70  94 119 147 183 223 263
#     4  10  19  30  46  67  89 113 142 182 229 273
#     4  10  20  32  47  65  87 116 149 183 223 274
#     4  10  19  31  47  64  87 117 148 180 219 266
#     4  10  19  30  44  61  82 114 151 186 220 253
#     4  10  19  31  45  61  83 115 151 188 226 258
#
# _framework density 16.288385999999999
#
# number of rings (size 3 to 8) (size 9 to 14) (size 15 to 20)
#    0.000    2.000    0.000    5.500    0.000    1.333 
#    0.000    5.000    0.000    0.000    0.000    0.000 
#    0.000    1.333    0.000    0.000    0.000    4.000 
#
# Total GULP energy -267263.171651 kJ/mol
# GULP energy per Si atom -5567.982743 kJ/mol
# Density = 1.625131 g / cm^3
# Si number density = 16.288386 Si / 1000 Ang^3
#
#
#
# Elastic Constant Matrix: (Units=GPa)
#
#
# Indices 1 2 3 4 5 6 
#
# 1 85.6222 -0.4963 -1.1995 0.0000 0.0000 0.0000
# 2 -0.4963 90.3527 37.5935 0.0000 0.0000 0.0000
# 3 -1.1995 37.5935 50.8073 0.0000 0.0000 0.0000
# 4 0.0000 0.0000 0.0000 16.7159 0.0000 0.0000
# 5 0.0000 0.0000 0.0000 0.0000 10.1300 0.0000
# 6 0.0000 0.0000 0.0000 0.0000 0.0000 18.4957
#
#
#
# Elastic Compliance Matrix: (Units=1/GPa)
#
#
# Indices 1 2 3 4 5 6 
#
# 1 0.011683 -0.000073 0.000330 0.000000 0.000000 0.000000
# 2 -0.000073 0.015991 -0.011834 0.000000 0.000000 0.000000
# 3 0.000330 -0.011834 0.028446 0.000000 0.000000 0.000000
# 4 0.000000 0.000000 0.000000 0.059823 0.000000 0.000000
# 5 0.000000 0.000000 0.000000 0.000000 0.098717 0.000000
# 6 0.000000 0.000000 0.000000 0.000000 0.000000 0.054066
#
#
# Mechanical properties :
#
#
# Convention : Reuss Voigt Hill
#
# Bulk Modulus (GPa) = 30.33382 33.17531 31.75456
# Shear Modulus (GPa) = 16.50870 21.79395 19.15132
#
# Velocity S-wave (km/s) = 3.18705 3.66184 3.43266
# Velocity P-wave (km/s) = 5.67507 6.18793 5.93704
#
# Compressibility (1/GPa) = 0.03296651
#
# Stress axis : x y z
#
# Youngs Moduli (GPa) = 85.59144 62.53453 35.15401
#
# Poissons Ratio (x) = 0.00457 -0.01160
# Poissons Ratio (y) = 0.00626 0.41601
# Poissons Ratio (z) = -0.02824 0.74003
#
# Static dielectric constant tensor:
#      x y z
#    x 1.556240 0.000000 0.000000 
#    y 0.000000 1.673430 0.000000 
#    z 0.000000 0.000000 1.574860 
# 
# From -- ./inp_files/27253.got.cif
#   From: 2010.05.17/outbox.cif.g08.bks.cpg/sg54_14_cif.got.tgz:27253.got - 2010.06.03 13:09:01.
