data_PCOD9420599
_publ_section_title
;
Structure prediction by ZEFSAII (Michael W. Deem and Ramdas Pophale) SiO2 
 PCOD9420599
Probable space group: P C C A
;
_chemical_formula_sum "Si O2"
_cell_formula_units_Z 48
_cell_length_a 8.711247
_cell_length_b 12.275597
_cell_length_c 26.379884
_cell_angle_alpha 90.000000
_cell_angle_beta 90.000000
_cell_angle_gamma 90.000000
_cell_volume 2820.952879
_symmetry_space_group_name_H-M "P C C A"
_symmetry_group_IT_number 54
_symmetry_cell_setting 'orthorhombic'
loop_
_space_group_symop_operation_xyz
x,y,z
1/2-x,-y,z
1/2+x,-y,1/2-z
-x,y,1/2-z
-x,-y,-z
1/2+x,y,-z
1/2-x,y,1/2+z
x,-y,1/2+z
loop_
_atom_site_type_symbol
_atom_site_label
_atom_site_fract_x
_atom_site_fract_y
_atom_site_fract_z
Si Si1 0.860031 0.223628 0.044507
Si Si2 0.021653 0.573623 0.360116
Si Si3 0.500000 0.341365 0.750000
Si Si4 0.392161 0.422393 0.032681
Si Si5 0.132473 0.080230 0.018928
Si Si6 0.750000 0.500000 0.294819
Si Si7 0.161326 0.332206 0.347687
O O1 0.832740 0.263471 0.101149
O O2 0.033205 0.175498 0.044123
O O3 0.849366 0.321654 0.003468
O O4 0.735320 0.135654 0.025058
O O5 0.982532 0.612384 0.416813
O O6 0.865464 0.571544 0.328591
O O7 0.079907 0.447865 0.361616
O O8 0.161353 0.639846 0.335434
O O9 0.358495 0.420823 0.736771
O O10 0.562042 0.284098 0.698985
O O11 0.250000 0.500000 0.047911
O O12 0.500000 0.500000 0.000000
O O13 0.250000 0.000000 0.048477
O O14 0.000000 0.000000 0.000000
#
# Coordination Sequence:
#
# PCOD9420599 Si02
#       7
#     8   8   4   8   8   4   8
#     4  11  20  32  53  76 106 141 172 213 262 320
#     4  10  19  31  45  69 105 145 178 211 245 308
#     4  10  20  32  48  66  94 138 186 236 250 296
#     4  12  21  30  45  77 115 147 169 203 247 318
#     4   9  20  37  54  74 100 131 174 219 267 319
#     4  10  18  32  46  60  92 146 202 220 254 280
#     4  10  20  32  47  70 101 140 180 214 261 301
#
# _framework density 17.015526999999999
#
# number of rings (size 3 to 8) (size 9 to 14) (size 15 to 20)
#    0.000    1.667    2.500    5.000    0.000    0.000 
#    0.000    0.000    0.000    0.000    0.000    3.500 
#    0.000    0.000    0.000    0.000    0.000    0.000 
#
# Total GULP energy -267405.606903 kJ/mol
# GULP energy per Si atom -5570.950144 kJ/mol
# Density = 1.697680 g / cm^3
# Si number density = 17.015527 Si / 1000 Ang^3
#
#
#
# Elastic Constant Matrix: (Units=GPa)
#
#
# Indices 1 2 3 4 5 6 
#
# 1 120.2765 23.8329 33.9984 0.0000 0.0000 0.0000
# 2 23.8329 49.9092 17.0552 0.0000 0.0000 0.0000
# 3 33.9984 17.0552 89.4214 0.0000 0.0000 0.0000
# 4 0.0000 0.0000 0.0000 -9.4243 0.0000 0.0000
# 5 0.0000 0.0000 0.0000 0.0000 16.8954 0.0000
# 6 0.0000 0.0000 0.0000 0.0000 0.0000 30.7064
#
#
#
# Elastic Compliance Matrix: (Units=1/GPa)
#
#
# Indices 1 2 3 4 5 6 
#
# 1 0.009911 -0.003685 -0.003065 0.000000 0.000000 0.000000
# 2 -0.003685 0.022804 -0.002948 0.000000 0.000000 0.000000
# 3 -0.003065 -0.002948 0.012911 0.000000 0.000000 0.000000
# 4 0.000000 0.000000 0.000000 -0.106108 0.000000 0.000000
# 5 0.000000 0.000000 0.000000 0.000000 0.059188 0.000000
# 6 0.000000 0.000000 0.000000 0.000000 0.000000 0.032567
#
#
# Mechanical properties :
#
#
# Convention : Reuss Voigt Hill
#
# Bulk Modulus (GPa) = 38.12734 45.48670 41.80702
# Shear Modulus (GPa) = 84.15973 19.95020 52.05496
#
# Velocity S-wave (km/s) = 7.04045 3.42785 5.53706
# Velocity P-wave (km/s) = 9.40992 6.51593 8.09333
#
# Compressibility (1/GPa) = 0.02622790
#
# Stress axis : x y z
#
# Youngs Moduli (GPa) = 100.89933 43.85271 77.45491
#
# Poissons Ratio (x) = 0.16161 0.23742
# Poissons Ratio (y) = 0.37183 0.22835
# Poissons Ratio (z) = 0.30929 0.12929
#
# Static dielectric constant tensor:
#      x y z
#    x 1.667590 0.000000 0.000000 
#    y 0.000000 1.604130 0.000000 
#    z 0.000000 0.000000 1.609720 
# 
# From -- ./inp_files/25860.got.cif
#   From: 2010.05.17/outbox.cif.g08.bks.cpg/sg54_13_cif.got.tgz:25860.got - 2010.06.03 13:09:01.
