data_PCOD9420076
_publ_section_title
;
Structure prediction by ZEFSAII (Michael W. Deem and Ramdas Pophale) SiO2 
 PCOD9420076
Probable space group: P M N A
;
_chemical_formula_sum "Si O2"
_cell_formula_units_Z 64
_cell_length_a 9.000000
_cell_length_b 21.000000
_cell_length_c 18.000000
_cell_angle_alpha 90.000000
_cell_angle_beta 90.000000
_cell_angle_gamma 90.000000
_cell_volume 3402.000000
_symmetry_space_group_name_H-M "P M N A"
_symmetry_group_IT_number 53
_symmetry_cell_setting 'orthorhombic'
loop_
_space_group_symop_operation_xyz
x,y,z
1/2-x,-y,1/2+z
x,-y,-z
1/2-x,y,1/2-z
-x,-y,-z
1/2+x,y,1/2-z
-x,y,z
1/2+x,-y,1/2+z
loop_
_atom_site_type_symbol
_atom_site_label
_atom_site_fract_x
_atom_site_fract_y
_atom_site_fract_z
Si Si1 0.171299 0.807777 0.409653
Si Si2 0.322928 0.064565 0.583457
Si Si3 0.164106 0.679676 0.912662
Si Si4 0.331301 0.801609 0.908563
Si Si5 0.825101 0.575244 0.671973
Si Si6 0.168207 0.319477 0.909456
Si Si7 0.322620 0.431060 0.829552
Si Si8 0.177702 0.940658 0.581080
O O1 0.264024 0.869091 0.385049
O O2 0.172915 0.805134 0.500665
O O3 0.246593 0.743225 0.382594
O O4 0.000000 0.813148 0.387696
O O5 0.500000 0.060452 0.583506
O O6 0.260617 0.064227 0.498558
O O7 0.246823 0.002531 0.619082
O O8 0.218587 0.747851 0.883867
O O9 0.276062 0.625626 0.888333
O O10 0.000000 0.663925 0.885040
O O11 0.160885 0.683976 0.001483
O O12 0.500000 0.784005 0.888723
O O13 0.298313 0.872626 0.880978
O O14 0.750000 0.591551 0.750000
O O15 0.780087 0.503479 0.650970
O O16 0.000000 0.575625 0.682080
O O17 0.257775 0.381401 0.886921
O O18 0.000000 0.321752 0.880607
O O19 0.250000 0.416999 0.750000
O O20 0.500000 0.426537 0.825053
O O21 0.000000 0.947736 0.569194
#
# Coordination Sequence:
#
# PCOD9420076 Si02
#       8
#     8   8   8   8   8   8   8   8
#     4   9  16  27  41  58  85 121 158 196 238 286
#     4  10  16  21  32  52  79 113 153 195 237 283
#     4  10  20  32  49  73 101 131 163 200 245 292
#     4   8  15  26  40  58  84 119 157 196 238 283
#     4  10  21  37  56  75  98 127 162 201 243 291
#     4  10  20  33  50  74 102 131 163 202 244 291
#     4  10  21  37  56  76  98 128 162 200 244 291
#     4   9  15  23  34  50  76 114 156 194 234 283
#
# _framework density 18.812463000000001
#
# number of rings (size 3 to 8) (size 9 to 14) (size 15 to 20)
#    0.000    2.500    0.000    4.875    0.000    7.000 
#    0.000    2.500    0.000    0.000    0.000    0.000 
#    0.000    1.000    0.000    5.500    0.000    8.875 
#
# Total GULP energy -356553.037429 kJ/mol
# GULP energy per Si atom -5571.141210 kJ/mol
# Density = 1.876965 g / cm^3
# Si number density = 18.812463 Si / 1000 Ang^3
#
#
#
# Elastic Constant Matrix: (Units=GPa)
#
#
# Indices 1 2 3 4 5 6 
#
# 1 85.1369 22.8282 19.5668 0.0000 0.0000 0.0000
# 2 22.8282 31.0802 33.4210 0.0000 0.0000 0.0000
# 3 19.5668 33.4210 -5.9121 0.0000 0.0000 0.0000
# 4 0.0000 0.0000 0.0000 16.3653 0.0000 0.0000
# 5 0.0000 0.0000 0.0000 0.0000 16.8355 0.0000
# 6 0.0000 0.0000 0.0000 0.0000 0.0000 32.6751
#
#
#
# Elastic Compliance Matrix: (Units=1/GPa)
#
#
# Indices 1 2 3 4 5 6 
#
# 1 0.014501 -0.008795 -0.001726 0.000000 0.000000 0.000000
# 2 -0.008795 0.009879 0.026741 0.000000 0.000000 0.000000
# 3 -0.001726 0.026741 -0.023689 0.000000 0.000000 0.000000
# 4 0.000000 0.000000 0.000000 0.061105 0.000000 0.000000
# 5 0.000000 0.000000 0.000000 0.000000 0.059398 0.000000
# 6 0.000000 0.000000 0.000000 0.000000 0.000000 0.030604
#
#
# Mechanical properties :
#
#
# Convention : Reuss Voigt Hill
#
# Bulk Modulus (GPa) = 30.18260 29.10413 29.64337
# Shear Modulus (GPa) = 38.34310 15.47444 26.90877
#
# Velocity S-wave (km/s) = 4.51951 2.87115 3.78613
# Velocity P-wave (km/s) = 6.58129 5.14738 5.90800
#
# Compressibility (1/GPa) = 0.03313167
#
# Stress axis : x y z
#
# Youngs Moduli (GPa) = 68.96251 101.21990 -42.21309
#
# Poissons Ratio (x) = 0.89022 -0.07285
# Poissons Ratio (y) = 0.60652 1.12882
# Poissons Ratio (z) = 0.11901 -2.70673
#
# Static dielectric constant tensor:
#      x y z
#    x 1.636110 0.000000 0.000000 
#    y 0.000000 1.673190 0.000000 
#    z 0.000000 0.000000 1.117980 
# 
# From -- ./inp_files/26967.got.cif
#   From: 2010.05.17/outbox.ucp.g08.bks.cvg/sg53_14_cif.got.tgz:26967.got - 2010.06.11 16:32:34.
