data_PCOD9420825
_publ_section_title
;
Structure prediction by ZEFSAII (Michael W. Deem and Ramdas Pophale) SiO2 
 PCOD9420825
Probable space group: P C C A
;
_chemical_formula_sum "Si O2"
_cell_formula_units_Z 48
_cell_length_a 5.029633
_cell_length_b 30.396800
_cell_length_c 14.546764
_cell_angle_alpha 90.000000
_cell_angle_beta 90.000000
_cell_angle_gamma 90.000000
_cell_volume 2223.978354
_symmetry_space_group_name_H-M "P C C A"
_symmetry_group_IT_number 54
_symmetry_cell_setting 'orthorhombic'
loop_
_space_group_symop_operation_xyz
x,y,z
1/2-x,-y,z
1/2+x,-y,1/2-z
-x,y,1/2-z
-x,-y,-z
1/2+x,y,-z
1/2-x,y,1/2+z
x,-y,1/2+z
loop_
_atom_site_type_symbol
_atom_site_label
_atom_site_fract_x
_atom_site_fract_y
_atom_site_fract_z
Si Si1 0.018258 0.276092 0.140052
Si Si2 0.250000 0.500000 0.310763
Si Si3 0.130407 0.091498 0.064715
Si Si4 0.228323 0.813950 0.561279
Si Si5 0.482273 0.326314 0.360917
Si Si6 0.250000 0.000000 0.068614
Si Si7 0.699947 0.418893 0.059986
O O1 0.723968 0.288498 0.107430
O O2 0.000000 0.278412 0.250000
O O3 0.138126 0.229027 0.115154
O O4 0.224601 0.313250 0.106193
O O5 0.500000 0.514930 0.250000
O O6 0.151804 0.540358 0.372892
O O7 0.176306 0.139026 0.109711
O O8 0.333270 0.090728 0.976770
O O9 0.211067 0.046927 0.118426
O O10 0.531591 0.813527 0.527422
O O11 0.500000 0.326691 0.250000
O O12 0.372373 0.372861 0.392875
O O13 0.500000 0.000000 0.000000
O O14 0.503005 0.421738 0.973212
#
# Coordination Sequence:
#
# PCOD9420825 Si02
#       7
#     8   4   8   8   8   4   8
#     4  10  21  36  53  75 106 142 181 220 261 320
#     4  12  26  46  70  92 122 164 196 222 272 338
#     4   8  14  23  36  58  86 119 154 198 250 303
#     4  10  19  30  47  70  99 130 168 215 265 314
#     4  10  22  39  58  80 109 147 185 219 265 328
#     4   8  12  20  34  52  82 116 150 192 246 302
#     4  12  25  42  65  95 124 148 187 241 284 321
#
# _framework density 21.582943
#
# number of rings (size 3 to 8) (size 9 to 14) (size 15 to 20)
#    0.000    2.000    0.000    4.000    0.000    6.000 
#    0.000    0.000    0.000    0.000    0.000    0.000 
#    0.000   24.000    0.000    0.000    0.000   32.333 
#
# Total GULP energy -267914.105139 kJ/mol
# GULP energy per Si atom -5581.543857 kJ/mol
# Density = 2.153382 g / cm^3
# Si number density = 21.582943 Si / 1000 Ang^3
#
#
#
# Elastic Constant Matrix: (Units=GPa)
#
#
# Indices 1 2 3 4 5 6 
#
# 1 92.1579 12.2726 4.2531 0.0000 0.0000 0.0000
# 2 12.2726 171.9394 19.0300 0.0000 0.0000 0.0000
# 3 4.2531 19.0300 29.9075 0.0000 0.0000 0.0000
# 4 0.0000 0.0000 0.0000 -20.6341 0.0000 0.0000
# 5 0.0000 0.0000 0.0000 0.0000 21.9381 0.0000
# 6 0.0000 0.0000 0.0000 0.0000 0.0000 27.8305
#
#
#
# Elastic Compliance Matrix: (Units=1/GPa)
#
#
# Indices 1 2 3 4 5 6 
#
# 1 0.010991 -0.000658 -0.001144 0.000000 0.000000 0.000000
# 2 -0.000658 0.006296 -0.003913 0.000000 0.000000 0.000000
# 3 -0.001144 -0.003913 0.036089 0.000000 0.000000 0.000000
# 4 0.000000 0.000000 0.000000 -0.048464 0.000000 0.000000
# 5 0.000000 0.000000 0.000000 0.000000 0.045583 0.000000
# 6 0.000000 0.000000 0.000000 0.000000 0.000000 0.035932
#
#
# Mechanical properties :
#
#
# Convention : Reuss Voigt Hill
#
# Bulk Modulus (GPa) = 23.84000 40.56848 32.20424
# Shear Modulus (GPa) = 44.70711 23.05685 33.88198
#
# Velocity S-wave (km/s) = 4.55621 3.27202 3.96643
# Velocity P-wave (km/s) = 6.22483 5.75432 5.99419
#
# Compressibility (1/GPa) = 0.04194631
#
# Stress axis : x y z
#
# Youngs Moduli (GPa) = 90.98053 158.83116 27.70946
#
# Poissons Ratio (x) = 0.10449 0.03171
# Poissons Ratio (y) = 0.05985 0.10841
# Poissons Ratio (z) = 0.10413 0.62144
#
# Static dielectric constant tensor:
#      x y z
#    x 1.759260 0.000000 0.000000 
#    y 0.000000 1.863380 0.000000 
#    z 0.000000 0.000000 1.765860 
# 
# From -- ./inp_files/10934.got.cif
#   From: 2010.05.17/outbox.cif.g08.bks.cpg/sg54_6_cif.got.tgz:10934.got - 2010.06.03 13:09:01.
