data_PCOD9420373
_publ_section_title
;
Structure prediction by ZEFSAII (Michael W. Deem and Ramdas Pophale) SiO2 
 PCOD9420373
Probable space group: P C C A
;
_chemical_formula_sum "Si O2"
_cell_formula_units_Z 60
_cell_length_a 5.353832
_cell_length_b 24.808831
_cell_length_c 25.486112
_cell_angle_alpha 90.000000
_cell_angle_beta 90.000000
_cell_angle_gamma 90.000000
_cell_volume 3385.124353
_symmetry_space_group_name_H-M "P C C A"
_symmetry_group_IT_number 54
_symmetry_cell_setting 'orthorhombic'
loop_
_space_group_symop_operation_xyz
x,y,z
1/2-x,-y,z
1/2+x,-y,1/2-z
-x,y,1/2-z
-x,-y,-z
1/2+x,y,-z
1/2-x,y,1/2+z
x,-y,1/2+z
loop_
_atom_site_type_symbol
_atom_site_label
_atom_site_fract_x
_atom_site_fract_y
_atom_site_fract_z
Si Si1 0.576418 0.614300 0.482829
Si Si2 0.447612 0.264592 0.473079
Si Si3 0.459352 0.715646 0.853631
Si Si4 0.500000 0.033393 0.750000
Si Si5 0.195417 0.174954 0.809603
Si Si6 0.001141 0.529824 0.686808
Si Si7 0.547260 0.646802 0.361171
Si Si8 0.803723 0.867309 0.808688
O O1 0.322953 0.584855 0.497937
O O2 0.564542 0.670538 0.516086
O O3 0.584656 0.631106 0.422259
O O4 0.683733 0.243687 0.505757
O O5 0.486398 0.258276 0.411507
O O6 0.402254 0.764499 0.814579
O O7 0.710884 0.681516 0.843543
O O8 0.210868 0.679264 0.855598
O O9 0.906913 0.926883 0.796657
O O10 0.250000 0.000000 0.764085
O O11 0.469889 0.165956 0.834679
O O12 0.248949 0.157536 0.749530
O O13 0.971952 0.138007 0.832703
O O14 0.750000 0.500000 0.667914
O O15 0.250000 0.500000 0.667401
O O16 0.000000 0.526987 0.750000
O O17 0.017691 0.591588 0.670178
#
# Coordination Sequence:
#
# PCOD9420373 Si02
#       8
#     8   8   8   4   8   8   8   8
#     4  10  16  30  48  71 102 127 136 187 250 275
#     4  10  16  29  44  67  98 132 145 192 234 267
#     4  12  20  30  50  77  99 122 173 192 218 290
#     4  10  16  26  50  74  84 120 194 228 232 292
#     4   9  18  31  44  61  95 144 161 185 240 305
#     4  10  23  45  62  70  93 121 149 196 264 304
#     4  12  21  33  56  82  90 119 165 206 231 293
#     4   9  18  34  44  59 105 144 155 202 272 271
#
# _framework density 17.724609000000001
#
# number of rings (size 3 to 8) (size 9 to 14) (size 15 to 20)
#    0.000    1.867    5.333    3.200    0.000    0.000 
#    7.200    0.000    0.000    2.400    0.000    0.000 
#    0.000    0.000    0.000    0.000    0.000  244.000 
#
# Total GULP energy -334178.852297 kJ/mol
# GULP energy per Si atom -5569.647538 kJ/mol
# Density = 1.768427 g / cm^3
# Si number density = 17.724609 Si / 1000 Ang^3
#
#
#
# Elastic Constant Matrix: (Units=GPa)
#
#
# Indices 1 2 3 4 5 6 
#
# 1 197.0867 50.6171 10.1769 0.0000 0.0000 0.0000
# 2 50.6171 69.5511 11.3408 0.0000 0.0000 0.0000
# 3 10.1769 11.3408 12.2307 0.0000 0.0000 0.0000
# 4 0.0000 0.0000 0.0000 -11.3804 0.0000 0.0000
# 5 0.0000 0.0000 0.0000 0.0000 8.5705 0.0000
# 6 0.0000 0.0000 0.0000 0.0000 0.0000 20.1399
#
#
#
# Elastic Compliance Matrix: (Units=1/GPa)
#
#
# Indices 1 2 3 4 5 6 
#
# 1 0.006254 -0.004363 -0.001159 0.000000 0.000000 0.000000
# 2 -0.004363 0.019982 -0.014898 0.000000 0.000000 0.000000
# 3 -0.001159 -0.014898 0.096540 0.000000 0.000000 0.000000
# 4 0.000000 0.000000 0.000000 -0.087870 0.000000 0.000000
# 5 0.000000 0.000000 0.000000 0.000000 0.116679 0.000000
# 6 0.000000 0.000000 0.000000 0.000000 0.000000 0.049653
#
#
# Mechanical properties :
#
#
# Convention : Reuss Voigt Hill
#
# Bulk Modulus (GPa) = 12.20451 47.01534 29.60992
# Shear Modulus (GPa) = 18.56049 17.24825 17.90437
#
# Velocity S-wave (km/s) = 3.23949 3.12288 3.18172
# Velocity P-wave (km/s) = 4.57089 6.29176 5.49906
#
# Compressibility (1/GPa) = 0.08193694
#
# Stress axis : x y z
#
# Youngs Moduli (GPa) = 159.89290 50.04455 10.35842
#
# Poissons Ratio (x) = 0.21833 0.01200
# Poissons Ratio (y) = 0.69756 0.15432
# Poissons Ratio (z) = 0.18527 0.74558
#
# Static dielectric constant tensor:
#      x y z
#    x 1.814630 0.000000 0.000000 
#    y 0.000000 1.601910 0.000000 
#    z 0.000000 0.000000 1.627090 
# 
# From -- ./inp_files/27325.got.cif
#   From: 2010.05.17/outbox.cif.g08.bks.cpg/sg54_14_cif.got.tgz:27325.got - 2010.06.03 13:09:01.
