data_PCOD9420843
_publ_section_title
;
Structure prediction by ZEFSAII (Michael W. Deem and Ramdas Pophale) SiO2 
 PCOD9420843
Probable space group: P C C A
;
_chemical_formula_sum "Si O2"
_cell_formula_units_Z 40
_cell_length_a 11.989720
_cell_length_b 7.549982
_cell_length_c 17.503380
_cell_angle_alpha 90.000000
_cell_angle_beta 90.000000
_cell_angle_gamma 90.000000
_cell_volume 1584.443943
_symmetry_space_group_name_H-M "P C C A"
_symmetry_group_IT_number 54
_symmetry_cell_setting 'orthorhombic'
loop_
_space_group_symop_operation_xyz
x,y,z
1/2-x,-y,z
1/2+x,-y,1/2-z
-x,y,1/2-z
-x,-y,-z
1/2+x,y,-z
1/2-x,y,1/2+z
x,-y,1/2+z
loop_
_atom_site_type_symbol
_atom_site_label
_atom_site_fract_x
_atom_site_fract_y
_atom_site_fract_z
Si Si1 0.978962 0.329237 0.397495
Si Si2 0.788680 0.797982 0.574079
Si Si3 0.336644 0.840127 0.602358
Si Si4 0.129837 0.528418 0.222346
Si Si5 0.053580 0.724740 0.435122
O O1 0.100101 0.249700 0.381112
O O2 0.999089 0.534158 0.421379
O O3 0.897633 0.349829 0.326757
O O4 0.932249 0.241655 0.474394
O O5 0.815018 0.764342 0.483884
O O6 0.675790 0.703680 0.598453
O O7 0.750000 0.000000 0.579329
O O8 0.336302 0.691600 0.667170
O O9 0.471262 0.875084 0.597202
O O10 0.250000 0.000000 0.614621
O O11 0.250000 0.500000 0.264066
O O12 0.000000 0.568783 0.250000
#
# Coordination Sequence:
#
# PCOD9420843 Si02
#       5
#     8   8   8   8   8
#     4   9  19  34  55  81 115 153 189 240 295 351
#     4  10  19  30  54  93 125 151 183 229 301 374
#     4   9  20  36  57  84 118 154 189 241 302 365
#     4  11  24  41  62  84 111 157 213 258 298 348
#     4   9  17  31  54  85 117 151 186 228 297 368
#
# _framework density 25.245450000000002
#
# number of rings (size 3 to 8) (size 9 to 14) (size 15 to 20)
#    0.000    2.400    0.000    3.000    0.000   12.000 
#    0.000    1.000    0.000    6.000    0.000    0.000 
#    0.000    0.000    0.000    0.000    0.000    0.000 
#
# Total GULP energy -222879.232373 kJ/mol
# GULP energy per Si atom -5571.980809 kJ/mol
# Density = 2.518799 g / cm^3
# Si number density = 25.245450 Si / 1000 Ang^3
#
#
#
# Elastic Constant Matrix: (Units=GPa)
#
#
# Indices 1 2 3 4 5 6 
#
# 1 289.3156 54.6048 55.6770 0.0000 0.0000 0.0000
# 2 54.6048 71.3951 23.7815 0.0000 0.0000 0.0000
# 3 55.6770 23.7815 57.6826 0.0000 0.0000 0.0000
# 4 0.0000 0.0000 0.0000 8.7891 0.0000 0.0000
# 5 0.0000 0.0000 0.0000 0.0000 10.4153 0.0000
# 6 0.0000 0.0000 0.0000 0.0000 0.0000 47.2251
#
#
#
# Elastic Compliance Matrix: (Units=1/GPa)
#
#
# Indices 1 2 3 4 5 6 
#
# 1 0.004560 -0.002343 -0.003435 0.000000 0.000000 0.000000
# 2 -0.002343 0.017440 -0.004929 0.000000 0.000000 0.000000
# 3 -0.003435 -0.004929 0.022684 0.000000 0.000000 0.000000
# 4 0.000000 0.000000 0.000000 0.113777 0.000000 0.000000
# 5 0.000000 0.000000 0.000000 0.000000 0.096013 0.000000
# 6 0.000000 0.000000 0.000000 0.000000 0.000000 0.021175
#
#
# Mechanical properties :
#
#
# Convention : Reuss Voigt Hill
#
# Bulk Modulus (GPa) = 42.97352 76.27999 59.62676
# Shear Modulus (GPa) = 16.40313 32.24123 24.32218
#
# Velocity S-wave (km/s) = 2.55178 3.57755 3.10728
# Velocity P-wave (km/s) = 5.07359 6.88085 6.04514
#
# Compressibility (1/GPa) = 0.02327014
#
# Stress axis : x y z
#
# Youngs Moduli (GPa) = 219.30990 57.33813 44.08393
#
# Poissons Ratio (x) = 0.13435 0.15144
# Poissons Ratio (y) = 0.51388 0.21727
# Poissons Ratio (z) = 0.75337 0.28260
#
# Static dielectric constant tensor:
#      x y z
#    x 2.376330 0.000000 0.000000 
#    y 0.000000 2.073940 0.000000 
#    z 0.000000 0.000000 2.116960 
# 
# From -- ./inp_files/20986.got.cif
#   From: 2010.05.17/outbox.cif.g08.bks.cpg/sg54_11_cif.got.tgz:20986.got - 2010.06.03 13:09:01.
