data_PCOD9420122
_publ_section_title
;
Structure prediction by ZEFSAII (Michael W. Deem and Ramdas Pophale) SiO2 
 PCOD9420122
Probable space group: P M N A
;
_chemical_formula_sum "Si O2"
_cell_formula_units_Z 64
_cell_length_a 9.000000
_cell_length_b 24.000000
_cell_length_c 15.000000
_cell_angle_alpha 90.000000
_cell_angle_beta 90.000000
_cell_angle_gamma 90.000000
_cell_volume 3240.000000
_symmetry_space_group_name_H-M "P M N A"
_symmetry_group_IT_number 53
_symmetry_cell_setting 'orthorhombic'
loop_
_space_group_symop_operation_xyz
x,y,z
1/2-x,-y,1/2+z
x,-y,-z
1/2-x,y,1/2-z
-x,-y,-z
1/2+x,y,1/2-z
-x,y,z
1/2+x,-y,1/2+z
loop_
_atom_site_type_symbol
_atom_site_label
_atom_site_fract_x
_atom_site_fract_y
_atom_site_fract_z
Si Si1 0.824149 0.414579 0.837787
Si Si2 0.175529 0.756142 0.976755
Si Si3 0.831501 0.522974 0.601807
Si Si4 0.322596 0.949982 0.888835
Si Si5 0.822468 0.628326 0.966311
Si Si6 0.675061 0.185987 0.659441
Si Si7 0.176727 0.070537 0.600810
Si Si8 0.323379 0.168212 0.164365
O O1 0.750000 0.389677 0.750000
O O2 0.768489 0.478127 0.847954
O O3 0.783326 0.384880 0.930529
O O4 0.000000 0.412937 0.828679
O O5 0.274800 0.798453 0.921880
O O6 0.000000 0.766029 0.958599
O O7 0.210333 0.692873 0.951041
O O8 0.199614 0.770215 0.080173
O O9 0.835065 0.500000 0.500000
O O10 0.762513 0.584306 0.595200
O O11 0.000000 0.523284 0.636041
O O12 0.500000 0.952509 0.873022
O O13 0.261569 0.894738 0.843763
O O14 0.264693 0.010975 0.862680
O O15 0.306425 0.937867 0.994362
O O16 0.000000 0.619334 0.957426
O O17 0.750000 0.204987 0.750000
O O18 0.500000 0.179337 0.672039
O O19 0.741835 0.125642 0.633110
O O20 0.000000 0.076146 0.619089
O O21 0.250000 0.195778 0.250000
O O22 0.500000 0.166529 0.172013
#
# Coordination Sequence:
#
# PCOD9420122 Si02
#       8
#     8   8   8   8   8   8   8   8
#     4  10  19  32  53  82 115 148 180 220 269 320
#     4  10  22  41  60  81 112 150 193 241 284 330
#     4   9  17  31  52  79 108 137 172 212 255 309
#     4   8  16  31  56  83 109 141 177 224 284 343
#     4   9  19  36  57  78 106 145 185 225 273 323
#     4  11  23  37  55  81 113 150 191 234 282 338
#     4   9  16  33  57  81 110 143 181 226 280 343
#     4  11  22  38  60  85 110 143 185 233 289 346
#
# _framework density 19.753086
#
# number of rings (size 3 to 8) (size 9 to 14) (size 15 to 20)
#    0.000    2.375    1.250    2.250    0.000    4.000 
#    0.000    4.375    0.000    3.000    0.000    0.000 
#    0.000    0.000    0.000    0.000    0.000    0.000 
#
# Total GULP energy -356946.244871 kJ/mol
# GULP energy per Si atom -5577.285076 kJ/mol
# Density = 1.970813 g / cm^3
# Si number density = 19.753086 Si / 1000 Ang^3
#
#
#
# Elastic Constant Matrix: (Units=GPa)
#
#
# Indices 1 2 3 4 5 6 
#
# 1 22.0341 15.7975 10.5287 0.0000 0.0000 0.0000
# 2 15.7975 60.8869 -10.4499 0.0000 0.0000 0.0000
# 3 10.5287 -10.4499 32.0729 0.0000 0.0000 0.0000
# 4 0.0000 0.0000 0.0000 -17.7776 0.0000 0.0000
# 5 0.0000 0.0000 0.0000 0.0000 25.3210 0.0000
# 6 0.0000 0.0000 0.0000 0.0000 0.0000 16.3574
#
#
#
# Elastic Compliance Matrix: (Units=1/GPa)
#
#
# Indices 1 2 3 4 5 6 
#
# 1 0.082332 -0.027540 -0.036001 0.000000 0.000000 0.000000
# 2 -0.027540 0.026609 0.017710 0.000000 0.000000 0.000000
# 3 -0.036001 0.017710 0.048767 0.000000 0.000000 0.000000
# 4 0.000000 0.000000 0.000000 -0.056251 0.000000 0.000000
# 5 0.000000 0.000000 0.000000 0.000000 0.039493 0.000000
# 6 0.000000 0.000000 0.000000 0.000000 0.000000 0.061135
#
#
# Mechanical properties :
#
#
# Convention : Reuss Voigt Hill
#
# Bulk Modulus (GPa) = 15.14062 16.30518 15.72290
# Shear Modulus (GPa) = 15.83470 11.38800 13.61135
#
# Velocity S-wave (km/s) = 2.83438 2.40368 2.62787
# Velocity P-wave (km/s) = 4.28873 3.99700 4.14543
#
# Compressibility (1/GPa) = 0.06604748
#
# Stress axis : x y z
#
# Youngs Moduli (GPa) = 12.14594 37.58126 20.50549
#
# Poissons Ratio (x) = 1.03500 0.73821
# Poissons Ratio (y) = 0.33450 -0.36316
# Poissons Ratio (z) = 0.43726 -0.66558
#
# Static dielectric constant tensor:
#      x y z
#    x 1.658890 0.000000 0.000000 
#    y 0.000000 1.693610 0.000000 
#    z 0.000000 0.000000 1.909440 
# 
# From -- ./inp_files/20889.got.cif
#   From: 2010.05.17/outbox.ucp.g08.bks.cvg/sg53_11_cif.got.tgz:20889.got - 2010.06.11 16:32:34.
