data_PCOD9420065
_publ_section_title
;
Structure prediction by ZEFSAII (Michael W. Deem and Ramdas Pophale) SiO2 
 PCOD9420065
Probable space group: P M N A
;
_chemical_formula_sum "Si O2"
_cell_formula_units_Z 48
_cell_length_a 7.310505
_cell_length_b 10.337535
_cell_length_c 29.900159
_cell_angle_alpha 90.000000
_cell_angle_beta 90.000000
_cell_angle_gamma 90.000000
_cell_volume 2259.632795
_symmetry_space_group_name_H-M "P M N A"
_symmetry_group_IT_number 53
_symmetry_cell_setting 'orthorhombic'
loop_
_space_group_symop_operation_xyz
x,y,z
1/2-x,-y,1/2+z
x,-y,-z
1/2-x,y,1/2-z
-x,-y,-z
1/2+x,y,1/2-z
-x,y,z
1/2+x,-y,1/2+z
loop_
_atom_site_type_symbol
_atom_site_label
_atom_site_fract_x
_atom_site_fract_y
_atom_site_fract_z
Si Si1 0.718424 0.486032 0.302425
Si Si2 0.776874 0.365682 0.021856
Si Si3 0.223351 0.012385 0.871971
Si Si4 0.776564 0.286153 0.121957
Si Si5 0.717735 0.222581 0.697966
Si Si6 0.777532 0.115836 0.967719
O O1 0.750000 0.455349 0.250000
O O2 0.500000 0.490752 0.307897
O O3 0.784668 0.379944 0.337865
O O4 0.788535 0.632013 0.311495
O O5 0.720535 0.338186 0.072995
O O6 0.000000 0.366007 0.022620
O O7 0.718266 0.500000 0.000000
O O8 0.718277 0.249465 0.989555
O O9 0.286117 0.104668 0.831948
O O10 0.279866 0.081516 0.917891
O O11 0.000000 0.008632 0.871438
O O12 0.281473 0.862748 0.871288
O O13 0.000000 0.285658 0.121997
O O14 0.750000 0.197295 0.750000
O O15 0.500000 0.228431 0.690414
O O16 0.000000 0.118101 0.967297
O O17 0.721624 0.000000 0.000000
#
# Coordination Sequence:
#
# PCOD9420065 Si02
#       6
#     8   8   8   8   8   8
#     4   9  18  31  46  63  86 114 144 179 218 256
#     4   9  16  22  32  53  81 112 142 171 206 253
#     4   9  16  25  39  58  82 113 144 175 213 255
#     4   9  16  26  38  57  84 113 144 176 212 254
#     4   9  18  31  46  64  86 113 145 180 216 256
#     4   9  14  22  34  51  79 112 140 166 204 255
#
# _framework density 21.242387999999998
#
# number of rings (size 3 to 8) (size 9 to 14) (size 15 to 20)
#    0.000    3.000    1.667    0.000    2.333    0.667 
#    0.000    0.000    0.000    0.000    0.000    0.000 
#    0.000    2.667    0.000    0.167    0.000    0.000 
#
# Total GULP energy -267957.321592 kJ/mol
# GULP energy per Si atom -5582.444200 kJ/mol
# Density = 2.119404 g / cm^3
# Si number density = 21.242388 Si / 1000 Ang^3
#
#
#
# Elastic Constant Matrix: (Units=GPa)
#
#
# Indices 1 2 3 4 5 6 
#
# 1 86.5159 8.2705 1.8552 0.0000 0.0000 0.0000
# 2 8.2705 255.8683 170.5868 0.0000 0.0000 0.0000
# 3 1.8552 170.5868 191.0355 0.0000 0.0000 0.0000
# 4 0.0000 0.0000 0.0000 69.0535 0.0000 0.0000
# 5 0.0000 0.0000 0.0000 0.0000 5.0983 0.0000
# 6 0.0000 0.0000 0.0000 0.0000 0.0000 -33.0013
#
#
#
# Elastic Compliance Matrix: (Units=1/GPa)
#
#
# Indices 1 2 3 4 5 6 
#
# 1 0.011618 -0.000742 0.000550 0.000000 0.000000 0.000000
# 2 -0.000742 0.009705 -0.008659 0.000000 0.000000 0.000000
# 3 0.000550 -0.008659 0.012962 0.000000 0.000000 0.000000
# 4 0.000000 0.000000 0.000000 0.014482 0.000000 0.000000
# 5 0.000000 0.000000 0.000000 0.000000 0.196143 0.000000
# 6 0.000000 0.000000 0.000000 0.000000 0.000000 -0.030302
#
#
# Mechanical properties :
#
#
# Convention : Reuss Voigt Hill
#
# Bulk Modulus (GPa) = 60.30756 99.42719 79.86737
# Shear Modulus (GPa) = 21.02272 31.74391 26.38332
#
# Velocity S-wave (km/s) = 3.14930 3.86990 3.52804
# Velocity P-wave (km/s) = 6.45569 8.17776 7.36722
#
# Compressibility (1/GPa) = 0.01658167
#
# Stress axis : x y z
#
# Youngs Moduli (GPa) = 86.07543 103.03566 77.15049
#
# Poissons Ratio (x) = 0.07646 -0.04242
# Poissons Ratio (y) = 0.06388 0.66807
# Poissons Ratio (z) = -0.04733 0.89222
#
# Static dielectric constant tensor:
#      x y z
#    x 1.878670 0.000000 0.000000 
#    y 0.000000 1.746980 0.000000 
#    z 0.000000 0.000000 1.801000 
# 
# From -- ./inp_files/34890.got.cif
#   From: 2010.05.17/outbox.cif.g08.bks.cpg/sg53_18_cif.got.tgz:34890.got - 2010.06.03 12:45:16.
