data_PCOD9420232
_publ_section_title
;
Structure prediction by ZEFSAII (Michael W. Deem and Ramdas Pophale) SiO2 
 PCOD9420232
Probable space group: P M N A
;
_chemical_formula_sum "Si O2"
_cell_formula_units_Z 48
_cell_length_a 9.000000
_cell_length_b 15.000000
_cell_length_c 18.000000
_cell_angle_alpha 90.000000
_cell_angle_beta 90.000000
_cell_angle_gamma 90.000000
_cell_volume 2430.000000
_symmetry_space_group_name_H-M "P M N A"
_symmetry_group_IT_number 53
_symmetry_cell_setting 'orthorhombic'
loop_
_space_group_symop_operation_xyz
x,y,z
1/2-x,-y,1/2+z
x,-y,-z
1/2-x,y,1/2-z
-x,-y,-z
1/2+x,y,1/2-z
-x,y,z
1/2+x,-y,1/2+z
loop_
_atom_site_type_symbol
_atom_site_label
_atom_site_fract_x
_atom_site_fract_y
_atom_site_fract_z
Si Si1 0.826973 0.587515 0.319650
Si Si2 0.325292 0.739013 0.399015
Si Si3 0.169403 0.454099 0.080773
Si Si4 0.676170 0.729389 0.949416
Si Si5 0.825589 0.927277 0.173265
Si Si6 0.179792 0.074568 0.063992
O O1 0.750000 0.541741 0.250000
O O2 0.726956 0.675430 0.333277
O O3 0.792713 0.517279 0.383284
O O4 0.000000 0.607732 0.311527
O O5 0.500000 0.723151 0.417683
O O6 0.212030 0.715098 0.463843
O O7 0.306961 0.842794 0.380572
O O8 0.229668 0.352553 0.084986
O O9 0.000000 0.458805 0.112210
O O10 0.156207 0.500000 0.000000
O O11 0.500000 0.725074 0.933646
O O12 0.741062 0.829521 0.936755
O O13 0.750000 0.906678 0.250000
O O14 0.000000 0.935818 0.185497
O O15 0.775151 0.019595 0.137224
O O16 0.000000 0.088513 0.060804
O O17 0.212633 0.000000 0.000000
#
# Coordination Sequence:
#
# PCOD9420232 Si02
#       6
#     8   8   8   8   8   8
#     4  12  25  41  62  92 128 164 204 252 306 366
#     4  11  21  38  61  89 124 164 203 246 303 366
#     4  11  23  41  66  90 120 163 206 251 304 364
#     4  12  24  37  60  95 125 154 199 258 308 358
#     4  10  22  38  60  87 120 160 199 247 300 356
#     4  10  20  40  63  84 117 162 206 247 296 361
#
# _framework density 19.753086
#
# number of rings (size 3 to 8) (size 9 to 14) (size 15 to 20)
#    0.000    1.000    3.333    4.500    0.000    4.333 
#    0.000    0.833    0.000    2.000    0.000    0.000 
#    0.000    0.000    0.000    0.000    0.000    0.000 
#
# Total GULP energy -267530.213583 kJ/mol
# GULP energy per Si atom -5573.546116 kJ/mol
# Density = 1.970813 g / cm^3
# Si number density = 19.753086 Si / 1000 Ang^3
#
#
#
# Elastic Constant Matrix: (Units=GPa)
#
#
# Indices 1 2 3 4 5 6 
#
# 1 85.1371 38.5012 1.1457 0.0000 0.0000 0.0000
# 2 38.5012 115.5138 -7.9811 0.0000 0.0000 0.0000
# 3 1.1457 -7.9811 16.0464 0.0000 0.0000 0.0000
# 4 0.0000 0.0000 0.0000 12.9275 0.0000 0.0000
# 5 0.0000 0.0000 0.0000 0.0000 20.8990 0.0000
# 6 0.0000 0.0000 0.0000 0.0000 0.0000 23.1690
#
#
#
# Elastic Compliance Matrix: (Units=1/GPa)
#
#
# Indices 1 2 3 4 5 6 
#
# 1 0.014012 -0.004908 -0.003442 0.000000 0.000000 0.000000
# 2 -0.004908 0.010684 0.005664 0.000000 0.000000 0.000000
# 3 -0.003442 0.005664 0.065382 0.000000 0.000000 0.000000
# 4 0.000000 0.000000 0.000000 0.077355 0.000000 0.000000
# 5 0.000000 0.000000 0.000000 0.000000 0.047849 0.000000
# 6 0.000000 0.000000 0.000000 0.000000 0.000000 0.043161
#
#
# Mechanical properties :
#
#
# Convention : Reuss Voigt Hill
#
# Bulk Modulus (GPa) = 11.80522 31.11433 21.45978
# Shear Modulus (GPa) = 17.12040 23.73451 20.42746
#
# Velocity S-wave (km/s) = 2.94721 3.47011 3.21929
# Velocity P-wave (km/s) = 4.19175 5.64282 4.97052
#
# Compressibility (1/GPa) = 0.08470827
#
# Stress axis : x y z
#
# Youngs Moduli (GPa) = 71.36970 93.59651 15.29463
#
# Poissons Ratio (x) = 0.45936 0.05264
# Poissons Ratio (y) = 0.35027 -0.08664
# Poissons Ratio (z) = 0.24562 -0.53017
#
# Static dielectric constant tensor:
#      x y z
#    x 1.648820 0.000000 0.000000 
#    y 0.000000 1.721380 0.000000 
#    z 0.000000 0.000000 1.828090 
# 
# From -- ./inp_files/26274.got.cif
#   From: 2010.05.17/outbox.ucp.g08.bks.cvg/sg53_14_cif.got.tgz:26274.got - 2010.06.11 16:32:34.
