data_PCOD9420029
_publ_section_title
;
Structure prediction by ZEFSAII (Michael W. Deem and Ramdas Pophale) SiO2 
 PCOD9420029
Probable space group: P M N A
;
_chemical_formula_sum "Si O2"
_cell_formula_units_Z 20
_cell_length_a 15.535179
_cell_length_b 4.892038
_cell_length_c 11.121142
_cell_angle_alpha 90.000000
_cell_angle_beta 90.000000
_cell_angle_gamma 90.000000
_cell_volume 845.192179
_symmetry_space_group_name_H-M "P M N A"
_symmetry_group_IT_number 53
_symmetry_cell_setting 'orthorhombic'
loop_
_space_group_symop_operation_xyz
x,y,z
1/2-x,-y,1/2+z
x,-y,-z
1/2-x,y,1/2-z
-x,-y,-z
1/2+x,y,1/2-z
-x,y,z
1/2+x,-y,1/2+z
loop_
_atom_site_type_symbol
_atom_site_label
_atom_site_fract_x
_atom_site_fract_y
_atom_site_fract_z
Si Si1 0.900546 0.682928 0.261944
Si Si2 0.151964 0.836945 0.889791
Si Si3 0.805663 0.500000 0.500000
O O1 0.891564 0.427643 0.170113
O O2 0.863957 0.603472 0.391301
O O3 0.000000 0.765821 0.269247
O O4 0.845206 0.932672 0.211200
O O5 0.241332 0.724492 0.943034
O O6 0.107251 0.000000 0.000000
#
# Coordination Sequence:
#
# PCOD9420029 Si02
#       3
#     8   8   4
#     4  12  29  50  77 112 153 195 251 316 379 437
#     4  12  27  48  77 109 150 200 254 305 374 453
#     4  12  29  48  83 108 154 202 260 302 373 456
#
# _framework density 23.663256000000001
#
# number of rings (size 3 to 8) (size 9 to 14) (size 15 to 20)
#    0.000    0.000    4.000    3.000   11.200    4.800 
#    0.000    4.000    0.000    0.000    0.000    0.000 
#    0.000    0.000    0.000    0.000    0.000    0.000 
#
# Total GULP energy -112068.154078 kJ/mol
# GULP energy per Si atom -5603.407704 kJ/mol
# Density = 2.360940 g / cm^3
# Si number density = 23.663256 Si / 1000 Ang^3
#
#
#
# Elastic Constant Matrix: (Units=GPa)
#
#
# Indices 1 2 3 4 5 6 
#
# 1 140.1342 47.6004 79.2202 0.0000 0.0000 0.0000
# 2 47.6004 156.9358 56.7440 0.0000 0.0000 0.0000
# 3 79.2202 56.7440 144.2171 0.0000 0.0000 0.0000
# 4 0.0000 0.0000 0.0000 52.2127 0.0000 0.0000
# 5 0.0000 0.0000 0.0000 0.0000 13.5473 0.0000
# 6 0.0000 0.0000 0.0000 0.0000 0.0000 11.3025
#
#
#
# Elastic Compliance Matrix: (Units=1/GPa)
#
#
# Indices 1 2 3 4 5 6 
#
# 1 0.010569 -0.001290 -0.005298 0.000000 0.000000 0.000000
# 2 -0.001290 0.007586 -0.002276 0.000000 0.000000 0.000000
# 3 -0.005298 -0.002276 0.010740 0.000000 0.000000 0.000000
# 4 0.000000 0.000000 0.000000 0.019152 0.000000 0.000000
# 5 0.000000 0.000000 0.000000 0.000000 0.073815 0.000000
# 6 0.000000 0.000000 0.000000 0.000000 0.000000 0.088476
#
#
# Mechanical properties :
#
#
# Convention : Reuss Voigt Hill
#
# Bulk Modulus (GPa) = 89.55378 89.82404 89.68891
# Shear Modulus (GPa) = 21.57110 32.59399 27.08255
#
# Velocity S-wave (km/s) = 3.02252 3.71537 3.38671
# Velocity P-wave (km/s) = 7.07871 7.51312 7.29915
#
# Compressibility (1/GPa) = 0.01116647
#
# Stress axis : x y z
#
# Youngs Moduli (GPa) = 94.61214 131.81512 93.10929
#
# Poissons Ratio (x) = 0.17005 0.49332
# Poissons Ratio (y) = 0.12206 0.21194
# Poissons Ratio (z) = 0.50129 0.30005
#
# Static dielectric constant tensor:
#      x y z
#    x 1.849600 0.000000 0.000000 
#    y 0.000000 1.901900 0.000000 
#    z 0.000000 0.000000 1.945730 
# 
# From -- ./inp_files/15134.got.cif
#   From: 2010.05.17/outbox.cif.g08.bks.cpg/sg53_8_cif.got.tgz:15134.got - 2010.06.03 12:45:16.
