data_PCOD9420179
_publ_section_title
;
Structure prediction by ZEFSAII (Michael W. Deem and Ramdas Pophale) SiO2 
 PCOD9420179
Probable space group: P M N A
;
_chemical_formula_sum "Si O2"
_cell_formula_units_Z 64
_cell_length_a 9.000000
_cell_length_b 21.000000
_cell_length_c 18.000000
_cell_angle_alpha 90.000000
_cell_angle_beta 90.000000
_cell_angle_gamma 90.000000
_cell_volume 3402.000000
_symmetry_space_group_name_H-M "P M N A"
_symmetry_group_IT_number 53
_symmetry_cell_setting 'orthorhombic'
loop_
_space_group_symop_operation_xyz
x,y,z
1/2-x,-y,1/2+z
x,-y,-z
1/2-x,y,1/2-z
-x,-y,-z
1/2+x,y,1/2-z
-x,y,z
1/2+x,-y,1/2+z
loop_
_atom_site_type_symbol
_atom_site_label
_atom_site_fract_x
_atom_site_fract_y
_atom_site_fract_z
Si Si1 0.675650 0.920273 0.631973
Si Si2 0.668438 0.750377 0.987133
Si Si3 0.831709 0.550890 0.567978
Si Si4 0.177815 0.786116 0.675239
Si Si5 0.825796 0.359741 0.959120
Si Si6 0.677148 0.545252 0.329150
Si Si7 0.331246 0.900315 0.015978
Si Si8 0.323947 0.950901 0.179080
O O1 0.500000 0.916915 0.642771
O O2 0.752191 0.855867 0.661347
O O3 0.718786 0.926644 0.545068
O O4 0.746733 0.980784 0.670987
O O5 0.500000 0.726126 0.997117
O O6 0.709091 0.747118 0.899947
O O7 0.779220 0.713021 0.039858
O O8 0.668810 0.824621 0.006053
O O9 0.834091 0.500000 0.500000
O O10 0.756791 0.611183 0.530336
O O11 0.737455 0.518929 0.632799
O O12 0.000000 0.562865 0.591850
O O13 0.250000 0.759433 0.750000
O O14 0.000000 0.791783 0.682144
O O15 0.779843 0.398043 0.885766
O O16 0.000000 0.369286 0.967916
O O17 0.750000 0.554748 0.250000
O O18 0.500000 0.543269 0.323390
O O19 0.500000 0.922746 0.997858
O O20 0.298131 0.917163 0.100382
O O21 0.250000 0.917705 0.250000
O O22 0.500000 0.957404 0.189817
#
# Coordination Sequence:
#
# PCOD9420179 Si02
#       8
#     8   8   8   8   8   8   8   8
#     4  11  21  33  53  79 104 131 167 211 260 319
#     4   9  19  36  56  76 101 137 179 217 257 309
#     4   9  17  31  53  78 104 136 170 205 250 302
#     4  10  20  35  54  77 105 135 169 212 263 315
#     4  10  20  34  54  80 108 139 178 220 258 302
#     4  10  20  34  53  80 112 142 175 218 263 306
#     4   9  20  38  56  74 100 136 174 215 263 313
#     4  11  22  36  53  74 103 135 169 213 265 318
#
# _framework density 18.812463000000001
#
# number of rings (size 3 to 8) (size 9 to 14) (size 15 to 20)
#    0.000    2.125    0.000    4.500    0.000    8.000 
#    0.000    1.250    0.000    4.500    0.000    0.000 
#    0.000    0.000    0.000    0.000    0.000    0.000 
#
# Total GULP energy -357060.934361 kJ/mol
# GULP energy per Si atom -5579.077099 kJ/mol
# Density = 1.876965 g / cm^3
# Si number density = 18.812463 Si / 1000 Ang^3
#
#
#
# Elastic Constant Matrix: (Units=GPa)
#
#
# Indices 1 2 3 4 5 6 
#
# 1 68.9855 23.5572 68.1731 0.0000 0.0000 0.0000
# 2 23.5572 40.8299 34.2082 0.0000 0.0000 0.0000
# 3 68.1731 34.2082 118.0392 0.0000 0.0000 0.0000
# 4 0.0000 0.0000 0.0000 10.8552 0.0000 0.0000
# 5 0.0000 0.0000 0.0000 0.0000 -0.2759 0.0000
# 6 0.0000 0.0000 0.0000 0.0000 0.0000 47.7193
#
#
#
# Elastic Compliance Matrix: (Units=1/GPa)
#
#
# Indices 1 2 3 4 5 6 
#
# 1 0.034311 -0.004218 -0.018594 0.000000 0.000000 0.000000
# 2 -0.004218 0.032864 -0.007088 0.000000 0.000000 0.000000
# 3 -0.018594 -0.007088 0.021265 0.000000 0.000000 0.000000
# 4 0.000000 0.000000 0.000000 0.092122 0.000000 0.000000
# 5 0.000000 0.000000 0.000000 0.000000 -3.624910 0.000000
# 6 0.000000 0.000000 0.000000 0.000000 0.000000 0.020956
#
#
# Mechanical properties :
#
#
# Convention : Reuss Voigt Hill
#
# Bulk Modulus (GPa) = 34.91596 53.30350 44.10973
# Shear Modulus (GPa) = -1.49074 18.45414 8.48170
#
# Velocity S-wave (km/s) = -0.89115 3.13541 2.12564
# Velocity P-wave (km/s) = 4.18825 6.44231 5.43346
#
# Compressibility (1/GPa) = 0.02864020
#
# Stress axis : x y z
#
# Youngs Moduli (GPa) = 29.14528 30.42849 47.02627
#
# Poissons Ratio (x) = 0.12834 0.87440
# Poissons Ratio (y) = 0.12293 0.33333
# Poissons Ratio (z) = 0.54192 0.21568
#
# Static dielectric constant tensor:
#      x y z
#    x 1.640610 0.000000 0.000000 
#    y 0.000000 1.680830 0.000000 
#    z 0.000000 0.000000 1.675930 
# 
# From -- ./inp_files/26789.got.cif
#   From: 2010.05.17/outbox.ucp.g08.bks.cvg/sg53_14_cif.got.tgz:26789.got - 2010.06.11 16:32:34.
