data_PCOD9420673
_publ_section_title
;
Structure prediction by ZEFSAII (Michael W. Deem and Ramdas Pophale) SiO2 
 PCOD9420673
Probable space group: P C C A
;
_chemical_formula_sum "Si O2"
_cell_formula_units_Z 52
_cell_length_a 14.690751
_cell_length_b 21.391381
_cell_length_c 9.070912
_cell_angle_alpha 90.000000
_cell_angle_beta 90.000000
_cell_angle_gamma 90.000000
_cell_volume 2850.583549
_symmetry_space_group_name_H-M "P C C A"
_symmetry_group_IT_number 54
_symmetry_cell_setting 'orthorhombic'
loop_
_space_group_symop_operation_xyz
x,y,z
1/2-x,-y,z
1/2+x,-y,1/2-z
-x,y,1/2-z
-x,-y,-z
1/2+x,y,-z
1/2-x,y,1/2+z
x,-y,1/2+z
loop_
_atom_site_type_symbol
_atom_site_label
_atom_site_fract_x
_atom_site_fract_y
_atom_site_fract_z
Si Si1 0.480068 0.238208 0.574527
Si Si2 0.168906 0.661258 0.607694
Si Si3 0.250000 0.000000 0.815551
Si Si4 0.368979 0.030642 0.064897
Si Si5 0.135308 0.329250 0.459657
Si Si6 0.985926 0.433527 0.425268
Si Si7 0.466511 0.905523 0.078660
O O1 0.500000 0.241643 0.750000
O O2 0.394162 0.282717 0.544806
O O3 0.573316 0.267545 0.508841
O O4 0.455616 0.166826 0.541387
O O5 0.272195 0.664914 0.552098
O O6 0.162462 0.667543 0.785755
O O7 0.113315 0.598988 0.558528
O O8 0.185021 0.041553 0.713507
O O9 0.309199 0.043038 0.921733
O O10 0.385845 0.955617 0.068018
O O11 0.461288 0.066483 0.037660
O O12 0.063573 0.385753 0.482333
O O13 0.000000 0.439327 0.250000
O O14 0.000000 0.500000 0.500000
O O15 0.500000 0.909861 0.250000
#
# Coordination Sequence:
#
# PCOD9420673 Si02
#       7
#     8   8   4   8   8   8   8
#     4   8  17  35  54  75 103 138 172 211 258 310
#     4   9  18  35  55  75 105 138 173 210 255 301
#     4  10  20  36  48  78 104 132 164 214 262 312
#     4  10  20  34  54  72 106 132 168 212 266 308
#     4   9  18  35  55  75 105 138 173 210 255 301
#     4   9  19  34  53  78 106 140 170 208 253 301
#     4  10  18  34  55  76  96 140 171 208 263 321
#
# _framework density 18.241879999999998
#
# number of rings (size 3 to 8) (size 9 to 14) (size 15 to 20)
#    0.000    2.769    1.538    1.846    0.000    1.846 
#    5.538    5.385    3.385    0.000    0.000    0.000 
#    0.000    0.000    0.000    0.000    0.000    0.000 
#
# Total GULP energy -289480.861929 kJ/mol
# GULP energy per Si atom -5566.939652 kJ/mol
# Density = 1.820036 g / cm^3
# Si number density = 18.241880 Si / 1000 Ang^3
#
#
#
# Elastic Constant Matrix: (Units=GPa)
#
#
# Indices 1 2 3 4 5 6 
#
# 1 85.3311 26.6640 12.5192 0.0000 0.0000 0.0000
# 2 26.6640 113.4994 12.0533 0.0000 0.0000 0.0000
# 3 12.5192 12.0533 33.8162 0.0000 0.0000 0.0000
# 4 0.0000 0.0000 0.0000 16.1094 0.0000 0.0000
# 5 0.0000 0.0000 0.0000 0.0000 34.5734 0.0000
# 6 0.0000 0.0000 0.0000 0.0000 0.0000 4.9929
#
#
#
# Elastic Compliance Matrix: (Units=1/GPa)
#
#
# Indices 1 2 3 4 5 6 
#
# 1 0.013126 -0.002669 -0.003908 0.000000 0.000000 0.000000
# 2 -0.002669 0.009700 -0.002469 0.000000 0.000000 0.000000
# 3 -0.003908 -0.002469 0.031899 0.000000 0.000000 0.000000
# 4 0.000000 0.000000 0.000000 0.062076 0.000000 0.000000
# 5 0.000000 0.000000 0.000000 0.000000 0.028924 0.000000
# 6 0.000000 0.000000 0.000000 0.000000 0.000000 0.200283
#
#
# Mechanical properties :
#
#
# Convention : Reuss Voigt Hill
#
# Bulk Modulus (GPa) = 27.29844 37.23549 32.26696
# Shear Modulus (GPa) = 13.28689 23.22918 18.25803
#
# Velocity S-wave (km/s) = 2.70177 3.57234 3.16711
# Velocity P-wave (km/s) = 4.97292 6.12143 5.57682
#
# Compressibility (1/GPa) = 0.03663213
#
# Stress axis : x y z
#
# Youngs Moduli (GPa) = 76.18264 103.09489 31.34924
#
# Poissons Ratio (x) = 0.27513 0.12252
# Poissons Ratio (y) = 0.20331 0.07741
# Poissons Ratio (z) = 0.29775 0.25458
#
# Static dielectric constant tensor:
#      x y z
#    x 1.647310 0.000000 0.000000 
#    y 0.000000 1.627820 0.000000 
#    z 0.000000 0.000000 1.648150 
# 
# From -- ./inp_files/3660.got.cif
#   From: 2010.05.17/outbox.cif.g08.bks.cpg/sg54_2_cif.got.tgz:3660.got - 2010.06.03 13:09:01.
