data_PCOD9420511
_publ_section_title
;
Structure prediction by ZEFSAII (Michael W. Deem and Ramdas Pophale) SiO2 
 PCOD9420511
Probable space group: P C C A
;
_chemical_formula_sum "Si O2"
_cell_formula_units_Z 48
_cell_length_a 11.531601
_cell_length_b 8.220278
_cell_length_c 22.959105
_cell_angle_alpha 90.000000
_cell_angle_beta 90.000000
_cell_angle_gamma 90.000000
_cell_volume 2176.361660
_symmetry_space_group_name_H-M "P C C A"
_symmetry_group_IT_number 54
_symmetry_cell_setting 'orthorhombic'
loop_
_space_group_symop_operation_xyz
x,y,z
1/2-x,-y,z
1/2+x,-y,1/2-z
-x,y,1/2-z
-x,-y,-z
1/2+x,y,-z
1/2-x,y,1/2+z
x,-y,1/2+z
loop_
_atom_site_type_symbol
_atom_site_label
_atom_site_fract_x
_atom_site_fract_y
_atom_site_fract_z
Si Si1 0.497051 0.101564 0.106051
Si Si2 0.212443 0.191711 0.831814
Si Si3 0.805885 0.177305 0.798084
Si Si4 0.419899 0.275176 0.898688
Si Si5 0.193432 0.836498 0.009758
Si Si6 0.330128 0.349138 0.604174
O O1 0.614563 0.200467 0.118421
O O2 0.415420 0.151952 0.160087
O O3 0.421758 0.133740 0.048575
O O4 0.528657 0.909862 0.106609
O O5 0.168638 0.234065 0.767271
O O6 0.326314 0.293202 0.847959
O O7 0.250000 0.000000 0.831268
O O8 0.712971 0.285046 0.833266
O O9 0.750000 0.000000 0.793109
O O10 0.533917 0.384338 0.896938
O O11 0.348155 0.280467 0.958545
O O12 0.291929 0.778782 0.054781
O O13 0.250000 0.000000 0.983319
O O14 0.250000 0.500000 0.589878
#
# Coordination Sequence:
#
# PCOD9420511 Si02
#       6
#     8   8   8   8   8   8
#     4  10  17  33  57  94 119 147 189 248 304 366
#     4   9  20  30  57  95 119 145 193 255 314 354
#     4  10  18  37  61  85 115 153 198 251 304 364
#     4  11  21  35  59  90 124 149 199 254 305 368
#     4  11  21  36  64  87 116 156 197 253 308 365
#     4  11  24  40  59  82 117 165 208 246 305 363
#
# _framework density 22.055159
#
# number of rings (size 3 to 8) (size 9 to 14) (size 15 to 20)
#    0.000    1.667    3.333    3.500    2.333    1.333 
#    0.000    0.000   14.667    0.000    0.000    0.000 
#    0.000    0.000    0.000    0.000    0.000    0.000 
#
# Total GULP energy -268081.105063 kJ/mol
# GULP energy per Si atom -5585.023022 kJ/mol
# Density = 2.200496 g / cm^3
# Si number density = 22.055159 Si / 1000 Ang^3
#
#
#
# Elastic Constant Matrix: (Units=GPa)
#
#
# Indices 1 2 3 4 5 6 
#
# 1 118.6460 0.5791 27.3441 0.0000 0.0000 0.0000
# 2 0.5791 4.5842 -5.3291 0.0000 0.0000 0.0000
# 3 27.3441 -5.3291 95.1040 0.0000 0.0000 0.0000
# 4 0.0000 0.0000 0.0000 8.6005 0.0000 0.0000
# 5 0.0000 0.0000 0.0000 0.0000 20.4589 0.0000
# 6 0.0000 0.0000 0.0000 0.0000 0.0000 27.1698
#
#
#
# Elastic Compliance Matrix: (Units=1/GPa)
#
#
# Indices 1 2 3 4 5 6 
#
# 1 0.009112 -0.004489 -0.002871 0.000000 0.000000 0.000000
# 2 -0.004489 0.235550 0.014490 0.000000 0.000000 0.000000
# 3 -0.002871 0.014490 0.012152 0.000000 0.000000 0.000000
# 4 0.000000 0.000000 0.000000 0.116272 0.000000 0.000000
# 5 0.000000 0.000000 0.000000 0.000000 0.048878 0.000000
# 6 0.000000 0.000000 0.000000 0.000000 0.000000 0.036806
#
#
# Mechanical properties :
#
#
# Convention : Reuss Voigt Hill
#
# Bulk Modulus (GPa) = 3.68906 29.28027 16.48466
# Shear Modulus (GPa) = 9.34808 24.29518 16.82163
#
# Velocity S-wave (km/s) = 2.06099 3.32258 2.76471
# Velocity P-wave (km/s) = 2.70922 5.29378 4.20500
#
# Compressibility (1/GPa) = 0.27107210
#
# Stress axis : x y z
#
# Youngs Moduli (GPa) = 109.74397 4.24539 82.28892
#
# Poissons Ratio (x) = 0.01906 0.23629
# Poissons Ratio (y) = 0.49265 -1.19233
# Poissons Ratio (z) = 0.31512 -0.06151
#
# Static dielectric constant tensor:
#      x y z
#    x 1.814470 0.000000 0.000000 
#    y 0.000000 1.756350 0.000000 
#    z 0.000000 0.000000 1.795910 
# 
# From -- ./inp_files/24067.got.cif
#   From: 2010.05.17/outbox.cif.g08.bks.cpg/sg54_13_cif.got.tgz:24067.got - 2010.06.03 13:09:01.
