data_PCOD9420471
_publ_section_title
;
Structure prediction by ZEFSAII (Michael W. Deem and Ramdas Pophale) SiO2 
 PCOD9420471
Probable space group: P C C A
;
_chemical_formula_sum "Si O2"
_cell_formula_units_Z 52
_cell_length_a 28.633629
_cell_length_b 8.097004
_cell_length_c 9.090834
_cell_angle_alpha 90.000000
_cell_angle_beta 90.000000
_cell_angle_gamma 90.000000
_cell_volume 2107.679032
_symmetry_space_group_name_H-M "P C C A"
_symmetry_group_IT_number 54
_symmetry_cell_setting 'orthorhombic'
loop_
_space_group_symop_operation_xyz
x,y,z
1/2-x,-y,z
1/2+x,-y,1/2-z
-x,y,1/2-z
-x,-y,-z
1/2+x,y,-z
1/2-x,y,1/2+z
x,-y,1/2+z
loop_
_atom_site_type_symbol
_atom_site_label
_atom_site_fract_x
_atom_site_fract_y
_atom_site_fract_z
Si Si1 0.000000 0.562663 0.750000
Si Si2 0.520011 0.292541 0.038536
Si Si3 0.905333 0.061279 0.662074
Si Si4 0.242820 0.269561 0.242566
Si Si5 0.690494 0.090475 0.021505
Si Si6 0.313855 0.311732 0.004950
Si Si7 0.089330 0.229379 0.530663
O O1 0.028458 0.668247 0.631758
O O2 0.968310 0.443801 0.647889
O O3 0.547133 0.136109 0.096910
O O4 0.464027 0.279384 0.050859
O O5 0.861286 0.138063 0.575221
O O6 0.901287 0.106335 0.832029
O O7 0.906370 0.869662 0.621830
O O8 0.275204 0.157304 0.350625
O O9 0.209422 0.166900 0.130581
O O10 0.280090 0.357519 0.137273
O O11 0.209164 0.368007 0.353241
O O12 0.688808 0.891148 0.004528
O O13 0.367741 0.356450 0.030537
#
# Coordination Sequence:
#
# PCOD9420471 Si02
#       7
#     4   8   8   8   8   8   8
#     4  10  24  42  66  84 100 148 186 244 276 332
#     4  11  23  44  63  82 116 138 190 231 287 323
#     4  11  23  36  55  84 119 154 185 224 277 344
#     4  10  17  28  42  66 104 155 188 223 256 310
#     4  10  18  27  45  69 107 148 192 217 262 321
#     4  10  18  27  45  69 107 148 192 217 262 321
#     4  11  23  36  55  84 119 154 185 224 277 344
#
# _framework density 24.671690999999999
#
# number of rings (size 3 to 8) (size 9 to 14) (size 15 to 20)
#    0.000    1.538    3.077    4.154    8.615    0.000 
#    0.000    0.000    0.000    0.000    0.000    0.000 
#    0.000   86.154    0.000    0.000    0.000    0.000 
#
# Total GULP energy -290751.538896 kJ/mol
# GULP energy per Si atom -5591.375748 kJ/mol
# Density = 2.461554 g / cm^3
# Si number density = 24.671691 Si / 1000 Ang^3
#
#
#
# Elastic Constant Matrix: (Units=GPa)
#
#
# Indices 1 2 3 4 5 6 
#
# 1 178.7709 7.3871 40.7818 0.0000 0.0000 0.0000
# 2 7.3871 19.6519 19.8784 0.0000 0.0000 0.0000
# 3 40.7818 19.8784 171.0425 0.0000 0.0000 0.0000
# 4 0.0000 0.0000 0.0000 32.4073 0.0000 0.0000
# 5 0.0000 0.0000 0.0000 0.0000 35.5710 0.0000
# 6 0.0000 0.0000 0.0000 0.0000 0.0000 6.5984
#
#
#
# Elastic Compliance Matrix: (Units=1/GPa)
#
#
# Indices 1 2 3 4 5 6 
#
# 1 0.005930 -0.000905 -0.001309 0.000000 0.000000 0.000000
# 2 -0.000905 0.057803 -0.006502 0.000000 0.000000 0.000000
# 3 -0.001309 -0.006502 0.006914 0.000000 0.000000 0.000000
# 4 0.000000 0.000000 0.000000 0.030857 0.000000 0.000000
# 5 0.000000 0.000000 0.000000 0.000000 0.028113 0.000000
# 6 0.000000 0.000000 0.000000 0.000000 0.000000 0.151552
#
#
# Mechanical properties :
#
#
# Convention : Reuss Voigt Hill
#
# Bulk Modulus (GPa) = 18.79170 56.17331 37.48251
# Shear Modulus (GPa) = 15.80583 35.00986 25.40784
#
# Velocity S-wave (km/s) = 2.53385 3.77109 3.21259
# Velocity P-wave (km/s) = 4.02414 6.46369 5.38391
#
# Compressibility (1/GPa) = 0.05321497
#
# Stress axis : x y z
#
# Youngs Moduli (GPa) = 168.64311 17.30022 144.63056
#
# Poissons Ratio (x) = 0.01566 0.18927
# Poissons Ratio (y) = 0.15266 0.94038
# Poissons Ratio (z) = 0.22069 0.11249
#
# Static dielectric constant tensor:
#      x y z
#    x 1.992610 0.000000 0.000000 
#    y 0.000000 2.014700 0.000000 
#    z 0.000000 0.000000 1.937400 
# 
# From -- ./inp_files/5920.got.cif
#   From: 2010.05.17/outbox.cif.g08.bks.cpg/sg54_3_cif.got.tgz:5920.got - 2010.06.03 13:09:01.
