data_PCOD9420268
_publ_section_title
;
Structure prediction by ZEFSAII (Michael W. Deem and Ramdas Pophale) SiO2 
 PCOD9420268
Probable space group: P M N A
;
_chemical_formula_sum "Si O2"
_cell_formula_units_Z 64
_cell_length_a 9.000000
_cell_length_b 15.000000
_cell_length_c 24.000000
_cell_angle_alpha 90.000000
_cell_angle_beta 90.000000
_cell_angle_gamma 90.000000
_cell_volume 3240.000000
_symmetry_space_group_name_H-M "P M N A"
_symmetry_group_IT_number 53
_symmetry_cell_setting 'orthorhombic'
loop_
_space_group_symop_operation_xyz
x,y,z
1/2-x,-y,1/2+z
x,-y,-z
1/2-x,y,1/2-z
-x,-y,-z
1/2+x,y,1/2-z
-x,y,z
1/2+x,-y,1/2+z
loop_
_atom_site_type_symbol
_atom_site_label
_atom_site_fract_x
_atom_site_fract_y
_atom_site_fract_z
Si Si1 0.675989 0.848573 0.015036
Si Si2 0.680072 0.251637 0.809960
Si Si3 0.820056 0.599981 0.111450
Si Si4 0.176601 0.120212 0.388249
Si Si5 0.821929 0.690795 0.870049
Si Si6 0.677067 0.458528 0.192295
Si Si7 0.822040 0.340788 0.006177
Si Si8 0.179762 0.929431 0.368156
O O1 0.500000 0.829896 0.022131
O O2 0.762341 0.756307 0.010147
O O3 0.727831 0.900035 0.069800
O O4 0.691236 0.895654 0.955114
O O5 0.750000 0.274352 0.750000
O O6 0.500000 0.262539 0.809579
O O7 0.752389 0.313025 0.857909
O O8 0.717941 0.149261 0.825741
O O9 0.500000 0.599058 0.383713
O O10 0.746945 0.519679 0.144575
O O11 0.779527 0.597548 0.045870
O O12 0.271071 0.206918 0.373570
O O13 0.000000 0.136839 0.378267
O O14 0.228153 0.030470 0.357555
O O15 0.734151 0.640168 0.822009
O O16 0.000000 0.682649 0.863312
O O17 0.776261 0.646605 0.929775
O O18 0.750000 0.488314 0.250000
O O19 0.500000 0.464740 0.194246
O O20 0.000000 0.340075 0.007318
O O21 0.000000 0.933560 0.369720
#
# Coordination Sequence:
#
# PCOD9420268 Si02
#       8
#     8   8   8   8   8   8   8   8
#     4   9  15  27  50  80 113 149 191 236 282 336
#     4  11  22  37  55  79 113 154 197 243 290 344
#     4  11  22  39  62  89 119 153 190 234 288 348
#     4   9  17  31  54  83 114 150 193 239 288 341
#     4  10  21  40  61  87 122 157 193 238 289 345
#     4  12  26  45  67  90 113 146 192 242 291 346
#     4   9  19  34  56  86 123 159 189 227 286 348
#     4   9  17  30  51  79 111 149 194 241 287 337
#
# _framework density 19.753086
#
# number of rings (size 3 to 8) (size 9 to 14) (size 15 to 20)
#    0.000    2.000    1.250    3.000    0.000    3.000 
#    0.000    5.000    0.000    4.500    0.000    0.000 
#    0.000    0.000    0.000    0.000    0.000    0.000 
#
# Total GULP energy -357123.967325 kJ/mol
# GULP energy per Si atom -5580.061989 kJ/mol
# Density = 1.970813 g / cm^3
# Si number density = 19.753086 Si / 1000 Ang^3
#
#
#
# Elastic Constant Matrix: (Units=GPa)
#
#
# Indices 1 2 3 4 5 6 
#
# 1 34.1438 13.2488 16.7707 0.0000 0.0000 0.0000
# 2 13.2488 72.6070 31.9013 0.0000 0.0000 0.0000
# 3 16.7707 31.9013 38.0104 0.0000 0.0000 0.0000
# 4 0.0000 0.0000 0.0000 16.2558 0.0000 0.0000
# 5 0.0000 0.0000 0.0000 0.0000 17.2611 0.0000
# 6 0.0000 0.0000 0.0000 0.0000 0.0000 5.3629
#
#
#
# Elastic Compliance Matrix: (Units=1/GPa)
#
#
# Indices 1 2 3 4 5 6 
#
# 1 0.037412 0.000675 -0.017073 0.000000 0.000000 0.000000
# 2 0.000675 0.021831 -0.018620 0.000000 0.000000 0.000000
# 3 -0.017073 -0.018620 0.049468 0.000000 0.000000 0.000000
# 4 0.000000 0.000000 0.000000 0.061517 0.000000 0.000000
# 5 0.000000 0.000000 0.000000 0.000000 0.057934 0.000000
# 6 0.000000 0.000000 0.000000 0.000000 0.000000 0.186467
#
#
# Mechanical properties :
#
#
# Convention : Reuss Voigt Hill
#
# Bulk Modulus (GPa) = 25.85633 29.84476 27.85054
# Shear Modulus (GPa) = 10.04913 13.29865 11.67389
#
# Velocity S-wave (km/s) = 2.25797 2.59751 2.43367
# Velocity P-wave (km/s) = 4.46274 4.91302 4.69329
#
# Compressibility (1/GPa) = 0.03867525
#
# Stress axis : x y z
#
# Youngs Moduli (GPa) = 26.72946 45.80741 20.21496
#
# Poissons Ratio (x) = -0.03090 0.34513
# Poissons Ratio (y) = -0.01803 0.37639
# Poissons Ratio (z) = 0.45635 0.85291
#
# Static dielectric constant tensor:
#      x y z
#    x 1.648320 0.000000 0.000000 
#    y 0.000000 1.739740 0.000000 
#    z 0.000000 0.000000 1.708660 
# 
# From -- ./inp_files/34293.got.cif
#   From: 2010.05.17/outbox.ucp.g08.bks.cvg/sg53_18_cif.got.tgz:34293.got - 2010.06.11 16:32:34.
