data_PCOD9420174
_publ_section_title
;
Structure prediction by ZEFSAII (Michael W. Deem and Ramdas Pophale) SiO2 
 PCOD9420174
Probable space group: P M N A
;
_chemical_formula_sum "Si O2"
_cell_formula_units_Z 64
_cell_length_a 9.000000
_cell_length_b 15.000000
_cell_length_c 30.000000
_cell_angle_alpha 90.000000
_cell_angle_beta 90.000000
_cell_angle_gamma 90.000000
_cell_volume 4050.000000
_symmetry_space_group_name_H-M "P M N A"
_symmetry_group_IT_number 53
_symmetry_cell_setting 'orthorhombic'
loop_
_space_group_symop_operation_xyz
x,y,z
1/2-x,-y,1/2+z
x,-y,-z
1/2-x,y,1/2-z
-x,-y,-z
1/2+x,y,1/2-z
-x,y,z
1/2+x,-y,1/2+z
loop_
_atom_site_type_symbol
_atom_site_label
_atom_site_fract_x
_atom_site_fract_y
_atom_site_fract_z
Si Si1 0.178216 0.300096 0.795651
Si Si2 0.679225 0.952669 0.065284
Si Si3 0.676637 0.637572 0.437863
Si Si4 0.320934 0.789013 0.119540
Si Si5 0.823519 0.535560 0.605650
Si Si6 0.677448 0.496133 0.794791
Si Si7 0.820041 0.135454 0.470176
Si Si8 0.823964 0.327085 0.040245
O O1 0.250000 0.265181 0.750000
O O2 0.238180 0.243164 0.836556
O O3 0.244671 0.399805 0.800795
O O4 0.000000 0.303008 0.793792
O O5 0.500000 0.955322 0.065211
O O6 0.723675 0.888717 0.105325
O O7 0.726372 0.055145 0.062841
O O8 0.718363 0.902723 0.019197
O O9 0.500000 0.648643 0.429552
O O10 0.766869 0.721872 0.419138
O O11 0.737616 0.551345 0.412361
O O12 0.698921 0.631001 0.490949
O O13 0.500000 0.782904 0.124139
O O14 0.798386 0.546312 0.658616
O O15 0.763815 0.617267 0.576966
O O16 0.000000 0.522474 0.599131
O O17 0.750000 0.535808 0.750000
O O18 0.500000 0.484061 0.788511
O O19 0.737558 0.227012 0.461549
O O20 0.000000 0.147641 0.468446
O O21 0.000000 0.328861 0.049175
#
# Coordination Sequence:
#
# PCOD9420174 Si02
#       8
#     8   8   8   8   8   8   8   8
#     4  11  21  33  50  72 100 133 165 205 251 298
#     4   8  16  29  51  75  97 127 166 207 244 290
#     4  11  22  34  47  69 102 138 172 208 248 293
#     4  11  19  31  51  75 101 133 170 206 247 300
#     4  11  23  36  52  72  96 133 176 209 246 300
#     4  10  20  34  52  74  97 125 164 207 251 300
#     4   9  16  32  52  72  96 129 170 207 245 290
#     4  11  23  35  48  71 103 136 172 213 256 295
#
# _framework density 15.802469
#
# number of rings (size 3 to 8) (size 9 to 14) (size 15 to 20)
#    0.000    1.750    2.500    4.875    0.000    4.500 
#    0.000    2.500    0.000    0.000    0.000    0.875 
#    0.000    4.000    0.000    0.000    0.000    0.000 
#
# Total GULP energy -357016.528741 kJ/mol
# GULP energy per Si atom -5578.383262 kJ/mol
# Density = 1.576650 g / cm^3
# Si number density = 15.802469 Si / 1000 Ang^3
#
#
#
# Elastic Constant Matrix: (Units=GPa)
#
#
# Indices 1 2 3 4 5 6 
#
# 1 82.9284 14.0047 47.9599 0.0000 0.0000 0.0000
# 2 14.0047 44.1749 28.0001 0.0000 0.0000 0.0000
# 3 47.9599 28.0001 100.7214 0.0000 0.0000 0.0000
# 4 0.0000 0.0000 0.0000 19.6502 0.0000 0.0000
# 5 0.0000 0.0000 0.0000 0.0000 23.9591 0.0000
# 6 0.0000 0.0000 0.0000 0.0000 0.0000 9.6632
#
#
#
# Elastic Compliance Matrix: (Units=1/GPa)
#
#
# Indices 1 2 3 4 5 6 
#
# 1 0.016645 -0.000307 -0.007840 0.000000 0.000000 0.000000
# 2 -0.000307 0.027485 -0.007494 0.000000 0.000000 0.000000
# 3 -0.007840 -0.007494 0.015745 0.000000 0.000000 0.000000
# 4 0.000000 0.000000 0.000000 0.050890 0.000000 0.000000
# 5 0.000000 0.000000 0.000000 0.000000 0.041738 0.000000
# 6 0.000000 0.000000 0.000000 0.000000 0.000000 0.103485
#
#
# Mechanical properties :
#
#
# Convention : Reuss Voigt Hill
#
# Bulk Modulus (GPa) = 34.97615 45.30600 40.14108
# Shear Modulus (GPa) = 16.84625 19.84517 18.34571
#
# Velocity S-wave (km/s) = 3.26859 3.54761 3.41095
# Velocity P-wave (km/s) = 6.03542 6.74634 6.40076
#
# Compressibility (1/GPa) = 0.02859091
#
# Stress axis : x y z
#
# Youngs Moduli (GPa) = 60.07931 36.38349 63.51243
#
# Poissons Ratio (x) = 0.01118 0.49795
# Poissons Ratio (y) = 0.01847 0.47598
# Poissons Ratio (z) = 0.47103 0.27267
#
# Static dielectric constant tensor:
#      x y z
#    x 1.519760 0.000000 0.000000 
#    y 0.000000 1.522420 0.000000 
#    z 0.000000 0.000000 1.552140 
# 
# From -- ./inp_files/38528.got.cif
#   From: 2010.05.17/outbox.ucp.g08.bks.cvg/sg53_20_cif.got.tgz:38528.got - 2010.06.11 16:32:34.
