data_PCOD9420255
_publ_section_title
;
Structure prediction by ZEFSAII (Michael W. Deem and Ramdas Pophale) SiO2 
 PCOD9420255
Probable space group: P M N A
;
_chemical_formula_sum "Si O2"
_cell_formula_units_Z 48
_cell_length_a 15.000000
_cell_length_b 9.000000
_cell_length_c 18.000000
_cell_angle_alpha 90.000000
_cell_angle_beta 90.000000
_cell_angle_gamma 90.000000
_cell_volume 2430.000000
_symmetry_space_group_name_H-M "P M N A"
_symmetry_group_IT_number 53
_symmetry_cell_setting 'orthorhombic'
loop_
_space_group_symop_operation_xyz
x,y,z
1/2-x,-y,1/2+z
x,-y,-z
1/2-x,y,1/2-z
-x,-y,-z
1/2+x,y,1/2-z
-x,y,z
1/2+x,-y,1/2+z
loop_
_atom_site_type_symbol
_atom_site_label
_atom_site_fract_x
_atom_site_fract_y
_atom_site_fract_z
Si Si1 0.185721 0.453882 0.817877
Si Si2 0.000000 0.822650 0.672416
Si Si3 0.000000 0.984743 0.176159
Si Si4 0.307434 0.348509 0.456332
Si Si5 0.000000 0.544120 0.779528
Si Si6 0.500000 0.257755 0.430310
Si Si7 0.670856 0.908862 0.928683
Si Si8 0.296348 0.874138 0.331420
O O1 0.250000 0.479642 0.750000
O O2 0.190242 0.594441 0.871361
O O3 0.087444 0.444884 0.783421
O O4 0.210519 0.298083 0.856288
O O5 0.000000 0.658558 0.710513
O O6 0.088979 0.854133 0.623367
O O7 0.000000 0.929366 0.744738
O O8 0.000000 0.095764 0.105589
O O9 0.902392 0.908043 0.172084
O O10 0.290146 0.500000 0.500000
O O11 0.407745 0.289331 0.473511
O O12 0.231042 0.226204 0.459855
O O13 0.000000 0.635755 0.857396
O O14 0.740400 0.013038 0.882719
O O15 0.636231 0.000000 0.000000
O O16 0.250000 0.882627 0.250000
#
# Coordination Sequence:
#
# PCOD9420255 Si02
#       8
#     8   4   4   8   4   4   8   8
#     4  10  21  37  60  91 121 158 205 256 313 373
#     4  11  23  40  67  92 127 170 220 268 317 384
#     4  11  19  38  64  99 122 158 206 264 321 378
#     4  11  22  40  62  86 127 166 208 261 315 390
#     4   9  19  36  60  90 120 158 202 260 307 372
#     4   9  19  34  60  91 119 152 201 250 320 380
#     4  12  25  42  63  93 128 172 219 266 323 384
#     4  11  22  38  64  96 130 164 207 267 321 381
#
# _framework density 19.753086
#
# number of rings (size 3 to 8) (size 9 to 14) (size 15 to 20)
#    0.000    1.333    3.333    3.000    0.000    0.667 
#    0.000    3.750    0.000    0.000    0.000    0.000 
#    0.000    0.000    0.000    0.000    0.000    0.000 
#
# Total GULP energy -267966.763315 kJ/mol
# GULP energy per Si atom -5582.640902 kJ/mol
# Density = 1.970813 g / cm^3
# Si number density = 19.753086 Si / 1000 Ang^3
#
#
#
# Elastic Constant Matrix: (Units=GPa)
#
#
# Indices 1 2 3 4 5 6 
#
# 1 110.4202 14.8190 11.2277 0.0000 0.0000 0.0000
# 2 14.8190 63.0362 11.6099 0.0000 0.0000 0.0000
# 3 11.2277 11.6099 45.3001 0.0000 0.0000 0.0000
# 4 0.0000 0.0000 0.0000 40.8001 0.0000 0.0000
# 5 0.0000 0.0000 0.0000 0.0000 21.8199 0.0000
# 6 0.0000 0.0000 0.0000 0.0000 0.0000 38.4471
#
#
#
# Elastic Compliance Matrix: (Units=1/GPa)
#
#
# Indices 1 2 3 4 5 6 
#
# 1 0.009500 -0.001889 -0.001871 0.000000 0.000000 0.000000
# 2 -0.001889 0.017025 -0.003895 0.000000 0.000000 0.000000
# 3 -0.001871 -0.003895 0.023537 0.000000 0.000000 0.000000
# 4 0.000000 0.000000 0.000000 0.024510 0.000000 0.000000
# 5 0.000000 0.000000 0.000000 0.000000 0.045830 0.000000
# 6 0.000000 0.000000 0.000000 0.000000 0.000000 0.026010
#
#
# Mechanical properties :
#
#
# Convention : Reuss Voigt Hill
#
# Bulk Modulus (GPa) = 28.77440 32.67441 30.72440
# Shear Modulus (GPa) = 28.85086 32.28674 30.56880
#
# Velocity S-wave (km/s) = 3.82589 4.04730 3.93815
# Velocity P-wave (km/s) = 5.84083 6.19824 6.02219
#
# Compressibility (1/GPa) = 0.03475312
#
# Stress axis : x y z
#
# Youngs Moduli (GPa) = 105.26315 58.73589 42.48640
#
# Poissons Ratio (x) = 0.11094 0.07947
# Poissons Ratio (y) = 0.19882 0.16550
# Poissons Ratio (z) = 0.19690 0.22879
#
# Static dielectric constant tensor:
#      x y z
#    x 1.347720 0.000000 0.000000 
#    y 0.000000 1.693820 0.000000 
#    z 0.000000 0.000000 1.703810 
# 
# From -- ./inp_files/28337.got.cif
#   From: 2010.05.17/outbox.ucp.g08.bks.cvg/sg53_15_cif.got.tgz:28337.got - 2010.06.11 16:32:34.
