data_PCOD9420875
_publ_section_title
;
Structure prediction by ZEFSAII (Michael W. Deem and Ramdas Pophale) SiO2 
 PCOD9420875
Probable space group: P C C A
;
_chemical_formula_sum "Si O2"
_cell_formula_units_Z 60
_cell_length_a 5.563392
_cell_length_b 24.232555
_cell_length_c 18.731905
_cell_angle_alpha 90.000000
_cell_angle_beta 90.000000
_cell_angle_gamma 90.000000
_cell_volume 2525.345568
_symmetry_space_group_name_H-M "P C C A"
_symmetry_group_IT_number 54
_symmetry_cell_setting 'orthorhombic'
loop_
_space_group_symop_operation_xyz
x,y,z
1/2-x,-y,z
1/2+x,-y,1/2-z
-x,y,1/2-z
-x,-y,-z
1/2+x,y,-z
1/2-x,y,1/2+z
x,-y,1/2+z
loop_
_atom_site_type_symbol
_atom_site_label
_atom_site_fract_x
_atom_site_fract_y
_atom_site_fract_z
Si Si1 0.381198 0.409497 0.501300
Si Si2 0.346182 0.781645 0.647807
Si Si3 0.351753 0.658729 0.147716
Si Si4 0.353651 0.619866 0.845132
Si Si5 0.653162 0.179552 0.653811
Si Si6 0.622590 0.150126 0.498370
Si Si7 0.250000 0.500000 0.293231
Si Si8 0.250372 0.939681 0.294810
O O1 0.630936 0.441214 0.498092
O O2 0.382889 0.372346 0.572130
O O3 0.381093 0.371160 0.430636
O O4 0.247155 0.720205 0.640294
O O5 0.616915 0.784997 0.679408
O O6 0.379121 0.812739 0.572287
O O7 0.117410 0.812516 0.683734
O O8 0.621896 0.655144 0.179391
O O9 0.124253 0.628088 0.184556
O O10 0.282787 0.556081 0.836795
O O11 0.623651 0.188962 0.568465
O O12 0.731624 0.115921 0.660250
O O13 0.372913 0.117815 0.502410
O O14 0.500000 0.506559 0.250000
O O15 0.500000 0.939761 0.250000
O O16 0.000000 0.935667 0.250000
O O17 0.250000 0.000000 0.331339
#
# Coordination Sequence:
#
# PCOD9420875 Si02
#       8
#     8   8   8   8   8   8   4   8
#     4   8  16  29  49  81 116 140 162 204 261 323
#     4  10  19  31  54  85 119 154 179 202 252 333
#     4  10  19  34  57  89 121 146 171 208 265 335
#     4  10  21  37  58  84 109 138 184 230 270 320
#     4  10  19  32  52  80 112 146 184 227 269 321
#     4   8  16  27  44  74 110 145 179 208 241 311
#     4  12  26  46  68  80  96 140 196 242 280 314
#     4  10  21  38  60  80 100 136 190 248 294 325
#
# _framework density 23.759124
#
# number of rings (size 3 to 8) (size 9 to 14) (size 15 to 20)
#    0.000    2.400    0.000    2.400    0.000    9.600 
#    0.000    6.000    0.000   23.200    0.000    0.000 
#    0.000    0.000    0.000    0.000    0.000    0.000 
#
# Total GULP energy -334383.319608 kJ/mol
# GULP energy per Si atom -5573.055327 kJ/mol
# Density = 2.370505 g / cm^3
# Si number density = 23.759124 Si / 1000 Ang^3
#
#
#
# Elastic Constant Matrix: (Units=GPa)
#
#
# Indices 1 2 3 4 5 6 
#
# 1 284.1279 27.7337 13.8794 0.0000 0.0000 0.0000
# 2 27.7337 112.5939 -1.6361 0.0000 0.0000 0.0000
# 3 13.8794 -1.6361 45.6362 0.0000 0.0000 0.0000
# 4 0.0000 0.0000 0.0000 2.6863 0.0000 0.0000
# 5 0.0000 0.0000 0.0000 0.0000 31.1221 0.0000
# 6 0.0000 0.0000 0.0000 0.0000 0.0000 40.5858
#
#
#
# Elastic Compliance Matrix: (Units=1/GPa)
#
#
# Indices 1 2 3 4 5 6 
#
# 1 0.003665 -0.000920 -0.001148 0.000000 0.000000 0.000000
# 2 -0.000920 0.009117 0.000606 0.000000 0.000000 0.000000
# 3 -0.001148 0.000606 0.022283 0.000000 0.000000 0.000000
# 4 0.000000 0.000000 0.000000 0.372265 0.000000 0.000000
# 5 0.000000 0.000000 0.000000 0.000000 0.032132 0.000000
# 6 0.000000 0.000000 0.000000 0.000000 0.000000 0.024639
#
#
# Mechanical properties :
#
#
# Convention : Reuss Voigt Hill
#
# Bulk Modulus (GPa) = 31.11012 58.03469 44.57240
# Shear Modulus (GPa) = 10.46600 41.70423 26.08512
#
# Velocity S-wave (km/s) = 2.10110 4.19417 3.31705
# Velocity P-wave (km/s) = 4.35988 6.92344 5.78544
#
# Compressibility (1/GPa) = 0.03214388
#
# Stress axis : x y z
#
# Youngs Moduli (GPa) = 272.82449 109.68790 44.87680
#
# Poissons Ratio (x) = 0.10086 0.05151
# Poissons Ratio (y) = 0.25087 -0.02722
# Poissons Ratio (z) = 0.31313 -0.06653
#
# Static dielectric constant tensor:
#      x y z
#    x 2.061290 0.000000 0.000000 
#    y 0.000000 1.820350 0.000000 
#    z 0.000000 0.000000 1.971150 
# 
# From -- ./inp_files/23024.got.cif
#   From: 2010.05.17/outbox.cif.g08.bks.cpg/sg54_12_cif.got.tgz:23024.got - 2010.06.03 13:09:01.
