data_PCOD9420299
_publ_section_title
;
Structure prediction by ZEFSAII (Michael W. Deem and Ramdas Pophale) SiO2 
 PCOD9420299
Probable space group: P C C A
;
_chemical_formula_sum "Si O2"
_cell_formula_units_Z 48
_cell_length_a 13.037850
_cell_length_b 30.108996
_cell_length_c 5.118693
_cell_angle_alpha 90.000000
_cell_angle_beta 90.000000
_cell_angle_gamma 90.000000
_cell_volume 2009.376585
_symmetry_space_group_name_H-M "P C C A"
_symmetry_group_IT_number 54
_symmetry_cell_setting 'orthorhombic'
loop_
_space_group_symop_operation_xyz
x,y,z
1/2-x,-y,z
1/2+x,-y,1/2-z
-x,y,1/2-z
-x,-y,-z
1/2+x,y,-z
1/2-x,y,1/2+z
x,-y,1/2+z
loop_
_atom_site_type_symbol
_atom_site_label
_atom_site_fract_x
_atom_site_fract_y
_atom_site_fract_z
Si Si1 0.319447 0.608662 0.844345
Si Si2 0.368799 0.482340 0.586505
Si Si3 0.821147 0.794842 0.250815
Si Si4 0.178516 0.295787 0.915021
Si Si5 0.611535 0.017968 0.415552
Si Si6 0.319417 0.891173 0.804629
O O1 0.222944 0.607833 0.049195
O O2 0.375810 0.564552 0.939789
O O3 0.373348 0.656221 0.883351
O O4 0.250000 0.500000 0.630600
O O5 0.410000 0.517735 0.378969
O O6 0.726124 0.794073 0.041707
O O7 0.878276 0.749731 0.164279
O O8 0.872221 0.842989 0.222335
O O9 0.272740 0.295359 0.704121
O O10 0.617048 0.065843 0.282427
O O11 0.500000 0.000000 0.500000
O O12 0.657626 0.983050 0.207347
O O13 0.274308 0.891936 0.095906
#
# Coordination Sequence:
#
# PCOD9420299 Si02
#       6
#     8   8   8   8   8   8
#     4  10  14  18  24  33  44  65  92 119 161 210
#     4  10  14  18  22  28  42  60  85 123 158 194
#     4   8  14  25  36  52  72  90 114 151 191 225
#     4   8  14  20  29  40  56  76  99 130 171 222
#     4  10  21  35  48  65  92 119 140 167 206 248
#     4  10  19  30  48  68  86 110 142 175 205 243
#
# _framework density 23.888007000000002
#
# number of rings (size 3 to 8) (size 9 to 14) (size 15 to 20)
#    0.000    2.667    3.333    1.000    0.000    2.000 
#    0.000    0.000    0.000    0.000    0.000    0.000 
#    0.000    0.000    0.000    0.000    0.000    0.000 
#
# Total GULP energy -267207.020071 kJ/mol
# GULP energy per Si atom -5566.812918 kJ/mol
# Density = 2.383364 g / cm^3
# Si number density = 23.888007 Si / 1000 Ang^3
#
#
#
# Elastic Constant Matrix: (Units=GPa)
#
#
# Indices 1 2 3 4 5 6 
#
# 1 40.2704 4.7668 -5.6707 0.0000 0.0000 0.0000
# 2 4.7668 228.5373 7.3503 0.0000 0.0000 0.0000
# 3 -5.6707 7.3503 144.3021 0.0000 0.0000 0.0000
# 4 0.0000 0.0000 0.0000 39.7865 0.0000 0.0000
# 5 0.0000 0.0000 0.0000 0.0000 11.1577 0.0000
# 6 0.0000 0.0000 0.0000 0.0000 0.0000 1.0763
#
#
#
# Elastic Compliance Matrix: (Units=1/GPa)
#
#
# Indices 1 2 3 4 5 6 
#
# 1 0.025040 -0.000555 0.001012 0.000000 0.000000 0.000000
# 2 -0.000555 0.004395 -0.000246 0.000000 0.000000 0.000000
# 3 0.001012 -0.000246 0.006982 0.000000 0.000000 0.000000
# 4 0.000000 0.000000 0.000000 0.025134 0.000000 0.000000
# 5 0.000000 0.000000 0.000000 0.000000 0.089624 0.000000
# 6 0.000000 0.000000 0.000000 0.000000 0.000000 0.929074
#
#
# Mechanical properties :
#
#
# Convention : Reuss Voigt Hill
#
# Bulk Modulus (GPa) = 27.14352 47.33362 37.23857
# Shear Modulus (GPa) = 4.57831 37.51501 21.04666
#
# Velocity S-wave (km/s) = 1.38590 3.96719 2.97148
# Velocity P-wave (km/s) = 3.73476 6.39083 5.23408
#
# Compressibility (1/GPa) = 0.03684121
#
# Stress axis : x y z
#
# Youngs Moduli (GPa) = 39.93552 227.52469 143.22133
#
# Poissons Ratio (x) = 0.12624 -0.14498
# Poissons Ratio (y) = 0.02216 0.03519
# Poissons Ratio (z) = -0.04043 0.05590
#
# Static dielectric constant tensor:
#      x y z
#    x 1.875760 0.000000 0.000000 
#    y 0.000000 2.038870 0.000000 
#    z 0.000000 0.000000 2.019290 
# 
# From -- ./inp_files/677.got.cif
#   From: 2010.05.17/outbox.cif.g08.bks.cpg/sg54_1_cif.got.tgz:677.got - 2010.06.03 13:09:01.
