data_PCOD9420200
_publ_section_title
;
Structure prediction by ZEFSAII (Michael W. Deem and Ramdas Pophale) SiO2 
 PCOD9420200
Probable space group: P M N A
;
_chemical_formula_sum "Si O2"
_cell_formula_units_Z 48
_cell_length_a 9.000000
_cell_length_b 30.000000
_cell_length_c 9.000000
_cell_angle_alpha 90.000000
_cell_angle_beta 90.000000
_cell_angle_gamma 90.000000
_cell_volume 2430.000000
_symmetry_space_group_name_H-M "P M N A"
_symmetry_group_IT_number 53
_symmetry_cell_setting 'orthorhombic'
loop_
_space_group_symop_operation_xyz
x,y,z
1/2-x,-y,1/2+z
x,-y,-z
1/2-x,y,1/2-z
-x,-y,-z
1/2+x,y,1/2-z
-x,y,z
1/2+x,-y,1/2+z
loop_
_atom_site_type_symbol
_atom_site_label
_atom_site_fract_x
_atom_site_fract_y
_atom_site_fract_z
Si Si1 0.165714 0.536812 0.601568
Si Si2 0.323318 0.862079 0.411781
Si Si3 0.832480 0.622094 0.397649
Si Si4 0.176656 0.215724 0.411092
Si Si5 0.176580 0.304620 0.087585
Si Si6 0.324175 0.959281 0.408556
O O1 0.242697 0.500000 0.500000
O O2 0.250000 0.546164 0.750000
O O3 0.154582 0.580850 0.506667
O O4 0.000000 0.519936 0.638948
O O5 0.250000 0.863591 0.250000
O O6 0.500000 0.852116 0.404493
O O7 0.230485 0.826425 0.499985
O O8 0.304972 0.911079 0.481617
O O9 0.750000 0.607365 0.250000
O O10 0.727942 0.657183 0.478473
O O11 0.000000 0.639449 0.369364
O O12 0.250000 0.212140 0.250000
O O13 0.251819 0.259724 0.476908
O O14 0.000000 0.219967 0.402329
O O15 0.250000 0.311937 0.250000
O O16 0.000000 0.301238 0.103666
O O17 0.250000 0.958502 0.250000
O O18 0.500000 0.965600 0.387832
O O19 0.261400 0.000000 0.500000
#
# Coordination Sequence:
#
# PCOD9420200 Si02
#       6
#     8   8   8   8   8   8
#     4  10  22  39  60  87 118 153 193 236 283 336
#     4  10  20  36  56  80 111 146 185 228 277 331
#     4  11  23  39  59  86 118 152 193 237 284 336
#     4  11  22  38  59  84 113 146 186 230 279 333
#     4  11  22  39  61  85 114 148 187 231 281 334
#     4   9  19  35  54  78 108 142 181 225 272 325
#
# _framework density 19.753086
#
# number of rings (size 3 to 8) (size 9 to 14) (size 15 to 20)
#    0.000    1.667    0.000    6.000    0.000    5.333 
#    0.000    5.000    0.000    0.000    0.000    0.000 
#    0.000    0.000    0.000    0.000    0.000    0.000 
#
# Total GULP energy -267611.380713 kJ/mol
# GULP energy per Si atom -5575.237098 kJ/mol
# Density = 1.970813 g / cm^3
# Si number density = 19.753086 Si / 1000 Ang^3
#
#
#
# Elastic Constant Matrix: (Units=GPa)
#
#
# Indices 1 2 3 4 5 6 
#
# 1 141.7628 51.7449 41.4859 0.0000 0.0000 0.0000
# 2 51.7449 86.8836 51.8243 0.0000 0.0000 0.0000
# 3 41.4859 51.8243 63.0532 0.0000 0.0000 0.0000
# 4 0.0000 0.0000 0.0000 113.5076 0.0000 0.0000
# 5 0.0000 0.0000 0.0000 0.0000 -62.1023 0.0000
# 6 0.0000 0.0000 0.0000 0.0000 0.0000 -171.6343
#
#
#
# Elastic Compliance Matrix: (Units=1/GPa)
#
#
# Indices 1 2 3 4 5 6 
#
# 1 0.009308 -0.003709 -0.003076 0.000000 0.000000 0.000000
# 2 -0.003709 0.024057 -0.017333 0.000000 0.000000 0.000000
# 3 -0.003076 -0.017333 0.032129 0.000000 0.000000 0.000000
# 4 0.000000 0.000000 0.000000 0.008810 0.000000 0.000000
# 5 0.000000 0.000000 0.000000 0.000000 -0.016102 0.000000
# 6 0.000000 0.000000 0.000000 0.000000 0.000000 -0.005826
#
#
# Mechanical properties :
#
#
# Convention : Reuss Voigt Hill
#
# Bulk Modulus (GPa) = 57.93827 64.64553 61.29190
# Shear Modulus (GPa) = 47.00885 -14.26951 16.36967
#
# Velocity S-wave (km/s) = 4.88364 -2.69065 2.88186
# Velocity P-wave (km/s) = 7.82271 4.81093 6.49384
#
# Compressibility (1/GPa) = 0.01725975
#
# Stress axis : x y z
#
# Youngs Moduli (GPa) = 107.43555 41.56792 31.12432
#
# Poissons Ratio (x) = 0.15417 0.09573
# Poissons Ratio (y) = 0.39846 0.53946
# Poissons Ratio (z) = 0.33045 0.72048
#
# Static dielectric constant tensor:
#      x y z
#    x 1.716410 0.000000 0.000000 
#    y 0.000000 1.788720 0.000000 
#    z 0.000000 0.000000 1.641060 
# 
# From -- ./inp_files/6724.got.cif
#   From: 2010.05.17/outbox.ucp.g08.bks.cvg/sg53_4_cif.got.tgz:6724.got - 2010.06.11 16:32:34.
