data_PCOD9420258
_publ_section_title
;
Structure prediction by ZEFSAII (Michael W. Deem and Ramdas Pophale) SiO2 
 PCOD9420258
Probable space group: P M N A
;
_chemical_formula_sum "Si O2"
_cell_formula_units_Z 48
_cell_length_a 9.000000
_cell_length_b 15.000000
_cell_length_c 18.000000
_cell_angle_alpha 90.000000
_cell_angle_beta 90.000000
_cell_angle_gamma 90.000000
_cell_volume 2430.000000
_symmetry_space_group_name_H-M "P M N A"
_symmetry_group_IT_number 53
_symmetry_cell_setting 'orthorhombic'
loop_
_space_group_symop_operation_xyz
x,y,z
1/2-x,-y,1/2+z
x,-y,-z
1/2-x,y,1/2-z
-x,-y,-z
1/2+x,y,1/2-z
-x,y,z
1/2+x,-y,1/2+z
loop_
_atom_site_type_symbol
_atom_site_label
_atom_site_fract_x
_atom_site_fract_y
_atom_site_fract_z
Si Si1 0.675931 0.474501 0.673618
Si Si2 0.324255 0.976016 0.322503
Si Si3 0.175751 0.347974 0.554701
Si Si4 0.174027 0.647652 0.623153
Si Si5 0.822496 0.147741 0.384575
Si Si6 0.677014 0.160380 0.544619
O O1 0.750000 0.441786 0.750000
O O2 0.500000 0.463383 0.675700
O O3 0.746498 0.422360 0.604235
O O4 0.721462 0.577503 0.663065
O O5 0.250000 0.933919 0.250000
O O6 0.500000 0.985139 0.312145
O O7 0.297546 0.915683 0.394692
O O8 0.250496 0.071881 0.335355
O O9 0.191606 0.363348 0.466134
O O10 0.252388 0.253347 0.570823
O O11 0.000000 0.345068 0.570406
O O12 0.208149 0.750741 0.640358
O O13 0.000000 0.629847 0.640695
O O14 0.754462 0.137699 0.466854
O O15 0.000000 0.137506 0.387632
O O16 0.500000 0.170133 0.533454
#
# Coordination Sequence:
#
# PCOD9420258 Si02
#       6
#     8   8   8   8   8   8
#     4  12  25  39  58  84 116 154 192 234 285 341
#     4  11  24  39  57  83 117 155 192 236 287 341
#     4  10  21  39  63  88 116 150 189 236 287 340
#     4   9  20  39  61  86 115 148 187 233 284 337
#     4  10  21  38  62  88 115 150 191 237 288 341
#     4  10  21  38  60  87 117 150 193 240 285 337
#
# _framework density 19.753086
#
# number of rings (size 3 to 8) (size 9 to 14) (size 15 to 20)
#    0.000    1.667    0.000    5.500    0.000   12.000 
#    0.000    1.667    0.000    0.000    0.000    0.000 
#    0.000    0.000    0.000    0.000    0.000    0.000 
#
# Total GULP energy -268383.007275 kJ/mol
# GULP energy per Si atom -5591.312652 kJ/mol
# Density = 1.970813 g / cm^3
# Si number density = 19.753086 Si / 1000 Ang^3
#
#
#
# Elastic Constant Matrix: (Units=GPa)
#
#
# Indices 1 2 3 4 5 6 
#
# 1 65.9820 44.6066 23.6147 0.0000 0.0000 0.0000
# 2 44.6066 64.1100 27.3368 0.0000 0.0000 0.0000
# 3 23.6147 27.3368 29.0954 0.0000 0.0000 0.0000
# 4 0.0000 0.0000 0.0000 17.7652 0.0000 0.0000
# 5 0.0000 0.0000 0.0000 0.0000 41.5836 0.0000
# 6 0.0000 0.0000 0.0000 0.0000 0.0000 49.0328
#
#
#
# Elastic Compliance Matrix: (Units=1/GPa)
#
#
# Indices 1 2 3 4 5 6 
#
# 1 0.029643 -0.017295 -0.007809 0.000000 0.000000 0.000000
# 2 -0.017295 0.036115 -0.019895 0.000000 0.000000 0.000000
# 3 -0.007809 -0.019895 0.059401 0.000000 0.000000 0.000000
# 4 0.000000 0.000000 0.000000 0.056290 0.000000 0.000000
# 5 0.000000 0.000000 0.000000 0.000000 0.024048 0.000000
# 6 0.000000 0.000000 0.000000 0.000000 0.000000 0.020395
#
#
# Mechanical properties :
#
#
# Convention : Reuss Voigt Hill
#
# Bulk Modulus (GPa) = 28.44172 38.92265 33.68218
# Shear Modulus (GPa) = 15.26209 25.91828 20.59018
#
# Velocity S-wave (km/s) = 2.78266 3.62624 3.23209
# Velocity P-wave (km/s) = 4.97535 6.10575 5.56931
#
# Compressibility (1/GPa) = 0.03515962
#
# Stress axis : x y z
#
# Youngs Moduli (GPa) = 33.73517 27.68931 16.83485
#
# Poissons Ratio (x) = 0.47888 0.13147
# Poissons Ratio (y) = 0.58345 0.33493
# Poissons Ratio (z) = 0.26345 0.55088
#
# Static dielectric constant tensor:
#      x y z
#    x 1.648320 0.000000 0.000000 
#    y 0.000000 1.698110 0.000000 
#    z 0.000000 0.000000 1.786070 
# 
# From -- ./inp_files/26187.got.cif
#   From: 2010.05.17/outbox.ucp.g08.bks.cvg/sg53_14_cif.got.tgz:26187.got - 2010.06.11 16:32:34.
