data_PCOD9420993
_publ_section_title
;
Structure prediction by ZEFSAII (Michael W. Deem and Ramdas Pophale) SiO2 
 PCOD9420993
Probable space group: P C C A
;
_chemical_formula_sum "Si O2"
_cell_formula_units_Z 52
_cell_length_a 8.164556
_cell_length_b 14.799046
_cell_length_c 19.724307
_cell_angle_alpha 90.000000
_cell_angle_beta 90.000000
_cell_angle_gamma 90.000000
_cell_volume 2383.241462
_symmetry_space_group_name_H-M "P C C A"
_symmetry_group_IT_number 54
_symmetry_cell_setting 'orthorhombic'
loop_
_space_group_symop_operation_xyz
x,y,z
1/2-x,-y,z
1/2+x,-y,1/2-z
-x,y,1/2-z
-x,-y,-z
1/2+x,y,-z
1/2-x,y,1/2+z
x,-y,1/2+z
loop_
_atom_site_type_symbol
_atom_site_label
_atom_site_fract_x
_atom_site_fract_y
_atom_site_fract_z
Si Si1 0.345025 0.783030 0.388304
Si Si2 0.776151 0.596227 0.901157
Si Si3 0.500000 0.879040 0.750000
Si Si4 0.787528 0.788754 0.841940
Si Si5 0.384494 0.073862 0.378132
Si Si6 0.149488 0.408524 0.449982
Si Si7 0.169413 0.900640 0.027265
O O1 0.510603 0.792503 0.343473
O O2 0.190097 0.830766 0.354673
O O3 0.298681 0.681926 0.410199
O O4 0.350989 0.843046 0.458170
O O5 0.750000 0.500000 0.866117
O O6 0.753980 0.682745 0.854738
O O7 0.959396 0.588304 0.930943
O O8 0.667014 0.605319 0.969145
O O9 0.658712 0.824533 0.784578
O O10 0.517519 0.950694 0.687956
O O11 0.748606 0.840640 0.912824
O O12 0.486920 0.085175 0.444955
O O13 0.250000 0.000000 0.387196
O O14 0.250000 0.500000 0.433335
O O15 0.250000 0.000000 0.028201
#
# Coordination Sequence:
#
# PCOD9420993 Si02
#       7
#     8   8   4   8   8   8   8
#     4  11  22  37  62  93 128 161 201 256 317 382
#     4  10  19  33  58  88 126 160 200 244 302 374
#     4  10  26  44  62  80 116 164 218 268 306 364
#     4  10  22  40  60  89 120 166 210 259 312 369
#     4  11  25  41  62  87 118 165 208 261 313 366
#     4  10  20  32  55  92 131 164 191 237 302 378
#     4  11  22  38  61  92 131 162 200 250 322 390
#
# _framework density 21.819023000000001
#
# number of rings (size 3 to 8) (size 9 to 14) (size 15 to 20)
#    0.000    1.538    1.538    4.154    2.154    8.615 
#    0.000    0.000    0.000    4.615    0.000    0.000 
#    0.000    0.000    0.000    0.000    0.000    0.000 
#
# Total GULP energy -289555.413659 kJ/mol
# GULP energy per Si atom -5568.373340 kJ/mol
# Density = 2.176936 g / cm^3
# Si number density = 21.819023 Si / 1000 Ang^3
#
#
#
# Elastic Constant Matrix: (Units=GPa)
#
#
# Indices 1 2 3 4 5 6 
#
# 1 55.0496 21.8486 4.3878 0.0000 0.0000 0.0000
# 2 21.8486 109.3856 7.6114 0.0000 0.0000 0.0000
# 3 4.3878 7.6114 81.9636 0.0000 0.0000 0.0000
# 4 0.0000 0.0000 0.0000 -4.8394 0.0000 0.0000
# 5 0.0000 0.0000 0.0000 0.0000 18.9497 0.0000
# 6 0.0000 0.0000 0.0000 0.0000 0.0000 30.6650
#
#
#
# Elastic Compliance Matrix: (Units=1/GPa)
#
#
# Indices 1 2 3 4 5 6 
#
# 1 0.019769 -0.003900 -0.000696 0.000000 0.000000 0.000000
# 2 -0.003900 0.009971 -0.000717 0.000000 0.000000 0.000000
# 3 -0.000696 -0.000717 0.012304 0.000000 0.000000 0.000000
# 4 0.000000 0.000000 0.000000 -0.206636 0.000000 0.000000
# 5 0.000000 0.000000 0.000000 0.000000 0.052771 0.000000
# 6 0.000000 0.000000 0.000000 0.000000 0.000000 0.032610
#
#
# Mechanical properties :
#
#
# Convention : Reuss Voigt Hill
#
# Bulk Modulus (GPa) = 31.82960 34.89938 33.36449
# Shear Modulus (GPa) = -86.04286 23.12512 -31.45887
#
# Velocity S-wave (km/s) = -6.28653 3.25908 -3.80124
# Velocity P-wave (km/s) = 6.17043 5.49471 1.98524
#
# Compressibility (1/GPa) = 0.03141729
#
# Stress axis : x y z
#
# Youngs Moduli (GPa) = 50.58464 100.29202 81.27179
#
# Poissons Ratio (x) = 0.39116 0.05657
# Poissons Ratio (y) = 0.19729 0.05828
# Poissons Ratio (z) = 0.03521 0.07192
#
# Static dielectric constant tensor:
#      x y z
#    x 1.963860 0.000000 0.000000 
#    y 0.000000 1.845370 0.000000 
#    z 0.000000 0.000000 1.815420 
# 
# From -- ./inp_files/20476.got.cif
#   From: 2010.05.17/outbox.cif.g08.bks.cpg/sg54_11_cif.got.tgz:20476.got - 2010.06.03 13:09:01.
