data_PCOD9420712
_publ_section_title
;
Structure prediction by ZEFSAII (Michael W. Deem and Ramdas Pophale) SiO2 
 PCOD9420712
Probable space group: P C C A
;
_chemical_formula_sum "Si O2"
_cell_formula_units_Z 48
_cell_length_a 15.348522
_cell_length_b 7.507557
_cell_length_c 17.213984
_cell_angle_alpha 90.000000
_cell_angle_beta 90.000000
_cell_angle_gamma 90.000000
_cell_volume 1983.565720
_symmetry_space_group_name_H-M "P C C A"
_symmetry_group_IT_number 54
_symmetry_cell_setting 'orthorhombic'
loop_
_space_group_symop_operation_xyz
x,y,z
1/2-x,-y,z
1/2+x,-y,1/2-z
-x,y,1/2-z
-x,-y,-z
1/2+x,y,-z
1/2-x,y,1/2+z
x,-y,1/2+z
loop_
_atom_site_type_symbol
_atom_site_label
_atom_site_fract_x
_atom_site_fract_y
_atom_site_fract_z
Si Si1 0.918964 0.355666 0.304342
Si Si2 0.138896 0.233842 0.866849
Si Si3 0.750000 0.000000 0.041973
Si Si4 0.250000 0.500000 0.278359
Si Si5 0.118775 0.861926 0.050223
Si Si6 0.144177 0.955361 0.219839
Si Si7 0.449938 0.729720 0.022614
O O1 0.832092 0.450854 0.274191
O O2 0.901154 0.146278 0.288118
O O3 0.935202 0.374126 0.396961
O O4 0.000000 0.411820 0.250000
O O5 0.220634 0.343112 0.835447
O O6 0.093378 0.326708 0.940044
O O7 0.171924 0.050348 0.903612
O O8 0.098795 0.159311 0.787961
O O9 0.785355 0.153771 0.986646
O O10 0.050396 0.748242 0.002098
O O11 0.129394 0.842281 0.141555
O O12 0.086199 0.069097 0.040602
O O13 0.250000 0.000000 0.228161
#
# Coordination Sequence:
#
# PCOD9420712 Si02
#       7
#     8   8   4   4   8   8   8
#     4  11  26  46  72  97 140 186 232 290 352 420
#     4  11  23  38  65  97 130 175 227 284 336 410
#     4  10  18  34  66  96 128 172 226 282 334 404
#     4  12  26  48  66  94 140 190 234 272 350 426
#     4   9  19  34  63  99 137 161 219 289 346 406
#     4  11  20  39  66 104 129 177 232 286 347 402
#     4   9  22  39  61 101 132 172 224 286 352 401
#
# _framework density 24.198846
#
# number of rings (size 3 to 8) (size 9 to 14) (size 15 to 20)
#    0.000    1.667    3.333    0.000   11.667    0.667 
#    3.000    0.833    0.000    0.000    0.000    0.000 
#    0.000    0.000    0.000    0.000    0.000    0.000 
#
# Total GULP energy -267784.780972 kJ/mol
# GULP energy per Si atom -5578.849604 kJ/mol
# Density = 2.414377 g / cm^3
# Si number density = 24.198846 Si / 1000 Ang^3
#
#
#
# Elastic Constant Matrix: (Units=GPa)
#
#
# Indices 1 2 3 4 5 6 
#
# 1 133.5790 5.0826 81.1244 0.0000 0.0000 0.0000
# 2 5.0826 41.0674 27.1267 0.0000 0.0000 0.0000
# 3 81.1244 27.1267 244.0834 0.0000 0.0000 0.0000
# 4 0.0000 0.0000 0.0000 -14.9872 0.0000 0.0000
# 5 0.0000 0.0000 0.0000 0.0000 35.5390 0.0000
# 6 0.0000 0.0000 0.0000 0.0000 0.0000 23.7650
#
#
#
# Elastic Compliance Matrix: (Units=1/GPa)
#
#
# Indices 1 2 3 4 5 6 
#
# 1 0.009415 0.000973 -0.003237 0.000000 0.000000 0.000000
# 2 0.000973 0.026380 -0.003255 0.000000 0.000000 0.000000
# 3 -0.003237 -0.003255 0.005535 0.000000 0.000000 0.000000
# 4 0.000000 0.000000 0.000000 -0.066724 0.000000 0.000000
# 5 0.000000 0.000000 0.000000 0.000000 0.028138 0.000000
# 6 0.000000 0.000000 0.000000 0.000000 0.000000 0.042079
#
#
# Mechanical properties :
#
#
# Convention : Reuss Voigt Hill
#
# Bulk Modulus (GPa) = 33.01302 71.71080 52.36191
# Shear Modulus (GPa) = 75.80430 29.22311 52.51371
#
# Velocity S-wave (km/s) = 5.60300 3.47886 4.66348
# Velocity P-wave (km/s) = 7.45185 6.77015 7.11917
#
# Compressibility (1/GPa) = 0.03029108
#
# Stress axis : x y z
#
# Youngs Moduli (GPa) = 106.20961 37.90751 180.67637
#
# Poissons Ratio (x) = -0.03689 0.58494
# Poissons Ratio (y) = -0.10337 0.58815
# Poissons Ratio (z) = 0.34385 0.12340
#
# Static dielectric constant tensor:
#      x y z
#    x 2.040450 0.000000 0.000000 
#    y 0.000000 1.963590 0.000000 
#    z 0.000000 0.000000 1.976250 
# 
# From -- ./inp_files/14178.got.cif
#   From: 2010.05.17/outbox.cif.g08.bks.cpg/sg54_8_cif.got.tgz:14178.got - 2010.06.03 13:09:01.
