data_PCOD9420067
_publ_section_title
;
Structure prediction by ZEFSAII (Michael W. Deem and Ramdas Pophale) SiO2 
 PCOD9420067
Probable space group: P M N A
;
_chemical_formula_sum "Si O2"
_cell_formula_units_Z 64
_cell_length_a 7.489985
_cell_length_b 10.580635
_cell_length_c 40.529364
_cell_angle_alpha 90.000000
_cell_angle_beta 90.000000
_cell_angle_gamma 90.000000
_cell_volume 3211.903358
_symmetry_space_group_name_H-M "P M N A"
_symmetry_group_IT_number 53
_symmetry_cell_setting 'orthorhombic'
loop_
_space_group_symop_operation_xyz
x,y,z
1/2-x,-y,1/2+z
x,-y,-z
1/2-x,y,1/2-z
-x,-y,-z
1/2+x,y,1/2-z
-x,y,z
1/2+x,-y,1/2+z
loop_
_atom_site_type_symbol
_atom_site_label
_atom_site_fract_x
_atom_site_fract_y
_atom_site_fract_z
Si Si1 0.214153 0.773141 0.211686
Si Si2 0.710826 0.989155 0.336504
Si Si3 0.718533 0.372932 0.017890
Si Si4 0.714215 0.488303 0.288353
Si Si5 0.287892 0.724133 0.661941
Si Si6 0.784646 0.983085 0.411298
Si Si7 0.717889 0.876934 0.020775
Si Si8 0.785228 0.726709 0.586934
O O1 0.250000 0.801277 0.250000
O O2 0.285034 0.883709 0.188149
O O3 0.282300 0.630763 0.204903
O O4 0.000000 0.768525 0.207328
O O5 0.500000 0.999005 0.329541
O O6 0.730595 0.946951 0.374454
O O7 0.784779 0.132541 0.333972
O O8 0.500000 0.374012 0.018007
O O9 0.776309 0.355132 0.055830
O O10 0.777807 0.500000 0.000000
O O11 0.775431 0.250351 0.997145
O O12 0.750000 0.459010 0.250000
O O13 0.500000 0.492665 0.292351
O O14 0.784024 0.380205 0.312804
O O15 0.500000 0.732219 0.667655
O O16 0.263613 0.685390 0.623775
O O17 0.724206 0.896181 0.441478
O O18 0.000000 0.984883 0.412031
O O19 0.723460 0.127806 0.417085
O O20 0.500000 0.875598 0.020541
O O21 0.772059 0.000000 0.000000
O O22 0.000000 0.729482 0.585570
#
# Coordination Sequence:
#
# PCOD9420067 Si02
#       8
#     8   8   8   8   8   8   8   8
#     4   9  18  33  51  69  92 122 150 180 222 268
#     4   9  18  32  48  67  94 123 149 181 224 269
#     4   9  16  26  41  63  91 117 145 187 233 268
#     4   9  18  33  51  69  91 120 152 183 219 265
#     4   9  18  32  49  68  91 122 154 182 219 268
#     4   9  16  27  46  69  90 116 153 190 223 264
#     4   9  14  24  43  63  84 116 152 184 222 268
#     4   9  16  28  46  67  91 119 150 187 229 268
#
# _framework density 19.925879999999999
#
# number of rings (size 3 to 8) (size 9 to 14) (size 15 to 20)
#    0.000    3.000    1.250    0.000    0.000    1.500 
#    2.250    0.000    0.000    1.500    0.000    0.000 
#    0.000    0.000    0.000    0.000    0.000    0.000 
#
# Total GULP energy -356908.257598 kJ/mol
# GULP energy per Si atom -5576.691525 kJ/mol
# Density = 1.988053 g / cm^3
# Si number density = 19.925880 Si / 1000 Ang^3
#
#
#
# Elastic Constant Matrix: (Units=GPa)
#
#
# Indices 1 2 3 4 5 6 
#
# 1 53.7336 6.3145 -1.4639 0.0000 0.0000 0.0000
# 2 6.3145 157.3928 134.6023 0.0000 0.0000 0.0000
# 3 -1.4639 134.6023 179.1979 0.0000 0.0000 0.0000
# 4 0.0000 0.0000 0.0000 30.2531 0.0000 0.0000
# 5 0.0000 0.0000 0.0000 0.0000 11.1346 0.0000
# 6 0.0000 0.0000 0.0000 0.0000 0.0000 -8.2819
#
#
#
# Elastic Compliance Matrix: (Units=1/GPa)
#
#
# Indices 1 2 3 4 5 6 
#
# 1 0.018959 -0.002497 0.002031 0.000000 0.000000 0.000000
# 2 -0.002497 0.018095 -0.013612 0.000000 0.000000 0.000000
# 3 0.002031 -0.013612 0.015822 0.000000 0.000000 0.000000
# 4 0.000000 0.000000 0.000000 0.033054 0.000000 0.000000
# 5 0.000000 0.000000 0.000000 0.000000 0.089810 0.000000
# 6 0.000000 0.000000 0.000000 0.000000 0.000000 -0.120746
#
#
# Mechanical properties :
#
#
# Convention : Reuss Voigt Hill
#
# Bulk Modulus (GPa) = 40.45617 74.35891 57.40754
# Shear Modulus (GPa) = 54.71037 23.34594 39.02816
#
# Velocity S-wave (km/s) = 5.24562 3.42663 4.43048
# Velocity P-wave (km/s) = 7.55223 7.28385 7.41925
#
# Compressibility (1/GPa) = 0.02471811
#
# Stress axis : x y z
#
# Youngs Moduli (GPa) = 52.74512 55.26473 63.20504
#
# Poissons Ratio (x) = 0.13801 -0.12835
# Poissons Ratio (y) = 0.13172 0.86035
# Poissons Ratio (z) = -0.10711 0.75227
#
# Static dielectric constant tensor:
#      x y z
#    x 1.771810 0.000000 0.000000 
#    y 0.000000 1.698520 0.000000 
#    z 0.000000 0.000000 1.675790 
# 
# From -- ./inp_files/38723.got.cif
#   From: 2010.05.17/outbox.cif.g08.bks.cpg/sg53_20_cif.got.tgz:38723.got - 2010.06.03 12:45:16.
