data_PCOD9420004
_publ_section_title
;
Structure prediction by ZEFSAII (Michael W. Deem and Ramdas Pophale) SiO2 
 PCOD9420004
Probable space group: P M N A
;
_chemical_formula_sum "Si O2"
_cell_formula_units_Z 32
_cell_length_a 18.871585
_cell_length_b 5.007085
_cell_length_c 15.419926
_cell_angle_alpha 90.000000
_cell_angle_beta 90.000000
_cell_angle_gamma 90.000000
_cell_volume 1457.053945
_symmetry_space_group_name_H-M "P M N A"
_symmetry_group_IT_number 53
_symmetry_cell_setting 'orthorhombic'
loop_
_space_group_symop_operation_xyz
x,y,z
1/2-x,-y,1/2+z
x,-y,-z
1/2-x,y,1/2-z
-x,-y,-z
1/2+x,y,1/2-z
-x,y,z
1/2+x,-y,1/2+z
loop_
_atom_site_type_symbol
_atom_site_label
_atom_site_fract_x
_atom_site_fract_y
_atom_site_fract_z
Si Si1 0.376059 0.753605 0.061909
Si Si2 0.143177 0.391295 0.097257
Si Si3 0.500000 0.310326 0.800968
Si Si4 0.000000 0.193695 0.185084
Si Si5 0.728739 0.115440 0.651895
O O1 0.431390 0.739340 0.140220
O O2 0.297686 0.784341 0.100993
O O3 0.380477 0.500000 0.000000
O O4 0.392882 0.000000 0.000000
O O5 0.171904 0.643716 0.151913
O O6 0.069539 0.272675 0.131428
O O7 0.198033 0.147396 0.106018
O O8 0.137062 0.500000 0.000000
O O9 0.500000 0.613741 0.768564
O O10 0.500000 0.109154 0.719080
O O11 0.750000 0.046373 0.750000
#
# Coordination Sequence:
#
# PCOD9420004 Si02
#       5
#     8   8   4   4   8
#     4  12  24  43  68  98 133 173 217 271 330 394
#     4  12  25  44  68  98 133 174 223 275 331 394
#     4  12  26  45  67  98 133 174 221 270 329 396
#     4  12  25  45  68  96 133 176 221 274 329 390
#     4  12  25  43  68  99 133 174 221 274 332 395
#
# _framework density 21.962125
#
# number of rings (size 3 to 8) (size 9 to 14) (size 15 to 20)
#    0.000    0.000    0.000   12.375    0.000    0.000 
#    0.000    3.750    0.000    0.000    0.000    0.000 
#    0.000    0.000    0.000    0.000    0.000    0.000 
#
# Total GULP energy -179493.649520 kJ/mol
# GULP energy per Si atom -5609.176547 kJ/mol
# Density = 2.191214 g / cm^3
# Si number density = 21.962125 Si / 1000 Ang^3
#
#
#
# Elastic Constant Matrix: (Units=GPa)
#
#
# Indices 1 2 3 4 5 6 
#
# 1 119.6637 21.1271 47.0491 0.0000 0.0000 0.0000
# 2 21.1271 110.7408 20.5132 0.0000 0.0000 0.0000
# 3 47.0491 20.5132 95.8933 0.0000 0.0000 0.0000
# 4 0.0000 0.0000 0.0000 41.0339 0.0000 0.0000
# 5 0.0000 0.0000 0.0000 0.0000 42.4084 0.0000
# 6 0.0000 0.0000 0.0000 0.0000 0.0000 44.3682
#
#
#
# Elastic Compliance Matrix: (Units=1/GPa)
#
#
# Indices 1 2 3 4 5 6 
#
# 1 0.010479 -0.001090 -0.004908 0.000000 0.000000 0.000000
# 2 -0.001090 0.009516 -0.001501 0.000000 0.000000 0.000000
# 3 -0.004908 -0.001501 0.013157 0.000000 0.000000 0.000000
# 4 0.000000 0.000000 0.000000 0.024370 0.000000 0.000000
# 5 0.000000 0.000000 0.000000 0.000000 0.023580 0.000000
# 6 0.000000 0.000000 0.000000 0.000000 0.000000 0.022539
#
#
# Mechanical properties :
#
#
# Convention : Reuss Voigt Hill
#
# Bulk Modulus (GPa) = 55.08316 55.96406 55.52361
# Shear Modulus (GPa) = 40.09907 41.40267 40.75087
#
# Velocity S-wave (km/s) = 4.27761 4.34658 4.31223
# Velocity P-wave (km/s) = 7.03794 7.12234 7.08027
#
# Compressibility (1/GPa) = 0.01815437
#
# Stress axis : x y z
#
# Youngs Moduli (GPa) = 95.42893 105.08558 76.00229
#
# Poissons Ratio (x) = 0.11454 0.37304
# Poissons Ratio (y) = 0.10402 0.11407
# Poissons Ratio (z) = 0.46839 0.15772
#
# Static dielectric constant tensor:
#      x y z
#    x 1.793810 0.000000 0.000000 
#    y 0.000000 1.743600 0.000000 
#    z 0.000000 0.000000 1.767360 
# 
# From -- ./inp_files/23269.got.cif
#   From: 2010.05.17/outbox.cif.g08.bks.cpg/sg53_12_cif.got.tgz:23269.got - 2010.06.03 12:45:16.
