data_PCOD9420638
_publ_section_title
;
Structure prediction by ZEFSAII (Michael W. Deem and Ramdas Pophale) SiO2 
 PCOD9420638
Probable space group: P C C A
;
_chemical_formula_sum "Si O2"
_cell_formula_units_Z 48
_cell_length_a 23.813533
_cell_length_b 5.465838
_cell_length_c 15.701700
_cell_angle_alpha 90.000000
_cell_angle_beta 90.000000
_cell_angle_gamma 90.000000
_cell_volume 2043.747617
_symmetry_space_group_name_H-M "P C C A"
_symmetry_group_IT_number 54
_symmetry_cell_setting 'orthorhombic'
loop_
_space_group_symop_operation_xyz
x,y,z
1/2-x,-y,z
1/2+x,-y,1/2-z
-x,y,1/2-z
-x,-y,-z
1/2+x,y,-z
1/2-x,y,1/2+z
x,-y,1/2+z
loop_
_atom_site_type_symbol
_atom_site_label
_atom_site_fract_x
_atom_site_fract_y
_atom_site_fract_z
Si Si1 0.031955 0.000011 0.399603
Si Si2 0.620063 0.999984 0.946058
Si Si3 0.313573 0.500016 0.012877
Si Si4 0.848524 0.499987 0.676204
Si Si5 0.017861 0.499989 0.848283
Si Si6 0.375429 0.999986 0.250505
O O1 0.072663 0.000008 0.480550
O O2 0.998819 0.746513 0.393713
O O3 0.070598 0.000015 0.313690
O O4 0.998819 0.253511 0.393714
O O5 0.655143 0.250466 0.960696
O O6 0.655136 0.749481 0.960690
O O7 0.605905 0.000003 0.846373
O O8 0.250000 0.500000 0.045310
O O9 0.313944 0.500004 0.909952
O O10 0.914358 0.499986 0.647357
O O11 0.842092 0.248923 0.728102
O O12 0.842093 0.751043 0.728106
O O13 0.000000 0.499992 0.750000
#
# Coordination Sequence:
#
# PCOD9420638 Si02
#       6
#     8   8   8   8   8   8
#     4  10  19  37  58  85 118 153 198 229 301 342
#     4  12  21  40  64  84 115 159 194 241 294 352
#     4  12  23  40  62  86 118 154 196 248 292 352
#     4  10  19  40  57  87 119 156 195 235 299 347
#     4  10  18  32  61  88 115 155 198 237 285 351
#     4  10  20  35  64  83 113 156 192 238 288 346
#
# _framework density 23.486267000000002
#
# number of rings (size 3 to 8) (size 9 to 14) (size 15 to 20)
#    0.000    1.333    6.667    2.000    0.000    0.000 
#    0.000    5.000    0.000   24.000    0.000    0.000 
#    0.000    0.000    0.000    0.000    0.000    0.000 
#
# Total GULP energy -268643.376656 kJ/mol
# GULP energy per Si atom -5596.737014 kJ/mol
# Density = 2.343281 g / cm^3
# Si number density = 23.486267 Si / 1000 Ang^3
#
#
#
# Elastic Constant Matrix: (Units=GPa)
#
#
# Indices 1 2 3 4 5 6 
#
# 1 44.4000 36.2968 44.5189 0.0000 0.0000 0.0000
# 2 36.2968 279.8056 74.0035 0.0000 0.0000 0.0000
# 3 44.5189 74.0035 191.6826 0.0000 0.0000 0.0000
# 4 0.0000 0.0000 0.0000 23.8083 0.0000 0.0000
# 5 0.0000 0.0000 0.0000 0.0000 11.1833 0.0000
# 6 0.0000 0.0000 0.0000 0.0000 0.0000 18.4050
#
#
#
# Elastic Compliance Matrix: (Units=1/GPa)
#
#
# Indices 1 2 3 4 5 6 
#
# 1 0.030668 -0.002333 -0.006222 0.000000 0.000000 0.000000
# 2 -0.002333 0.004158 -0.001063 0.000000 0.000000 0.000000
# 3 -0.006222 -0.001063 0.007073 0.000000 0.000000 0.000000
# 4 0.000000 0.000000 0.000000 0.042002 0.000000 0.000000
# 5 0.000000 0.000000 0.000000 0.000000 0.089419 0.000000
# 6 0.000000 0.000000 0.000000 0.000000 0.000000 0.054333
#
#
# Mechanical properties :
#
#
# Convention : Reuss Voigt Hill
#
# Bulk Modulus (GPa) = 44.12653 91.72518 67.92585
# Shear Modulus (GPa) = 19.65073 34.75060 27.20066
#
# Velocity S-wave (km/s) = 2.89570 3.85075 3.40686
# Velocity P-wave (km/s) = 5.47806 7.67532 6.66782
#
# Compressibility (1/GPa) = 0.02266210
#
# Stress axis : x y z
#
# Youngs Moduli (GPa) = 32.60685 240.51372 141.38954
#
# Poissons Ratio (x) = 0.56104 0.87976
# Poissons Ratio (y) = 0.07606 0.15036
# Poissons Ratio (z) = 0.20289 0.25577
#
# Static dielectric constant tensor:
#      x y z
#    x 1.886680 0.000000 0.000000 
#    y 0.000000 2.051360 0.000000 
#    z 0.000000 0.000000 1.840430 
# 
# From -- ./inp_files/15140.got.cif
#   From: 2010.05.17/outbox.cif.g08.bks.cpg/sg54_8_cif.got.tgz:15140.got - 2010.06.03 13:09:01.
