data_PCOD9420835
_publ_section_title
;
Structure prediction by ZEFSAII (Michael W. Deem and Ramdas Pophale) SiO2 
 PCOD9420835
Probable space group: P C C A
;
_chemical_formula_sum "Si O2"
_cell_formula_units_Z 48
_cell_length_a 5.095287
_cell_length_b 29.984036
_cell_length_c 15.095642
_cell_angle_alpha 90.000000
_cell_angle_beta 90.000000
_cell_angle_gamma 90.000000
_cell_volume 2306.270956
_symmetry_space_group_name_H-M "P C C A"
_symmetry_group_IT_number 54
_symmetry_cell_setting 'orthorhombic'
loop_
_space_group_symop_operation_xyz
x,y,z
1/2-x,-y,z
1/2+x,-y,1/2-z
-x,y,1/2-z
-x,-y,-z
1/2+x,y,-z
1/2-x,y,1/2+z
x,-y,1/2+z
loop_
_atom_site_type_symbol
_atom_site_label
_atom_site_fract_x
_atom_site_fract_y
_atom_site_fract_z
Si Si1 0.277249 0.357461 0.059138
Si Si2 0.498346 0.971768 0.356830
Si Si3 0.007730 0.268423 0.643730
Si Si4 0.165387 0.545273 0.061772
Si Si5 0.503428 0.215994 0.642740
Si Si6 0.620392 0.878260 0.055475
O O1 0.376651 0.315874 0.115342
O O2 0.307110 0.406044 0.104517
O O3 0.478867 0.355897 0.975521
O O4 0.500000 0.970378 0.250000
O O5 0.466990 0.921765 0.390648
O O6 0.250000 0.000000 0.387104
O O7 0.750000 0.000000 0.386197
O O8 0.218042 0.231867 0.612210
O O9 0.000000 0.267860 0.750000
O O10 0.720496 0.252598 0.613568
O O11 0.250000 0.500000 0.112186
O O12 0.374898 0.544405 0.979934
O O13 0.500000 0.214841 0.750000
O O14 0.569908 0.167547 0.606859
O O15 0.425251 0.879276 0.971202
#
# Coordination Sequence:
#
# PCOD9420835 Si02
#       6
#     8   8   8   8   8   8
#     4  10  19  30  49  76 102 132 171 217 263 307
#     4  10  22  41  63  84 110 147 184 214 253 314
#     4  10  21  36  54  76 103 139 177 217 265 314
#     4   8  14  25  41  65  96 127 162 203 248 300
#     4  10  22  40  57  74 104 144 181 212 254 320
#     4  12  25  38  58  87 114 140 173 221 274 310
#
# _framework density 20.812818
#
# number of rings (size 3 to 8) (size 9 to 14) (size 15 to 20)
#    0.000    2.000    0.000    3.500    0.000    6.000 
#    0.000    6.667    0.000    0.000    0.000   15.167 
#    0.000    0.000    0.000    0.000    0.000    0.000 
#
# Total GULP energy -267931.804564 kJ/mol
# GULP energy per Si atom -5581.912595 kJ/mol
# Density = 2.076545 g / cm^3
# Si number density = 20.812818 Si / 1000 Ang^3
#
#
#
# Elastic Constant Matrix: (Units=GPa)
#
#
# Indices 1 2 3 4 5 6 
#
# 1 92.9684 14.2454 2.7058 0.0000 0.0000 0.0000
# 2 14.2454 167.4690 14.6737 0.0000 0.0000 0.0000
# 3 2.7058 14.6737 20.6000 0.0000 0.0000 0.0000
# 4 0.0000 0.0000 0.0000 33.0341 0.0000 0.0000
# 5 0.0000 0.0000 0.0000 0.0000 -44.1634 0.0000
# 6 0.0000 0.0000 0.0000 0.0000 0.0000 29.6161
#
#
#
# Elastic Compliance Matrix: (Units=1/GPa)
#
#
# Indices 1 2 3 4 5 6 
#
# 1 0.010911 -0.000856 -0.000823 0.000000 0.000000 0.000000
# 2 -0.000856 0.006436 -0.004472 0.000000 0.000000 0.000000
# 3 -0.000823 -0.004472 0.051837 0.000000 0.000000 0.000000
# 4 0.000000 0.000000 0.000000 0.030272 0.000000 0.000000
# 5 0.000000 0.000000 0.000000 0.000000 -0.022643 0.000000
# 6 0.000000 0.000000 0.000000 0.000000 0.000000 0.033765
#
#
# Mechanical properties :
#
#
# Convention : Reuss Voigt Hill
#
# Bulk Modulus (GPa) = 17.58031 38.25415 27.91723
# Shear Modulus (GPa) = 35.25041 20.32484 27.78763
#
# Velocity S-wave (km/s) = 4.11991 3.12838 3.65789
# Velocity P-wave (km/s) = 5.57644 5.60972 5.59311
#
# Compressibility (1/GPa) = 0.05688182
#
# Stress axis : x y z
#
# Youngs Moduli (GPa) = 91.64664 155.37831 19.29111
#
# Poissons Ratio (x) = 0.13301 0.01589
# Poissons Ratio (y) = 0.07845 0.08627
# Poissons Ratio (z) = 0.07547 0.69485
#
# Static dielectric constant tensor:
#      x y z
#    x 1.737090 0.000000 0.000000 
#    y 0.000000 1.755270 0.000000 
#    z 0.000000 0.000000 1.734070 
# 
# From -- ./inp_files/10913.got.cif
#   From: 2010.05.17/outbox.cif.g08.bks.cpg/sg54_6_cif.got.tgz:10913.got - 2010.06.03 13:09:01.
