data_PCOD9420926
_publ_section_title
;
Structure prediction by ZEFSAII (Michael W. Deem and Ramdas Pophale) SiO2 
 PCOD9420926
Probable space group: P C C A
;
_chemical_formula_sum "Si O2"
_cell_formula_units_Z 48
_cell_length_a 15.535807
_cell_length_b 9.961764
_cell_length_c 12.002854
_cell_angle_alpha 90.000000
_cell_angle_beta 90.000000
_cell_angle_gamma 90.000000
_cell_volume 1857.610211
_symmetry_space_group_name_H-M "P C C A"
_symmetry_group_IT_number 54
_symmetry_cell_setting 'orthorhombic'
loop_
_space_group_symop_operation_xyz
x,y,z
1/2-x,-y,z
1/2+x,-y,1/2-z
-x,y,1/2-z
-x,-y,-z
1/2+x,y,-z
1/2-x,y,1/2+z
x,-y,1/2+z
loop_
_atom_site_type_symbol
_atom_site_label
_atom_site_fract_x
_atom_site_fract_y
_atom_site_fract_z
Si Si1 0.101662 0.458272 0.485200
Si Si2 0.589669 0.081044 0.290388
Si Si3 0.060533 0.168454 0.472867
Si Si4 0.605306 0.469563 0.759889
Si Si5 0.371494 0.195760 0.632795
Si Si6 0.830080 0.904952 0.082285
O O1 0.112909 0.302556 0.452801
O O2 0.132388 0.474916 0.615263
O O3 0.132495 0.521579 0.364824
O O4 0.000000 0.500000 0.500000
O O5 0.500000 0.020647 0.250000
O O6 0.559876 0.167086 0.393658
O O7 0.638001 0.161221 0.195265
O O8 0.646328 0.951325 0.318685
O O9 0.969327 0.193100 0.414698
O O10 0.098245 0.021617 0.445515
O O11 0.500000 0.473285 0.750000
O O12 0.634927 0.315129 0.781831
O O13 0.317854 0.197415 0.518676
O O14 0.750000 0.000000 0.097197
#
# Coordination Sequence:
#
# PCOD9420926 Si02
#       6
#     8   8   8   8   8   8
#     4  10  20  33  54  90 126 155 200 271 315 374
#     4  11  19  31  56  84 114 157 202 250 306 378
#     4  11  20  35  59  86 118 157 203 249 314 387
#     4  10  19  32  55  88 126 155 198 259 325 367
#     4  11  19  35  59  83 115 160 201 246 317 384
#     4  11  24  38  55  87 126 161 206 261 321 388
#
# _framework density 25.839652000000001
#
# number of rings (size 3 to 8) (size 9 to 14) (size 15 to 20)
#    0.000    1.333    6.667    2.500    0.000    6.000 
#    0.000    0.000    0.000    1.000    0.000    2.333 
#    0.000    0.000    0.000    0.000    0.000    0.000 
#
# Total GULP energy -267349.264059 kJ/mol
# GULP energy per Si atom -5569.776335 kJ/mol
# Density = 2.578084 g / cm^3
# Si number density = 25.839652 Si / 1000 Ang^3
#
#
#
# Elastic Constant Matrix: (Units=GPa)
#
#
# Indices 1 2 3 4 5 6 
#
# 1 43.4389 -16.8949 20.4803 0.0000 0.0000 0.0000
# 2 -16.8949 79.3279 39.2852 0.0000 0.0000 0.0000
# 3 20.4803 39.2852 259.0916 0.0000 0.0000 0.0000
# 4 0.0000 0.0000 0.0000 17.2976 0.0000 0.0000
# 5 0.0000 0.0000 0.0000 0.0000 2.0116 0.0000
# 6 0.0000 0.0000 0.0000 0.0000 0.0000 1.8533
#
#
#
# Elastic Compliance Matrix: (Units=1/GPa)
#
#
# Indices 1 2 3 4 5 6 
#
# 1 0.027497 0.007495 -0.003310 0.000000 0.000000 0.000000
# 2 0.007495 0.015672 -0.002969 0.000000 0.000000 0.000000
# 3 -0.003310 -0.002969 0.004571 0.000000 0.000000 0.000000
# 4 0.000000 0.000000 0.000000 0.057812 0.000000 0.000000
# 5 0.000000 0.000000 0.000000 0.000000 0.497114 0.000000
# 6 0.000000 0.000000 0.000000 0.000000 0.000000 0.539576
#
#
# Mechanical properties :
#
#
# Convention : Reuss Voigt Hill
#
# Bulk Modulus (GPa) = 19.93088 51.95552 35.94320
# Shear Modulus (GPa) = 4.32327 26.83169 15.57748
#
# Velocity S-wave (km/s) = 1.29489 3.22591 2.45797
# Velocity P-wave (km/s) = 3.15685 5.83317 4.68996
#
# Compressibility (1/GPa) = 0.05017340
#
# Stress axis : x y z
#
# Youngs Moduli (GPa) = 36.36814 63.80620 218.74958
#
# Poissons Ratio (x) = -0.47825 0.72406
# Poissons Ratio (y) = -0.27259 0.64943
# Poissons Ratio (z) = 0.12038 0.18943
#
# Static dielectric constant tensor:
#      x y z
#    x 2.063500 0.000000 0.000000 
#    y 0.000000 2.282740 0.000000 
#    z 0.000000 0.000000 2.222080 
# 
# From -- ./inp_files/8949.got.cif
#   From: 2010.05.17/outbox.cif.g08.bks.cpg/sg54_5_cif.got.tgz:8949.got - 2010.06.03 13:09:01.
