data_PCOD9420460
_publ_section_title
;
Structure prediction by ZEFSAII (Michael W. Deem and Ramdas Pophale) SiO2 
 PCOD9420460
Probable space group: P C C A
;
_chemical_formula_sum "Si O2"
_cell_formula_units_Z 32
_cell_length_a 5.422907
_cell_length_b 7.316245
_cell_length_c 34.238130
_cell_angle_alpha 90.000000
_cell_angle_beta 90.000000
_cell_angle_gamma 90.000000
_cell_volume 1358.408635
_symmetry_space_group_name_H-M "P C C A"
_symmetry_group_IT_number 54
_symmetry_cell_setting 'orthorhombic'
loop_
_space_group_symop_operation_xyz
x,y,z
1/2-x,-y,z
1/2+x,-y,1/2-z
-x,y,1/2-z
-x,-y,-z
1/2+x,y,-z
1/2-x,y,1/2+z
x,-y,1/2+z
loop_
_atom_site_type_symbol
_atom_site_label
_atom_site_fract_x
_atom_site_fract_y
_atom_site_fract_z
Si Si1 0.265309 0.784506 0.602632
Si Si2 0.247821 0.720991 0.771647
Si Si3 0.949194 0.789925 0.485832
Si Si4 0.239290 0.212657 0.363014
O O1 0.334383 0.776563 0.557163
O O2 0.498451 0.704317 0.625279
O O3 0.001076 0.708893 0.615483
O O4 0.250000 0.000000 0.613066
O O5 0.250000 0.500000 0.771196
O O6 0.500000 0.780438 0.750000
O O7 0.224411 0.779062 0.816495
O O8 0.000000 0.782838 0.750000
O O9 0.726665 0.712207 0.512293
O O10 0.000000 0.000000 0.500000
O O11 0.250000 0.000000 0.375806
#
# Coordination Sequence:
#
# PCOD9420460 Si02
#       4
#     8   8   8   8
#     4  10  18  29  43  68 107 139 162 199 256 296
#     4  10  21  38  58  76  97 129 173 214 247 297
#     4  10  17  24  41  63  95 143 169 202 235 298
#     4  10  21  32  49  75 106 136 157 208 255 310
#
# _framework density 23.556975999999999
#
# number of rings (size 3 to 8) (size 9 to 14) (size 15 to 20)
#    0.000    2.000    2.500    3.000    7.000    1.000 
#    0.000    0.000    0.000    0.000    0.000    0.000 
#    0.000   20.000    0.000    0.000    0.000    0.000 
#
# Total GULP energy -178675.323453 kJ/mol
# GULP energy per Si atom -5583.603858 kJ/mol
# Density = 2.350336 g / cm^3
# Si number density = 23.556976 Si / 1000 Ang^3
#
#
#
# Elastic Constant Matrix: (Units=GPa)
#
#
# Indices 1 2 3 4 5 6 
#
# 1 288.5939 13.2763 100.3886 0.0000 0.0000 0.0000
# 2 13.2763 87.8140 -12.6517 0.0000 0.0000 0.0000
# 3 100.3886 -12.6517 129.9299 0.0000 0.0000 0.0000
# 4 0.0000 0.0000 0.0000 101.2610 0.0000 0.0000
# 5 0.0000 0.0000 0.0000 0.0000 55.0677 0.0000
# 6 0.0000 0.0000 0.0000 0.0000 0.0000 -24.3115
#
#
#
# Elastic Compliance Matrix: (Units=1/GPa)
#
#
# Indices 1 2 3 4 5 6 
#
# 1 0.004881 -0.001299 -0.003897 0.000000 0.000000 0.000000
# 2 -0.001299 0.011896 0.002162 0.000000 0.000000 0.000000
# 3 -0.003897 0.002162 0.010918 0.000000 0.000000 0.000000
# 4 0.000000 0.000000 0.000000 0.009875 0.000000 0.000000
# 5 0.000000 0.000000 0.000000 0.000000 0.018159 0.000000
# 6 0.000000 0.000000 0.000000 0.000000 0.000000 -0.041133
#
#
# Mechanical properties :
#
#
# Convention : Reuss Voigt Hill
#
# Bulk Modulus (GPa) = 46.24174 78.70711 62.47443
# Shear Modulus (GPa) = 179.37660 53.42510 116.40085
#
# Velocity S-wave (km/s) = 8.73563 4.76742 7.03703
# Velocity P-wave (km/s) = 11.01910 7.98676 9.62312
#
# Compressibility (1/GPa) = 0.02162548
#
# Stress axis : x y z
#
# Youngs Moduli (GPa) = 204.89285 84.06403 91.58914
#
# Poissons Ratio (x) = 0.10923 0.35696
# Poissons Ratio (y) = 0.26624 -0.19804
# Poissons Ratio (z) = 0.79856 -0.18177
#
# Static dielectric constant tensor:
#      x y z
#    x 1.952690 0.000000 0.000000 
#    y 0.000000 1.989050 0.000000 
#    z 0.000000 0.000000 1.953290 
# 
# From -- ./inp_files/22650.got.cif
#   From: 2010.05.17/outbox.cif.g08.bks.cpg/sg54_12_cif.got.tgz:22650.got - 2010.06.03 13:09:01.
