data_PCOD9420178
_publ_section_title
;
Structure prediction by ZEFSAII (Michael W. Deem and Ramdas Pophale) SiO2 
 PCOD9420178
Probable space group: P M N A
;
_chemical_formula_sum "Si O2"
_cell_formula_units_Z 64
_cell_length_a 9.000000
_cell_length_b 15.000000
_cell_length_c 24.000000
_cell_angle_alpha 90.000000
_cell_angle_beta 90.000000
_cell_angle_gamma 90.000000
_cell_volume 3240.000000
_symmetry_space_group_name_H-M "P M N A"
_symmetry_group_IT_number 53
_symmetry_cell_setting 'orthorhombic'
loop_
_space_group_symop_operation_xyz
x,y,z
1/2-x,-y,1/2+z
x,-y,-z
1/2-x,y,1/2-z
-x,-y,-z
1/2+x,y,1/2-z
-x,y,z
1/2+x,-y,1/2+z
loop_
_atom_site_type_symbol
_atom_site_label
_atom_site_fract_x
_atom_site_fract_y
_atom_site_fract_z
Si Si1 0.679828 0.177850 0.803816
Si Si2 0.176497 0.718754 0.410543
Si Si3 0.677894 0.792906 0.693485
Si Si4 0.321078 0.477783 0.936884
Si Si5 0.328809 0.356229 0.393034
Si Si6 0.163721 0.934616 0.551340
Si Si7 0.835100 0.780678 0.988127
Si Si8 0.329971 0.981475 0.826173
O O1 0.750000 0.221071 0.750000
O O2 0.500000 0.176354 0.802556
O O3 0.733473 0.231854 0.856719
O O4 0.731157 0.075358 0.806541
O O5 0.235431 0.619341 0.419604
O O6 0.216908 0.777474 0.463459
O O7 0.000000 0.712219 0.405864
O O8 0.750000 0.759337 0.750000
O O9 0.500000 0.795173 0.694734
O O10 0.726326 0.722137 0.647021
O O11 0.738457 0.892888 0.685803
O O12 0.500000 0.476978 0.936803
O O13 0.264628 0.554744 0.896370
O O14 0.273329 0.500000 0.000000
O O15 0.500000 0.376111 0.378792
O O16 0.326896 0.309662 0.453391
O O17 0.292544 0.862256 0.551314
O O18 0.164875 0.990031 0.607422
O O19 0.000000 0.890425 0.548694
O O20 0.180892 0.000000 0.500000
O O21 0.000000 0.791778 0.010634
O O22 0.500000 0.968454 0.805754
#
# Coordination Sequence:
#
# PCOD9420178 Si02
#       8
#     8   8   8   8   8   8   8   8
#     4  10  22  40  60  82 113 150 191 238 284 333
#     4  10  21  39  60  85 117 150 189 239 287 342
#     4  11  23  40  59  83 115 152 194 238 285 336
#     4  10  20  35  60  90 114 147 192 234 280 338
#     4  10  22  38  56  82 119 152 181 230 290 340
#     4  10  20  34  53  79 114 155 194 232 282 342
#     4  11  21  34  54  84 118 151 185 229 287 343
#     4  10  20  35  57  84 111 148 193 234 281 333
#
# _framework density 19.753086
#
# number of rings (size 3 to 8) (size 9 to 14) (size 15 to 20)
#    0.000    1.750    2.500    1.875    0.000    6.500 
#    0.000    1.875    0.000    3.000    0.000    0.000 
#    0.000    0.000    0.000    0.000    0.000    0.000 
#
# Total GULP energy -356698.735738 kJ/mol
# GULP energy per Si atom -5573.417746 kJ/mol
# Density = 1.970813 g / cm^3
# Si number density = 19.753086 Si / 1000 Ang^3
#
#
#
# Elastic Constant Matrix: (Units=GPa)
#
#
# Indices 1 2 3 4 5 6 
#
# 1 -4.7319 29.4054 14.8179 0.0000 0.0000 0.0000
# 2 29.4054 85.5429 51.5852 0.0000 0.0000 0.0000
# 3 14.8179 51.5852 106.5922 0.0000 0.0000 0.0000
# 4 0.0000 0.0000 0.0000 251.3014 0.0000 0.0000
# 5 0.0000 0.0000 0.0000 0.0000 16.7276 0.0000
# 6 0.0000 0.0000 0.0000 0.0000 0.0000 -1.7544
#
#
#
# Elastic Compliance Matrix: (Units=1/GPa)
#
#
# Indices 1 2 3 4 5 6 
#
# 1 -0.066878 0.024547 -0.002582 0.000000 0.000000 0.000000
# 2 0.024547 0.007498 -0.007041 0.000000 0.000000 0.000000
# 3 -0.002582 -0.007041 0.013148 0.000000 0.000000 0.000000
# 4 0.000000 0.000000 0.000000 0.003979 0.000000 0.000000
# 5 0.000000 0.000000 0.000000 0.000000 0.059782 0.000000
# 6 0.000000 0.000000 0.000000 0.000000 0.000000 -0.569998
#
#
# Mechanical properties :
#
#
# Convention : Reuss Voigt Hill
#
# Bulk Modulus (GPa) = -61.02951 42.11336 -9.45807
# Shear Modulus (GPa) = -8.50661 59.36123 25.42731
#
# Velocity S-wave (km/s) = -2.07746 5.48788 3.59173
# Velocity P-wave (km/s) = 6.05951 7.84360 3.52167
#
# Compressibility (1/GPa) = -0.01638552
#
# Stress axis : x y z
#
# Youngs Moduli (GPa) = -14.95252 133.36689 76.05703
#
# Poissons Ratio (x) = -3.27371 0.19640
# Poissons Ratio (y) = 0.36703 0.53552
# Poissons Ratio (z) = -0.03861 0.93904
#
# Static dielectric constant tensor:
#      x y z
#    x 1.689650 0.000000 0.000000 
#    y 0.000000 1.671120 0.000000 
#    z 0.000000 0.000000 1.713980 
# 
# From -- ./inp_files/34189.got.cif
#   From: 2010.05.17/outbox.ucp.g08.bks.cvg/sg53_18_cif.got.tgz:34189.got - 2010.06.11 16:32:34.
