data_PCOD9420767
_publ_section_title
;
Structure prediction by ZEFSAII (Michael W. Deem and Ramdas Pophale) SiO2 
 PCOD9420767
Probable space group: P C C A
;
_chemical_formula_sum "Si O2"
_cell_formula_units_Z 48
_cell_length_a 16.124596
_cell_length_b 7.484127
_cell_length_c 19.808329
_cell_angle_alpha 90.000000
_cell_angle_beta 90.000000
_cell_angle_gamma 90.000000
_cell_volume 2390.439912
_symmetry_space_group_name_H-M "P C C A"
_symmetry_group_IT_number 54
_symmetry_cell_setting 'orthorhombic'
loop_
_space_group_symop_operation_xyz
x,y,z
1/2-x,-y,z
1/2+x,-y,1/2-z
-x,y,1/2-z
-x,-y,-z
1/2+x,y,-z
1/2-x,y,1/2+z
x,-y,1/2+z
loop_
_atom_site_type_symbol
_atom_site_label
_atom_site_fract_x
_atom_site_fract_y
_atom_site_fract_z
Si Si1 0.080067 0.696312 0.908755
Si Si2 0.155302 0.442652 0.279396
Si Si3 0.914255 0.453097 0.365091
Si Si4 0.033801 0.765108 0.319661
Si Si5 0.654925 0.043628 0.075940
Si Si6 0.336186 0.413263 0.495169
O O1 0.133940 0.692588 0.839752
O O2 0.338488 0.794509 0.976963
O O3 0.095644 0.516580 0.950987
O O4 0.113017 0.862662 0.951215
O O5 0.250000 0.500000 0.281307
O O6 0.127628 0.391017 0.204402
O O7 0.098097 0.612020 0.296785
O O8 0.851612 0.456082 0.427063
O O9 0.959685 0.646177 0.353377
O O10 0.985422 0.312548 0.386364
O O11 0.088501 0.890927 0.367561
O O12 0.000000 0.850951 0.250000
O O13 0.750000 0.000000 0.097877
O O14 0.250000 0.500000 0.472149
#
# Coordination Sequence:
#
# PCOD9420767 Si02
#       6
#     8   8   8   8   8   8
#     4  11  22  38  65  89 120 161 212 245 302 365
#     4  10  18  37  64  92 122 163 206 247 304 367
#     4  10  22  39  62  91 125 166 197 257 317 352
#     4   9  20  38  61  89 122 159 208 251 304 369
#     4  12  23  38  64  93 119 164 207 250 302 371
#     4  12  23  42  62  89 124 161 209 256 301 366
#
# _framework density 20.079985000000001
#
# number of rings (size 3 to 8) (size 9 to 14) (size 15 to 20)
#    0.000    1.333    5.000    4.000    0.000    2.000 
#    0.000    0.000    0.000    1.000    0.000    0.000 
#    0.000    0.000    0.000    0.000    0.000    0.000 
#
# Total GULP energy -267791.672406 kJ/mol
# GULP energy per Si atom -5578.993175 kJ/mol
# Density = 2.003428 g / cm^3
# Si number density = 20.079985 Si / 1000 Ang^3
#
#
#
# Elastic Constant Matrix: (Units=GPa)
#
#
# Indices 1 2 3 4 5 6 
#
# 1 55.9734 5.4839 8.0330 0.0000 0.0000 0.0000
# 2 5.4839 65.2917 8.6351 0.0000 0.0000 0.0000
# 3 8.0330 8.6351 64.7216 0.0000 0.0000 0.0000
# 4 0.0000 0.0000 0.0000 -2.7314 0.0000 0.0000
# 5 0.0000 0.0000 0.0000 0.0000 33.7784 0.0000
# 6 0.0000 0.0000 0.0000 0.0000 0.0000 26.5287
#
#
#
# Elastic Compliance Matrix: (Units=1/GPa)
#
#
# Indices 1 2 3 4 5 6 
#
# 1 0.018291 -0.001258 -0.002102 0.000000 0.000000 0.000000
# 2 -0.001258 0.015678 -0.001936 0.000000 0.000000 0.000000
# 3 -0.002102 -0.001936 0.015970 0.000000 0.000000 0.000000
# 4 0.000000 0.000000 0.000000 -0.366108 0.000000 0.000000
# 5 0.000000 0.000000 0.000000 0.000000 0.029605 0.000000
# 6 0.000000 0.000000 0.000000 0.000000 0.000000 0.037695
#
#
# Mechanical properties :
#
#
# Convention : Reuss Voigt Hill
#
# Bulk Modulus (GPa) = 25.41551 25.58786 25.50168
# Shear Modulus (GPa) = -22.20618 22.43744 0.11563
#
# Velocity S-wave (km/s) = -3.32909 3.34638 0.24023
# Velocity P-wave (km/s) = 1.44656 5.26324 3.57835
#
# Compressibility (1/GPa) = 0.03934606
#
# Stress axis : x y z
#
# Youngs Moduli (GPa) = 54.67290 63.78550 62.61760
#
# Poissons Ratio (x) = 0.08026 0.13164
# Poissons Ratio (y) = 0.06879 0.12120
# Poissons Ratio (z) = 0.11494 0.12346
#
# Static dielectric constant tensor:
#      x y z
#    x 1.723660 0.000000 0.000000 
#    y 0.000000 1.742150 0.000000 
#    z 0.000000 0.000000 1.743060 
# 
# From -- ./inp_files/18491.got.cif
#   From: 2010.05.17/outbox.cif.g08.bks.cpg/sg54_10_cif.got.tgz:18491.got - 2010.06.03 13:09:01.
