data_PCOD9420560
_publ_section_title
;
Structure prediction by ZEFSAII (Michael W. Deem and Ramdas Pophale) SiO2 
 PCOD9420560
Probable space group: P C C A
;
_chemical_formula_sum "Si O2"
_cell_formula_units_Z 48
_cell_length_a 7.500857
_cell_length_b 12.006724
_cell_length_c 26.238451
_cell_angle_alpha 90.000000
_cell_angle_beta 90.000000
_cell_angle_gamma 90.000000
_cell_volume 2363.053783
_symmetry_space_group_name_H-M "P C C A"
_symmetry_group_IT_number 54
_symmetry_cell_setting 'orthorhombic'
loop_
_space_group_symop_operation_xyz
x,y,z
1/2-x,-y,z
1/2+x,-y,1/2-z
-x,y,1/2-z
-x,-y,-z
1/2+x,y,-z
1/2-x,y,1/2+z
x,-y,1/2+z
loop_
_atom_site_type_symbol
_atom_site_label
_atom_site_fract_x
_atom_site_fract_y
_atom_site_fract_z
Si Si1 0.978869 0.177686 0.663152
Si Si2 0.000000 0.662936 0.250000
Si Si3 0.420867 0.856228 0.447238
Si Si4 0.003478 0.105457 0.559410
Si Si5 0.000000 0.817030 0.750000
Si Si6 0.250000 0.000000 0.784537
Si Si7 0.250000 0.500000 0.812868
Si Si8 0.405098 0.293616 0.853884
O O1 0.080323 0.158392 0.610713
O O2 0.795563 0.244065 0.651296
O O3 0.068260 0.253486 0.706028
O O4 0.907205 0.057461 0.682671
O O5 0.854692 0.583893 0.224178
O O6 0.436282 0.835218 0.507646
O O7 0.211505 0.881070 0.438268
O O8 0.474187 0.762131 0.406182
O O9 0.530557 0.971897 0.440984
O O10 0.000583 0.748066 0.802144
O O11 0.833137 0.900427 0.747021
O O12 0.381092 0.426039 0.848049
#
# Coordination Sequence:
#
# PCOD9420560 Si02
#       8
#     8   4   8   8   4   4   4   8
#     4   9  17  30  50  72 100 136 165 195 251 314
#     4  10  20  34  54  76  96 132 174 216 264 302
#     4   9  17  30  49  71  97 130 163 197 247 303
#     4   9  16  30  49  71  99 128 160 198 244 308
#     4  10  18  30  48  74 104 132 166 204 252 312
#     4  10  18  30  48  74 108 138 162 198 252 320
#     4  10  20  36  54  70  96 132 178 222 256 294
#     4   9  18  32  50  70  96 134 172 209 250 297
#
# _framework density 20.3127
#
# number of rings (size 3 to 8) (size 9 to 14) (size 15 to 20)
#    0.000    2.667    0.000    4.000    0.000    0.000 
#    0.000   11.667    0.000   10.000    0.000    0.000 
#    0.000    0.000    0.000    0.000    0.000    0.000 
#
# Total GULP energy -267579.041012 kJ/mol
# GULP energy per Si atom -5574.563354 kJ/mol
# Density = 2.026647 g / cm^3
# Si number density = 20.312700 Si / 1000 Ang^3
#
#
#
# Elastic Constant Matrix: (Units=GPa)
#
#
# Indices 1 2 3 4 5 6 
#
# 1 30.5834 16.4596 15.5697 0.0000 0.0000 0.0000
# 2 16.4596 106.4626 98.5293 0.0000 0.0000 0.0000
# 3 15.5697 98.5293 190.1630 0.0000 0.0000 0.0000
# 4 0.0000 0.0000 0.0000 9.4750 0.0000 0.0000
# 5 0.0000 0.0000 0.0000 0.0000 19.5893 0.0000
# 6 0.0000 0.0000 0.0000 0.0000 0.0000 22.5567
#
#
#
# Elastic Compliance Matrix: (Units=1/GPa)
#
#
# Indices 1 2 3 4 5 6 
#
# 1 0.035667 -0.005402 -0.000121 0.000000 0.000000 0.000000
# 2 -0.005402 0.018865 -0.009332 0.000000 0.000000 0.000000
# 3 -0.000121 -0.009332 0.010104 0.000000 0.000000 0.000000
# 4 0.000000 0.000000 0.000000 0.105541 0.000000 0.000000
# 5 0.000000 0.000000 0.000000 0.000000 0.051048 0.000000
# 6 0.000000 0.000000 0.000000 0.000000 0.000000 0.044333
#
#
# Mechanical properties :
#
#
# Convention : Reuss Voigt Hill
#
# Bulk Modulus (GPa) = 28.63326 65.36956 47.00141
# Shear Modulus (GPa) = 16.29142 23.43422 19.86282
#
# Velocity S-wave (km/s) = 2.83509 3.40026 3.13046
# Velocity P-wave (km/s) = 4.98436 6.90414 6.02125
#
# Compressibility (1/GPa) = 0.03492442
#
# Stress axis : x y z
#
# Youngs Moduli (GPa) = 28.03749 53.00836 98.97181
#
# Poissons Ratio (x) = 0.28635 0.01200
# Poissons Ratio (y) = 0.15146 0.92363
# Poissons Ratio (z) = 0.00340 0.49469
#
# Static dielectric constant tensor:
#      x y z
#    x 1.806700 0.000000 0.000000 
#    y 0.000000 1.750550 0.000000 
#    z 0.000000 0.000000 1.785180 
# 
# From -- ./inp_files/23569.got.cif
#   From: 2010.05.17/outbox.cif.g08.bks.cpg/sg54_12_cif.got.tgz:23569.got - 2010.06.03 13:09:01.
