data_PCOD9420143
_publ_section_title
;
Structure prediction by ZEFSAII (Michael W. Deem and Ramdas Pophale) SiO2 
 PCOD9420143
Probable space group: P M N A
;
_chemical_formula_sum "Si O2"
_cell_formula_units_Z 48
_cell_length_a 9.000000
_cell_length_b 18.000000
_cell_length_c 18.000000
_cell_angle_alpha 90.000000
_cell_angle_beta 90.000000
_cell_angle_gamma 90.000000
_cell_volume 2916.000000
_symmetry_space_group_name_H-M "P M N A"
_symmetry_group_IT_number 53
_symmetry_cell_setting 'orthorhombic'
loop_
_space_group_symop_operation_xyz
x,y,z
1/2-x,-y,1/2+z
x,-y,-z
1/2-x,y,1/2-z
-x,-y,-z
1/2+x,y,1/2-z
-x,y,z
1/2+x,-y,1/2+z
loop_
_atom_site_type_symbol
_atom_site_label
_atom_site_fract_x
_atom_site_fract_y
_atom_site_fract_z
Si Si1 0.320698 0.414461 0.479943
Si Si2 0.320608 0.179597 0.100977
Si Si3 0.319836 0.674906 0.671507
Si Si4 0.678816 0.982066 0.586878
Si Si5 0.321563 0.863440 0.330670
Si Si6 0.679901 0.744736 0.456760
O O1 0.268533 0.500000 0.500000
O O2 0.500000 0.418748 0.482060
O O3 0.282173 0.381405 0.397449
O O4 0.280773 0.343584 0.534173
O O5 0.500000 0.180195 0.106587
O O6 0.248615 0.243201 0.153948
O O7 0.258901 0.095158 0.110156
O O8 0.264205 0.209616 0.020980
O O9 0.250000 0.649951 0.750000
O O10 0.500000 0.679725 0.675143
O O11 0.500000 0.971384 0.594567
O O12 0.708682 0.000000 0.500000
O O13 0.721929 0.057210 0.631602
O O14 0.250000 0.857168 0.250000
O O15 0.500000 0.865484 0.324455
O O16 0.286496 0.791292 0.381999
O O17 0.500000 0.749717 0.469256
#
# Coordination Sequence:
#
# PCOD9420143 Si02
#       6
#     8   8   8   8   8   8
#     4   8  15  30  56  84 104 131 175 218 255 311
#     4  11  21  32  52  80 106 134 175 221 266 315
#     4  10  20  35  55  78 110 144 178 219 269 323
#     4  10  19  35  55  72 100 141 183 218 262 315
#     4  10  21  35  52  73 101 138 175 217 260 309
#     4   9  17  34  55  74 101 140 178 210 257 317
#
# _framework density 16.460905
#
# number of rings (size 3 to 8) (size 9 to 14) (size 15 to 20)
#    0.000    2.333    1.667    3.000    0.000    2.333 
#    0.000    2.500    0.000   12.500    0.000    0.000 
#    0.000    0.000    0.000    0.000    0.000    0.000 
#
# Total GULP energy -267351.945290 kJ/mol
# GULP energy per Si atom -5569.832194 kJ/mol
# Density = 1.642344 g / cm^3
# Si number density = 16.460905 Si / 1000 Ang^3
#
#
#
# Elastic Constant Matrix: (Units=GPa)
#
#
# Indices 1 2 3 4 5 6 
#
# 1 54.7782 34.8649 28.8782 0.0000 0.0000 0.0000
# 2 34.8649 178.1166 69.3479 0.0000 0.0000 0.0000
# 3 28.8782 69.3479 118.2852 0.0000 0.0000 0.0000
# 4 0.0000 0.0000 0.0000 27.9915 0.0000 0.0000
# 5 0.0000 0.0000 0.0000 0.0000 29.6679 0.0000
# 6 0.0000 0.0000 0.0000 0.0000 0.0000 18.3960
#
#
#
# Elastic Compliance Matrix: (Units=1/GPa)
#
#
# Indices 1 2 3 4 5 6 
#
# 1 0.022032 -0.002875 -0.003694 0.000000 0.000000 0.000000
# 2 -0.002875 0.007650 -0.003783 0.000000 0.000000 0.000000
# 3 -0.003694 -0.003783 0.011574 0.000000 0.000000 0.000000
# 4 0.000000 0.000000 0.000000 0.035725 0.000000 0.000000
# 5 0.000000 0.000000 0.000000 0.000000 0.033706 0.000000
# 6 0.000000 0.000000 0.000000 0.000000 0.000000 0.054360
#
#
# Mechanical properties :
#
#
# Convention : Reuss Voigt Hill
#
# Bulk Modulus (GPa) = 48.65405 68.59577 58.62491
# Shear Modulus (GPa) = 25.96039 29.75035 27.85537
#
# Velocity S-wave (km/s) = 3.97557 4.25589 4.11812
# Velocity P-wave (km/s) = 7.12005 8.11865 7.63569
#
# Compressibility (1/GPa) = 0.02055328
#
# Stress axis : x y z
#
# Youngs Moduli (GPa) = 45.38800 130.72053 86.40124
#
# Poissons Ratio (x) = 0.37576 0.31914
# Poissons Ratio (y) = 0.13047 0.32687
# Poissons Ratio (z) = 0.16765 0.49454
#
# Static dielectric constant tensor:
#      x y z
#    x 1.546480 0.000000 0.000000 
#    y 0.000000 1.562230 0.000000 
#    z 0.000000 0.000000 1.575000 
# 
# From -- ./inp_files/26403.got.cif
#   From: 2010.05.17/outbox.ucp.g08.bks.cvg/sg53_14_cif.got.tgz:26403.got - 2010.06.11 16:32:34.
