data_PCOD9420127
_publ_section_title
;
Structure prediction by ZEFSAII (Michael W. Deem and Ramdas Pophale) SiO2 
 PCOD9420127
Probable space group: P M N A
;
_chemical_formula_sum "Si O2"
_cell_formula_units_Z 64
_cell_length_a 9.000000
_cell_length_b 12.000000
_cell_length_c 30.000000
_cell_angle_alpha 90.000000
_cell_angle_beta 90.000000
_cell_angle_gamma 90.000000
_cell_volume 3240.000000
_symmetry_space_group_name_H-M "P M N A"
_symmetry_group_IT_number 53
_symmetry_cell_setting 'orthorhombic'
loop_
_space_group_symop_operation_xyz
x,y,z
1/2-x,-y,1/2+z
x,-y,-z
1/2-x,y,1/2-z
-x,-y,-z
1/2+x,y,1/2-z
-x,y,z
1/2+x,-y,1/2+z
loop_
_atom_site_type_symbol
_atom_site_label
_atom_site_fract_x
_atom_site_fract_y
_atom_site_fract_z
Si Si1 0.163030 0.221545 0.512026
Si Si2 0.832571 0.442033 0.571580
Si Si3 0.178046 0.162058 0.376226
Si Si4 0.828380 0.668258 0.940280
Si Si5 0.326033 0.295939 0.642499
Si Si6 0.823772 0.460953 0.702580
Si Si7 0.324401 0.085516 0.901409
Si Si8 0.676499 0.299223 0.202522
O O1 0.152445 0.339329 0.537743
O O2 0.297794 0.243543 0.479590
O O3 0.188628 0.124147 0.547340
O O4 0.000000 0.202959 0.490181
O O5 0.768173 0.556601 0.552993
O O6 0.717438 0.390551 0.606414
O O7 0.000000 0.460451 0.590278
O O8 0.261649 0.262540 0.399902
O O9 0.211059 0.188918 0.325123
O O10 0.000000 0.172577 0.382966
O O11 0.223663 0.040297 0.392532
O O12 0.000000 0.639731 0.936118
O O13 0.500000 0.289983 0.649018
O O14 0.241791 0.347256 0.684026
O O15 0.262621 0.178347 0.626374
O O16 0.750000 0.475354 0.750000
O O17 0.785044 0.580667 0.679616
O O18 0.000000 0.451741 0.704301
O O19 0.500000 0.094519 0.890484
O O20 0.750000 0.292578 0.250000
O O21 0.500000 0.303923 0.208057
#
# Coordination Sequence:
#
# PCOD9420127 Si02
#       8
#     8   8   8   8   8   8   8   8
#     4   9  19  36  56  77 104 143 187 230 276 326
#     4  10  20  36  57  79 106 143 185 226 271 330
#     4  10  21  39  60  80 106 146 193 230 266 321
#     4  12  24  34  51  82 115 144 177 227 285 333
#     4  11  21  34  55  82 111 142 177 223 281 336
#     4  10  19  33  54  82 115 146 179 221 272 333
#     4   9  20  39  60  78 102 145 195 234 267 316
#     4   9  19  35  58  85 111 140 172 215 268 319
#
# _framework density 19.753086
#
# number of rings (size 3 to 8) (size 9 to 14) (size 15 to 20)
#    0.000    2.000    0.000    4.875    0.000    7.000 
#    0.000    3.125    0.000    1.500    0.000    0.000 
#    0.000    0.000    0.000    0.000    0.000    0.000 
#
# Total GULP energy -356406.955307 kJ/mol
# GULP energy per Si atom -5568.858677 kJ/mol
# Density = 1.970813 g / cm^3
# Si number density = 19.753086 Si / 1000 Ang^3
#
#
#
# Elastic Constant Matrix: (Units=GPa)
#
#
# Indices 1 2 3 4 5 6 
#
# 1 13.7060 -45.0249 1.3761 0.0000 0.0000 0.0000
# 2 -45.0249 -131.2474 -6.0551 0.0000 0.0000 0.0000
# 3 1.3761 -6.0551 43.4862 0.0000 0.0000 0.0000
# 4 0.0000 0.0000 0.0000 17.5885 0.0000 0.0000
# 5 0.0000 0.0000 0.0000 0.0000 -48.2619 0.0000
# 6 0.0000 0.0000 0.0000 0.0000 0.0000 19.8804
#
#
#
# Elastic Compliance Matrix: (Units=1/GPa)
#
#
# Indices 1 2 3 4 5 6 
#
# 1 0.034627 -0.011753 -0.002732 0.000000 0.000000 0.000000
# 2 -0.011753 -0.003582 -0.000127 0.000000 0.000000 0.000000
# 3 -0.002732 -0.000127 0.023065 0.000000 0.000000 0.000000
# 4 0.000000 0.000000 0.000000 0.056855 0.000000 0.000000
# 5 0.000000 0.000000 0.000000 0.000000 -0.020720 0.000000
# 6 0.000000 0.000000 0.000000 0.000000 0.000000 0.050301
#
#
# Mechanical properties :
#
#
# Convention : Reuss Voigt Hill
#
# Bulk Modulus (GPa) = 40.18297 -19.27368 10.45465
# Shear Modulus (GPa) = 28.07969 -3.78203 12.14883
#
# Velocity S-wave (km/s) = 3.77441 -1.38521 2.48268
# Velocity P-wave (km/s) = 6.27549 3.51239 3.67728
#
# Compressibility (1/GPa) = 0.02488616
#
# Stress axis : x y z
#
# Youngs Moduli (GPa) = 28.87950 -279.21084 43.35644
#
# Poissons Ratio (x) = -3.28149 0.11846
# Poissons Ratio (y) = 0.33941 0.00550
# Poissons Ratio (z) = 0.07891 -0.03540
#
# Static dielectric constant tensor:
#      x y z
#    x 1.653420 0.000000 0.000000 
#    y 0.000000 1.661760 0.000000 
#    z 0.000000 0.000000 1.810560 
# 
# From -- ./inp_files/38261.got.cif
#   From: 2010.05.17/outbox.ucp.g08.bks.cvg/sg53_20_cif.got.tgz:38261.got - 2010.06.11 16:32:34.
