data_PCOD9420477
_publ_section_title
;
Structure prediction by ZEFSAII (Michael W. Deem and Ramdas Pophale) SiO2 
 PCOD9420477
Probable space group: P C C A
;
_chemical_formula_sum "Si O2"
_cell_formula_units_Z 48
_cell_length_a 5.558582
_cell_length_b 8.791135
_cell_length_c 39.788382
_cell_angle_alpha 90.000000
_cell_angle_beta 90.000000
_cell_angle_gamma 90.000000
_cell_volume 1944.308814
_symmetry_space_group_name_H-M "P C C A"
_symmetry_group_IT_number 54
_symmetry_cell_setting 'orthorhombic'
loop_
_space_group_symop_operation_xyz
x,y,z
1/2-x,-y,z
1/2+x,-y,1/2-z
-x,y,1/2-z
-x,-y,-z
1/2+x,y,-z
1/2-x,y,1/2+z
x,-y,1/2+z
loop_
_atom_site_type_symbol
_atom_site_label
_atom_site_fract_x
_atom_site_fract_y
_atom_site_fract_z
Si Si1 0.853571 0.265606 0.587281
Si Si2 0.858942 0.323807 0.391343
Si Si3 0.301283 0.175996 0.487162
Si Si4 0.504974 0.686120 0.710679
Si Si5 0.250000 0.000000 0.858341
Si Si6 0.490784 0.343099 0.684420
Si Si7 0.750000 0.000000 0.859964
O O1 0.590075 0.341551 0.585287
O O2 0.884519 0.185365 0.551533
O O3 0.802686 0.143005 0.616910
O O4 0.089817 0.366017 0.596383
O O5 0.948669 0.379721 0.354692
O O6 0.798161 0.144103 0.384270
O O7 0.532082 0.243200 0.507051
O O8 0.250000 0.000000 0.496915
O O9 0.500000 0.718366 0.750000
O O10 0.498904 0.502894 0.704429
O O11 0.253077 0.740048 0.695305
O O12 0.753056 0.732639 0.692537
O O13 0.502350 0.005344 0.839632
#
# Coordination Sequence:
#
# PCOD9420477 Si02
#       7
#     8   8   8   8   4   8   4
#     4  10  17  29  40  58  87 122 156 199 237 277
#     4  10  19  28  45  65  92 127 159 193 234 272
#     4  10  19  28  41  60  82 118 169 210 240 279
#     4  10  19  33  53  74 102 128 146 182 240 294
#     4   8  14  24  38  51  74 113 152 184 224 260
#     4  10  18  30  47  74  98 123 158 187 223 291
#     4   8  16  26  38  57  84 119 156 184 218 258
#
# _framework density 24.687436999999999
#
# number of rings (size 3 to 8) (size 9 to 14) (size 15 to 20)
#    0.000    2.333    0.833    4.500    0.000    0.000 
#    0.000    0.000    0.000    0.000    0.000    3.500 
#    0.000    0.000    0.000  210.000    0.000    0.000 
#
# Total GULP energy -267595.889435 kJ/mol
# GULP energy per Si atom -5574.914363 kJ/mol
# Density = 2.463125 g / cm^3
# Si number density = 24.687437 Si / 1000 Ang^3
#
#
#
# Elastic Constant Matrix: (Units=GPa)
#
#
# Indices 1 2 3 4 5 6 
#
# 1 334.0972 18.2232 53.2858 0.0000 0.0000 0.0000
# 2 18.2232 26.8192 -3.4670 0.0000 0.0000 0.0000
# 3 53.2858 -3.4670 92.0881 0.0000 0.0000 0.0000
# 4 0.0000 0.0000 0.0000 23.5560 0.0000 0.0000
# 5 0.0000 0.0000 0.0000 0.0000 38.9865 0.0000
# 6 0.0000 0.0000 0.0000 0.0000 0.0000 29.8915
#
#
#
# Elastic Compliance Matrix: (Units=1/GPa)
#
#
# Indices 1 2 3 4 5 6 
#
# 1 0.003473 -0.002632 -0.002109 0.000000 0.000000 0.000000
# 2 -0.002632 0.039464 0.003009 0.000000 0.000000 0.000000
# 3 -0.002109 0.003009 0.012193 0.000000 0.000000 0.000000
# 4 0.000000 0.000000 0.000000 0.042452 0.000000 0.000000
# 5 0.000000 0.000000 0.000000 0.000000 0.025650 0.000000
# 6 0.000000 0.000000 0.000000 0.000000 0.000000 0.033454
#
#
# Mechanical properties :
#
#
# Convention : Reuss Voigt Hill
#
# Bulk Modulus (GPa) = 19.35518 65.45429 42.40474
# Shear Modulus (GPa) = 28.18923 44.15096 36.17010
#
# Velocity S-wave (km/s) = 3.38279 4.23353 3.83184
# Velocity P-wave (km/s) = 4.80778 7.10407 6.06558
#
# Compressibility (1/GPa) = 0.05166574
#
# Stress axis : x y z
#
# Youngs Moduli (GPa) = 287.93053 25.33928 82.01655
#
# Poissons Ratio (x) = 0.06671 0.17295
# Poissons Ratio (y) = 0.75798 -0.24679
# Poissons Ratio (z) = 0.60718 -0.07625
#
# Static dielectric constant tensor:
#      x y z
#    x 2.118380 0.000000 0.000000 
#    y 0.000000 2.261830 0.000000 
#    z 0.000000 0.000000 1.861870 
# 
# From -- ./inp_files/27178.got.cif
#   From: 2010.05.17/outbox.cif.g08.bks.cpg/sg54_14_cif.got.tgz:27178.got - 2010.06.03 13:09:01.
