data_PCOD9420896
_publ_section_title
;
Structure prediction by ZEFSAII (Michael W. Deem and Ramdas Pophale) SiO2 
 PCOD9420896
Probable space group: P C C A
;
_chemical_formula_sum "Si O2"
_cell_formula_units_Z 64
_cell_length_a 34.140544
_cell_length_b 21.257810
_cell_length_c 5.214844
_cell_angle_alpha 90.000000
_cell_angle_beta 90.000000
_cell_angle_gamma 90.000000
_cell_volume 3784.689708
_symmetry_space_group_name_H-M "P C C A"
_symmetry_group_IT_number 54
_symmetry_cell_setting 'orthorhombic'
loop_
_space_group_symop_operation_xyz
x,y,z
1/2-x,-y,z
1/2+x,-y,1/2-z
-x,y,1/2-z
-x,-y,-z
1/2+x,y,-z
1/2-x,y,1/2+z
x,-y,1/2+z
loop_
_atom_site_type_symbol
_atom_site_label
_atom_site_fract_x
_atom_site_fract_y
_atom_site_fract_z
Si Si1 0.045965 0.794751 0.302292
Si Si2 0.045896 0.458131 0.733203
Si Si3 0.225077 0.754780 0.719665
Si Si4 0.138424 0.710441 0.800522
Si Si5 0.638145 0.039342 0.814866
Si Si6 0.775265 0.094247 0.259850
Si Si7 0.411920 0.837521 0.302500
Si Si8 0.404268 0.667251 0.800382
O O1 0.057026 0.823388 0.577553
O O2 0.064541 0.724744 0.292678
O O3 0.000000 0.792676 0.250000
O O4 0.067382 0.833877 0.077904
O O5 0.052524 0.492168 0.462026
O O6 0.073071 0.397805 0.767907
O O7 0.000000 0.439282 0.750000
O O8 0.244212 0.740619 0.445544
O O9 0.184536 0.719173 0.765102
O O10 0.217738 0.830238 0.731678
O O11 0.119128 0.780096 0.793618
O O12 0.118738 0.672749 0.567304
O O13 0.125621 0.679697 0.067706
O O14 0.683349 0.060551 0.789483
O O15 0.610706 0.098332 0.751180
O O16 0.631194 0.986293 0.600024
O O17 0.746126 0.078982 0.493506
#
# Coordination Sequence:
#
# PCOD9420896 Si02
#       8
#     8   8   8   8   8   8   8   8
#     4  10  20  35  59  80 101 130 166 220 264 308
#     4  10  20  34  52  77 117 158 182 205 245 303
#     4  10  19  32  52  75 106 140 168 206 266 325
#     4  10  19  34  53  77 107 138 173 222 264 301
#     4  12  24  37  55  73 100 136 174 214 253 319
#     4  10  21  35  52  74 102 135 170 208 250 311
#     4  10  21  37  53  76 103 129 169 211 271 319
#     4  10  20  32  54  82 111 139 179 217 247 302
#
# _framework density 16.910236000000001
#
# number of rings (size 3 to 8) (size 9 to 14) (size 15 to 20)
#    0.000    1.750    1.250    3.750    0.000    1.500 
#    0.000    3.750    0.000    7.500    0.000    0.000 
#    0.000   35.000    0.000    0.000    0.000    0.000 
#
# Total GULP energy -357584.272072 kJ/mol
# GULP energy per Si atom -5587.254251 kJ/mol
# Density = 1.687175 g / cm^3
# Si number density = 16.910236 Si / 1000 Ang^3
#
#
#
# Elastic Constant Matrix: (Units=GPa)
#
#
# Indices 1 2 3 4 5 6 
#
# 1 44.2287 10.7533 -20.1101 0.0000 0.0000 0.0000
# 2 10.7533 42.1902 -16.9018 0.0000 0.0000 0.0000
# 3 -20.1101 -16.9018 46.2865 0.0000 0.0000 0.0000
# 4 0.0000 0.0000 0.0000 12.6462 0.0000 0.0000
# 5 0.0000 0.0000 0.0000 0.0000 16.2130 0.0000
# 6 0.0000 0.0000 0.0000 0.0000 0.0000 22.9706
#
#
#
# Elastic Compliance Matrix: (Units=1/GPa)
#
#
# Indices 1 2 3 4 5 6 
#
# 1 0.028434 -0.002692 0.011371 0.000000 0.000000 0.000000
# 2 -0.002692 0.028019 0.009062 0.000000 0.000000 0.000000
# 3 0.011371 0.009062 0.029854 0.000000 0.000000 0.000000
# 4 0.000000 0.000000 0.000000 0.079075 0.000000 0.000000
# 5 0.000000 0.000000 0.000000 0.000000 0.061679 0.000000
# 6 0.000000 0.000000 0.000000 0.000000 0.000000 0.043534
#
#
# Mechanical properties :
#
#
# Convention : Reuss Voigt Hill
#
# Bulk Modulus (GPa) = 8.21101 8.90979 8.56040
# Shear Modulus (GPa) = 18.13502 20.96355 19.54929
#
# Velocity S-wave (km/s) = 3.27835 3.52475 3.40378
# Velocity P-wave (km/s) = 4.38135 4.67391 4.53000
#
# Compressibility (1/GPa) = 0.12178776
#
# Stress axis : x y z
#
# Youngs Moduli (GPa) = 35.16862 35.69070 33.49658
#
# Poissons Ratio (x) = 0.09608 -0.38089
# Poissons Ratio (y) = 0.09467 -0.30353
# Poissons Ratio (z) = -0.39990 -0.32341
#
# Static dielectric constant tensor:
#      x y z
#    x 1.537210 0.000000 0.000000 
#    y 0.000000 1.546440 0.000000 
#    z 0.000000 0.000000 1.566840 
# 
# From -- ./inp_files/2241.got.cif
#   From: 2010.05.17/outbox.cif.g08.bks.cpg/sg54_2_cif.got.tgz:2241.got - 2010.06.03 13:09:01.
