data_PCOD9420608
_publ_section_title
;
Structure prediction by ZEFSAII (Michael W. Deem and Ramdas Pophale) SiO2 
 PCOD9420608
Probable space group: P C C A
;
_chemical_formula_sum "Si O2"
_cell_formula_units_Z 56
_cell_length_a 25.643556
_cell_length_b 17.389786
_cell_length_c 5.574920
_cell_angle_alpha 90.000000
_cell_angle_beta 90.000000
_cell_angle_gamma 90.000000
_cell_volume 2486.057253
_symmetry_space_group_name_H-M "P C C A"
_symmetry_group_IT_number 54
_symmetry_cell_setting 'orthorhombic'
loop_
_space_group_symop_operation_xyz
x,y,z
1/2-x,-y,z
1/2+x,-y,1/2-z
-x,y,1/2-z
-x,-y,-z
1/2+x,y,-z
1/2-x,y,1/2+z
x,-y,1/2+z
loop_
_atom_site_type_symbol
_atom_site_label
_atom_site_fract_x
_atom_site_fract_y
_atom_site_fract_z
Si Si1 0.601251 0.418080 0.195509
Si Si2 0.439231 0.406833 0.802790
Si Si3 0.777379 0.785662 0.243636
Si Si4 0.277899 0.399557 0.254797
Si Si5 0.896223 0.172376 0.825184
Si Si6 0.067945 0.000329 0.135417
Si Si7 0.938699 0.830977 0.823492
O O1 0.578463 0.378181 0.434709
O O2 0.573122 0.501356 0.181159
O O3 0.662763 0.428564 0.232906
O O4 0.591301 0.379448 0.936014
O O5 0.500000 0.393852 0.750000
O O6 0.747774 0.810807 0.488927
O O7 0.777910 0.693034 0.243472
O O8 0.837269 0.809149 0.263089
O O9 0.247963 0.421034 0.500184
O O10 0.900749 0.079520 0.858983
O O11 0.931648 0.198687 0.596311
O O12 0.913439 0.205913 0.085442
O O13 0.040590 0.996404 0.385378
O O14 0.091030 0.086423 0.150269
O O15 0.000000 0.840100 0.750000
#
# Coordination Sequence:
#
# PCOD9420608 Si02
#       7
#     8   8   8   8   8   8   8
#     4  10  18  32  53  77 105 138 173 212 252 292
#     4  10  19  33  53  79 108 143 178 201 236 300
#     4  10  21  38  59  75  93 131 177 217 260 301
#     4  10  21  37  55  77 102 131 172 217 260 307
#     4  10  19  32  52  75 100 128 170 213 243 298
#     4   8  16  27  44  69  99 126 158 194 238 293
#     4  10  19  31  51  76 105 137 162 193 249 312
#
# _framework density 22.525627
#
# number of rings (size 3 to 8) (size 9 to 14) (size 15 to 20)
#    0.000    2.286    0.000    4.286    0.000    5.143 
#    0.000    8.571    0.000   30.000    0.000    0.000 
#    0.000    0.000    0.000    0.000    0.000    0.000 
#
# Total GULP energy -311770.631850 kJ/mol
# GULP energy per Si atom -5567.332712 kJ/mol
# Density = 2.247436 g / cm^3
# Si number density = 22.525627 Si / 1000 Ang^3
#
#
#
# Elastic Constant Matrix: (Units=GPa)
#
#
# Indices 1 2 3 4 5 6 
#
# 1 116.3739 -5.5253 57.0396 0.0000 0.0000 0.0000
# 2 -5.5253 39.7721 18.6739 0.0000 0.0000 0.0000
# 3 57.0396 18.6739 251.9703 0.0000 0.0000 0.0000
# 4 0.0000 0.0000 0.0000 10.7632 0.0000 0.0000
# 5 0.0000 0.0000 0.0000 0.0000 46.2331 0.0000
# 6 0.0000 0.0000 0.0000 0.0000 0.0000 -0.4905
#
#
#
# Elastic Compliance Matrix: (Units=1/GPa)
#
#
# Indices 1 2 3 4 5 6 
#
# 1 0.009903 0.002516 -0.002428 0.000000 0.000000 0.000000
# 2 0.002516 0.026689 -0.002547 0.000000 0.000000 0.000000
# 3 -0.002428 -0.002547 0.004707 0.000000 0.000000 0.000000
# 4 0.000000 0.000000 0.000000 0.092909 0.000000 0.000000
# 5 0.000000 0.000000 0.000000 0.000000 0.021630 0.000000
# 6 0.000000 0.000000 0.000000 0.000000 0.000000 -2.038605
#
#
# Mechanical properties :
#
#
# Convention : Reuss Voigt Hill
#
# Bulk Modulus (GPa) = 27.48844 60.94364 44.21604
# Shear Modulus (GPa) = -2.67993 33.82970 15.57489
#
# Velocity S-wave (km/s) = -1.09193 3.87955 2.63236
# Velocity P-wave (km/s) = 3.26189 6.86891 5.37689
#
# Compressibility (1/GPa) = 0.03637892
#
# Stress axis : x y z
#
# Youngs Moduli (GPa) = 100.98393 37.46887 212.44125
#
# Poissons Ratio (x) = -0.09426 0.51584
# Poissons Ratio (y) = -0.25405 0.54118
# Poissons Ratio (z) = 0.24520 0.09545
#
# Static dielectric constant tensor:
#      x y z
#    x 2.019080 0.000000 0.000000 
#    y 0.000000 1.938830 0.000000 
#    z 0.000000 0.000000 1.911990 
# 
# From -- ./inp_files/1427.got.cif
#   From: 2010.05.17/outbox.cif.g08.bks.cpg/sg54_1_cif.got.tgz:1427.got - 2010.06.03 13:09:01.
