data_PCOD9420774
_publ_section_title
;
Structure prediction by ZEFSAII (Michael W. Deem and Ramdas Pophale) SiO2 
 PCOD9420774
Probable space group: P C C A
;
_chemical_formula_sum "Si O2"
_cell_formula_units_Z 52
_cell_length_a 20.635182
_cell_length_b 11.121826
_cell_length_c 10.690313
_cell_angle_alpha 90.000000
_cell_angle_beta 90.000000
_cell_angle_gamma 90.000000
_cell_volume 2453.436494
_symmetry_space_group_name_H-M "P C C A"
_symmetry_group_IT_number 54
_symmetry_cell_setting 'orthorhombic'
loop_
_space_group_symop_operation_xyz
x,y,z
1/2-x,-y,z
1/2+x,-y,1/2-z
-x,y,1/2-z
-x,-y,-z
1/2+x,y,-z
1/2-x,y,1/2+z
x,-y,1/2+z
loop_
_atom_site_type_symbol
_atom_site_label
_atom_site_fract_x
_atom_site_fract_y
_atom_site_fract_z
Si Si1 0.615918 0.636046 0.883392
Si Si2 0.535600 0.575877 0.387301
Si Si3 0.465840 0.153122 0.514739
Si Si4 0.704496 0.157878 0.373520
Si Si5 0.608733 0.816752 0.086424
Si Si6 0.152972 0.918435 0.663969
Si Si7 0.000000 0.778718 0.250000
O O1 0.603503 0.496023 0.870253
O O2 0.680174 0.707976 0.840314
O O3 0.557103 0.697958 0.807349
O O4 0.605914 0.682754 0.026608
O O5 0.500000 0.578551 0.250000
O O6 0.500000 0.500000 0.500000
O O7 0.454622 0.291336 0.558493
O O8 0.407195 0.078520 0.570460
O O9 0.471623 0.147806 0.365456
O O10 0.462245 0.872456 0.433232
O O11 0.667186 0.130870 0.503246
O O12 0.780219 0.137518 0.386417
O O13 0.673292 0.052077 0.288904
O O14 0.628700 0.832673 0.226535
#
# Coordination Sequence:
#
# PCOD9420774 Si02
#       7
#     8   8   8   8   8   8   4
#     4   9  19  38  55  87 119 158 198 252 301 351
#     4  12  19  34  63  88 126 163 201 252 321 376
#     4  11  23  37  61 100 122 157 212 255 314 364
#     4   9  23  40  58  86 125 162 204 251 305 375
#     4   9  20  40  56  92 123 153 201 266 297 354
#     4  11  22  40  63  91 116 175 202 245 322 367
#     4  10  18  38  58  90 122 158 190 256 312 350
#
# _framework density 21.194762000000001
#
# number of rings (size 3 to 8) (size 9 to 14) (size 15 to 20)
#    0.923    0.923    3.846    1.385    0.000    5.538 
#    2.769    0.769    0.000    0.000    4.000    0.000 
#    0.000    0.000    0.000    0.000    0.000    0.000 
#
# Total GULP energy -289717.411017 kJ/mol
# GULP energy per Si atom -5571.488673 kJ/mol
# Density = 2.114652 g / cm^3
# Si number density = 21.194762 Si / 1000 Ang^3
#
#
#
# Elastic Constant Matrix: (Units=GPa)
#
#
# Indices 1 2 3 4 5 6 
#
# 1 145.0967 33.8117 40.3051 0.0000 0.0000 0.0000
# 2 33.8117 99.1376 21.5133 0.0000 0.0000 0.0000
# 3 40.3051 21.5133 88.4091 0.0000 0.0000 0.0000
# 4 0.0000 0.0000 0.0000 7.5317 0.0000 0.0000
# 5 0.0000 0.0000 0.0000 0.0000 14.5045 0.0000
# 6 0.0000 0.0000 0.0000 0.0000 0.0000 29.7551
#
#
#
# Elastic Compliance Matrix: (Units=1/GPa)
#
#
# Indices 1 2 3 4 5 6 
#
# 1 0.008293 -0.002120 -0.003265 0.000000 0.000000 0.000000
# 2 -0.002120 0.011191 -0.001757 0.000000 0.000000 0.000000
# 3 -0.003265 -0.001757 0.013227 0.000000 0.000000 0.000000
# 4 0.000000 0.000000 0.000000 0.132771 0.000000 0.000000
# 5 0.000000 0.000000 0.000000 0.000000 0.068944 0.000000
# 6 0.000000 0.000000 0.000000 0.000000 0.000000 0.033608
#
#
# Mechanical properties :
#
#
# Convention : Reuss Voigt Hill
#
# Bulk Modulus (GPa) = 54.26515 58.21155 56.23835
# Shear Modulus (GPa) = 17.33343 26.15914 21.74628
#
# Velocity S-wave (km/s) = 2.86285 3.51697 3.20663
# Velocity P-wave (km/s) = 6.04868 6.63451 6.34836
#
# Compressibility (1/GPa) = 0.01842803
#
# Stress axis : x y z
#
# Youngs Moduli (GPa) = 120.58587 89.35571 75.60319
#
# Poissons Ratio (x) = 0.18942 0.24683
# Poissons Ratio (y) = 0.25563 0.13282
# Poissons Ratio (z) = 0.39369 0.15698
#
# Static dielectric constant tensor:
#      x y z
#    x 1.763100 0.000000 0.000000 
#    y 0.000000 1.820970 0.000000 
#    z 0.000000 0.000000 1.786240 
# 
# From -- ./inp_files/9023.got.cif
#   From: 2010.05.17/outbox.cif.g08.bks.cpg/sg54_5_cif.got.tgz:9023.got - 2010.06.03 13:09:01.
