data_PCOD9420187
_publ_section_title
;
Structure prediction by ZEFSAII (Michael W. Deem and Ramdas Pophale) SiO2 
 PCOD9420187
Probable space group: P M N A
;
_chemical_formula_sum "Si O2"
_cell_formula_units_Z 56
_cell_length_a 9.000000
_cell_length_b 15.000000
_cell_length_c 21.000000
_cell_angle_alpha 90.000000
_cell_angle_beta 90.000000
_cell_angle_gamma 90.000000
_cell_volume 2835.000000
_symmetry_space_group_name_H-M "P M N A"
_symmetry_group_IT_number 53
_symmetry_cell_setting 'orthorhombic'
loop_
_space_group_symop_operation_xyz
x,y,z
1/2-x,-y,1/2+z
x,-y,-z
1/2-x,y,1/2-z
-x,-y,-z
1/2+x,y,1/2-z
-x,y,z
1/2+x,-y,1/2+z
loop_
_atom_site_type_symbol
_atom_site_label
_atom_site_fract_x
_atom_site_fract_y
_atom_site_fract_z
Si Si1 0.320656 0.518618 0.178195
Si Si2 0.677248 0.627023 0.926235
Si Si3 0.170574 0.381674 0.939443
Si Si4 0.334304 0.122448 0.690462
Si Si5 0.170433 0.832652 0.057148
Si Si6 0.824733 0.164318 0.428908
Si Si7 0.664771 0.089669 0.310307
O O1 0.250000 0.522855 0.250000
O O2 0.500000 0.528012 0.183911
O O3 0.287800 0.427080 0.138384
O O4 0.256830 0.587576 0.124590
O O5 0.500000 0.618180 0.936912
O O6 0.713315 0.731294 0.918209
O O7 0.756606 0.595469 0.991616
O O8 0.168329 0.274283 0.940662
O O9 0.000000 0.414143 0.936407
O O10 0.250000 0.162055 0.750000
O O11 0.500000 0.161189 0.687059
O O12 0.258709 0.137099 0.623110
O O13 0.346798 0.016497 0.699125
O O14 0.000000 0.865603 0.053375
O O15 0.258640 0.863416 0.996192
O O16 0.754090 0.107821 0.373412
O O17 0.000000 0.156236 0.428837
O O18 0.750000 0.128484 0.250000
O O19 0.500000 0.127144 0.315423
#
# Coordination Sequence:
#
# PCOD9420187 Si02
#       7
#     8   8   8   8   8   8   8
#     4  11  23  38  55  77 107 139 174 216 260 308
#     4   9  20  38  57  77 104 140 177 214 259 310
#     4  10  20  35  57  82 107 137 174 214 259 313
#     4   9  19  35  54  75 103 139 177 215 258 310
#     4   9  19  36  55  78 107 139 175 214 258 308
#     4  10  20  35  55  80 107 136 174 217 261 309
#     4  10  20  35  54  76 104 139 176 215 261 312
#
# _framework density 19.753086
#
# number of rings (size 3 to 8) (size 9 to 14) (size 15 to 20)
#    0.000    2.286    0.000    2.143    0.000    6.857 
#    0.000    5.714    0.000    0.000    0.000    0.000 
#    0.000    0.000    0.000    0.000    0.000    0.000 
#
# Total GULP energy -312080.068347 kJ/mol
# GULP energy per Si atom -5572.858363 kJ/mol
# Density = 1.970813 g / cm^3
# Si number density = 19.753086 Si / 1000 Ang^3
#
#
#
# Elastic Constant Matrix: (Units=GPa)
#
#
# Indices 1 2 3 4 5 6 
#
# 1 6.2003 2.4130 6.4106 0.0000 0.0000 0.0000
# 2 2.4130 -11.6415 -10.0878 0.0000 0.0000 0.0000
# 3 6.4106 -10.0878 114.8712 0.0000 0.0000 0.0000
# 4 0.0000 0.0000 0.0000 36.5806 0.0000 0.0000
# 5 0.0000 0.0000 0.0000 0.0000 37.6429 0.0000
# 6 0.0000 0.0000 0.0000 0.0000 0.0000 17.1964
#
#
#
# Elastic Compliance Matrix: (Units=1/GPa)
#
#
# Indices 1 2 3 4 5 6 
#
# 1 0.152682 0.036271 -0.005335 0.000000 0.000000 0.000000
# 2 0.036271 -0.071209 -0.008278 0.000000 0.000000 0.000000
# 3 -0.005335 -0.008278 0.008276 0.000000 0.000000 0.000000
# 4 0.000000 0.000000 0.000000 0.027337 0.000000 0.000000
# 5 0.000000 0.000000 0.000000 0.000000 0.026565 0.000000
# 6 0.000000 0.000000 0.000000 0.000000 0.000000 0.058152
#
#
# Mechanical properties :
#
#
# Convention : Reuss Voigt Hill
#
# Bulk Modulus (GPa) = 7.40384 11.87797 9.64091
# Shear Modulus (GPa) = 24.81271 25.66360 25.23816
#
# Velocity S-wave (km/s) = 3.54806 3.60838 3.57835
# Velocity P-wave (km/s) = 4.53225 4.83599 4.68658
#
# Compressibility (1/GPa) = 0.13506499
#
# Stress axis : x y z
#
# Youngs Moduli (GPa) = 6.54956 -14.04318 120.82798
#
# Poissons Ratio (x) = 0.50936 0.64467
# Poissons Ratio (y) = -0.23756 1.00017
# Poissons Ratio (z) = 0.03494 -0.11624
#
# Static dielectric constant tensor:
#      x y z
#    x 1.706440 0.000000 0.000000 
#    y 0.000000 1.730620 0.000000 
#    z 0.000000 0.000000 1.673000 
# 
# From -- ./inp_files/30832.got.cif
#   From: 2010.05.17/outbox.ucp.g08.bks.cvg/sg53_16_cif.got.tgz:30832.got - 2010.06.11 16:32:34.
