data_PCOD9420054
_publ_section_title
;
Structure prediction by ZEFSAII (Michael W. Deem and Ramdas Pophale) SiO2 
 PCOD9420054
Probable space group: P M N A
;
_chemical_formula_sum "Si O2"
_cell_formula_units_Z 32
_cell_length_a 18.257605
_cell_length_b 9.591747
_cell_length_c 7.981532
_cell_angle_alpha 90.000000
_cell_angle_beta 90.000000
_cell_angle_gamma 90.000000
_cell_volume 1397.744465
_symmetry_space_group_name_H-M "P M N A"
_symmetry_group_IT_number 53
_symmetry_cell_setting 'orthorhombic'
loop_
_space_group_symop_operation_xyz
x,y,z
1/2-x,-y,1/2+z
x,-y,-z
1/2-x,y,1/2-z
-x,-y,-z
1/2+x,y,1/2-z
-x,y,z
1/2+x,-y,1/2+z
loop_
_atom_site_type_symbol
_atom_site_label
_atom_site_fract_x
_atom_site_fract_y
_atom_site_fract_z
Si Si1 0.382460 0.665960 0.501792
Si Si2 0.415045 0.930108 0.666184
Si Si3 0.219907 0.347653 0.558100
Si Si4 0.414919 0.817091 0.144366
O O1 0.397543 0.500000 0.500000
O O2 0.414313 0.765132 0.645784
O O3 0.295590 0.686791 0.533022
O O4 0.409300 0.732540 0.324338
O O5 0.500000 0.971925 0.664364
O O6 0.379791 0.000000 0.500000
O O7 0.389456 0.024488 0.818180
O O8 0.197156 0.500000 0.500000
O O9 0.250000 0.350301 0.750000
O O10 0.149317 0.252419 0.538009
O O11 0.500000 0.809325 0.085114
#
# Coordination Sequence:
#
# PCOD9420054 Si02
#       4
#     8   8   8   8
#     4   9  16  27  47  74 103 136 178 226 270 310
#     4   8  14  25  43  69  99 128 165 214 260 308
#     4   9  18  32  51  75 107 142 180 226 269 318
#     4   9  17  29  47  73 105 140 174 213 268 327
#
# _framework density 22.894027000000001
#
# number of rings (size 3 to 8) (size 9 to 14) (size 15 to 20)
#    0.000    3.250    0.000    2.250    0.000    2.500 
#    0.000    0.000    0.000   93.000    0.000    0.000 
#    0.000   89.000    0.000    0.000    0.000    0.250 
#
# Total GULP energy -178165.029432 kJ/mol
# GULP energy per Si atom -5567.657170 kJ/mol
# Density = 2.284192 g / cm^3
# Si number density = 22.894027 Si / 1000 Ang^3
#
#
#
# Elastic Constant Matrix: (Units=GPa)
#
#
# Indices 1 2 3 4 5 6 
#
# 1 86.4688 42.7244 -1.0865 0.0000 0.0000 0.0000
# 2 42.7244 132.4427 19.5910 0.0000 0.0000 0.0000
# 3 -1.0865 19.5910 42.0347 0.0000 0.0000 0.0000
# 4 0.0000 0.0000 0.0000 32.5269 0.0000 0.0000
# 5 0.0000 0.0000 0.0000 0.0000 4.5207 0.0000
# 6 0.0000 0.0000 0.0000 0.0000 0.0000 25.1012
#
#
#
# Elastic Compliance Matrix: (Units=1/GPa)
#
#
# Indices 1 2 3 4 5 6 
#
# 1 0.014028 -0.004918 0.002655 0.000000 0.000000 0.000000
# 2 -0.004918 0.009834 -0.004710 0.000000 0.000000 0.000000
# 3 0.002655 -0.004710 0.026054 0.000000 0.000000 0.000000
# 4 0.000000 0.000000 0.000000 0.030744 0.000000 0.000000
# 5 0.000000 0.000000 0.000000 0.000000 0.221203 0.000000
# 6 0.000000 0.000000 0.000000 0.000000 0.000000 0.039839
#
#
# Mechanical properties :
#
#
# Convention : Reuss Voigt Hill
#
# Bulk Modulus (GPa) = 27.80205 42.60044 35.20125
# Shear Modulus (GPa) = 13.60032 25.74426 19.67229
#
# Velocity S-wave (km/s) = 2.43997 3.35699 2.93452
# Velocity P-wave (km/s) = 4.48421 5.80292 5.18565
#
# Compressibility (1/GPa) = 0.03596857
#
# Stress axis : x y z
#
# Youngs Moduli (GPa) = 71.28487 101.69138 38.38211
#
# Poissons Ratio (x) = 0.50012 -0.10189
# Poissons Ratio (y) = 0.35058 0.18079
# Poissons Ratio (z) = -0.18924 0.47899
#
# Static dielectric constant tensor:
#      x y z
#    x 1.886180 0.000000 0.000000 
#    y 0.000000 1.873260 0.000000 
#    z 0.000000 0.000000 2.029270 
# 
# From -- ./inp_files/16534.got.cif
#   From: 2010.05.17/outbox.cif.g08.bks.cpg/sg53_9_cif.got.tgz:16534.got - 2010.06.03 12:45:16.
