data_PCOD9420086
_publ_section_title
;
Structure prediction by ZEFSAII (Michael W. Deem and Ramdas Pophale) SiO2 
 PCOD9420086
Probable space group: P M N A
;
_chemical_formula_sum "Si O2"
_cell_formula_units_Z 64
_cell_length_a 9.000000
_cell_length_b 21.000000
_cell_length_c 18.000000
_cell_angle_alpha 90.000000
_cell_angle_beta 90.000000
_cell_angle_gamma 90.000000
_cell_volume 3402.000000
_symmetry_space_group_name_H-M "P M N A"
_symmetry_group_IT_number 53
_symmetry_cell_setting 'orthorhombic'
loop_
_space_group_symop_operation_xyz
x,y,z
1/2-x,-y,1/2+z
x,-y,-z
1/2-x,y,1/2-z
-x,-y,-z
1/2+x,y,1/2-z
-x,y,z
1/2+x,-y,1/2+z
loop_
_atom_site_type_symbol
_atom_site_label
_atom_site_fract_x
_atom_site_fract_y
_atom_site_fract_z
Si Si1 0.674266 0.769958 0.328406
Si Si2 0.679023 0.743494 0.894584
Si Si3 0.667587 0.127780 0.923903
Si Si4 0.832884 0.565749 0.958825
Si Si5 0.834017 0.005309 0.909764
Si Si6 0.325959 0.613160 0.823653
Si Si7 0.176064 0.306969 0.959132
Si Si8 0.172419 0.118822 0.396320
O O1 0.750000 0.777880 0.250000
O O2 0.500000 0.767736 0.316194
O O3 0.717015 0.825666 0.385410
O O4 0.724247 0.708629 0.375942
O O5 0.500000 0.742197 0.898807
O O6 0.730761 0.684082 0.845541
O O7 0.721344 0.812878 0.865767
O O8 0.740567 0.732592 0.977337
O O9 0.500000 0.146224 0.903771
O O10 0.710853 0.058172 0.894857
O O11 0.676463 0.125825 0.013379
O O12 0.716740 0.570442 0.893195
O O13 0.000000 0.577786 0.928624
O O14 0.830934 0.500000 0.000000
O O15 0.801142 0.620747 0.017881
O O16 0.000000 0.022992 0.885345
O O17 0.780275 0.938571 0.877460
O O18 0.838897 0.000000 0.000000
O O19 0.250000 0.589628 0.750000
O O20 0.500000 0.617044 0.813142
O O21 0.000000 0.292460 0.964421
O O22 0.000000 0.105858 0.377108
#
# Coordination Sequence:
#
# PCOD9420086 Si02
#       8
#     8   8   8   8   8   8   8   8
#     4  11  22  34  49  70  98 132 173 216 263 315
#     4   9  17  30  50  75 101 133 169 211 259 309
#     4  10  18  30  48  67  93 127 165 212 265 314
#     4   9  18  35  59  84 111 143 177 215 259 307
#     4   9  17  27  41  65  96 126 160 205 255 306
#     4  10  20  34  54  80 112 144 178 216 258 308
#     4   9  18  32  51  75 102 132 168 211 256 304
#     4   9  16  27  45  70  97 125 163 209 261 313
#
# _framework density 18.812463000000001
#
# number of rings (size 3 to 8) (size 9 to 14) (size 15 to 20)
#    0.000    2.500    1.250    1.500    0.000    3.750 
#    0.000    0.625    0.000    2.250    0.000    3.500 
#    0.000    0.000    0.000    0.000    0.000    0.000 
#
# Total GULP energy -356420.017955 kJ/mol
# GULP energy per Si atom -5569.062781 kJ/mol
# Density = 1.876965 g / cm^3
# Si number density = 18.812463 Si / 1000 Ang^3
#
#
#
# Elastic Constant Matrix: (Units=GPa)
#
#
# Indices 1 2 3 4 5 6 
#
# 1 13.3638 11.3972 5.3763 0.0000 0.0000 0.0000
# 2 11.3972 53.2780 -5.1999 0.0000 0.0000 0.0000
# 3 5.3763 -5.1999 22.8506 0.0000 0.0000 0.0000
# 4 0.0000 0.0000 0.0000 -4.6074 0.0000 0.0000
# 5 0.0000 0.0000 0.0000 0.0000 15.6399 0.0000
# 6 0.0000 0.0000 0.0000 0.0000 0.0000 18.4371
#
#
#
# Elastic Compliance Matrix: (Units=1/GPa)
#
#
# Indices 1 2 3 4 5 6 
#
# 1 0.110603 -0.026795 -0.032120 0.000000 0.000000 0.000000
# 2 -0.026795 0.025687 0.012150 0.000000 0.000000 0.000000
# 3 -0.032120 0.012150 0.054085 0.000000 0.000000 0.000000
# 4 0.000000 0.000000 0.000000 -0.217041 0.000000 0.000000
# 5 0.000000 0.000000 0.000000 0.000000 0.063939 0.000000
# 6 0.000000 0.000000 0.000000 0.000000 0.000000 0.054239
#
#
# Mechanical properties :
#
#
# Convention : Reuss Voigt Hill
#
# Bulk Modulus (GPa) = 10.32587 12.51548 11.42068
# Shear Modulus (GPa) = 23.00712 11.08849 17.04781
#
# Velocity S-wave (km/s) = 3.50090 2.43044 3.01358
# Velocity P-wave (km/s) = 4.67359 3.81356 4.26531
#
# Compressibility (1/GPa) = 0.09684414
#
# Stress axis : x y z
#
# Youngs Moduli (GPa) = 9.04133 38.92971 18.48953
#
# Poissons Ratio (x) = 1.04313 0.59389
# Poissons Ratio (y) = 0.24226 -0.22464
# Poissons Ratio (z) = 0.29041 -0.47299
#
# Static dielectric constant tensor:
#      x y z
#    x 1.644630 0.000000 0.000000 
#    y 0.000000 1.716390 0.000000 
#    z 0.000000 0.000000 1.635580 
# 
# From -- ./inp_files/26780.got.cif
#   From: 2010.05.17/outbox.ucp.g08.bks.cvg/sg53_14_cif.got.tgz:26780.got - 2010.06.11 16:32:34.
