data_PCOD9420619
_publ_section_title
;
Structure prediction by ZEFSAII (Michael W. Deem and Ramdas Pophale) SiO2 
 PCOD9420619
Probable space group: P C C A
;
_chemical_formula_sum "Si O2"
_cell_formula_units_Z 36
_cell_length_a 5.702525
_cell_length_b 11.874170
_cell_length_c 22.488010
_cell_angle_alpha 90.000000
_cell_angle_beta 90.000000
_cell_angle_gamma 90.000000
_cell_volume 1522.725028
_symmetry_space_group_name_H-M "P C C A"
_symmetry_group_IT_number 54
_symmetry_cell_setting 'orthorhombic'
loop_
_space_group_symop_operation_xyz
x,y,z
1/2-x,-y,z
1/2+x,-y,1/2-z
-x,y,1/2-z
-x,-y,-z
1/2+x,y,-z
1/2-x,y,1/2+z
x,-y,1/2+z
loop_
_atom_site_type_symbol
_atom_site_label
_atom_site_fract_x
_atom_site_fract_y
_atom_site_fract_z
Si Si1 0.966149 0.721586 0.356511
Si Si2 0.250000 0.500000 0.144972
Si Si3 0.639996 0.390317 0.562441
Si Si4 0.369286 0.822281 0.519109
Si Si5 0.997706 0.037773 0.682609
O O1 0.850586 0.612942 0.324756
O O2 0.834584 0.783905 0.412399
O O3 0.189115 0.669320 0.390032
O O4 0.014999 0.827489 0.315648
O O5 0.438603 0.556273 0.101857
O O6 0.750000 0.500000 0.531601
O O7 0.584988 0.295351 0.515443
O O8 0.629080 0.876515 0.507239
O O9 0.000000 0.989868 0.750000
O O10 0.750000 0.000000 0.653743
O O11 0.250000 0.000000 0.656082
#
# Coordination Sequence:
#
# PCOD9420619 Si02
#       5
#     8   4   8   8   8
#     4  10  21  34  60  88 125 154 201 252 302 355
#     4  10  18  32  54  92 122 170 194 234 296 362
#     4   9  19  30  49  84 126 168 202 233 276 354
#     4  10  19  30  48  81 122 160 197 234 275 346
#     4  10  24  46  73  92 107 149 212 267 307 353
#
# _framework density 23.641828
#
# number of rings (size 3 to 8) (size 9 to 14) (size 15 to 20)
#    0.000    2.222    2.222    0.000    4.667    2.667 
#    0.000    0.000    7.333   16.000    0.000    0.000 
#    0.000    0.000    0.000    0.000    0.000    0.000 
#
# Total GULP energy -200558.484497 kJ/mol
# GULP energy per Si atom -5571.069014 kJ/mol
# Density = 2.358802 g / cm^3
# Si number density = 23.641828 Si / 1000 Ang^3
#
#
#
# Elastic Constant Matrix: (Units=GPa)
#
#
# Indices 1 2 3 4 5 6 
#
# 1 145.6311 56.9792 4.4109 0.0000 0.0000 0.0000
# 2 56.9792 137.2556 14.7450 0.0000 0.0000 0.0000
# 3 4.4109 14.7450 23.6751 0.0000 0.0000 0.0000
# 4 0.0000 0.0000 0.0000 -40.8527 0.0000 0.0000
# 5 0.0000 0.0000 0.0000 0.0000 -5.4592 0.0000
# 6 0.0000 0.0000 0.0000 0.0000 0.0000 32.0597
#
#
#
# Elastic Compliance Matrix: (Units=1/GPa)
#
#
# Indices 1 2 3 4 5 6 
#
# 1 0.008207 -0.003475 0.000635 0.000000 0.000000 0.000000
# 2 -0.003475 0.009280 -0.005132 0.000000 0.000000 0.000000
# 3 0.000635 -0.005132 0.045316 0.000000 0.000000 0.000000
# 4 0.000000 0.000000 0.000000 -0.024478 0.000000 0.000000
# 5 0.000000 0.000000 0.000000 0.000000 -0.183178 0.000000
# 6 0.000000 0.000000 0.000000 0.000000 0.000000 0.031192
#
#
# Mechanical properties :
#
#
# Convention : Reuss Voigt Hill
#
# Bulk Modulus (GPa) = 21.34045 50.98132 36.16088
# Shear Modulus (GPa) = -60.90323 12.51134 -24.19594
#
# Velocity S-wave (km/s) = -5.08102 2.30294 -3.20259
# Velocity P-wave (km/s) = 5.03747 5.35558 1.28571
#
# Compressibility (1/GPa) = 0.04685937
#
# Stress axis : x y z
#
# Youngs Moduli (GPa) = 121.84480 107.76212 22.06711
#
# Poissons Ratio (x) = 0.37451 -0.01402
# Poissons Ratio (y) = 0.42345 0.11325
# Poissons Ratio (z) = -0.07742 0.55303
#
# Static dielectric constant tensor:
#      x y z
#    x 2.102060 0.000000 0.000000 
#    y 0.000000 1.881780 0.000000 
#    z 0.000000 0.000000 1.875750 
# 
# From -- ./inp_files/22701.got.cif
#   From: 2010.05.17/outbox.cif.g08.bks.cpg/sg54_12_cif.got.tgz:22701.got - 2010.06.03 13:09:01.
