data_PCOD9420664
_publ_section_title
;
Structure prediction by ZEFSAII (Michael W. Deem and Ramdas Pophale) SiO2 
 PCOD9420664
Probable space group: P C C A
;
_chemical_formula_sum "Si O2"
_cell_formula_units_Z 40
_cell_length_a 8.204217
_cell_length_b 8.539249
_cell_length_c 26.958932
_cell_angle_alpha 90.000000
_cell_angle_beta 90.000000
_cell_angle_gamma 90.000000
_cell_volume 1888.684863
_symmetry_space_group_name_H-M "P C C A"
_symmetry_group_IT_number 54
_symmetry_cell_setting 'orthorhombic'
loop_
_space_group_symop_operation_xyz
x,y,z
1/2-x,-y,z
1/2+x,-y,1/2-z
-x,y,1/2-z
-x,-y,-z
1/2+x,y,-z
1/2-x,y,1/2+z
x,-y,1/2+z
loop_
_atom_site_type_symbol
_atom_site_label
_atom_site_fract_x
_atom_site_fract_y
_atom_site_fract_z
Si Si1 0.002649 0.859745 0.389964
Si Si2 0.788159 0.812598 0.477367
Si Si3 0.291962 0.323075 0.832843
Si Si4 0.250000 0.000000 0.176903
Si Si5 0.960904 0.779016 0.575952
Si Si6 0.000000 0.842727 0.750000
O O1 0.141930 0.775074 0.357729
O O2 0.945790 0.787465 0.442325
O O3 0.045438 0.040717 0.403838
O O4 0.835431 0.872274 0.358210
O O5 0.827124 0.761505 0.532877
O O6 0.631197 0.744052 0.450467
O O7 0.750000 0.000000 0.479161
O O8 0.250000 0.500000 0.821281
O O9 0.425515 0.324134 0.876557
O O10 0.369719 0.248228 0.783896
O O11 0.394574 0.940654 0.211247
#
# Coordination Sequence:
#
# PCOD9420664 Si02
#       6
#     8   8   8   4   8   4
#     4  11  20  40  67 100 126 166 213 270 320 383
#     4  10  18  33  65 102 134 163 215 265 319 375
#     4  12  27  44  64  92 134 177 216 264 328 390
#     4  12  22  42  72 100 122 154 226 280 334 364
#     4  11  20  39  63  99 130 172 218 265 314 378
#     4  12  26  44  66  94 124 166 220 280 330 384
#
# _framework density 21.178758999999999
#
# number of rings (size 3 to 8) (size 9 to 14) (size 15 to 20)
#    0.000    0.800    5.000    6.600    0.000    1.600 
#    0.000    7.000    0.000    0.000    0.000    0.000 
#    0.000    0.000    0.000    0.000    0.000    0.000 
#
# Total GULP energy -223523.759063 kJ/mol
# GULP energy per Si atom -5588.093977 kJ/mol
# Density = 2.113056 g / cm^3
# Si number density = 21.178759 Si / 1000 Ang^3
#
#
#
# Elastic Constant Matrix: (Units=GPa)
#
#
# Indices 1 2 3 4 5 6 
#
# 1 80.0318 5.0655 12.9444 0.0000 0.0000 0.0000
# 2 5.0655 22.7867 5.9113 0.0000 0.0000 0.0000
# 3 12.9444 5.9113 112.5564 0.0000 0.0000 0.0000
# 4 0.0000 0.0000 0.0000 -7.4787 0.0000 0.0000
# 5 0.0000 0.0000 0.0000 0.0000 55.7192 0.0000
# 6 0.0000 0.0000 0.0000 0.0000 0.0000 10.6607
#
#
#
# Elastic Compliance Matrix: (Units=1/GPa)
#
#
# Indices 1 2 3 4 5 6 
#
# 1 0.012872 -0.002512 -0.001348 0.000000 0.000000 0.000000
# 2 -0.002512 0.044982 -0.002074 0.000000 0.000000 0.000000
# 3 -0.001348 -0.002074 0.009148 0.000000 0.000000 0.000000
# 4 0.000000 0.000000 0.000000 -0.133713 0.000000 0.000000
# 5 0.000000 0.000000 0.000000 0.000000 0.017947 0.000000
# 6 0.000000 0.000000 0.000000 0.000000 0.000000 0.093803
#
#
# Mechanical properties :
#
#
# Convention : Reuss Voigt Hill
#
# Bulk Modulus (GPa) = 18.13735 29.24635 23.69185
# Shear Modulus (GPa) = 66.41449 24.54380 45.47914
#
# Velocity S-wave (km/s) = 5.60599 3.40794 4.63903
# Velocity P-wave (km/s) = 7.10530 5.41522 6.31704
#
# Compressibility (1/GPa) = 0.05513484
#
# Stress axis : x y z
#
# Youngs Moduli (GPa) = 77.68740 22.23134 109.30862
#
# Poissons Ratio (x) = 0.05584 0.14739
# Poissons Ratio (y) = 0.19512 0.22665
# Poissons Ratio (z) = 0.10476 0.04610
#
# Static dielectric constant tensor:
#      x y z
#    x 1.828830 0.000000 0.000000 
#    y 0.000000 1.758210 0.000000 
#    z 0.000000 0.000000 1.732880 
# 
# From -- ./inp_files/23333.got.cif
#   From: 2010.05.17/outbox.cif.g08.bks.cpg/sg54_12_cif.got.tgz:23333.got - 2010.06.03 13:09:01.
