data_PCOD9420133
_publ_section_title
;
Structure prediction by ZEFSAII (Michael W. Deem and Ramdas Pophale) SiO2 
 PCOD9420133
Probable space group: P M N A
;
_chemical_formula_sum "Si O2"
_cell_formula_units_Z 48
_cell_length_a 9.000000
_cell_length_b 15.000000
_cell_length_c 18.000000
_cell_angle_alpha 90.000000
_cell_angle_beta 90.000000
_cell_angle_gamma 90.000000
_cell_volume 2430.000000
_symmetry_space_group_name_H-M "P M N A"
_symmetry_group_IT_number 53
_symmetry_cell_setting 'orthorhombic'
loop_
_space_group_symop_operation_xyz
x,y,z
1/2-x,-y,1/2+z
x,-y,-z
1/2-x,y,1/2-z
-x,-y,-z
1/2+x,y,1/2-z
-x,y,z
1/2+x,-y,1/2+z
loop_
_atom_site_type_symbol
_atom_site_label
_atom_site_fract_x
_atom_site_fract_y
_atom_site_fract_z
Si Si1 0.178864 0.839370 0.331713
Si Si2 0.671224 0.364277 0.440674
Si Si3 0.822358 0.969037 0.668916
Si Si4 0.823142 0.659191 0.404545
Si Si5 0.829900 0.512459 0.181364
Si Si6 0.677978 0.225326 0.168097
O O1 0.250000 0.829651 0.250000
O O2 0.221248 0.760024 0.385892
O O3 0.000000 0.835577 0.322539
O O4 0.219945 0.936116 0.364988
O O5 0.500000 0.338195 0.451577
O O6 0.750604 0.371560 0.519072
O O7 0.672689 0.454088 0.392699
O O8 0.756405 0.295065 0.388781
O O9 0.750000 0.969606 0.750000
O O10 0.784509 0.873295 0.636292
O O11 0.000000 0.969375 0.677151
O O12 0.762648 0.599844 0.337415
O O13 0.000000 0.651998 0.409500
O O14 0.750000 0.464257 0.250000
O O15 0.000000 0.531591 0.200288
O O16 0.750000 0.233639 0.250000
O O17 0.500000 0.234578 0.174933
#
# Coordination Sequence:
#
# PCOD9420133 Si02
#       6
#     8   8   8   8   8   8
#     4   9  18  33  54  81 110 142 181 223 269 321
#     4  11  24  40  57  79 111 148 184 225 273 325
#     4   8  15  29  50  77 108 140 177 222 269 317
#     4  11  23  38  58  83 112 146 182 223 273 327
#     4  11  24  41  61  84 109 140 179 223 271 323
#     4  10  19  33  56  83 110 143 183 227 273 321
#
# _framework density 19.753086
#
# number of rings (size 3 to 8) (size 9 to 14) (size 15 to 20)
#    0.000    2.000    0.000    3.500    0.000    9.333 
#    0.000    0.833    0.000    5.000    0.000    0.000 
#    0.000    0.000    0.000    0.000    0.000    0.000 
#
# Total GULP energy -267641.464789 kJ/mol
# GULP energy per Si atom -5575.863850 kJ/mol
# Density = 1.970813 g / cm^3
# Si number density = 19.753086 Si / 1000 Ang^3
#
#
#
# Elastic Constant Matrix: (Units=GPa)
#
#
# Indices 1 2 3 4 5 6 
#
# 1 74.4784 46.1670 39.5053 0.0000 0.0000 0.0000
# 2 46.1670 87.1264 23.1773 0.0000 0.0000 0.0000
# 3 39.5053 23.1773 75.4296 0.0000 0.0000 0.0000
# 4 0.0000 0.0000 0.0000 45.1507 0.0000 0.0000
# 5 0.0000 0.0000 0.0000 0.0000 24.8894 0.0000
# 6 0.0000 0.0000 0.0000 0.0000 0.0000 15.7863
#
#
#
# Elastic Compliance Matrix: (Units=1/GPa)
#
#
# Indices 1 2 3 4 5 6 
#
# 1 0.025436 -0.010819 -0.009997 0.000000 0.000000 0.000000
# 2 -0.010819 0.017101 0.000412 0.000000 0.000000 0.000000
# 3 -0.009997 0.000412 0.018367 0.000000 0.000000 0.000000
# 4 0.000000 0.000000 0.000000 0.022148 0.000000 0.000000
# 5 0.000000 0.000000 0.000000 0.000000 0.040178 0.000000
# 6 0.000000 0.000000 0.000000 0.000000 0.000000 0.063346
#
#
# Mechanical properties :
#
#
# Convention : Reuss Voigt Hill
#
# Bulk Modulus (GPa) = 49.76477 50.52596 50.14537
# Shear Modulus (GPa) = 21.36001 25.71092 23.53547
#
# Velocity S-wave (km/s) = 3.29196 3.61170 3.45553
# Velocity P-wave (km/s) = 6.30059 6.55949 6.43134
#
# Compressibility (1/GPa) = 0.02009454
#
# Stress axis : x y z
#
# Youngs Moduli (GPa) = 39.31480 58.47725 54.44552
#
# Poissons Ratio (x) = 0.63264 0.54432
# Poissons Ratio (y) = 0.42533 -0.02241
# Poissons Ratio (z) = 0.39305 -0.02406
#
# Static dielectric constant tensor:
#      x y z
#    x 1.655640 0.000000 0.000000 
#    y 0.000000 1.775720 0.000000 
#    z 0.000000 0.000000 1.487740 
# 
# From -- ./inp_files/26194.got.cif
#   From: 2010.05.17/outbox.ucp.g08.bks.cvg/sg53_14_cif.got.tgz:26194.got - 2010.06.11 16:32:34.
