data_PCOD9420952
_publ_section_title
;
Structure prediction by ZEFSAII (Michael W. Deem and Ramdas Pophale) SiO2 
 PCOD9420952
Probable space group: P C C A
;
_chemical_formula_sum "Si O2"
_cell_formula_units_Z 48
_cell_length_a 8.395827
_cell_length_b 16.567910
_cell_length_c 17.434060
_cell_angle_alpha 90.000000
_cell_angle_beta 90.000000
_cell_angle_gamma 90.000000
_cell_volume 2425.100517
_symmetry_space_group_name_H-M "P C C A"
_symmetry_group_IT_number 54
_symmetry_cell_setting 'orthorhombic'
loop_
_space_group_symop_operation_xyz
x,y,z
1/2-x,-y,z
1/2+x,-y,1/2-z
-x,y,1/2-z
-x,-y,-z
1/2+x,y,-z
1/2-x,y,1/2+z
x,-y,1/2+z
loop_
_atom_site_type_symbol
_atom_site_label
_atom_site_fract_x
_atom_site_fract_y
_atom_site_fract_z
Si Si1 0.087048 0.196750 0.824564
Si Si2 0.242595 0.094804 0.453523
Si Si3 0.062931 0.188618 0.064998
Si Si4 0.437069 0.688618 0.564998
Si Si5 0.087048 0.696750 0.824564
Si Si6 0.257405 0.594804 0.953523
O O1 0.139286 0.130088 0.887808
O O2 0.250000 0.250000 0.812327
O O3 0.000000 0.161942 0.750000
O O4 0.955095 0.258539 0.859272
O O5 0.066175 0.118061 0.428347
O O6 0.282456 0.146074 0.530517
O O7 0.250000 0.000000 0.465442
O O8 0.044905 0.241461 0.140728
O O9 0.000000 0.250000 0.000000
O O10 0.566175 0.618061 0.571653
O O11 0.282456 0.646074 0.530517
O O12 0.139286 0.630087 0.887808
O O13 0.000000 0.661942 0.750000
O O14 0.250000 0.500000 0.965443
#
# Coordination Sequence:
#
# PCOD9420952 Si02
#       6
#     8   8   8   8   8   8
#     4   9  19  34  52  73 101 138 177 211 251 310
#     4  10  19  33  53  80 107 131 167 220 265 300
#     4   9  18  33  53  75  99 133 176 211 247 304
#     4   9  18  33  53  75  99 133 176 211 247 304
#     4   9  19  34  52  73 101 138 177 211 251 310
#     4  10  19  33  53  80 107 131 167 220 265 300
#
# _framework density 19.792992999999999
#
# number of rings (size 3 to 8) (size 9 to 14) (size 15 to 20)
#    0.000    2.667    0.000    4.000    0.000    5.333 
#    0.000    6.667    0.000   10.000    0.000    0.000 
#    0.000    0.000    0.000    0.000    0.000    0.000 
#
# Total GULP energy -267276.790750 kJ/mol
# GULP energy per Si atom -5568.266474 kJ/mol
# Density = 1.974794 g / cm^3
# Si number density = 19.792993 Si / 1000 Ang^3
#
#
#
# Elastic Constant Matrix: (Units=GPa)
#
#
# Indices 1 2 3 4 5 6 
#
# 1 65.8915 24.0030 27.0724 0.0000 0.0000 0.0000
# 2 24.0030 91.8333 -0.3207 0.0000 0.0000 0.0000
# 3 27.0724 -0.3207 53.8634 0.0000 0.0000 0.0000
# 4 0.0000 0.0000 0.0000 15.3180 0.0000 0.0000
# 5 0.0000 0.0000 0.0000 0.0000 33.7147 0.0000
# 6 0.0000 0.0000 0.0000 0.0000 0.0000 18.7271
#
#
#
# Elastic Compliance Matrix: (Units=1/GPa)
#
#
# Indices 1 2 3 4 5 6 
#
# 1 0.021774 -0.005730 -0.010978 0.000000 0.000000 0.000000
# 2 -0.005730 0.012397 0.002954 0.000000 0.000000 0.000000
# 3 -0.010978 0.002954 0.024101 0.000000 0.000000 0.000000
# 4 0.000000 0.000000 0.000000 0.065283 0.000000 0.000000
# 5 0.000000 0.000000 0.000000 0.000000 0.029661 0.000000
# 6 0.000000 0.000000 0.000000 0.000000 0.000000 0.053399
#
#
# Mechanical properties :
#
#
# Convention : Reuss Voigt Hill
#
# Bulk Modulus (GPa) = 32.50557 34.78863 33.64710
# Shear Modulus (GPa) = 20.46019 24.27417 22.36718
#
# Velocity S-wave (km/s) = 3.21862 3.50580 3.36528
# Velocity P-wave (km/s) = 5.50192 5.83112 5.66891
#
# Compressibility (1/GPa) = 0.03076396
#
# Stress axis : x y z
#
# Youngs Moduli (GPa) = 45.92606 80.66344 41.49239
#
# Poissons Ratio (x) = 0.46217 0.45551
# Poissons Ratio (y) = 0.26314 -0.12255
# Poissons Ratio (z) = 0.50418 -0.23825
#
# Static dielectric constant tensor:
#      x y z
#    x 1.789200 0.000000 0.000000 
#    y 0.000000 1.650480 0.000000 
#    z 0.000000 0.000000 1.732590 
# 
# From -- ./inp_files/16632.got.cif
#   From: 2010.05.17/outbox.cif.g08.bks.cpg/sg54_9_cif.got.tgz:16632.got - 2010.06.03 13:09:01.
