data_PCOD9420340
_publ_section_title
;
Structure prediction by ZEFSAII (Michael W. Deem and Ramdas Pophale) SiO2 
 PCOD9420340
Probable space group: P C C A
;
_chemical_formula_sum "Si O2"
_cell_formula_units_Z 48
_cell_length_a 13.702589
_cell_length_b 24.948032
_cell_length_c 5.492487
_cell_angle_alpha 90.000000
_cell_angle_beta 90.000000
_cell_angle_gamma 90.000000
_cell_volume 1877.621120
_symmetry_space_group_name_H-M "P C C A"
_symmetry_group_IT_number 54
_symmetry_cell_setting 'orthorhombic'
loop_
_space_group_symop_operation_xyz
x,y,z
1/2-x,-y,z
1/2+x,-y,1/2-z
-x,y,1/2-z
-x,-y,-z
1/2+x,y,-z
1/2-x,y,1/2+z
x,-y,1/2+z
loop_
_atom_site_type_symbol
_atom_site_label
_atom_site_fract_x
_atom_site_fract_y
_atom_site_fract_z
Si Si1 0.865765 0.308798 0.333747
Si Si2 0.861190 0.021095 0.658989
Si Si3 0.645946 0.348813 0.336531
Si Si4 0.134736 0.812129 0.844165
Si Si5 0.140614 0.852921 0.345984
Si Si6 0.382667 0.469146 0.255630
O O1 0.750035 0.319611 0.365645
O O2 0.904846 0.321353 0.603300
O O3 0.879249 0.248624 0.241599
O O4 0.899374 0.345384 0.106745
O O5 0.858003 0.084236 0.710642
O O6 0.750000 0.000000 0.636912
O O7 0.904005 0.008306 0.394265
O O8 0.662511 0.410346 0.265166
O O9 0.097457 0.845956 0.614773
O O10 0.249528 0.828552 0.868682
O O11 0.095664 0.823101 0.113599
O O12 0.500000 0.461340 0.250000
O O13 0.358783 0.496838 0.513215
#
# Coordination Sequence:
#
# PCOD9420340 Si02
#       6
#     8   8   8   8   8   8
#     4  10  19  30  45  67  92 114 136 174 223 257
#     4  10  16  22  28  39  59  85 124 175 220 238
#     4  10  18  32  48  67  90 114 139 168 213 257
#     4  10  16  25  36  51  73  98 129 162 206 252
#     4  10  16  22  33  46  63  96 132 167 213 247
#     4  10  21  37  54  70  89 115 146 176 204 241
#
# _framework density 25.564264000000001
#
# number of rings (size 3 to 8) (size 9 to 14) (size 15 to 20)
#    0.000    2.000    0.000   11.000    0.000    0.000 
#    0.000   10.000    0.000    0.000    0.000    0.000 
#    0.000    0.000    0.000    0.000    0.000    0.000 
#
# Total GULP energy -268580.901814 kJ/mol
# GULP energy per Si atom -5595.435454 kJ/mol
# Density = 2.550608 g / cm^3
# Si number density = 25.564264 Si / 1000 Ang^3
#
#
#
# Elastic Constant Matrix: (Units=GPa)
#
#
# Indices 1 2 3 4 5 6 
#
# 1 92.4076 -26.6947 20.0743 0.0000 0.0000 0.0000
# 2 -26.6947 141.3874 31.8024 0.0000 0.0000 0.0000
# 3 20.0743 31.8024 263.4210 0.0000 0.0000 0.0000
# 4 0.0000 0.0000 0.0000 54.7560 0.0000 0.0000
# 5 0.0000 0.0000 0.0000 0.0000 35.1640 0.0000
# 6 0.0000 0.0000 0.0000 0.0000 0.0000 -42.5087
#
#
#
# Elastic Compliance Matrix: (Units=1/GPa)
#
#
# Indices 1 2 3 4 5 6 
#
# 1 0.011804 0.002499 -0.001201 0.000000 0.000000 0.000000
# 2 0.002499 0.007799 -0.001132 0.000000 0.000000 0.000000
# 3 -0.001201 -0.001132 0.004024 0.000000 0.000000 0.000000
# 4 0.000000 0.000000 0.000000 0.018263 0.000000 0.000000
# 5 0.000000 0.000000 0.000000 0.000000 0.028438 0.000000
# 6 0.000000 0.000000 0.000000 0.000000 0.000000 -0.023525
#
#
# Mechanical properties :
#
#
# Convention : Reuss Voigt Hill
#
# Bulk Modulus (GPa) = 41.73724 60.84221 51.28973
# Shear Modulus (GPa) = 91.81108 40.95119 66.38113
#
# Velocity S-wave (km/s) = 5.99932 4.00671 5.10125
# Velocity P-wave (km/s) = 8.02190 6.72728 7.40295
#
# Compressibility (1/GPa) = 0.02395942
#
# Stress axis : x y z
#
# Youngs Moduli (GPa) = 84.71367 128.21817 248.48329
#
# Poissons Ratio (x) = -0.32041 0.29849
# Poissons Ratio (y) = -0.21170 0.28129
# Poissons Ratio (z) = 0.10176 0.14515
#
# Static dielectric constant tensor:
#      x y z
#    x 2.378790 0.000000 0.000000 
#    y 0.000000 1.910320 0.000000 
#    z 0.000000 0.000000 2.064430 
# 
# From -- ./inp_files/1343.got.cif
#   From: 2010.05.17/outbox.cif.g08.bks.cpg/sg54_1_cif.got.tgz:1343.got - 2010.06.03 13:09:01.
