data_PCOD9420284
_publ_section_title
;
Structure prediction by ZEFSAII (Michael W. Deem and Ramdas Pophale) SiO2 
 PCOD9420284
Probable space group: P M N A
;
_chemical_formula_sum "Si O2"
_cell_formula_units_Z 56
_cell_length_a 15.000000
_cell_length_b 12.000000
_cell_length_c 15.000000
_cell_angle_alpha 90.000000
_cell_angle_beta 90.000000
_cell_angle_gamma 90.000000
_cell_volume 2700.000000
_symmetry_space_group_name_H-M "P M N A"
_symmetry_group_IT_number 53
_symmetry_cell_setting 'orthorhombic'
loop_
_space_group_symop_operation_xyz
x,y,z
1/2-x,-y,1/2+z
x,-y,-z
1/2-x,y,1/2-z
-x,-y,-z
1/2+x,y,1/2-z
-x,y,z
1/2+x,-y,1/2+z
loop_
_atom_site_type_symbol
_atom_site_label
_atom_site_fract_x
_atom_site_fract_y
_atom_site_fract_z
Si Si1 0.600165 0.985957 0.266279
Si Si2 0.754633 0.336726 0.357039
Si Si3 0.754182 0.399676 0.856980
Si Si4 0.100772 0.828782 0.909874
Si Si5 0.642082 0.803052 0.393063
Si Si6 0.827485 0.921034 0.417121
Si Si7 0.603524 0.700184 0.012180
O O1 0.500000 0.018661 0.244503
O O2 0.600654 0.861157 0.306790
O O3 0.650338 0.986924 0.172961
O O4 0.628689 0.067433 0.346997
O O5 0.750000 0.313583 0.250000
O O6 0.737643 0.468175 0.367977
O O7 0.674205 0.265346 0.396960
O O8 0.842758 0.307343 0.417025
O O9 0.750000 0.375658 0.750000
O O10 0.840318 0.328918 0.889924
O O11 0.666625 0.364818 0.915551
O O12 0.000000 0.796620 0.883672
O O13 0.099212 0.848168 0.016096
O O14 0.741584 0.849826 0.393640
O O15 0.896481 0.827789 0.451859
O O16 0.808953 0.000000 0.500000
O O17 0.500000 0.662084 0.006064
#
# Coordination Sequence:
#
# PCOD9420284 Si02
#       7
#     8   8   8   8   8   8   8
#     4  11  24  39  61  93 130 167 216 273 326 399
#     4  11  25  44  67  95 136 178 227 283 343 402
#     4  10  22  43  68  96 135 174 221 285 342 400
#     4  11  24  42  65  95 132 176 220 267 334 407
#     4  11  21  39  67  92 123 169 219 266 325 399
#     4  11  23  39  62  92 133 172 214 267 334 393
#     4  11  24  43  72 101 134 180 231 284 345 411
#
# _framework density 20.740741
#
# number of rings (size 3 to 8) (size 9 to 14) (size 15 to 20)
#    0.000    1.143    2.857    4.714    2.000    4.000 
#    0.000    5.000    0.000    0.000    0.000    0.000 
#    0.000    0.000    0.000    0.000    0.000    0.000 
#
# Total GULP energy -312468.294241 kJ/mol
# GULP energy per Si atom -5579.790969 kJ/mol
# Density = 2.069353 g / cm^3
# Si number density = 20.740741 Si / 1000 Ang^3
#
#
#
# Elastic Constant Matrix: (Units=GPa)
#
#
# Indices 1 2 3 4 5 6 
#
# 1 106.0681 11.5150 25.8843 0.0000 0.0000 0.0000
# 2 11.5150 30.7999 -5.7706 0.0000 0.0000 0.0000
# 3 25.8843 -5.7706 123.0549 0.0000 0.0000 0.0000
# 4 0.0000 0.0000 0.0000 26.1490 0.0000 0.0000
# 5 0.0000 0.0000 0.0000 0.0000 41.1873 0.0000
# 6 0.0000 0.0000 0.0000 0.0000 0.0000 14.0895
#
#
#
# Elastic Compliance Matrix: (Units=1/GPa)
#
#
# Indices 1 2 3 4 5 6 
#
# 1 0.010491 -0.004374 -0.002412 0.000000 0.000000 0.000000
# 2 -0.004374 0.034579 0.002542 0.000000 0.000000 0.000000
# 3 -0.002412 0.002542 0.008753 0.000000 0.000000 0.000000
# 4 0.000000 0.000000 0.000000 0.038242 0.000000 0.000000
# 5 0.000000 0.000000 0.000000 0.000000 0.024279 0.000000
# 6 0.000000 0.000000 0.000000 0.000000 0.000000 0.070975
#
#
# Mechanical properties :
#
#
# Convention : Reuss Voigt Hill
#
# Bulk Modulus (GPa) = 22.05822 35.90891 28.98356
# Shear Modulus (GPa) = 23.70557 31.50477 27.60517
#
# Velocity S-wave (km/s) = 3.38442 3.90164 3.65220
# Velocity P-wave (km/s) = 5.09222 6.13578 5.63820
#
# Compressibility (1/GPa) = 0.04533458
#
# Stress axis : x y z
#
# Youngs Moduli (GPa) = 95.31620 28.91905 114.24658
#
# Poissons Ratio (x) = 0.12650 0.27556
# Poissons Ratio (y) = 0.41694 -0.29038
# Poissons Ratio (z) = 0.22990 -0.07350
#
# Static dielectric constant tensor:
#      x y z
#    x 1.782360 0.000000 0.000000 
#    y 0.000000 1.785490 0.000000 
#    z 0.000000 0.000000 1.775180 
# 
# From -- ./inp_files/22802.got.cif
#   From: 2010.05.17/outbox.ucp.g08.bks.cvg/sg53_12_cif.got.tgz:22802.got - 2010.06.11 16:32:34.
