data_PCOD9420602
_publ_section_title
;
Structure prediction by ZEFSAII (Michael W. Deem and Ramdas Pophale) SiO2 
 PCOD9420602
Probable space group: P C C A
;
_chemical_formula_sum "Si O2"
_cell_formula_units_Z 60
_cell_length_a 27.630141
_cell_length_b 4.939620
_cell_length_c 19.395047
_cell_angle_alpha 90.000000
_cell_angle_beta 90.000000
_cell_angle_gamma 90.000000
_cell_volume 2647.082506
_symmetry_space_group_name_H-M "P C C A"
_symmetry_group_IT_number 54
_symmetry_cell_setting 'orthorhombic'
loop_
_space_group_symop_operation_xyz
x,y,z
1/2-x,-y,z
1/2+x,-y,1/2-z
-x,y,1/2-z
-x,-y,-z
1/2+x,y,-z
1/2-x,y,1/2+z
x,-y,1/2+z
loop_
_atom_site_type_symbol
_atom_site_label
_atom_site_fract_x
_atom_site_fract_y
_atom_site_fract_z
Si Si1 0.491730 0.288552 0.058585
Si Si2 0.068991 0.163725 0.666776
Si Si3 0.081794 0.017456 0.962327
Si Si4 0.700334 0.666876 0.859236
Si Si5 0.500000 0.779253 0.250000
Si Si6 0.649661 0.848670 0.419402
Si Si7 0.401862 0.341693 0.833395
Si Si8 0.356483 0.803488 0.772450
O O1 0.458076 0.383019 0.120429
O O2 0.544972 0.201649 0.082022
O O3 0.500000 0.500000 0.000000
O O4 0.456070 0.068551 0.023042
O O5 0.108653 0.980026 0.629119
O O6 0.099089 0.301898 0.725848
O O7 0.028067 0.972991 0.696924
O O8 0.093433 0.773733 0.911249
O O9 0.127170 0.138556 0.003669
O O10 0.750000 0.500000 0.860719
O O11 0.693472 0.938815 0.904877
O O12 0.687941 0.754735 0.779844
O O13 0.662899 0.448317 0.892337
O O14 0.544153 0.651993 0.202926
O O15 0.365996 0.601913 0.835364
O O16 0.370407 0.108139 0.792764
#
# Coordination Sequence:
#
# PCOD9420602 Si02
#       8
#     8   8   8   8   4   8   8   8
#     4  10  21  34  55  80 117 170 216 245 276 335
#     4   9  19  36  50  84 121 154 206 239 290 327
#     4  10  23  37  54  86 123 169 208 244 295 346
#     4  11  22  43  70  93 113 143 193 255 321 375
#     4  10  18  32  50  74 114 160 202 236 262 326
#     4  10  23  38  63  92 121 153 192 256 301 361
#     4  11  23  37  56  82 122 165 200 236 284 343
#     4  10  23  38  58  86 117 151 193 250 295 351
#
# _framework density 22.666464999999999
#
# number of rings (size 3 to 8) (size 9 to 14) (size 15 to 20)
#    0.000    1.867    1.333    2.800    7.467    3.200 
#    0.000    0.000    0.000    4.800    0.000    0.000 
#    0.000    0.000    0.000    0.000    0.000    0.000 
#
# Total GULP energy -334377.456056 kJ/mol
# GULP energy per Si atom -5572.957601 kJ/mol
# Density = 2.261488 g / cm^3
# Si number density = 22.666465 Si / 1000 Ang^3
#
#
#
# Elastic Constant Matrix: (Units=GPa)
#
#
# Indices 1 2 3 4 5 6 
#
# 1 71.2648 4.3134 13.9356 0.0000 0.0000 0.0000
# 2 4.3134 56.2804 -15.6139 0.0000 0.0000 0.0000
# 3 13.9356 -15.6139 40.4885 0.0000 0.0000 0.0000
# 4 0.0000 0.0000 0.0000 31.9990 0.0000 0.0000
# 5 0.0000 0.0000 0.0000 0.0000 18.8518 0.0000
# 6 0.0000 0.0000 0.0000 0.0000 0.0000 31.2136
#
#
#
# Elastic Compliance Matrix: (Units=1/GPa)
#
#
# Indices 1 2 3 4 5 6 
#
# 1 0.015480 -0.002984 -0.006479 0.000000 0.000000 0.000000
# 2 -0.002984 0.020472 0.008922 0.000000 0.000000 0.000000
# 3 -0.006479 0.008922 0.030369 0.000000 0.000000 0.000000
# 4 0.000000 0.000000 0.000000 0.031251 0.000000 0.000000
# 5 0.000000 0.000000 0.000000 0.000000 0.053045 0.000000
# 6 0.000000 0.000000 0.000000 0.000000 0.000000 0.032037
#
#
# Mechanical properties :
#
#
# Convention : Reuss Voigt Hill
#
# Bulk Modulus (GPa) = 15.32815 19.25597 17.29206
# Shear Modulus (GPa) = 24.33311 27.43945 25.88628
#
# Velocity S-wave (km/s) = 3.28003 3.48311 3.38309
# Velocity P-wave (km/s) = 4.59586 4.96889 4.78601
#
# Compressibility (1/GPa) = 0.06523943
#
# Stress axis : x y z
#
# Youngs Moduli (GPa) = 64.60106 48.84718 32.92860
#
# Poissons Ratio (x) = 0.14575 0.21333
# Poissons Ratio (y) = 0.19275 -0.29378
# Poissons Ratio (z) = 0.41852 -0.43580
#
# Static dielectric constant tensor:
#      x y z
#    x 1.924240 0.000000 0.000000 
#    y 0.000000 2.006280 0.000000 
#    z 0.000000 0.000000 2.010700 
# 
# From -- ./inp_files/22337.got.cif
#   From: 2010.05.17/outbox.cif.g08.bks.cpg/sg54_12_cif.got.tgz:22337.got - 2010.06.03 13:09:01.
