data_PCOD9420832
_publ_section_title
;
Structure prediction by ZEFSAII (Michael W. Deem and Ramdas Pophale) SiO2 
 PCOD9420832
Probable space group: P C C A
;
_chemical_formula_sum "Si O2"
_cell_formula_units_Z 40
_cell_length_a 5.011100
_cell_length_b 25.039916
_cell_length_c 14.340073
_cell_angle_alpha 90.000000
_cell_angle_beta 90.000000
_cell_angle_gamma 90.000000
_cell_volume 1799.356841
_symmetry_space_group_name_H-M "P C C A"
_symmetry_group_IT_number 54
_symmetry_cell_setting 'orthorhombic'
loop_
_space_group_symop_operation_xyz
x,y,z
1/2-x,-y,z
1/2+x,-y,1/2-z
-x,y,1/2-z
-x,-y,-z
1/2+x,y,-z
1/2-x,y,1/2+z
x,-y,1/2+z
loop_
_atom_site_type_symbol
_atom_site_label
_atom_site_fract_x
_atom_site_fract_y
_atom_site_fract_z
Si Si1 0.045641 0.278097 0.860593
Si Si2 0.953430 0.664610 0.860443
Si Si3 0.209315 0.441681 0.562669
Si Si4 0.769465 0.830234 0.563391
Si Si5 0.325961 0.055172 0.434193
O O1 0.251816 0.322876 0.897750
O O2 0.178361 0.221274 0.879928
O O3 0.000000 0.283126 0.750000
O O4 0.750819 0.290385 0.897919
O O5 0.000000 0.669496 0.750000
O O6 0.812407 0.608354 0.878960
O O7 0.250000 0.500000 0.607805
O O8 0.405785 0.439954 0.472421
O O9 0.571043 0.829401 0.473657
O O10 0.720815 0.887464 0.612549
O O11 0.621874 0.054652 0.477034
O O12 0.250000 0.000000 0.382968
#
# Coordination Sequence:
#
# PCOD9420832 Si02
#       5
#     8   8   8   8   8
#     4  10  21  35  50  72 104 136 165 205 255 298
#     4  10  21  37  54  74 101 135 172 203 242 301
#     4  10  21  37  56  79 105 131 162 205 256 300
#     4  10  19  30  48  75  99 126 171 212 246 299
#     4   8  14  25  41  64  94 123 154 199 247 286
#
# _framework density 22.230167000000002
#
# number of rings (size 3 to 8) (size 9 to 14) (size 15 to 20)
#    0.000    2.400    0.000    2.400    0.000    4.800 
#    0.000    6.000    0.000    0.000    0.000   18.200 
#    0.000    0.000    0.000    0.000    0.000    0.000 
#
# Total GULP energy -223032.892473 kJ/mol
# GULP energy per Si atom -5575.822312 kJ/mol
# Density = 2.217957 g / cm^3
# Si number density = 22.230167 Si / 1000 Ang^3
#
#
#
# Elastic Constant Matrix: (Units=GPa)
#
#
# Indices 1 2 3 4 5 6 
#
# 1 97.6536 38.6214 5.3104 0.0000 0.0000 0.0000
# 2 38.6214 174.6108 -2.2838 0.0000 0.0000 0.0000
# 3 5.3104 -2.2838 25.9485 0.0000 0.0000 0.0000
# 4 0.0000 0.0000 0.0000 0.8919 0.0000 0.0000
# 5 0.0000 0.0000 0.0000 0.0000 16.7966 0.0000
# 6 0.0000 0.0000 0.0000 0.0000 0.0000 37.9200
#
#
#
# Elastic Compliance Matrix: (Units=1/GPa)
#
#
# Indices 1 2 3 4 5 6 
#
# 1 0.011389 -0.002552 -0.002555 0.000000 0.000000 0.000000
# 2 -0.002552 0.006306 0.001077 0.000000 0.000000 0.000000
# 3 -0.002555 0.001077 0.039156 0.000000 0.000000 0.000000
# 4 0.000000 0.000000 0.000000 1.121224 0.000000 0.000000
# 5 0.000000 0.000000 0.000000 0.000000 0.059536 0.000000
# 6 0.000000 0.000000 0.000000 0.000000 0.000000 0.026371
#
#
# Mechanical properties :
#
#
# Convention : Reuss Voigt Hill
#
# Bulk Modulus (GPa) = 20.49641 42.38988 31.44315
# Shear Modulus (GPa) = 3.88107 28.22602 16.05354
#
# Velocity S-wave (km/s) = 1.32274 3.56717 2.69020
# Velocity P-wave (km/s) = 3.40191 6.00636 4.88105
#
# Compressibility (1/GPa) = 0.04878903
#
# Stress axis : x y z
#
# Youngs Moduli (GPa) = 87.80618 158.58727 25.53914
#
# Poissons Ratio (x) = 0.40478 0.06526
# Poissons Ratio (y) = 0.22412 -0.02751
# Poissons Ratio (z) = 0.22438 -0.17085
#
# Static dielectric constant tensor:
#      x y z
#    x 1.807910 0.000000 0.000000 
#    y 0.000000 1.907870 0.000000 
#    z 0.000000 0.000000 1.789310 
# 
# From -- ./inp_files/10848.got.cif
#   From: 2010.05.17/outbox.cif.g08.bks.cpg/sg54_6_cif.got.tgz:10848.got - 2010.06.03 13:09:01.
