data_PCOD9420554
_publ_section_title
;
Structure prediction by ZEFSAII (Michael W. Deem and Ramdas Pophale) SiO2 
 PCOD9420554
Probable space group: P C C A
;
_chemical_formula_sum "Si O2"
_cell_formula_units_Z 64
_cell_length_a 11.509536
_cell_length_b 7.785110
_cell_length_c 31.398569
_cell_angle_alpha 90.000000
_cell_angle_beta 90.000000
_cell_angle_gamma 90.000000
_cell_volume 2813.406098
_symmetry_space_group_name_H-M "P C C A"
_symmetry_group_IT_number 54
_symmetry_cell_setting 'orthorhombic'
loop_
_space_group_symop_operation_xyz
x,y,z
1/2-x,-y,z
1/2+x,-y,1/2-z
-x,y,1/2-z
-x,-y,-z
1/2+x,y,-z
1/2-x,y,1/2+z
x,-y,1/2+z
loop_
_atom_site_type_symbol
_atom_site_label
_atom_site_fract_x
_atom_site_fract_y
_atom_site_fract_z
Si Si1 0.684419 0.733452 0.031022
Si Si2 0.376291 0.206489 0.728094
Si Si3 0.875635 0.182481 0.740925
Si Si4 0.618650 0.384366 0.076178
Si Si5 0.012362 0.059052 0.074528
Si Si6 0.643685 0.128475 0.141785
Si Si7 0.862779 0.274923 0.936881
Si Si8 0.693004 0.193542 0.867635
O O1 0.649806 0.572616 0.060792
O O2 0.816001 0.759382 0.046838
O O3 0.586646 0.870771 0.043535
O O4 0.690587 0.678707 0.982184
O O5 0.500000 0.263142 0.750000
O O6 0.252291 0.261478 0.749576
O O7 0.356589 0.247594 0.678208
O O8 0.379176 0.997812 0.733094
O O9 0.877699 0.134332 0.691462
O O10 0.000000 0.273894 0.750000
O O11 0.655022 0.320151 0.122944
O O12 0.483258 0.369639 0.068760
O O13 0.088728 0.200630 0.098202
O O14 0.958482 0.954493 0.114303
O O15 0.104664 0.926296 0.055437
O O16 0.750000 0.000000 0.133863
O O17 0.792462 0.294436 0.893237
O O18 0.750000 0.000000 0.862864
#
# Coordination Sequence:
#
# PCOD9420554 Si02
#       8
#     8   8   8   8   8   8   8   8
#     4  11  22  41  58  87 114 164 215 259 328 369
#     4  10  18  29  49  85 130 166 191 245 322 391
#     4  10  19  29  55  87 126 161 194 254 316 388
#     4  10  24  39  61  82 124 159 208 269 311 395
#     4  10  21  36  60  84 122 156 202 267 306 382
#     4  11  19  36  56  93 122 154 207 255 320 372
#     4  10  23  38  60  85 117 163 206 266 316 379
#     4  10  20  36  54  88 133 162 199 254 332 370
#
# _framework density 22.748225000000001
#
# number of rings (size 3 to 8) (size 9 to 14) (size 15 to 20)
#    0.000    1.750    3.750    2.250    5.250    0.000 
#    6.750    0.000    0.000    0.000    0.000    7.000 
#    0.000    0.000    0.000    0.000    0.000    0.000 
#
# Total GULP energy -356699.028867 kJ/mol
# GULP energy per Si atom -5573.422326 kJ/mol
# Density = 2.269645 g / cm^3
# Si number density = 22.748225 Si / 1000 Ang^3
#
#
#
# Elastic Constant Matrix: (Units=GPa)
#
#
# Indices 1 2 3 4 5 6 
#
# 1 145.6496 18.5187 40.4579 0.0000 0.0000 0.0000
# 2 18.5187 39.5637 22.0879 0.0000 0.0000 0.0000
# 3 40.4579 22.0879 104.9964 0.0000 0.0000 0.0000
# 4 0.0000 0.0000 0.0000 8.6159 0.0000 0.0000
# 5 0.0000 0.0000 0.0000 0.0000 11.4380 0.0000
# 6 0.0000 0.0000 0.0000 0.0000 0.0000 17.4701
#
#
#
# Elastic Compliance Matrix: (Units=1/GPa)
#
#
# Indices 1 2 3 4 5 6 
#
# 1 0.007862 -0.002253 -0.002555 0.000000 0.000000 0.000000
# 2 -0.002253 0.029285 -0.005292 0.000000 0.000000 0.000000
# 3 -0.002555 -0.005292 0.011622 0.000000 0.000000 0.000000
# 4 0.000000 0.000000 0.000000 0.116064 0.000000 0.000000
# 5 0.000000 0.000000 0.000000 0.000000 0.087428 0.000000
# 6 0.000000 0.000000 0.000000 0.000000 0.000000 0.057241
#
#
# Mechanical properties :
#
#
# Convention : Reuss Voigt Hill
#
# Bulk Modulus (GPa) = 35.00541 50.25984 42.63263
# Shear Modulus (GPa) = 14.73941 21.44782 18.09362
#
# Velocity S-wave (km/s) = 2.54822 3.07389 2.82332
# Velocity P-wave (km/s) = 4.90709 5.89409 5.42309
#
# Compressibility (1/GPa) = 0.02856701
#
# Stress axis : x y z
#
# Youngs Moduli (GPa) = 127.19183 34.14703 86.04246
#
# Poissons Ratio (x) = 0.07695 0.21988
# Poissons Ratio (y) = 0.28661 0.45537
# Poissons Ratio (z) = 0.32503 0.18072
#
# Static dielectric constant tensor:
#      x y z
#    x 1.994480 0.000000 0.000000 
#    y 0.000000 1.927820 0.000000 
#    z 0.000000 0.000000 1.816740 
# 
# From -- ./inp_files/28140.got.cif
#   From: 2010.05.17/outbox.cif.g08.bks.cpg/sg54_15_cif.got.tgz:28140.got - 2010.06.03 13:09:01.
