data_PCOD9420603
_publ_section_title
;
Structure prediction by ZEFSAII (Michael W. Deem and Ramdas Pophale) SiO2 
 PCOD9420603
Probable space group: P C C A
;
_chemical_formula_sum "Si O2"
_cell_formula_units_Z 36
_cell_length_a 8.298701
_cell_length_b 10.664637
_cell_length_c 18.323428
_cell_angle_alpha 90.000000
_cell_angle_beta 90.000000
_cell_angle_gamma 90.000000
_cell_volume 1621.671637
_symmetry_space_group_name_H-M "P C C A"
_symmetry_group_IT_number 54
_symmetry_cell_setting 'orthorhombic'
loop_
_space_group_symop_operation_xyz
x,y,z
1/2-x,-y,z
1/2+x,-y,1/2-z
-x,y,1/2-z
-x,-y,-z
1/2+x,y,-z
1/2-x,y,1/2+z
x,-y,1/2+z
loop_
_atom_site_type_symbol
_atom_site_label
_atom_site_fract_x
_atom_site_fract_y
_atom_site_fract_z
Si Si1 0.847982 0.267524 0.579875
Si Si2 0.403071 0.679936 0.132098
Si Si3 0.750000 0.500000 0.479827
Si Si4 0.734758 0.647731 0.221811
Si Si5 0.452970 0.137931 0.975693
O O1 0.765338 0.385223 0.537770
O O2 0.860947 0.295222 0.665127
O O3 0.721568 0.156691 0.560289
O O4 0.017869 0.230708 0.544594
O O5 0.377791 0.558092 0.079727
O O6 0.568235 0.668445 0.177475
O O7 0.272516 0.695577 0.195742
O O8 0.421985 0.801942 0.082087
O O9 0.750000 0.500000 0.228648
O O10 0.500000 0.000000 0.000000
#
# Coordination Sequence:
#
# PCOD9420603 Si02
#       5
#     8   8   4   8   8
#     4  10  21  32  59  83 113 143 190 234 285 339
#     4   9  20  32  53  79 116 146 178 232 286 332
#     4  10  18  32  50  88 114 138 176 236 288 332
#     4  10  18  32  52  84 113 147 175 221 294 355
#     4  10  21  38  57  79 109 153 196 236 271 325
#
# _framework density 22.199314000000001
#
# number of rings (size 3 to 8) (size 9 to 14) (size 15 to 20)
#    0.000    2.222    2.222    0.667    3.111    2.667 
#    0.000    0.000    0.000   40.000    0.000    0.000 
#    0.000    0.000    0.000    0.000    0.000    0.000 
#
# Total GULP energy -200572.601164 kJ/mol
# GULP energy per Si atom -5571.461143 kJ/mol
# Density = 2.214879 g / cm^3
# Si number density = 22.199314 Si / 1000 Ang^3
#
#
#
# Elastic Constant Matrix: (Units=GPa)
#
#
# Indices 1 2 3 4 5 6 
#
# 1 37.2571 3.0134 8.8881 0.0000 0.0000 0.0000
# 2 3.0134 108.6344 29.1068 0.0000 0.0000 0.0000
# 3 8.8881 29.1068 155.6050 0.0000 0.0000 0.0000
# 4 0.0000 0.0000 0.0000 24.8209 0.0000 0.0000
# 5 0.0000 0.0000 0.0000 0.0000 23.8446 0.0000
# 6 0.0000 0.0000 0.0000 0.0000 0.0000 23.5359
#
#
#
# Elastic Compliance Matrix: (Units=1/GPa)
#
#
# Indices 1 2 3 4 5 6 
#
# 1 0.027224 -0.000356 -0.001488 0.000000 0.000000 0.000000
# 2 -0.000356 0.009696 -0.001793 0.000000 0.000000 0.000000
# 3 -0.001488 -0.001793 0.006847 0.000000 0.000000 0.000000
# 4 0.000000 0.000000 0.000000 0.040289 0.000000 0.000000
# 5 0.000000 0.000000 0.000000 0.000000 0.041938 0.000000
# 6 0.000000 0.000000 0.000000 0.000000 0.000000 0.042488
#
#
# Mechanical properties :
#
#
# Convention : Reuss Voigt Hill
#
# Bulk Modulus (GPa) = 27.40409 42.61256 35.00833
# Shear Modulus (GPa) = 26.60684 31.80618 29.20651
#
# Velocity S-wave (km/s) = 3.46575 3.78928 3.63112
# Velocity P-wave (km/s) = 5.32791 6.19532 5.77792
#
# Compressibility (1/GPa) = 0.03649090
#
# Stress axis : x y z
#
# Youngs Moduli (GPa) = 36.73174 103.14021 146.04968
#
# Poissons Ratio (x) = 0.03676 0.21738
# Poissons Ratio (y) = 0.01309 0.26190
# Poissons Ratio (z) = 0.05467 0.18496
#
# Static dielectric constant tensor:
#      x y z
#    x 1.974210 0.000000 0.000000 
#    y 0.000000 1.803310 0.000000 
#    z 0.000000 0.000000 1.899150 
# 
# From -- ./inp_files/17183.got.cif
#   From: 2010.05.17/outbox.cif.g08.bks.cpg/sg54_9_cif.got.tgz:17183.got - 2010.06.03 13:09:01.
