data_PCOD9420167
_publ_section_title
;
Structure prediction by ZEFSAII (Michael W. Deem and Ramdas Pophale) SiO2 
 PCOD9420167
Probable space group: P M N A
;
_chemical_formula_sum "Si O2"
_cell_formula_units_Z 64
_cell_length_a 9.000000
_cell_length_b 15.000000
_cell_length_c 24.000000
_cell_angle_alpha 90.000000
_cell_angle_beta 90.000000
_cell_angle_gamma 90.000000
_cell_volume 3240.000000
_symmetry_space_group_name_H-M "P M N A"
_symmetry_group_IT_number 53
_symmetry_cell_setting 'orthorhombic'
loop_
_space_group_symop_operation_xyz
x,y,z
1/2-x,-y,1/2+z
x,-y,-z
1/2-x,y,1/2-z
-x,-y,-z
1/2+x,y,1/2-z
-x,y,z
1/2+x,-y,1/2+z
loop_
_atom_site_type_symbol
_atom_site_label
_atom_site_fract_x
_atom_site_fract_y
_atom_site_fract_z
Si Si1 0.327739 0.228767 0.370979
Si Si2 0.823704 0.423258 0.805687
Si Si3 0.328535 0.044008 0.308671
Si Si4 0.329089 0.249852 0.492507
Si Si5 0.176357 0.125232 0.689310
Si Si6 0.839616 0.590463 0.532739
Si Si7 0.667970 0.399441 0.164258
Si Si8 0.179887 0.271747 0.885835
O O1 0.500000 0.260011 0.376031
O O2 0.327528 0.134093 0.342650
O O3 0.264353 0.217133 0.433783
O O4 0.238255 0.301337 0.335620
O O5 0.750000 0.382709 0.750000
O O6 0.767634 0.524031 0.809858
O O7 0.782257 0.369750 0.862123
O O8 0.000000 0.419172 0.799577
O O9 0.250000 0.062380 0.250000
O O10 0.500000 0.015418 0.300455
O O11 0.234632 0.966446 0.337752
O O12 0.500000 0.221116 0.494149
O O13 0.305079 0.355221 0.484557
O O14 0.264544 0.238788 0.553889
O O15 0.250000 0.123120 0.750000
O O16 0.248259 0.206676 0.658035
O O17 0.000000 0.130043 0.691791
O O18 0.839953 0.500000 0.500000
O O19 0.837154 0.578101 0.598556
O O20 0.000000 0.636774 0.519908
O O21 0.500000 0.400822 0.186604
O O22 0.000000 0.266353 0.886471
#
# Coordination Sequence:
#
# PCOD9420167 Si02
#       8
#     8   8   8   8   8   8   8   8
#     4   9  19  36  57  81 111 147 184 224 270 320
#     4  11  23  37  53  75 105 141 181 226 273 324
#     4  10  20  36  59  84 109 138 175 220 269 322
#     4   9  18  33  53  77 105 139 181 224 265 315
#     4  11  22  37  59  84 110 140 176 222 273 326
#     4   9  17  29  46  70 100 134 173 216 261 308
#     4  10  20  33  51  75 105 141 177 217 264 314
#     4  10  21  37  57  81 109 143 183 226 273 324
#
# _framework density 19.753086
#
# number of rings (size 3 to 8) (size 9 to 14) (size 15 to 20)
#    0.000    2.125    0.000    4.125    0.000    4.750 
#    0.000    1.875    0.000    3.750    0.000    0.000 
#    0.000    0.000    0.000    0.000    0.000    0.000 
#
# Total GULP energy -356276.004146 kJ/mol
# GULP energy per Si atom -5566.812565 kJ/mol
# Density = 1.970813 g / cm^3
# Si number density = 19.753086 Si / 1000 Ang^3
#
#
#
# Elastic Constant Matrix: (Units=GPa)
#
#
# Indices 1 2 3 4 5 6 
#
# 1 -8.1422 5.5602 3.4048 0.0000 0.0000 0.0000
# 2 5.5602 60.4562 25.3168 0.0000 0.0000 0.0000
# 3 3.4048 25.3168 32.4774 0.0000 0.0000 0.0000
# 4 0.0000 0.0000 0.0000 102.5671 0.0000 0.0000
# 5 0.0000 0.0000 0.0000 0.0000 35.9574 0.0000
# 6 0.0000 0.0000 0.0000 0.0000 0.0000 24.3030
#
#
#
# Elastic Compliance Matrix: (Units=1/GPa)
#
#
# Indices 1 2 3 4 5 6 
#
# 1 -0.114856 0.008197 0.005652 0.000000 0.000000 0.000000
# 2 0.008197 0.023972 -0.019546 0.000000 0.000000 0.000000
# 3 0.005652 -0.019546 0.045435 0.000000 0.000000 0.000000
# 4 0.000000 0.000000 0.000000 0.009750 0.000000 0.000000
# 5 0.000000 0.000000 0.000000 0.000000 0.027811 0.000000
# 6 0.000000 0.000000 0.000000 0.000000 0.000000 0.041147
#
#
# Mechanical properties :
#
#
# Convention : Reuss Voigt Hill
#
# Bulk Modulus (GPa) = -17.59172 17.03943 -0.27614
# Shear Modulus (GPa) = 194.50678 35.93282 115.21980
#
# Velocity S-wave (km/s) = 9.93392 4.26972 7.64570
# Velocity P-wave (km/s) = 11.07483 5.74040 8.82055
#
# Compressibility (1/GPa) = -0.05684492
#
# Stress axis : x y z
#
# Youngs Moduli (GPa) = -8.70655 41.71490 22.00960
#
# Poissons Ratio (x) = -0.34192 -0.12439
# Poissons Ratio (y) = 0.07136 0.43020
# Poissons Ratio (z) = 0.04921 0.81537
#
# Static dielectric constant tensor:
#      x y z
#    x 1.736030 0.000000 0.000000 
#    y 0.000000 1.702440 0.000000 
#    z 0.000000 0.000000 1.609460 
# 
# From -- ./inp_files/34350.got.cif
#   From: 2010.05.17/outbox.ucp.g08.bks.cvg/sg53_18_cif.got.tgz:34350.got - 2010.06.11 16:32:34.
