data_PCOD9420349
_publ_section_title
;
Structure prediction by ZEFSAII (Michael W. Deem and Ramdas Pophale) SiO2 
 PCOD9420349
Probable space group: P C C A
;
_chemical_formula_sum "Si O2"
_cell_formula_units_Z 64
_cell_length_a 5.386007
_cell_length_b 23.223264
_cell_length_c 26.923953
_cell_angle_alpha 90.000000
_cell_angle_beta 90.000000
_cell_angle_gamma 90.000000
_cell_volume 3367.665877
_symmetry_space_group_name_H-M "P C C A"
_symmetry_group_IT_number 54
_symmetry_cell_setting 'orthorhombic'
loop_
_space_group_symop_operation_xyz
x,y,z
1/2-x,-y,z
1/2+x,-y,1/2-z
-x,y,1/2-z
-x,-y,-z
1/2+x,y,-z
1/2-x,y,1/2+z
x,-y,1/2+z
loop_
_atom_site_type_symbol
_atom_site_label
_atom_site_fract_x
_atom_site_fract_y
_atom_site_fract_z
Si Si1 0.816647 0.434550 0.439149
Si Si2 0.998878 0.918569 0.806929
Si Si3 0.499938 0.081151 0.137007
Si Si4 0.996635 0.780062 0.136077
Si Si5 0.500871 0.778084 0.307473
Si Si6 0.169154 0.746181 0.473763
Si Si7 0.321477 0.388123 0.450853
Si Si8 0.498669 0.065166 0.020910
O O1 0.750000 0.500000 0.427138
O O2 0.581355 0.396510 0.423293
O O3 0.837093 0.426949 0.499177
O O4 0.080333 0.409861 0.421620
O O5 0.749807 0.936884 0.835004
O O6 0.996887 0.848356 0.806715
O O7 0.000000 0.938113 0.750000
O O8 0.248111 0.936243 0.835369
O O9 0.497605 0.150591 0.137522
O O10 0.499046 0.062357 0.079949
O O11 0.757247 0.760180 0.167355
O O12 0.938281 0.764284 0.079459
O O13 0.256471 0.760195 0.160660
O O14 0.500000 0.759507 0.250000
O O15 0.450261 0.764521 0.487884
O O16 0.196111 0.676793 0.470185
O O17 0.748862 0.093607 0.000097
O O18 0.500000 0.000000 0.000000
#
# Coordination Sequence:
#
# PCOD9420349 Si02
#       8
#     8   8   8   8   8   8   8   8
#     4  10  16  25  41  58  74 102 164 218 236 268
#     4   9  17  30  52  79 104 127 147 186 255 301
#     4  10  19  33  51  76 104 122 160 211 230 285
#     4  10  21  31  48  74  94 129 168 194 243 285
#     4   9  17  33  51  70  96 120 155 208 250 290
#     4  12  21  33  43  58  95 138 169 196 222 284
#     4  10  16  27  37  54  78 114 154 197 234 273
#     4  10  21  36  54  75  96 130 169 202 243 280
#
# _framework density 19.004259999999999
#
# number of rings (size 3 to 8) (size 9 to 14) (size 15 to 20)
#    0.000    2.000    2.500    4.125    0.000    4.000 
#    0.000    0.000    0.000    0.000    0.000   35.000 
#    0.000    0.000    0.000    0.000    0.000   56.250 
#
# Total GULP energy -357069.594897 kJ/mol
# GULP energy per Si atom -5579.212420 kJ/mol
# Density = 1.896101 g / cm^3
# Si number density = 19.004260 Si / 1000 Ang^3
#
#
#
# Elastic Constant Matrix: (Units=GPa)
#
#
# Indices 1 2 3 4 5 6 
#
# 1 181.7851 8.5929 79.1628 0.0000 0.0000 0.0000
# 2 8.5929 22.3399 -3.8945 0.0000 0.0000 0.0000
# 3 79.1628 -3.8945 136.6240 0.0000 0.0000 0.0000
# 4 0.0000 0.0000 0.0000 -6.6815 0.0000 0.0000
# 5 0.0000 0.0000 0.0000 0.0000 31.2369 0.0000
# 6 0.0000 0.0000 0.0000 0.0000 0.0000 19.9410
#
#
#
# Elastic Compliance Matrix: (Units=1/GPa)
#
#
# Indices 1 2 3 4 5 6 
#
# 1 0.007656 -0.003737 -0.004542 0.000000 0.000000 0.000000
# 2 -0.003737 0.046810 0.003499 0.000000 0.000000 0.000000
# 3 -0.004542 0.003499 0.010051 0.000000 0.000000 0.000000
# 4 0.000000 0.000000 0.000000 -0.149667 0.000000 0.000000
# 5 0.000000 0.000000 0.000000 0.000000 0.032013 0.000000
# 6 0.000000 0.000000 0.000000 0.000000 0.000000 0.050148
#
#
# Mechanical properties :
#
#
# Convention : Reuss Voigt Hill
#
# Bulk Modulus (GPa) = 18.19573 56.49682 37.34628
# Shear Modulus (GPa) = 200.88179 26.02511 113.45345
#
# Velocity S-wave (km/s) = 10.29238 3.70460 7.73489
# Velocity P-wave (km/s) = 12.28167 6.93483 9.97324
#
# Compressibility (1/GPa) = 0.05495794
#
# Stress axis : x y z
#
# Youngs Moduli (GPa) = 130.62107 21.36281 99.49185
#
# Poissons Ratio (x) = 0.07982 0.45193
# Poissons Ratio (y) = 0.48808 -0.34816
# Poissons Ratio (z) = 0.59333 -0.07476
#
# Static dielectric constant tensor:
#      x y z
#    x 1.737400 0.000000 0.000000 
#    y 0.000000 1.627790 0.000000 
#    z 0.000000 0.000000 1.633220 
# 
# From -- ./inp_files/23050.got.cif
#   From: 2010.05.17/outbox.cif.g08.bks.cpg/sg54_12_cif.got.tgz:23050.got - 2010.06.03 13:09:01.
