data_PCOD9420546
_publ_section_title
;
Structure prediction by ZEFSAII (Michael W. Deem and Ramdas Pophale) SiO2 
 PCOD9420546
Probable space group: P C C A
;
_chemical_formula_sum "Si O2"
_cell_formula_units_Z 56
_cell_length_a 13.005645
_cell_length_b 15.575378
_cell_length_c 10.839585
_cell_angle_alpha 90.000000
_cell_angle_beta 90.000000
_cell_angle_gamma 90.000000
_cell_volume 2195.751288
_symmetry_space_group_name_H-M "P C C A"
_symmetry_group_IT_number 54
_symmetry_cell_setting 'orthorhombic'
loop_
_space_group_symop_operation_xyz
x,y,z
1/2-x,-y,z
1/2+x,-y,1/2-z
-x,y,1/2-z
-x,-y,-z
1/2+x,y,-z
1/2-x,y,1/2+z
x,-y,1/2+z
loop_
_atom_site_type_symbol
_atom_site_label
_atom_site_fract_x
_atom_site_fract_y
_atom_site_fract_z
Si Si1 0.773687 0.220621 0.838777
Si Si2 0.139887 0.950273 0.072846
Si Si3 0.228477 0.401954 0.151601
Si Si4 0.375895 0.990576 0.826563
Si Si5 0.584624 0.443188 0.648304
Si Si6 0.644654 0.801852 0.583677
Si Si7 0.553398 0.373720 0.051611
O O1 0.850576 0.145841 0.876954
O O2 0.802258 0.320236 0.855068
O O3 0.765388 0.210059 0.689287
O O4 0.684937 0.201559 0.941820
O O5 0.087536 0.999343 0.186310
O O6 0.250000 0.000000 0.057880
O O7 0.095644 0.946611 0.936785
O O8 0.250000 0.500000 0.118139
O O9 0.188233 0.407872 0.292839
O O10 0.138788 0.378736 0.056014
O O11 0.396818 0.896100 0.884045
O O12 0.250000 0.000000 0.810682
O O13 0.500000 0.419018 0.750000
O O14 0.550331 0.403162 0.518995
O O15 0.580968 0.546589 0.640247
O O16 0.566284 0.722231 0.602017
#
# Coordination Sequence:
#
# PCOD9420546 Si02
#       7
#     8   8   8   8   8   8   8
#     4  10  19  28  43  70 104 138 169 214 267 326
#     4   9  15  25  40  61  94 134 168 200 255 330
#     4  10  20  32  49  75 108 143 173 225 276 320
#     4   9  15  24  41  63  98 140 166 207 266 337
#     4   9  18  35  53  69  96 144 188 221 265 325
#     4  10  18  29  45  73 107 140 175 221 272 329
#     4   9  19  33  51  71  98 141 188 225 263 324
#
# _framework density 25.503799000000001
#
# number of rings (size 3 to 8) (size 9 to 14) (size 15 to 20)
#    0.000    2.571    2.857    0.857    0.000    2.857 
#    0.000    1.429    0.000    0.000    0.000    0.000 
#    0.000   27.429   18.000    0.000    0.000    0.000 
#
# Total GULP energy -312242.277641 kJ/mol
# GULP energy per Si atom -5575.754958 kJ/mol
# Density = 2.544575 g / cm^3
# Si number density = 25.503799 Si / 1000 Ang^3
#
#
#
# Elastic Constant Matrix: (Units=GPa)
#
#
# Indices 1 2 3 4 5 6 
#
# 1 44.9912 19.2931 18.6405 0.0000 0.0000 0.0000
# 2 19.2931 156.2144 16.2298 0.0000 0.0000 0.0000
# 3 18.6405 16.2298 96.3967 0.0000 0.0000 0.0000
# 4 0.0000 0.0000 0.0000 19.7802 0.0000 0.0000
# 5 0.0000 0.0000 0.0000 0.0000 32.0807 0.0000
# 6 0.0000 0.0000 0.0000 0.0000 0.0000 25.2299
#
#
#
# Elastic Compliance Matrix: (Units=1/GPa)
#
#
# Indices 1 2 3 4 5 6 
#
# 1 0.025198 -0.002652 -0.004426 0.000000 0.000000 0.000000
# 2 -0.002652 0.006795 -0.000631 0.000000 0.000000 0.000000
# 3 -0.004426 -0.000631 0.011336 0.000000 0.000000 0.000000
# 4 0.000000 0.000000 0.000000 0.050556 0.000000 0.000000
# 5 0.000000 0.000000 0.000000 0.000000 0.031171 0.000000
# 6 0.000000 0.000000 0.000000 0.000000 0.000000 0.039636
#
#
# Mechanical properties :
#
#
# Convention : Reuss Voigt Hill
#
# Bulk Modulus (GPa) = 35.82998 45.10321 40.46660
# Shear Modulus (GPa) = 26.39742 31.64742 29.02242
#
# Velocity S-wave (km/s) = 3.22069 3.52645 3.37703
# Velocity P-wave (km/s) = 5.28298 5.85700 5.57738
#
# Compressibility (1/GPa) = 0.02790959
#
# Stress axis : x y z
#
# Youngs Moduli (GPa) = 39.68623 147.17615 88.21509
#
# Poissons Ratio (x) = 0.39034 0.39044
# Poissons Ratio (y) = 0.10525 0.05567
# Poissons Ratio (z) = 0.17565 0.09288
#
# Static dielectric constant tensor:
#      x y z
#    x 2.183790 0.000000 0.000000 
#    y 0.000000 2.002500 0.000000 
#    z 0.000000 0.000000 2.060840 
# 
# From -- ./inp_files/8427.got.cif
#   From: 2010.05.17/outbox.cif.g08.bks.cpg/sg54_5_cif.got.tgz:8427.got - 2010.06.03 13:09:01.
