data_PCOD9420096
_publ_section_title
;
Structure prediction by ZEFSAII (Michael W. Deem and Ramdas Pophale) SiO2 
 PCOD9420096
Probable space group: P M N A
;
_chemical_formula_sum "Si O2"
_cell_formula_units_Z 60
_cell_length_a 30.000000
_cell_length_b 9.000000
_cell_length_c 12.000000
_cell_angle_alpha 90.000000
_cell_angle_beta 90.000000
_cell_angle_gamma 90.000000
_cell_volume 3240.000000
_symmetry_space_group_name_H-M "P M N A"
_symmetry_group_IT_number 53
_symmetry_cell_setting 'orthorhombic'
loop_
_space_group_symop_operation_xyz
x,y,z
1/2-x,-y,1/2+z
x,-y,-z
1/2-x,y,1/2-z
-x,-y,-z
1/2+x,y,1/2-z
-x,y,z
1/2+x,-y,1/2+z
loop_
_atom_site_type_symbol
_atom_site_label
_atom_site_fract_x
_atom_site_fract_y
_atom_site_fract_z
Si Si1 0.049166 0.814341 0.791774
Si Si2 0.946120 0.673177 0.022434
Si Si3 0.627175 0.677747 0.110720
Si Si4 0.377068 0.661392 0.845242
Si Si5 0.828733 0.085673 0.219444
Si Si6 0.280765 0.834485 0.154696
Si Si7 0.779484 0.000000 0.000000
Si Si8 0.915947 0.123113 0.777497
O O1 0.078015 0.736318 0.698279
O O2 0.000000 0.751095 0.786567
O O3 0.048334 0.991749 0.780141
O O4 0.066984 0.767282 0.913101
O O5 0.923674 0.755605 0.126624
O O6 0.000000 0.681007 0.037652
O O7 0.934713 0.500000 0.000000
O O8 0.622901 0.515841 0.166312
O O9 0.675835 0.739060 0.138394
O O10 0.590672 0.787018 0.163735
O O11 0.625597 0.680658 0.977707
O O12 0.340994 0.756370 0.774165
O O13 0.807803 0.075764 0.097712
O O14 0.796466 0.996420 0.302216
O O15 0.871887 0.978809 0.210215
O O16 0.250000 0.766531 0.250000
O O17 0.251053 0.869574 0.049134
#
# Coordination Sequence:
#
# PCOD9420096 Si02
#       8
#     8   8   8   8   8   8   4   8
#     4  10  21  36  56  82 112 145 187 233 278 327
#     4  10  20  34  54  82 115 149 182 227 283 330
#     4  10  21  39  57  79 110 152 190 230 283 340
#     4  10  21  38  58  80 111 151 192 231 280 339
#     4   9  20  32  55  83 108 145 188 231 277 337
#     4   9  18  35  55  78 111 145 181 230 284 333
#     4  10  18  32  56  84 111 138 187 236 282 332
#     4  10  20  34  55  80 111 145 188 233 275 331
#
# _framework density 18.518519000000001
#
# number of rings (size 3 to 8) (size 9 to 14) (size 15 to 20)
#    0.000    2.267    0.000    2.400    3.733    5.333 
#    0.000    8.667    0.000    0.000    0.000    0.000 
#    0.000    0.000    0.000    0.000    0.000    0.000 
#
# Total GULP energy -334052.754307 kJ/mol
# GULP energy per Si atom -5567.545905 kJ/mol
# Density = 1.847637 g / cm^3
# Si number density = 18.518519 Si / 1000 Ang^3
#
#
#
# Elastic Constant Matrix: (Units=GPa)
#
#
# Indices 1 2 3 4 5 6 
#
# 1 41.2286 15.1908 26.5151 0.0000 0.0000 0.0000
# 2 15.1908 105.5351 56.8321 0.0000 0.0000 0.0000
# 3 26.5151 56.8321 77.0503 0.0000 0.0000 0.0000
# 4 0.0000 0.0000 0.0000 77.2237 0.0000 0.0000
# 5 0.0000 0.0000 0.0000 0.0000 14.8097 0.0000
# 6 0.0000 0.0000 0.0000 0.0000 0.0000 65.3094
#
#
#
# Elastic Compliance Matrix: (Units=1/GPa)
#
#
# Indices 1 2 3 4 5 6 
#
# 1 0.031442 0.002158 -0.012412 0.000000 0.000000 0.000000
# 2 0.002158 0.015867 -0.012446 0.000000 0.000000 0.000000
# 3 -0.012412 -0.012446 0.026430 0.000000 0.000000 0.000000
# 4 0.000000 0.000000 0.000000 0.012949 0.000000 0.000000
# 5 0.000000 0.000000 0.000000 0.000000 0.067523 0.000000
# 6 0.000000 0.000000 0.000000 0.000000 0.000000 0.015312
#
#
# Mechanical properties :
#
#
# Convention : Reuss Voigt Hill
#
# Bulk Modulus (GPa) = 35.28649 46.76555 41.02602
# Shear Modulus (GPa) = 22.28448 39.82030 31.05239
#
# Velocity S-wave (km/s) = 3.47271 4.64216 4.09935
# Velocity P-wave (km/s) = 5.93091 7.35126 6.67895
#
# Compressibility (1/GPa) = 0.02833946
#
# Stress axis : x y z
#
# Youngs Moduli (GPa) = 31.80438 63.02204 37.83532
#
# Poissons Ratio (x) = -0.13601 0.46961
# Poissons Ratio (y) = -0.06864 0.47092
# Poissons Ratio (z) = 0.39476 0.78440
#
# Static dielectric constant tensor:
#      x y z
#    x 1.699550 0.000000 0.000000 
#    y 0.000000 1.629800 0.000000 
#    z 0.000000 0.000000 1.668880 
# 
# From -- ./inp_files/18999.got.cif
#   From: 2010.05.17/outbox.ucp.g08.bks.cvg/sg53_10_cif.got.tgz:18999.got - 2010.06.11 16:32:34.
