data_PCOD9420114
_publ_section_title
;
Structure prediction by ZEFSAII (Michael W. Deem and Ramdas Pophale) SiO2 
 PCOD9420114
Probable space group: P M N A
;
_chemical_formula_sum "Si O2"
_cell_formula_units_Z 56
_cell_length_a 9.000000
_cell_length_b 21.000000
_cell_length_c 15.000000
_cell_angle_alpha 90.000000
_cell_angle_beta 90.000000
_cell_angle_gamma 90.000000
_cell_volume 2835.000000
_symmetry_space_group_name_H-M "P M N A"
_symmetry_group_IT_number 53
_symmetry_cell_setting 'orthorhombic'
loop_
_space_group_symop_operation_xyz
x,y,z
1/2-x,-y,1/2+z
x,-y,-z
1/2-x,y,1/2-z
-x,-y,-z
1/2+x,y,1/2-z
-x,y,z
1/2+x,-y,1/2+z
loop_
_atom_site_type_symbol
_atom_site_label
_atom_site_fract_x
_atom_site_fract_y
_atom_site_fract_z
Si Si1 0.668548 0.021595 0.396200
Si Si2 0.176096 0.896033 0.338780
Si Si3 0.180382 0.282557 0.477364
Si Si4 0.320503 0.659949 0.157767
Si Si5 0.321486 0.615133 0.836488
Si Si6 0.180608 0.481064 0.599507
Si Si7 0.678564 0.144071 0.041056
O O1 0.500000 0.022071 0.361877
O O2 0.741647 0.090811 0.400513
O O3 0.663817 0.000000 0.500000
O O4 0.766471 0.968546 0.348182
O O5 0.250000 0.867632 0.250000
O O6 0.212408 0.865630 0.435299
O O7 0.000000 0.893897 0.328547
O O8 0.226473 0.293599 0.578538
O O9 0.224550 0.344022 0.421481
O O10 0.227363 0.215585 0.437092
O O11 0.000000 0.281434 0.477793
O O12 0.250000 0.678886 0.250000
O O13 0.500000 0.659850 0.163081
O O14 0.270704 0.587802 0.132912
O O15 0.250000 0.645133 0.750000
O O16 0.500000 0.615781 0.831686
O O17 0.271749 0.542162 0.844619
O O18 0.226491 0.500000 0.500000
O O19 0.000000 0.478750 0.599144
O O20 0.500000 0.137133 0.050185
#
# Coordination Sequence:
#
# PCOD9420114 Si02
#       7
#     8   8   8   8   8   8   8
#     4   9  17  31  51  74  98 125 159 199 244 291
#     4  10  19  31  50  76 104 131 163 205 250 298
#     4   9  18  34  54  73  99 141 183 212 248 312
#     4  10  19  32  51  75 103 135 174 216 262 313
#     4  10  19  33  54  76  99 131 173 219 264 310
#     4   9  15  28  52  76  97 130 174 215 257 313
#     4   9  18  33  52  72  97 133 173 207 245 298
#
# _framework density 19.753086
#
# number of rings (size 3 to 8) (size 9 to 14) (size 15 to 20)
#    0.000    2.571    1.429    1.286    0.000    2.857 
#    0.000    2.857    0.000    2.571    0.000    0.000 
#    0.000    0.000    0.000    0.000    0.000    0.000 
#
# Total GULP energy -312075.724878 kJ/mol
# GULP energy per Si atom -5572.780801 kJ/mol
# Density = 1.970813 g / cm^3
# Si number density = 19.753086 Si / 1000 Ang^3
#
#
#
# Elastic Constant Matrix: (Units=GPa)
#
#
# Indices 1 2 3 4 5 6 
#
# 1 6.8508 2.4206 2.0153 0.0000 0.0000 0.0000
# 2 2.4206 73.3168 -12.4312 0.0000 0.0000 0.0000
# 3 2.0153 -12.4312 52.5827 0.0000 0.0000 0.0000
# 4 0.0000 0.0000 0.0000 3.0922 0.0000 0.0000
# 5 0.0000 0.0000 0.0000 0.0000 24.4016 0.0000
# 6 0.0000 0.0000 0.0000 0.0000 0.0000 4.5520
#
#
#
# Elastic Compliance Matrix: (Units=1/GPa)
#
#
# Indices 1 2 3 4 5 6 
#
# 1 0.150278 -0.006186 -0.007222 0.000000 0.000000 0.000000
# 2 -0.006186 0.014464 0.003656 0.000000 0.000000 0.000000
# 3 -0.007222 0.003656 0.020159 0.000000 0.000000 0.000000
# 4 0.000000 0.000000 0.000000 0.323390 0.000000 0.000000
# 5 0.000000 0.000000 0.000000 0.000000 0.040981 0.000000
# 6 0.000000 0.000000 0.000000 0.000000 0.000000 0.219686
#
#
# Mechanical properties :
#
#
# Convention : Reuss Voigt Hill
#
# Bulk Modulus (GPa) = 6.04604 12.97329 9.50967
# Shear Modulus (GPa) = 5.92702 15.79220 10.85961
#
# Velocity S-wave (km/s) = 1.73409 2.83057 2.34726
# Velocity P-wave (km/s) = 2.66024 4.15510 3.48868
#
# Compressibility (1/GPa) = 0.16539743
#
# Stress axis : x y z
#
# Youngs Moduli (GPa) = 6.65431 69.13874 49.60586
#
# Poissons Ratio (x) = 0.42770 0.35826
# Poissons Ratio (y) = 0.04116 -0.18138
# Poissons Ratio (z) = 0.04806 -0.25281
#
# Static dielectric constant tensor:
#      x y z
#    x 1.662160 0.000000 0.000000 
#    y 0.000000 1.698320 0.000000 
#    z 0.000000 0.000000 1.745450 
# 
# From -- ./inp_files/20630.got.cif
#   From: 2010.05.17/outbox.ucp.g08.bks.cvg/sg53_11_cif.got.tgz:20630.got - 2010.06.11 16:32:34.
