data_PCOD9420479
_publ_section_title
;
Structure prediction by ZEFSAII (Michael W. Deem and Ramdas Pophale) SiO2 
 PCOD9420479
Probable space group: P C C A
;
_chemical_formula_sum "Si O2"
_cell_formula_units_Z 56
_cell_length_a 25.312270
_cell_length_b 5.516006
_cell_length_c 17.129817
_cell_angle_alpha 90.000000
_cell_angle_beta 90.000000
_cell_angle_gamma 90.000000
_cell_volume 2391.710156
_symmetry_space_group_name_H-M "P C C A"
_symmetry_group_IT_number 54
_symmetry_cell_setting 'orthorhombic'
loop_
_space_group_symop_operation_xyz
x,y,z
1/2-x,-y,z
1/2+x,-y,1/2-z
-x,y,1/2-z
-x,-y,-z
1/2+x,y,-z
1/2-x,y,1/2+z
x,-y,1/2+z
loop_
_atom_site_type_symbol
_atom_site_label
_atom_site_fract_x
_atom_site_fract_y
_atom_site_fract_z
Si Si1 0.188032 0.528256 0.138779
Si Si2 0.192466 0.975783 0.809701
Si Si3 0.446435 0.942359 0.954492
Si Si4 0.866476 0.967568 0.851677
Si Si5 0.988771 0.850894 0.839021
Si Si6 0.069562 0.562063 0.917933
Si Si7 0.333491 0.478107 0.324637
O O1 0.250000 0.500000 0.119341
O O2 0.158961 0.279316 0.114618
O O3 0.182772 0.531991 0.234026
O O4 0.159412 0.782268 0.116649
O O5 0.149246 0.964807 0.740982
O O6 0.193025 0.723334 0.855305
O O7 0.250000 0.000000 0.770909
O O8 0.181536 0.217193 0.858314
O O9 0.468061 0.947161 0.865162
O O10 0.412564 0.186721 0.959017
O O11 0.425593 0.677142 0.969136
O O12 0.500000 0.000000 0.000000
O O13 0.929781 0.940002 0.856452
O O14 0.000000 0.794259 0.750000
O O15 0.009882 0.622854 0.890450
O O16 0.105307 0.520265 0.842115
#
# Coordination Sequence:
#
# PCOD9420479 Si02
#       7
#     8   8   8   8   8   8   8
#     4  10  19  30  46  68 111 149 181 218 279 340
#     4  10  18  29  46  69 111 149 181 218 282 344
#     4  10  23  41  58  75 113 158 198 231 271 334
#     4  10  19  29  46  69 105 144 182 215 272 333
#     4  10  23  34  55  85 119 150 184 235 292 339
#     4  10  22  35  57  77 111 145 194 229 286 323
#     4  10  17  29  47  71 100 140 184 223 269 333
#
# _framework density 23.414209
#
# number of rings (size 3 to 8) (size 9 to 14) (size 15 to 20)
#    0.857    1.143    0.000    7.286    6.000    0.571 
#    0.000    0.000    0.000    0.000    0.000    0.000 
#    0.000   38.857    0.000    0.000    0.000    0.000 
#
# Total GULP energy -311856.254194 kJ/mol
# GULP energy per Si atom -5568.861682 kJ/mol
# Density = 2.336092 g / cm^3
# Si number density = 23.414209 Si / 1000 Ang^3
#
#
#
# Elastic Constant Matrix: (Units=GPa)
#
#
# Indices 1 2 3 4 5 6 
#
# 1 122.1520 57.1096 10.2989 0.0000 0.0000 0.0000
# 2 57.1096 267.2525 10.3529 0.0000 0.0000 0.0000
# 3 10.2989 10.3529 30.9710 0.0000 0.0000 0.0000
# 4 0.0000 0.0000 0.0000 -1.6905 0.0000 0.0000
# 5 0.0000 0.0000 0.0000 0.0000 16.3641 0.0000
# 6 0.0000 0.0000 0.0000 0.0000 0.0000 28.0161
#
#
#
# Elastic Compliance Matrix: (Units=1/GPa)
#
#
# Indices 1 2 3 4 5 6 
#
# 1 0.009276 -0.001887 -0.002454 0.000000 0.000000 0.000000
# 2 -0.001887 0.004175 -0.000768 0.000000 0.000000 0.000000
# 3 -0.002454 -0.000768 0.033361 0.000000 0.000000 0.000000
# 4 0.000000 0.000000 0.000000 -0.591552 0.000000 0.000000
# 5 0.000000 0.000000 0.000000 0.000000 0.061109 0.000000
# 6 0.000000 0.000000 0.000000 0.000000 0.000000 0.035694
#
#
# Mechanical properties :
#
#
# Convention : Reuss Voigt Hill
#
# Bulk Modulus (GPa) = 27.32699 63.98870 45.65785
# Shear Modulus (GPa) = -11.75028 31.37889 9.81431
#
# Velocity S-wave (km/s) = -2.24262 3.66480 2.04956
# Velocity P-wave (km/s) = 2.23398 6.73023 5.01431
#
# Compressibility (1/GPa) = 0.03659386
#
# Stress axis : x y z
#
# Youngs Moduli (GPa) = 107.80907 239.53332 29.97520
#
# Poissons Ratio (x) = 0.45202 0.07355
# Poissons Ratio (y) = 0.20344 0.02302
# Poissons Ratio (z) = 0.26453 0.18397
#
# Static dielectric constant tensor:
#      x y z
#    x 1.875520 0.000000 0.000000 
#    y 0.000000 2.070400 0.000000 
#    z 0.000000 0.000000 1.937740 
# 
# From -- ./inp_files/22303.got.cif
#   From: 2010.05.17/outbox.cif.g08.bks.cpg/sg54_12_cif.got.tgz:22303.got - 2010.06.03 13:09:01.
