data_PCOD9420138
_publ_section_title
;
Structure prediction by ZEFSAII (Michael W. Deem and Ramdas Pophale) SiO2 
 PCOD9420138
Probable space group: P M N A
;
_chemical_formula_sum "Si O2"
_cell_formula_units_Z 64
_cell_length_a 9.000000
_cell_length_b 18.000000
_cell_length_c 21.000000
_cell_angle_alpha 90.000000
_cell_angle_beta 90.000000
_cell_angle_gamma 90.000000
_cell_volume 3402.000000
_symmetry_space_group_name_H-M "P M N A"
_symmetry_group_IT_number 53
_symmetry_cell_setting 'orthorhombic'
loop_
_space_group_symop_operation_xyz
x,y,z
1/2-x,-y,1/2+z
x,-y,-z
1/2-x,y,1/2-z
-x,-y,-z
1/2+x,y,1/2-z
-x,y,z
1/2+x,-y,1/2+z
loop_
_atom_site_type_symbol
_atom_site_label
_atom_site_fract_x
_atom_site_fract_y
_atom_site_fract_z
Si Si1 0.169778 0.557231 0.058315
Si Si2 0.166234 0.684738 0.503742
Si Si3 0.670810 0.171116 0.498833
Si Si4 0.328301 0.177372 0.350967
Si Si5 0.331631 0.326615 0.155765
Si Si6 0.325694 0.475124 0.311442
Si Si7 0.828516 0.988553 0.812404
Si Si8 0.824887 0.044853 0.561621
O O1 0.293886 0.615752 0.039418
O O2 0.210044 0.516364 0.123228
O O3 0.000000 0.587319 0.064358
O O4 0.164741 0.500000 0.000000
O O5 0.296498 0.743029 0.492010
O O6 0.171980 0.666386 0.578853
O O7 0.000000 0.714159 0.491773
O O8 0.500000 0.150247 0.509032
O O9 0.709229 0.157767 0.424545
O O10 0.778697 0.127732 0.545197
O O11 0.500000 0.202977 0.350883
O O12 0.225349 0.244207 0.328909
O O13 0.317325 0.100940 0.313741
O O14 0.500000 0.336757 0.177763
O O15 0.228867 0.390797 0.181906
O O16 0.250000 0.509936 0.250000
O O17 0.500000 0.476158 0.303016
O O18 0.750000 0.018153 0.750000
O O19 0.000000 0.008553 0.813153
O O20 0.751278 0.017494 0.875224
O O21 0.000000 0.034586 0.566464
O O22 0.768433 0.000000 0.500000
#
# Coordination Sequence:
#
# PCOD9420138 Si02
#       8
#     8   8   8   8   8   8   8   8
#     4  10  20  36  58  82 108 144 186 228 275 329
#     4  10  20  33  54  85 116 144 180 230 280 328
#     4  10  19  34  57  83 113 148 187 230 278 334
#     4   9  19  34  53  77 110 151 190 228 272 327
#     4  10  20  33  52  79 112 148 186 226 272 326
#     4  11  23  38  56  78 110 147 186 229 275 329
#     4  11  23  39  57  81 113 151 193 233 282 336
#     4  11  22  36  58  86 115 147 187 236 284 333
#
# _framework density 18.812463000000001
#
# number of rings (size 3 to 8) (size 9 to 14) (size 15 to 20)
#    0.000    1.750    2.500    2.250    0.000    4.750 
#    0.000    1.250    0.000    0.750    0.000    3.500 
#    0.000    0.000    0.000    0.000    0.000    0.000 
#
# Total GULP energy -356981.844596 kJ/mol
# GULP energy per Si atom -5577.841322 kJ/mol
# Density = 1.876965 g / cm^3
# Si number density = 18.812463 Si / 1000 Ang^3
#
#
#
# Elastic Constant Matrix: (Units=GPa)
#
#
# Indices 1 2 3 4 5 6 
#
# 1 36.3816 18.7186 59.6029 0.0000 0.0000 0.0000
# 2 18.7186 16.9052 27.2464 0.0000 0.0000 0.0000
# 3 59.6029 27.2464 114.8917 0.0000 0.0000 0.0000
# 4 0.0000 0.0000 0.0000 -3.3278 0.0000 0.0000
# 5 0.0000 0.0000 0.0000 0.0000 1.6540 0.0000
# 6 0.0000 0.0000 0.0000 0.0000 0.0000 89.7615
#
#
#
# Elastic Compliance Matrix: (Units=1/GPa)
#
#
# Indices 1 2 3 4 5 6 
#
# 1 0.289916 -0.127245 -0.120225 0.000000 0.000000 0.000000
# 2 -0.127245 0.151599 0.030060 0.000000 0.000000 0.000000
# 3 -0.120225 0.030060 0.063945 0.000000 0.000000 0.000000
# 4 0.000000 0.000000 0.000000 -0.300496 0.000000 0.000000
# 5 0.000000 0.000000 0.000000 0.000000 0.604591 0.000000
# 6 0.000000 0.000000 0.000000 0.000000 0.000000 0.011141
#
#
# Mechanical properties :
#
#
# Convention : Reuss Voigt Hill
#
# Bulk Modulus (GPa) = 14.15637 42.14605 28.15121
# Shear Modulus (GPa) = 3.90912 21.79157 12.85034
#
# Velocity S-wave (km/s) = 1.44307 3.40716 2.61641
# Velocity P-wave (km/s) = 3.21215 6.15875 4.91163
#
# Compressibility (1/GPa) = 0.07063956
#
# Stress axis : x y z
#
# Youngs Moduli (GPa) = 3.44928 6.59635 15.63848
#
# Poissons Ratio (x) = 0.83935 1.88013
# Poissons Ratio (y) = 0.43890 -0.47009
# Poissons Ratio (z) = 0.41469 -0.19829
#
# Static dielectric constant tensor:
#      x y z
#    x 1.638030 0.000000 0.000000 
#    y 0.000000 1.682570 0.000000 
#    z 0.000000 0.000000 1.656510 
# 
# From -- ./inp_files/31237.got.cif
#   From: 2010.05.17/outbox.ucp.g08.bks.cvg/sg53_16_cif.got.tgz:31237.got - 2010.06.11 16:32:34.
