data_PCOD9420742
_publ_section_title
;
Structure prediction by ZEFSAII (Michael W. Deem and Ramdas Pophale) SiO2 
 PCOD9420742
Probable space group: P C C A
;
_chemical_formula_sum "Si O2"
_cell_formula_units_Z 48
_cell_length_a 11.281914
_cell_length_b 13.483248
_cell_length_c 15.343783
_cell_angle_alpha 90.000000
_cell_angle_beta 90.000000
_cell_angle_gamma 90.000000
_cell_volume 2334.047851
_symmetry_space_group_name_H-M "P C C A"
_symmetry_group_IT_number 54
_symmetry_cell_setting 'orthorhombic'
loop_
_space_group_symop_operation_xyz
x,y,z
1/2-x,-y,z
1/2+x,-y,1/2-z
-x,y,1/2-z
-x,-y,-z
1/2+x,y,-z
1/2-x,y,1/2+z
x,-y,1/2+z
loop_
_atom_site_type_symbol
_atom_site_label
_atom_site_fract_x
_atom_site_fract_y
_atom_site_fract_z
Si Si1 0.212620 0.826677 0.430692
Si Si2 0.919991 0.968279 0.578280
Si Si3 0.290903 0.727958 0.265320
Si Si4 0.750000 0.500000 0.542238
Si Si5 0.500000 0.884329 0.250000
Si Si6 0.042582 0.444904 0.340863
Si Si7 0.684978 0.670408 0.421975
O O1 0.347706 0.866951 0.443358
O O2 0.205543 0.760631 0.343320
O O3 0.167617 0.766488 0.515433
O O4 0.154383 0.931679 0.408696
O O5 0.994617 0.947971 0.663864
O O6 0.000000 0.000000 0.500000
O O7 0.383270 0.816980 0.248522
O O8 0.370227 0.640616 0.305403
O O9 0.250236 0.696994 0.168945
O O10 0.870337 0.491041 0.598697
O O11 0.760425 0.595451 0.480800
O O12 0.000000 0.494992 0.250000
O O13 0.934713 0.389696 0.392009
#
# Coordination Sequence:
#
# PCOD9420742 Si02
#       7
#     8   8   8   4   4   8   8
#     4  10  22  38  58  93 126 161 214 261 313 386
#     4  10  22  36  60  91 124 162 211 263 313 375
#     4  10  19  38  61  85 119 172 205 247 316 383
#     4  12  24  40  66 100 124 160 224 268 318 392
#     4  10  18  36  60  78 116 164 204 244 314 378
#     4  10  22  41  64  91 124 169 210 258 329 387
#     4  11  22  39  66  89 127 166 209 263 323 380
#
# _framework density 20.565131000000001
#
# number of rings (size 3 to 8) (size 9 to 14) (size 15 to 20)
#    0.000    1.667    4.167    1.500    2.333    4.000 
#    0.000    3.333    1.833    0.000    0.000    0.000 
#    0.000    0.000    0.000    0.000    0.000    0.000 
#
# Total GULP energy -267537.525893 kJ/mol
# GULP energy per Si atom -5573.698456 kJ/mol
# Density = 2.051832 g / cm^3
# Si number density = 20.565131 Si / 1000 Ang^3
#
#
#
# Elastic Constant Matrix: (Units=GPa)
#
#
# Indices 1 2 3 4 5 6 
#
# 1 22.8722 -6.0832 28.7113 0.0000 0.0000 0.0000
# 2 -6.0832 46.0242 30.8018 0.0000 0.0000 0.0000
# 3 28.7113 30.8018 153.2580 0.0000 0.0000 0.0000
# 4 0.0000 0.0000 0.0000 61.1987 0.0000 0.0000
# 5 0.0000 0.0000 0.0000 0.0000 9.7722 0.0000
# 6 0.0000 0.0000 0.0000 0.0000 0.0000 13.4019
#
#
#
# Elastic Compliance Matrix: (Units=1/GPa)
#
#
# Indices 1 2 3 4 5 6 
#
# 1 0.071602 0.021307 -0.017696 0.000000 0.000000 0.000000
# 2 0.021307 0.031445 -0.010312 0.000000 0.000000 0.000000
# 3 -0.017696 -0.010312 0.011913 0.000000 0.000000 0.000000
# 4 0.000000 0.000000 0.000000 0.016340 0.000000 0.000000
# 5 0.000000 0.000000 0.000000 0.000000 0.102331 0.000000
# 6 0.000000 0.000000 0.000000 0.000000 0.000000 0.074616
#
#
# Mechanical properties :
#
#
# Convention : Reuss Voigt Hill
#
# Bulk Modulus (GPa) = 9.84652 36.55713 23.20182
# Shear Modulus (GPa) = 14.06467 28.12286 21.09377
#
# Velocity S-wave (km/s) = 2.61800 3.70199 3.20614
# Velocity P-wave (km/s) = 3.73322 6.00731 5.00124
#
# Compressibility (1/GPa) = 0.10155871
#
# Stress axis : x y z
#
# Youngs Moduli (GPa) = 13.96605 31.80158 83.94502
#
# Poissons Ratio (x) = -0.67760 1.48551
# Poissons Ratio (y) = -0.29758 0.86560
# Poissons Ratio (z) = 0.24715 0.32792
#
# Static dielectric constant tensor:
#      x y z
#    x 1.678920 0.000000 0.000000 
#    y 0.000000 1.732520 0.000000 
#    z 0.000000 0.000000 1.753970 
# 
# From -- ./inp_files/12655.got.cif
#   From: 2010.05.17/outbox.cif.g08.bks.cpg/sg54_7_cif.got.tgz:12655.got - 2010.06.03 13:09:01.
