data_PCOD9420865
_publ_section_title
;
Structure prediction by ZEFSAII (Michael W. Deem and Ramdas Pophale) SiO2 
 PCOD9420865
Probable space group: P C C A
;
_chemical_formula_sum "Si O2"
_cell_formula_units_Z 48
_cell_length_a 5.216421
_cell_length_b 31.181420
_cell_length_c 16.429971
_cell_angle_alpha 90.000000
_cell_angle_beta 90.000000
_cell_angle_gamma 90.000000
_cell_volume 2672.423737
_symmetry_space_group_name_H-M "P C C A"
_symmetry_group_IT_number 54
_symmetry_cell_setting 'orthorhombic'
loop_
_space_group_symop_operation_xyz
x,y,z
1/2-x,-y,z
1/2+x,-y,1/2-z
-x,y,1/2-z
-x,-y,-z
1/2+x,y,-z
1/2-x,y,1/2+z
x,-y,1/2+z
loop_
_atom_site_type_symbol
_atom_site_label
_atom_site_fract_x
_atom_site_fract_y
_atom_site_fract_z
Si Si1 0.750068 0.953978 0.807598
Si Si2 0.797832 0.209700 0.946575
Si Si3 0.752349 0.449008 0.946433
Si Si4 0.249776 0.859890 0.692849
Si Si5 0.279341 0.689919 0.555064
Si Si6 0.250021 0.619520 0.193913
O O1 0.500000 0.954067 0.750000
O O2 0.751156 0.907336 0.849012
O O3 0.000000 0.954133 0.750000
O O4 0.750000 0.000000 0.853198
O O5 0.755859 0.177663 0.872469
O O6 0.778916 0.259738 0.921937
O O7 0.574680 0.202634 0.012925
O O8 0.750000 0.500000 0.929879
O O9 0.737144 0.421795 0.864658
O O10 0.511105 0.438798 0.004192
O O11 0.500000 0.857263 0.750000
O O12 0.000000 0.856701 0.750000
O O13 0.534922 0.681580 0.502635
O O14 0.267202 0.659985 0.633395
O O15 0.500000 0.622189 0.250000
O O16 0.000000 0.617538 0.250000
#
# Coordination Sequence:
#
# PCOD9420865 Si02
#       6
#     8   8   8   8   8   8
#     4   8  14  25  42  66  94 124 161 202 244 294
#     4  10  21  36  54  75 102 137 171 209 258 309
#     4  10  21  39  61  81 107 148 187 212 247 311
#     4  10  19  31  51  76 100 129 167 213 256 298
#     4  10  21  39  58  74 101 143 181 207 247 316
#     4  12  24  36  56  86 114 137 169 223 274 300
#
# _framework density 17.961224000000001
#
# number of rings (size 3 to 8) (size 9 to 14) (size 15 to 20)
#    0.000    2.000    0.000    4.000    0.000    2.000 
#    0.000    0.000    0.000    1.000    0.000    0.000 
#    0.000    0.000    0.000    0.000    0.000    0.000 
#
# Total GULP energy -267847.203872 kJ/mol
# GULP energy per Si atom -5580.150081 kJ/mol
# Density = 1.792034 g / cm^3
# Si number density = 17.961224 Si / 1000 Ang^3
#
#
#
# Elastic Constant Matrix: (Units=GPa)
#
#
# Indices 1 2 3 4 5 6 
#
# 1 109.7697 12.4521 17.4722 0.0000 0.0000 0.0000
# 2 12.4521 91.4567 60.5997 0.0000 0.0000 0.0000
# 3 17.4722 60.5997 75.9933 0.0000 0.0000 0.0000
# 4 0.0000 0.0000 0.0000 36.5543 0.0000 0.0000
# 5 0.0000 0.0000 0.0000 0.0000 21.8624 0.0000
# 6 0.0000 0.0000 0.0000 0.0000 0.0000 4.0412
#
#
#
# Elastic Compliance Matrix: (Units=1/GPa)
#
#
# Indices 1 2 3 4 5 6 
#
# 1 0.009461 0.000325 -0.002434 0.000000 0.000000 0.000000
# 2 0.000325 0.023196 -0.018572 0.000000 0.000000 0.000000
# 3 -0.002434 -0.018572 0.028528 0.000000 0.000000 0.000000
# 4 0.000000 0.000000 0.000000 0.027357 0.000000 0.000000
# 5 0.000000 0.000000 0.000000 0.000000 0.045741 0.000000
# 6 0.000000 0.000000 0.000000 0.000000 0.000000 0.247453
#
#
# Mechanical properties :
#
#
# Convention : Reuss Voigt Hill
#
# Bulk Modulus (GPa) = 50.44760 50.91864 50.68312
# Shear Modulus (GPa) = 11.63589 24.93794 18.28692
#
# Velocity S-wave (km/s) = 2.54802 3.73021 3.19428
# Velocity P-wave (km/s) = 6.06667 6.85298 6.47178
#
# Compressibility (1/GPa) = 0.01982255
#
# Stress axis : x y z
#
# Youngs Moduli (GPa) = 105.70165 43.11154 35.05271
#
# Poissons Ratio (x) = -0.01400 0.08532
# Poissons Ratio (y) = -0.03433 0.65099
# Poissons Ratio (z) = 0.25730 0.80066
#
# Static dielectric constant tensor:
#      x y z
#    x 1.603680 0.000000 0.000000 
#    y 0.000000 1.654240 0.000000 
#    z 0.000000 0.000000 1.554250 
# 
# From -- ./inp_files/10906.got.cif
#   From: 2010.05.17/outbox.cif.g08.bks.cpg/sg54_6_cif.got.tgz:10906.got - 2010.06.03 13:09:01.
