data_PCOD9420383
_publ_section_title
;
Structure prediction by ZEFSAII (Michael W. Deem and Ramdas Pophale) SiO2 
 PCOD9420383
Probable space group: P C C A
;
_chemical_formula_sum "Si O2"
_cell_formula_units_Z 48
_cell_length_a 24.402757
_cell_length_b 7.484337
_cell_length_c 11.680574
_cell_angle_alpha 90.000000
_cell_angle_beta 90.000000
_cell_angle_gamma 90.000000
_cell_volume 2133.322014
_symmetry_space_group_name_H-M "P C C A"
_symmetry_group_IT_number 54
_symmetry_cell_setting 'orthorhombic'
loop_
_space_group_symop_operation_xyz
x,y,z
1/2-x,-y,z
1/2+x,-y,1/2-z
-x,y,1/2-z
-x,-y,-z
1/2+x,y,-z
1/2-x,y,1/2+z
x,-y,1/2+z
loop_
_atom_site_type_symbol
_atom_site_label
_atom_site_fract_x
_atom_site_fract_y
_atom_site_fract_z
Si Si1 0.165252 0.608509 0.499160
Si Si2 0.928388 0.708406 0.829764
Si Si3 0.500000 0.624959 0.750000
Si Si4 0.741169 0.194219 0.640725
Si Si5 0.250000 0.500000 0.673512
Si Si6 0.377170 0.735004 0.405046
Si Si7 0.510632 0.284377 0.488853
O O1 0.118216 0.696148 0.574194
O O2 0.209981 0.736780 0.441171
O O3 0.198455 0.485649 0.589415
O O4 0.137429 0.477241 0.407396
O O5 0.951348 0.514786 0.784326
O O6 0.902271 0.792171 0.716773
O O7 0.978544 0.793174 0.901560
O O8 0.510665 0.745698 0.638827
O O9 0.738884 0.334929 0.743445
O O10 0.682360 0.181561 0.578223
O O11 0.750000 0.000000 0.689912
O O12 0.425442 0.758879 0.496627
O O13 0.500000 0.500000 0.500000
#
# Coordination Sequence:
#
# PCOD9420383 Si02
#       7
#     8   8   4   8   4   8   8
#     4  12  21  38  64  94 128 176 224 281 337 413
#     4  11  18  31  57  95 131 168 222 278 342 407
#     4  10  16  28  48  96 136 164 222 274 340 422
#     4  12  27  44  64  97 136 179 234 287 348 410
#     4  12  22  42  66  94 126 176 232 280 342 416
#     4  12  19  37  61  93 134 172 222 280 343 409
#     4  10  18  28  55  97 129 168 220 277 335 422
#
# _framework density 22.500119000000002
#
# number of rings (size 3 to 8) (size 9 to 14) (size 15 to 20)
#    0.000    0.667   11.667    0.000    0.000    0.667 
#    0.000    0.000    0.000    1.000    0.000    4.667 
#    0.000    0.000    0.000    0.000    0.000    0.000 
#
# Total GULP energy -267747.399006 kJ/mol
# GULP energy per Si atom -5578.070813 kJ/mol
# Density = 2.244891 g / cm^3
# Si number density = 22.500119 Si / 1000 Ang^3
#
#
#
# Elastic Constant Matrix: (Units=GPa)
#
#
# Indices 1 2 3 4 5 6 
#
# 1 129.3323 6.1404 37.2862 0.0000 0.0000 0.0000
# 2 6.1404 38.5300 24.3880 0.0000 0.0000 0.0000
# 3 37.2862 24.3880 119.7733 0.0000 0.0000 0.0000
# 4 0.0000 0.0000 0.0000 -13.3979 0.0000 0.0000
# 5 0.0000 0.0000 0.0000 0.0000 47.6312 0.0000
# 6 0.0000 0.0000 0.0000 0.0000 0.0000 2.1555
#
#
#
# Elastic Compliance Matrix: (Units=1/GPa)
#
#
# Indices 1 2 3 4 5 6 
#
# 1 0.008499 0.000368 -0.002721 0.000000 0.000000 0.000000
# 2 0.000368 0.029810 -0.006184 0.000000 0.000000 0.000000
# 3 -0.002721 -0.006184 0.010455 0.000000 0.000000 0.000000
# 4 0.000000 0.000000 0.000000 -0.074638 0.000000 0.000000
# 5 0.000000 0.000000 0.000000 0.000000 0.020995 0.000000
# 6 0.000000 0.000000 0.000000 0.000000 0.000000 0.463934
#
#
# Mechanical properties :
#
#
# Convention : Reuss Voigt Hill
#
# Bulk Modulus (GPa) = 31.55636 47.02943 39.29289
# Shear Modulus (GPa) = 10.27345 21.93249 16.10297
#
# Velocity S-wave (km/s) = 2.13913 3.12552 2.67813
# Velocity P-wave (km/s) = 4.48961 5.82859 5.20235
#
# Compressibility (1/GPa) = 0.03168934
#
# Stress axis : x y z
#
# Youngs Moduli (GPa) = 117.66212 33.54622 95.64556
#
# Poissons Ratio (x) = -0.01233 0.26021
# Poissons Ratio (y) = -0.04325 0.59149
# Poissons Ratio (z) = 0.32011 0.20746
#
# Static dielectric constant tensor:
#      x y z
#    x 1.912430 0.000000 0.000000 
#    y 0.000000 1.844690 0.000000 
#    z 0.000000 0.000000 1.870320 
# 
# From -- ./inp_files/9962.got.cif
#   From: 2010.05.17/outbox.cif.g08.bks.cpg/sg54_5_cif.got.tgz:9962.got - 2010.06.03 13:09:01.
