data_PCOD9420462
_publ_section_title
;
Structure prediction by ZEFSAII (Michael W. Deem and Ramdas Pophale) SiO2 
 PCOD9420462
Probable space group: P C C A
;
_chemical_formula_sum "Si O2"
_cell_formula_units_Z 32
_cell_length_a 5.329700
_cell_length_b 7.083124
_cell_length_c 35.280045
_cell_angle_alpha 90.000000
_cell_angle_beta 90.000000
_cell_angle_gamma 90.000000
_cell_volume 1331.854367
_symmetry_space_group_name_H-M "P C C A"
_symmetry_group_IT_number 54
_symmetry_cell_setting 'orthorhombic'
loop_
_space_group_symop_operation_xyz
x,y,z
1/2-x,-y,z
1/2+x,-y,1/2-z
-x,y,1/2-z
-x,-y,-z
1/2+x,y,-z
1/2-x,y,1/2+z
x,-y,1/2+z
loop_
_atom_site_type_symbol
_atom_site_label
_atom_site_fract_x
_atom_site_fract_y
_atom_site_fract_z
Si Si1 0.015516 0.715179 0.984146
Si Si2 0.681807 0.283743 0.368009
Si Si3 0.001179 0.871595 0.208095
Si Si4 0.685423 0.717683 0.102322
O O1 0.082492 0.717880 0.940138
O O2 0.746518 0.799075 0.992902
O O3 0.000000 0.500000 0.000000
O O4 0.750000 0.500000 0.378085
O O5 0.552756 0.266862 0.326933
O O6 0.466298 0.199046 0.395178
O O7 0.962790 0.199333 0.371467
O O8 0.000000 0.779974 0.250000
O O9 0.250000 0.000000 0.208076
O O10 0.750000 0.000000 0.203753
O O11 0.750000 0.500000 0.113161
#
# Coordination Sequence:
#
# PCOD9420462 Si02
#       4
#     8   8   8   8
#     4  10  17  24  41  65 101 153 179 216 259 336
#     4  10  21  34  53  82 116 148 172 232 289 342
#     4  10  21  40  63  83 108 147 197 239 274 337
#     4  10  18  29  45  72 114 151 172 217 283 334
#
# _framework density 24.026654000000001
#
# number of rings (size 3 to 8) (size 9 to 14) (size 15 to 20)
#    0.000    2.000    2.500    3.000    7.000    0.000 
#    0.000    7.500    0.000    0.000    0.000    0.000 
#    0.000   70.000    0.000    0.000    0.000    0.000 
#
# Total GULP energy -178516.127967 kJ/mol
# GULP energy per Si atom -5578.628999 kJ/mol
# Density = 2.397197 g / cm^3
# Si number density = 24.026654 Si / 1000 Ang^3
#
#
#
# Elastic Constant Matrix: (Units=GPa)
#
#
# Indices 1 2 3 4 5 6 
#
# 1 261.2608 17.4274 65.4265 0.0000 0.0000 0.0000
# 2 17.4274 68.0497 -0.9502 0.0000 0.0000 0.0000
# 3 65.4265 -0.9502 158.0966 0.0000 0.0000 0.0000
# 4 0.0000 0.0000 0.0000 -139.7773 0.0000 0.0000
# 5 0.0000 0.0000 0.0000 0.0000 45.2954 0.0000
# 6 0.0000 0.0000 0.0000 0.0000 0.0000 -2.5510
#
#
#
# Elastic Compliance Matrix: (Units=1/GPa)
#
#
# Indices 1 2 3 4 5 6 
#
# 1 0.004357 -0.001141 -0.001810 0.000000 0.000000 0.000000
# 2 -0.001141 0.014995 0.000562 0.000000 0.000000 0.000000
# 3 -0.001810 0.000562 0.007078 0.000000 0.000000 0.000000
# 4 0.000000 0.000000 0.000000 -0.007154 0.000000 0.000000
# 5 0.000000 0.000000 0.000000 0.000000 0.022077 0.000000
# 6 0.000000 0.000000 0.000000 0.000000 0.000000 -0.392008
#
#
# Mechanical properties :
#
#
# Convention : Reuss Voigt Hill
#
# Bulk Modulus (GPa) = 46.18406 72.35717 59.27061
# Shear Modulus (GPa) = -14.76407 7.62700 -3.56853
#
# Velocity S-wave (km/s) = -2.48157 1.78361 -1.22003
# Velocity P-wave (km/s) = 3.32457 5.86707 4.76840
#
# Compressibility (1/GPa) = 0.02165249
#
# Stress axis : x y z
#
# Youngs Moduli (GPa) = 229.51764 66.68789 141.28990
#
# Poissons Ratio (x) = 0.07610 0.25573
# Poissons Ratio (y) = 0.26190 -0.07945
# Poissons Ratio (z) = 0.41541 -0.03750
#
# Static dielectric constant tensor:
#      x y z
#    x 2.060610 0.000000 0.000000 
#    y 0.000000 1.937290 0.000000 
#    z 0.000000 0.000000 1.926210 
# 
# From -- ./inp_files/26835.got.cif
#   From: 2010.05.17/outbox.cif.g08.bks.cpg/sg54_14_cif.got.tgz:26835.got - 2010.06.03 13:09:01.
