data_PCOD9420050
_publ_section_title
;
Structure prediction by ZEFSAII (Michael W. Deem and Ramdas Pophale) SiO2 
 PCOD9420050
Probable space group: P M N A
;
_chemical_formula_sum "Si O2"
_cell_formula_units_Z 56
_cell_length_a 7.326818
_cell_length_b 11.307491
_cell_length_c 30.052973
_cell_angle_alpha 90.000000
_cell_angle_beta 90.000000
_cell_angle_gamma 90.000000
_cell_volume 2489.826561
_symmetry_space_group_name_H-M "P M N A"
_symmetry_group_IT_number 53
_symmetry_cell_setting 'orthorhombic'
loop_
_space_group_symop_operation_xyz
x,y,z
1/2-x,-y,1/2+z
x,-y,-z
1/2-x,y,1/2-z
-x,-y,-z
1/2+x,y,1/2-z
-x,y,z
1/2+x,-y,1/2+z
loop_
_atom_site_type_symbol
_atom_site_label
_atom_site_fract_x
_atom_site_fract_y
_atom_site_fract_z
Si Si1 0.722551 0.873517 0.980309
Si Si2 0.781623 0.129726 0.302251
Si Si3 0.221969 0.376226 0.523878
Si Si4 0.283463 0.870711 0.197186
Si Si5 0.222211 0.759631 0.608530
Si Si6 0.281745 0.387185 0.802107
Si Si7 0.722070 0.499096 0.889953
O O1 0.500000 0.874767 0.982216
O O2 0.780727 0.751668 0.005228
O O3 0.776447 0.853854 0.928773
O O4 0.782804 0.000000 0.000000
O O5 0.750000 0.155693 0.250000
O O6 0.717257 0.215878 0.341055
O O7 0.000000 0.125459 0.305396
O O8 0.711361 0.998949 0.315713
O O9 0.277878 0.500000 0.500000
O O10 0.274662 0.398309 0.575207
O O11 0.000000 0.374562 0.520393
O O12 0.250000 0.869627 0.250000
O O13 0.500000 0.871133 0.187770
O O14 0.211302 0.742879 0.183668
O O15 0.279767 0.628622 0.594418
O O16 0.000000 0.760110 0.608697
O O17 0.250000 0.411930 0.750000
O O18 0.500000 0.382218 0.805535
O O19 0.217196 0.477161 0.839475
O O20 0.500000 0.500193 0.890117
#
# Coordination Sequence:
#
# PCOD9420050 Si02
#       7
#     8   8   8   8   8   8   8
#     4   9  16  24  36  57  83 110 140 177 222 268
#     4   9  17  28  43  61  85 117 148 179 217 261
#     4   9  14  23  38  53  75 107 140 173 212 262
#     4   8  14  25  39  55  76 105 140 174 210 249
#     4   9  16  26  38  55  82 112 141 175 217 261
#     4   9  17  28  42  61  86 114 144 180 217 256
#     4   9  16  25  39  57  78 110 146 175 212 262
#
# _framework density 22.491526
#
# number of rings (size 3 to 8) (size 9 to 14) (size 15 to 20)
#    0.000    3.143    1.429    0.000    0.000    1.714 
#    0.000    5.714    0.000    0.000    0.000    0.000 
#    0.000    2.286    0.000    0.143    0.000    0.143 
#
# Total GULP energy -311918.251788 kJ/mol
# GULP energy per Si atom -5569.968782 kJ/mol
# Density = 2.244033 g / cm^3
# Si number density = 22.491526 Si / 1000 Ang^3
#
#
#
# Elastic Constant Matrix: (Units=GPa)
#
#
# Indices 1 2 3 4 5 6 
#
# 1 87.1827 2.5329 -1.1518 0.0000 0.0000 0.0000
# 2 2.5329 140.0253 81.9194 0.0000 0.0000 0.0000
# 3 -1.1518 81.9194 145.0645 0.0000 0.0000 0.0000
# 4 0.0000 0.0000 0.0000 41.1447 0.0000 0.0000
# 5 0.0000 0.0000 0.0000 0.0000 1.6319 0.0000
# 6 0.0000 0.0000 0.0000 0.0000 0.0000 -12.8651
#
#
#
# Elastic Compliance Matrix: (Units=1/GPa)
#
#
# Indices 1 2 3 4 5 6 
#
# 1 0.011486 -0.000390 0.000311 0.000000 0.000000 0.000000
# 2 -0.000390 0.010678 -0.006033 0.000000 0.000000 0.000000
# 3 0.000311 -0.006033 0.010303 0.000000 0.000000 0.000000
# 4 0.000000 0.000000 0.000000 0.024304 0.000000 0.000000
# 5 0.000000 0.000000 0.000000 0.000000 0.612766 0.000000
# 6 0.000000 0.000000 0.000000 0.000000 0.000000 -0.077730
#
#
# Mechanical properties :
#
#
# Convention : Reuss Voigt Hill
#
# Bulk Modulus (GPa) = 49.39902 59.87484 54.63693
# Shear Modulus (GPa) = 8.18626 25.24712 16.71669
#
# Velocity S-wave (km/s) = 1.90987 3.35403 2.72921
# Velocity P-wave (km/s) = 5.18407 6.45587 5.85460
#
# Compressibility (1/GPa) = 0.02024332
#
# Stress axis : x y z
#
# Youngs Moduli (GPa) = 87.06549 93.64837 97.05942
#
# Poissons Ratio (x) = 0.03652 -0.03022
# Poissons Ratio (y) = 0.03395 0.58558
# Poissons Ratio (z) = -0.02711 0.56500
#
# Static dielectric constant tensor:
#      x y z
#    x 1.902690 0.000000 0.000000 
#    y 0.000000 1.865510 0.000000 
#    z 0.000000 0.000000 1.812210 
# 
# From -- ./inp_files/34989.got.cif
#   From: 2010.05.17/outbox.cif.g08.bks.cpg/sg53_18_cif.got.tgz:34989.got - 2010.06.03 12:45:16.
