data_PCOD9420097
_publ_section_title
;
Structure prediction by ZEFSAII (Michael W. Deem and Ramdas Pophale) SiO2 
 PCOD9420097
Probable space group: P M N A
;
_chemical_formula_sum "Si O2"
_cell_formula_units_Z 52
_cell_length_a 9.000000
_cell_length_b 12.000000
_cell_length_c 27.000000
_cell_angle_alpha 90.000000
_cell_angle_beta 90.000000
_cell_angle_gamma 90.000000
_cell_volume 2916.000000
_symmetry_space_group_name_H-M "P M N A"
_symmetry_group_IT_number 53
_symmetry_cell_setting 'orthorhombic'
loop_
_space_group_symop_operation_xyz
x,y,z
1/2-x,-y,1/2+z
x,-y,-z
1/2-x,y,1/2-z
-x,-y,-z
1/2+x,y,1/2-z
-x,y,z
1/2+x,-y,1/2+z
loop_
_atom_site_type_symbol
_atom_site_label
_atom_site_fract_x
_atom_site_fract_y
_atom_site_fract_z
Si Si1 0.677488 0.185038 0.627097
Si Si2 0.178976 0.871590 0.012766
Si Si3 0.320240 0.367891 0.803184
Si Si4 0.750000 0.207841 0.250000
Si Si5 0.831818 0.061476 0.157541
Si Si6 0.677997 0.775493 0.916419
Si Si7 0.328352 0.613578 0.833126
O O1 0.500000 0.208338 0.628181
O O2 0.719053 0.161888 0.569347
O O3 0.764880 0.283531 0.654363
O O4 0.701725 0.069601 0.657275
O O5 0.000000 0.865415 0.009301
O O6 0.250099 0.794730 0.970021
O O7 0.221476 0.000000 0.000000
O O8 0.250000 0.337352 0.750000
O O9 0.500000 0.365967 0.799512
O O10 0.266766 0.494382 0.816227
O O11 0.826602 0.123740 0.210618
O O12 0.675873 0.295156 0.211271
O O13 0.722556 0.121285 0.119056
O O14 0.000000 0.073528 0.137527
O O15 0.500000 0.769334 0.921064
O O16 0.734850 0.670852 0.882975
O O17 0.500000 0.592154 0.844364
#
# Coordination Sequence:
#
# PCOD9420097 Si02
#       7
#     8   8   8   4   8   8   8
#     4  10  22  39  57  83 116 151 191 230 278 340
#     4  10  19  37  60  82 114 152 188 231 286 339
#     4  11  23  41  61  83 113 153 194 232 279 331
#     4  10  18  32  56  84 112 142 192 232 286 332
#     4  10  20  35  55  81 115 151 184 228 286 337
#     4  10  20  34  57  88 117 143 185 235 283 336
#     4   9  19  36  55  81 114 147 186 235 282 332
#
# _framework density 17.832647000000001
#
# number of rings (size 3 to 8) (size 9 to 14) (size 15 to 20)
#    0.000    2.000    2.308    1.385    1.077    2.154 
#    0.000    3.077    0.000    4.615    0.000    0.000 
#    0.000    0.000    0.000    0.000    0.000    0.000 
#
# Total GULP energy -289704.116878 kJ/mol
# GULP energy per Si atom -5571.233017 kJ/mol
# Density = 1.779206 g / cm^3
# Si number density = 17.832647 Si / 1000 Ang^3
#
#
#
# Elastic Constant Matrix: (Units=GPa)
#
#
# Indices 1 2 3 4 5 6 
#
# 1 42.2134 29.7179 36.5275 0.0000 0.0000 0.0000
# 2 29.7179 100.1785 69.5426 0.0000 0.0000 0.0000
# 3 36.5275 69.5426 142.3102 0.0000 0.0000 0.0000
# 4 0.0000 0.0000 0.0000 32.5555 0.0000 0.0000
# 5 0.0000 0.0000 0.0000 0.0000 32.7452 0.0000
# 6 0.0000 0.0000 0.0000 0.0000 0.0000 17.7439
#
#
#
# Elastic Compliance Matrix: (Units=1/GPa)
#
#
# Indices 1 2 3 4 5 6 
#
# 1 0.032563 -0.005838 -0.005505 0.000000 0.000000 0.000000
# 2 -0.005838 0.016154 -0.006395 0.000000 0.000000 0.000000
# 3 -0.005505 -0.006395 0.011565 0.000000 0.000000 0.000000
# 4 0.000000 0.000000 0.000000 0.030717 0.000000 0.000000
# 5 0.000000 0.000000 0.000000 0.000000 0.030539 0.000000
# 6 0.000000 0.000000 0.000000 0.000000 0.000000 0.056357
#
#
# Mechanical properties :
#
#
# Convention : Reuss Voigt Hill
#
# Bulk Modulus (GPa) = 40.31543 61.80868 51.06206
# Shear Modulus (GPa) = 22.55916 26.53655 24.54786
#
# Velocity S-wave (km/s) = 3.56061 3.86176 3.71424
# Velocity P-wave (km/s) = 6.28973 7.39053 6.86224
#
# Compressibility (1/GPa) = 0.02480440
#
# Stress axis : x y z
#
# Youngs Moduli (GPa) = 30.70987 61.90591 86.46719
#
# Poissons Ratio (x) = 0.36142 0.47601
# Poissons Ratio (y) = 0.17929 0.55298
# Poissons Ratio (z) = 0.16906 0.39590
#
# Static dielectric constant tensor:
#      x y z
#    x 1.620250 0.000000 0.000000 
#    y 0.000000 1.630320 0.000000 
#    z 0.000000 0.000000 1.602120 
# 
# From -- ./inp_files/36235.got.cif
#   From: 2010.05.17/outbox.ucp.g08.bks.cvg/sg53_19_cif.got.tgz:36235.got - 2010.06.11 16:32:34.
