data_PCOD9420443
_publ_section_title
;
Structure prediction by ZEFSAII (Michael W. Deem and Ramdas Pophale) SiO2 
 PCOD9420443
Probable space group: P C C A
;
_chemical_formula_sum "Si O2"
_cell_formula_units_Z 32
_cell_length_a 13.210913
_cell_length_b 20.519264
_cell_length_c 5.445806
_cell_angle_alpha 90.000000
_cell_angle_beta 90.000000
_cell_angle_gamma 90.000000
_cell_volume 1476.239351
_symmetry_space_group_name_H-M "P C C A"
_symmetry_group_IT_number 54
_symmetry_cell_setting 'orthorhombic'
loop_
_space_group_symop_operation_xyz
x,y,z
1/2-x,-y,z
1/2+x,-y,1/2-z
-x,y,1/2-z
-x,-y,-z
1/2+x,y,-z
1/2-x,y,1/2+z
x,-y,1/2+z
loop_
_atom_site_type_symbol
_atom_site_label
_atom_site_fract_x
_atom_site_fract_y
_atom_site_fract_z
Si Si1 0.184449 0.327695 0.745340
Si Si2 0.365623 0.525327 0.840581
Si Si3 0.500000 0.144307 0.750000
Si Si4 0.866003 0.025722 0.157730
Si Si5 0.000000 0.772528 0.250000
O O1 0.247544 0.322471 0.492038
O O2 0.135820 0.399744 0.760125
O O3 0.098630 0.273169 0.746911
O O4 0.250000 0.500000 0.870314
O O5 0.407669 0.484121 0.613144
O O6 0.399970 0.097853 0.762035
O O7 0.497678 0.185478 0.500081
O O8 0.750000 0.000000 0.134479
O O9 0.906267 0.982840 0.383123
#
# Coordination Sequence:
#
# PCOD9420443 Si02
#       5
#     8   8   4   8   4
#     4  12  23  45  70  93 142 184 229 297 339 405
#     4  10  16  32  64  94 123 171 223 286 366 387
#     4  12  24  49  68  95 154 172 216 296 314 410
#     4  10  21  41  71 105 132 171 216 272 347 389
#     4  12  30  47  64 109 136 194 240 256 342 422
#
# _framework density 21.676703
#
# number of rings (size 3 to 8) (size 9 to 14) (size 15 to 20)
#    0.000    1.000    5.000    3.750    0.000    0.000 
#   27.000    1.250    0.000    0.000    0.000    0.000 
#    0.000    0.000    0.000    0.000    0.000    0.000 
#
# Total GULP energy -178582.420821 kJ/mol
# GULP energy per Si atom -5580.700651 kJ/mol
# Density = 2.162737 g / cm^3
# Si number density = 21.676703 Si / 1000 Ang^3
#
#
#
# Elastic Constant Matrix: (Units=GPa)
#
#
# Indices 1 2 3 4 5 6 
#
# 1 100.4048 38.8394 47.2236 0.0000 0.0000 0.0000
# 2 38.8394 143.9198 55.4736 0.0000 0.0000 0.0000
# 3 47.2236 55.4736 219.1109 0.0000 0.0000 0.0000
# 4 0.0000 0.0000 0.0000 51.0230 0.0000 0.0000
# 5 0.0000 0.0000 0.0000 0.0000 31.6645 0.0000
# 6 0.0000 0.0000 0.0000 0.0000 0.0000 -10.3354
#
#
#
# Elastic Compliance Matrix: (Units=1/GPa)
#
#
# Indices 1 2 3 4 5 6 
#
# 1 0.011812 -0.002445 -0.001927 0.000000 0.000000 0.000000
# 2 -0.002445 0.008206 -0.001551 0.000000 0.000000 0.000000
# 3 -0.001927 -0.001551 0.005372 0.000000 0.000000 0.000000
# 4 0.000000 0.000000 0.000000 0.019599 0.000000 0.000000
# 5 0.000000 0.000000 0.000000 0.000000 0.031581 0.000000
# 6 0.000000 0.000000 0.000000 0.000000 0.000000 -0.096755
#
#
# Mechanical properties :
#
#
# Convention : Reuss Voigt Hill
#
# Bulk Modulus (GPa) = 73.82936 82.94538 78.38737
# Shear Modulus (GPa) = -1306.81978 35.93033 -635.44472
#
# Velocity S-wave (km/s) = -24.58001 4.07573 -17.14009
# Velocity P-wave (km/s) = 27.77474 7.77795 18.85391
#
# Compressibility (1/GPa) = 0.01354475
#
# Stress axis : x y z
#
# Youngs Moduli (GPa) = 84.66220 121.86514 186.16042
#
# Poissons Ratio (x) = 0.29795 0.35867
# Poissons Ratio (y) = 0.20700 0.28865
# Poissons Ratio (z) = 0.16312 0.18896
#
# Static dielectric constant tensor:
#      x y z
#    x 1.747440 0.000000 0.000000 
#    y 0.000000 1.762340 0.000000 
#    z 0.000000 0.000000 1.809860 
# 
# From -- ./inp_files/394.got.cif
#   From: 2010.05.17/outbox.cif.g08.bks.cpg/sg54_1_cif.got.tgz:394.got - 2010.06.03 13:09:01.
