data_PCOD9420040
_publ_section_title
;
Structure prediction by ZEFSAII (Michael W. Deem and Ramdas Pophale) SiO2 
 PCOD9420040
Probable space group: P M N A
;
_chemical_formula_sum "Si O2"
_cell_formula_units_Z 56
_cell_length_a 7.260911
_cell_length_b 15.274564
_cell_length_c 27.549597
_cell_angle_alpha 90.000000
_cell_angle_beta 90.000000
_cell_angle_gamma 90.000000
_cell_volume 3055.450035
_symmetry_space_group_name_H-M "P M N A"
_symmetry_group_IT_number 53
_symmetry_cell_setting 'orthorhombic'
loop_
_space_group_symop_operation_xyz
x,y,z
1/2-x,-y,1/2+z
x,-y,-z
1/2-x,y,1/2-z
-x,-y,-z
1/2+x,y,1/2-z
-x,y,z
1/2+x,-y,1/2+z
loop_
_atom_site_type_symbol
_atom_site_label
_atom_site_fract_x
_atom_site_fract_y
_atom_site_fract_z
Si Si1 0.775327 0.189130 0.434523
Si Si2 0.724107 0.572475 0.067110
Si Si3 0.276085 0.381346 0.042799
Si Si4 0.780898 0.882409 0.306919
Si Si5 0.777369 0.874747 0.460104
Si Si6 0.276918 0.264508 0.877144
Si Si7 0.724335 0.020247 0.114017
O O1 0.715261 0.289965 0.434044
O O2 0.716251 0.148145 0.486144
O O3 0.717656 0.120337 0.393314
O O4 0.000000 0.190683 0.434420
O O5 0.500000 0.572296 0.067463
O O6 0.782531 0.471370 0.068512
O O7 0.786177 0.638205 0.109285
O O8 0.776739 0.610140 0.013996
O O9 0.500000 0.380711 0.042957
O O10 0.750000 0.890074 0.250000
O O11 0.713013 0.791113 0.330645
O O12 0.000000 0.881596 0.314155
O O13 0.713647 0.964369 0.339349
O O14 0.730694 0.796731 0.423163
O O15 0.000000 0.878499 0.462413
O O16 0.720115 0.963685 0.433413
O O17 0.500000 0.268818 0.874568
O O18 0.500000 0.020470 0.114775
#
# Coordination Sequence:
#
# PCOD9420040 Si02
#       7
#     8   8   8   8   8   8   8
#     4   9  12  15  23  39  64  93 117 138 164 201
#     4   8  11  16  23  37  62  94 123 138 156 198
#     4   8  12  14  21  37  62  96 124 136 153 197
#     4   9  17  28  40  54  70  90 117 151 186 216
#     4   8  11  15  23  38  61  89 113 133 162 203
#     4   8  12  19  31  45  65  91 117 142 171 208
#     4   8  14  20  28  43  64  88 114 142 174 208
#
# _framework density 18.327905999999999
#
# number of rings (size 3 to 8) (size 9 to 14) (size 15 to 20)
#    0.000    3.714    1.429    3.000    0.000    1.714 
#    0.000    0.000    0.000    0.000    0.000    1.000 
#    0.000    9.143    0.000    2.571    0.000    2.857 
#
# Total GULP energy -311949.811217 kJ/mol
# GULP energy per Si atom -5570.532343 kJ/mol
# Density = 1.828619 g / cm^3
# Si number density = 18.327906 Si / 1000 Ang^3
#
#
#
# Elastic Constant Matrix: (Units=GPa)
#
#
# Indices 1 2 3 4 5 6 
#
# 1 79.4437 5.7294 1.5510 0.0000 0.0000 0.0000
# 2 5.7294 201.1740 79.8322 0.0000 0.0000 0.0000
# 3 1.5510 79.8322 89.8461 0.0000 0.0000 0.0000
# 4 0.0000 0.0000 0.0000 15.1420 0.0000 0.0000
# 5 0.0000 0.0000 0.0000 0.0000 -7.2306 0.0000
# 6 0.0000 0.0000 0.0000 0.0000 0.0000 -19.4289
#
#
#
# Elastic Compliance Matrix: (Units=1/GPa)
#
#
# Indices 1 2 3 4 5 6 
#
# 1 0.012615 -0.000421 0.000157 0.000000 0.000000 0.000000
# 2 -0.000421 0.007692 -0.006828 0.000000 0.000000 0.000000
# 3 0.000157 -0.006828 0.017194 0.000000 0.000000 0.000000
# 4 0.000000 0.000000 0.000000 0.066042 0.000000 0.000000
# 5 0.000000 0.000000 0.000000 0.000000 -0.138301 0.000000
# 6 0.000000 0.000000 0.000000 0.000000 0.000000 -0.051470
#
#
# Mechanical properties :
#
#
# Convention : Reuss Voigt Hill
#
# Bulk Modulus (GPa) = 42.88815 60.52101 51.70458
# Shear Modulus (GPa) = -77.79607 16.58657 -30.60475
#
# Velocity S-wave (km/s) = -6.52219 3.01157 -4.09081
# Velocity P-wave (km/s) = 5.76778 6.72203 2.44114
#
# Compressibility (1/GPa) = 0.02331646
#
# Stress axis : x y z
#
# Youngs Moduli (GPa) = 79.27158 130.00112 58.15953
#
# Poissons Ratio (x) = 0.05479 -0.00911
# Poissons Ratio (y) = 0.03341 0.39709
# Poissons Ratio (z) = -0.01242 0.88760
#
# Static dielectric constant tensor:
#      x y z
#    x 1.750870 0.000000 0.000000 
#    y 0.000000 1.669000 0.000000 
#    z 0.000000 0.000000 1.597650 
# 
# From -- ./inp_files/38361.got.cif
#   From: 2010.05.17/outbox.cif.g08.bks.cpg/sg53_20_cif.got.tgz:38361.got - 2010.06.03 12:45:16.
