data_PCOD9420055
_publ_section_title
;
Structure prediction by ZEFSAII (Michael W. Deem and Ramdas Pophale) SiO2 
 PCOD9420055
Probable space group: P M N A
;
_chemical_formula_sum "Si O2"
_cell_formula_units_Z 48
_cell_length_a 14.417107
_cell_length_b 18.255388
_cell_length_c 7.054484
_cell_angle_alpha 90.000000
_cell_angle_beta 90.000000
_cell_angle_gamma 90.000000
_cell_volume 1856.668812
_symmetry_space_group_name_H-M "P M N A"
_symmetry_group_IT_number 53
_symmetry_cell_setting 'orthorhombic'
loop_
_space_group_symop_operation_xyz
x,y,z
1/2-x,-y,1/2+z
x,-y,-z
1/2-x,y,1/2-z
-x,-y,-z
1/2+x,y,1/2-z
-x,y,z
1/2+x,-y,1/2+z
loop_
_atom_site_type_symbol
_atom_site_label
_atom_site_fract_x
_atom_site_fract_y
_atom_site_fract_z
Si Si1 0.607582 0.665517 0.429245
Si Si2 0.138455 0.981207 0.222280
Si Si3 0.858985 0.136557 0.257611
Si Si4 0.114206 0.426203 0.603142
Si Si5 0.611107 0.294365 0.159942
Si Si6 0.857834 0.176725 0.816624
O O1 0.500000 0.648567 0.466351
O O2 0.645077 0.595943 0.314764
O O3 0.650243 0.686923 0.630814
O O4 0.608655 0.739639 0.301739
O O5 0.250000 0.975934 0.250000
O O6 0.104867 0.899613 0.270668
O O7 0.104241 0.056768 0.316263
O O8 0.122506 0.000000 0.000000
O O9 0.750000 0.125479 0.250000
O O10 0.873643 0.208664 0.382583
O O11 0.881075 0.159741 0.040751
O O12 0.144461 0.500000 0.500000
O O13 0.144283 0.356709 0.479375
O O14 0.000000 0.428217 0.607175
O O15 0.500000 0.300624 0.165798
O O16 0.750000 0.179854 0.750000
#
# Coordination Sequence:
#
# PCOD9420055 Si02
#       6
#     8   8   8   8   8   8
#     4   9  18  32  49  72  99 124 156 197 238 283
#     4   8  14  26  41  63  94 120 160 198 227 268
#     4   9  17  28  46  70  93 127 161 196 235 278
#     4   9  18  32  52  75  95 121 156 195 240 287
#     4   9  18  32  49  72  99 124 156 197 238 283
#     4   9  17  28  46  70  93 127 161 196 235 278
#
# _framework density 25.852751999999999
#
# number of rings (size 3 to 8) (size 9 to 14) (size 15 to 20)
#    0.000    3.167    0.000    0.000    2.333    0.667 
#    0.000    4.167    0.000    6.000    0.000    3.500 
#    0.000    0.000    0.000    0.000    0.000    0.000 
#
# Total GULP energy -267722.457884 kJ/mol
# GULP energy per Si atom -5577.551206 kJ/mol
# Density = 2.579391 g / cm^3
# Si number density = 25.852752 Si / 1000 Ang^3
#
#
#
# Elastic Constant Matrix: (Units=GPa)
#
#
# Indices 1 2 3 4 5 6 
#
# 1 76.5473 -18.3134 -15.8794 0.0000 0.0000 0.0000
# 2 -18.3134 154.3465 46.3217 0.0000 0.0000 0.0000
# 3 -15.8794 46.3217 78.3058 0.0000 0.0000 0.0000
# 4 0.0000 0.0000 0.0000 42.7069 0.0000 0.0000
# 5 0.0000 0.0000 0.0000 0.0000 6.0724 0.0000
# 6 0.0000 0.0000 0.0000 0.0000 0.0000 21.4000
#
#
#
# Elastic Compliance Matrix: (Units=1/GPa)
#
#
# Indices 1 2 3 4 5 6 
#
# 1 0.013755 0.000967 0.002218 0.000000 0.000000 0.000000
# 2 0.000967 0.007945 -0.004504 0.000000 0.000000 0.000000
# 3 0.002218 -0.004504 0.015885 0.000000 0.000000 0.000000
# 4 0.000000 0.000000 0.000000 0.023415 0.000000 0.000000
# 5 0.000000 0.000000 0.000000 0.000000 0.164679 0.000000
# 6 0.000000 0.000000 0.000000 0.000000 0.000000 0.046729
#
#
# Mechanical properties :
#
#
# Convention : Reuss Voigt Hill
#
# Bulk Modulus (GPa) = 28.61632 37.05081 32.83356
# Shear Modulus (GPa) = 17.44004 33.84058 25.64031
#
# Velocity S-wave (km/s) = 2.60011 3.62190 3.15267
# Velocity P-wave (km/s) = 4.48409 5.64389 5.09708
#
# Compressibility (1/GPa) = 0.03494510
#
# Stress axis : x y z
#
# Youngs Moduli (GPa) = 72.70036 125.85987 62.95436
#
# Poissons Ratio (x) = -0.12165 -0.13961
# Poissons Ratio (y) = -0.07027 0.28355
# Poissons Ratio (z) = -0.16122 0.56688
#
# Static dielectric constant tensor:
#      x y z
#    x 2.008720 0.000000 0.000000 
#    y 0.000000 2.030740 0.000000 
#    z 0.000000 0.000000 2.136910 
# 
# From -- ./inp_files/8698.got.cif
#   From: 2010.05.17/outbox.cif.g08.bks.cpg/sg53_5_cif.got.tgz:8698.got - 2010.06.03 12:45:16.
