data_PCOD9420467
_publ_section_title
;
Structure prediction by ZEFSAII (Michael W. Deem and Ramdas Pophale) SiO2 
 PCOD9420467
Probable space group: P C C A
;
_chemical_formula_sum "Si O2"
_cell_formula_units_Z 40
_cell_length_a 5.469169
_cell_length_b 9.353935
_cell_length_c 33.576595
_cell_angle_alpha 90.000000
_cell_angle_beta 90.000000
_cell_angle_gamma 90.000000
_cell_volume 1717.719886
_symmetry_space_group_name_H-M "P C C A"
_symmetry_group_IT_number 54
_symmetry_cell_setting 'orthorhombic'
loop_
_space_group_symop_operation_xyz
x,y,z
1/2-x,-y,z
1/2+x,-y,1/2-z
-x,y,1/2-z
-x,-y,-z
1/2+x,y,-z
1/2-x,y,1/2+z
x,-y,1/2+z
loop_
_atom_site_type_symbol
_atom_site_label
_atom_site_fract_x
_atom_site_fract_y
_atom_site_fract_z
Si Si1 0.999015 0.590870 0.296276
Si Si2 0.651472 0.225938 0.368583
Si Si3 0.250000 0.500000 0.573806
Si Si4 0.315211 0.159941 0.986667
Si Si5 0.341237 0.811867 0.395149
Si Si6 0.750000 0.500000 0.076375
O O1 0.750000 0.500000 0.301954
O O2 0.958322 0.718680 0.327104
O O3 0.250000 0.500000 0.303301
O O4 0.000000 0.635914 0.250000
O O5 0.706055 0.362154 0.397843
O O6 0.430845 0.130249 0.386122
O O7 0.924782 0.162180 0.367418
O O8 0.503542 0.489520 0.551487
O O9 0.398007 0.153091 0.940952
O O10 0.250000 0.000000 0.001818
O O11 0.542451 0.225394 0.010606
O O12 0.282126 0.639912 0.396089
#
# Coordination Sequence:
#
# PCOD9420467 Si02
#       6
#     8   8   4   8   8   4
#     4  10  19  28  41  65 100 140 177 207 237 283
#     4  10  17  27  45  66  97 128 170 203 234 285
#     4   8  14  22  38  56  86 120 154 188 218 270
#     4  10  21  38  57  74  97 126 157 204 264 311
#     4  10  19  31  49  73  95 127 169 200 242 295
#     4   8  16  26  40  66  90 118 150 190 228 272
#
# _framework density 23.286683
#
# number of rings (size 3 to 8) (size 9 to 14) (size 15 to 20)
#    0.000    2.400    1.000    2.400    5.600    0.000 
#    0.000    1.000    0.000    0.000    0.000    0.000 
#    0.000    3.200    0.000    0.000    0.000    0.000 
#
# Total GULP energy -222837.474762 kJ/mol
# GULP energy per Si atom -5570.936869 kJ/mol
# Density = 2.323368 g / cm^3
# Si number density = 23.286683 Si / 1000 Ang^3
#
#
#
# Elastic Constant Matrix: (Units=GPa)
#
#
# Indices 1 2 3 4 5 6 
#
# 1 276.9937 8.1017 33.9712 0.0000 0.0000 0.0000
# 2 8.1017 50.8778 13.2739 0.0000 0.0000 0.0000
# 3 33.9712 13.2739 98.8779 0.0000 0.0000 0.0000
# 4 0.0000 0.0000 0.0000 13.2091 0.0000 0.0000
# 5 0.0000 0.0000 0.0000 0.0000 17.3105 0.0000
# 6 0.0000 0.0000 0.0000 0.0000 0.0000 10.7764
#
#
#
# Elastic Compliance Matrix: (Units=1/GPa)
#
#
# Indices 1 2 3 4 5 6 
#
# 1 0.003773 -0.000272 -0.001260 0.000000 0.000000 0.000000
# 2 -0.000272 0.020388 -0.002643 0.000000 0.000000 0.000000
# 3 -0.001260 -0.002643 0.010901 0.000000 0.000000 0.000000
# 4 0.000000 0.000000 0.000000 0.075705 0.000000 0.000000
# 5 0.000000 0.000000 0.000000 0.000000 0.057768 0.000000
# 6 0.000000 0.000000 0.000000 0.000000 0.000000 0.092796
#
#
# Mechanical properties :
#
#
# Convention : Reuss Voigt Hill
#
# Bulk Modulus (GPa) = 37.43741 59.71589 48.57665
# Shear Modulus (GPa) = 17.94782 33.01937 25.48359
#
# Velocity S-wave (km/s) = 2.77922 3.76965 3.31167
# Velocity P-wave (km/s) = 5.13911 6.68180 5.96058
#
# Compressibility (1/GPa) = 0.02671125
#
# Stress axis : x y z
#
# Youngs Moduli (GPa) = 265.06692 49.04858 91.73364
#
# Poissons Ratio (x) = 0.01335 0.11555
# Poissons Ratio (y) = 0.07213 0.24250
# Poissons Ratio (z) = 0.33388 0.12966
#
# Static dielectric constant tensor:
#      x y z
#    x 2.096890 0.000000 0.000000 
#    y 0.000000 2.027670 0.000000 
#    z 0.000000 0.000000 1.805440 
# 
# From -- ./inp_files/27068.got.cif
#   From: 2010.05.17/outbox.cif.g08.bks.cpg/sg54_14_cif.got.tgz:27068.got - 2010.06.03 13:09:01.
