data_PCOD9420266
_publ_section_title
;
Structure prediction by ZEFSAII (Michael W. Deem and Ramdas Pophale) SiO2 
 PCOD9420266
Probable space group: P M N A
;
_chemical_formula_sum "Si O2"
_cell_formula_units_Z 56
_cell_length_a 21.000000
_cell_length_b 15.000000
_cell_length_c 9.000000
_cell_angle_alpha 90.000000
_cell_angle_beta 90.000000
_cell_angle_gamma 90.000000
_cell_volume 2835.000000
_symmetry_space_group_name_H-M "P M N A"
_symmetry_group_IT_number 53
_symmetry_cell_setting 'orthorhombic'
loop_
_space_group_symop_operation_xyz
x,y,z
1/2-x,-y,1/2+z
x,-y,-z
1/2-x,y,1/2-z
-x,-y,-z
1/2+x,y,1/2-z
-x,y,z
1/2+x,-y,1/2+z
loop_
_atom_site_type_symbol
_atom_site_label
_atom_site_fract_x
_atom_site_fract_y
_atom_site_fract_z
Si Si1 0.076197 0.902602 0.927963
Si Si2 0.123178 0.295850 0.464391
Si Si3 0.377238 0.705839 0.476412
Si Si4 0.423781 0.097418 0.071474
Si Si5 0.573865 0.396111 0.775021
Si Si6 0.748465 0.399725 0.429296
Si Si7 0.927801 0.404779 0.214346
O O1 0.086224 0.907987 0.749818
O O2 0.000000 0.892021 0.954971
O O3 0.108797 0.809903 0.986799
O O4 0.094413 0.000000 0.000000
O O5 0.110529 0.189701 0.483893
O O6 0.078557 0.363572 0.556236
O O7 0.192327 0.339755 0.484836
O O8 0.105713 0.322426 0.296287
O O9 0.386988 0.682939 0.304263
O O10 0.311146 0.662343 0.527593
O O11 0.425523 0.632266 0.547949
O O12 0.500000 0.109381 0.044649
O O13 0.406222 0.000000 0.000000
O O14 0.500000 0.395710 0.733231
O O15 0.600211 0.496265 0.742693
O O16 0.747090 0.500000 0.500000
O O17 0.750000 0.409448 0.250000
O O18 0.000000 0.410635 0.264453
#
# Coordination Sequence:
#
# PCOD9420266 Si02
#       7
#     8   8   8   8   8   8   8
#     4  10  21  39  64  93 125 163 210 268 332 390
#     4  12  24  40  63  90 130 170 214 264 320 378
#     4  12  24  40  63  90 130 170 214 264 320 378
#     4  10  21  39  64  93 125 163 210 268 332 390
#     4  11  24  37  60  96 129 163 209 266 326 394
#     4  12  26  44  67  92 128 179 226 263 309 379
#     4  11  20  37  60  88 123 163 205 260 328 386
#
# _framework density 19.753086
#
# number of rings (size 3 to 8) (size 9 to 14) (size 15 to 20)
#    0.000    0.857    2.857    5.143    4.000    2.286 
#    0.000    0.714    0.000    0.000    0.000    0.000 
#    0.000    0.000    0.000    0.000    0.000    0.000 
#
# Total GULP energy -312049.669944 kJ/mol
# GULP energy per Si atom -5572.315535 kJ/mol
# Density = 1.970813 g / cm^3
# Si number density = 19.753086 Si / 1000 Ang^3
#
#
#
# Elastic Constant Matrix: (Units=GPa)
#
#
# Indices 1 2 3 4 5 6 
#
# 1 99.0451 57.4958 21.4512 0.0000 0.0000 0.0000
# 2 57.4958 218.2040 26.3399 0.0000 0.0000 0.0000
# 3 21.4512 26.3399 35.6451 0.0000 0.0000 0.0000
# 4 0.0000 0.0000 0.0000 42.9712 0.0000 0.0000
# 5 0.0000 0.0000 0.0000 0.0000 22.2454 0.0000
# 6 0.0000 0.0000 0.0000 0.0000 0.0000 35.5557
#
#
#
# Elastic Compliance Matrix: (Units=1/GPa)
#
#
# Indices 1 2 3 4 5 6 
#
# 1 0.012918 -0.002707 -0.005774 0.000000 0.000000 0.000000
# 2 -0.002707 0.005599 -0.002508 0.000000 0.000000 0.000000
# 3 -0.005774 -0.002508 0.033383 0.000000 0.000000 0.000000
# 4 0.000000 0.000000 0.000000 0.023271 0.000000 0.000000
# 5 0.000000 0.000000 0.000000 0.000000 0.044953 0.000000
# 6 0.000000 0.000000 0.000000 0.000000 0.000000 0.028125
#
#
# Mechanical properties :
#
#
# Convention : Reuss Voigt Hill
#
# Bulk Modulus (GPa) = 33.42077 62.60757 48.01417
# Shear Modulus (GPa) = 27.74673 36.66162 32.20417
#
# Velocity S-wave (km/s) = 3.75197 4.31280 4.04212
# Velocity P-wave (km/s) = 5.97710 7.52092 6.79301
#
# Compressibility (1/GPa) = 0.02992151
#
# Stress axis : x y z
#
# Youngs Moduli (GPa) = 77.40948 178.60605 29.95569
#
# Poissons Ratio (x) = 0.48347 0.17296
# Poissons Ratio (y) = 0.20954 0.07514
# Poissons Ratio (z) = 0.44696 0.44800
#
# Static dielectric constant tensor:
#      x y z
#    x 1.773540 0.000000 0.000000 
#    y 0.000000 1.646170 0.000000 
#    z 0.000000 0.000000 1.732690 
# 
# From -- ./inp_files/11067.got.cif
#   From: 2010.05.17/outbox.ucp.g08.bks.cvg/sg53_6_cif.got.tgz:11067.got - 2010.06.11 16:32:34.
