data_PCOD9420257
_publ_section_title
;
Structure prediction by ZEFSAII (Michael W. Deem and Ramdas Pophale) SiO2 
 PCOD9420257
Probable space group: P M N A
;
_chemical_formula_sum "Si O2"
_cell_formula_units_Z 56
_cell_length_a 21.000000
_cell_length_b 15.000000
_cell_length_c 9.000000
_cell_angle_alpha 90.000000
_cell_angle_beta 90.000000
_cell_angle_gamma 90.000000
_cell_volume 2835.000000
_symmetry_space_group_name_H-M "P M N A"
_symmetry_group_IT_number 53
_symmetry_cell_setting 'orthorhombic'
loop_
_space_group_symop_operation_xyz
x,y,z
1/2-x,-y,1/2+z
x,-y,-z
1/2-x,y,1/2-z
-x,-y,-z
1/2+x,y,1/2-z
-x,y,z
1/2+x,-y,1/2+z
loop_
_atom_site_type_symbol
_atom_site_label
_atom_site_fract_x
_atom_site_fract_y
_atom_site_fract_z
Si Si1 0.182569 0.472163 0.674502
Si Si2 0.072572 0.930780 0.763245
Si Si3 0.930401 0.330701 0.732017
Si Si4 0.114111 0.205186 0.494727
Si Si5 0.573326 0.234657 0.454971
Si Si6 0.814041 0.947034 0.345782
Si Si7 0.174402 0.328279 0.255014
O O1 0.190906 0.500000 0.500000
O O2 0.250000 0.444694 0.750000
O O3 0.127468 0.399594 0.704288
O O4 0.163123 0.566286 0.747685
O O5 0.081970 0.862126 0.623805
O O6 0.080356 0.869728 0.910816
O O7 0.000000 0.966383 0.759247
O O8 0.128329 0.002436 0.740057
O O9 0.931900 0.262068 0.596166
O O10 0.000000 0.376076 0.744874
O O11 0.921607 0.269093 0.877563
O O12 0.159938 0.148066 0.600948
O O13 0.152893 0.278599 0.403560
O O14 0.500000 0.256612 0.404887
O O15 0.630057 0.283717 0.368751
O O16 0.750000 0.943722 0.250000
O O17 0.801783 0.000000 0.500000
O O18 0.250000 0.314154 0.250000
#
# Coordination Sequence:
#
# PCOD9420257 Si02
#       7
#     8   8   8   8   8   8   8
#     4  11  25  43  63  90 126 164 206 253 309 370
#     4   9  19  39  63  84 116 161 206 249 302 371
#     4  11  24  40  62  93 126 158 202 258 310 363
#     4  10  21  38  59  88 119 157 204 256 310 362
#     4   9  21  39  60  88 120 158 201 248 304 367
#     4  10  23  38  59  89 122 158 201 254 311 369
#     4  10  22  40  63  85 115 162 208 250 304 371
#
# _framework density 19.753086
#
# number of rings (size 3 to 8) (size 9 to 14) (size 15 to 20)
#    0.000    2.000    1.429    0.429    4.000   12.571 
#    0.000    1.429    0.000    3.000    0.000    0.000 
#    0.000    0.000    0.000    0.000    0.000    0.000 
#
# Total GULP energy -312412.712755 kJ/mol
# GULP energy per Si atom -5578.798442 kJ/mol
# Density = 1.970813 g / cm^3
# Si number density = 19.753086 Si / 1000 Ang^3
#
#
#
# Elastic Constant Matrix: (Units=GPa)
#
#
# Indices 1 2 3 4 5 6 
#
# 1 128.3286 52.2328 65.3288 0.0000 0.0000 0.0000
# 2 52.2328 58.5935 28.4296 0.0000 0.0000 0.0000
# 3 65.3288 28.4296 89.4667 0.0000 0.0000 0.0000
# 4 0.0000 0.0000 0.0000 20.4753 0.0000 0.0000
# 5 0.0000 0.0000 0.0000 0.0000 15.1693 0.0000
# 6 0.0000 0.0000 0.0000 0.0000 0.0000 -0.6296
#
#
#
# Elastic Compliance Matrix: (Units=1/GPa)
#
#
# Indices 1 2 3 4 5 6 
#
# 1 0.016491 -0.010473 -0.008714 0.000000 0.000000 0.000000
# 2 -0.010473 0.026829 -0.000878 0.000000 0.000000 0.000000
# 3 -0.008714 -0.000878 0.017819 0.000000 0.000000 0.000000
# 4 0.000000 0.000000 0.000000 0.048839 0.000000 0.000000
# 5 0.000000 0.000000 0.000000 0.000000 0.065922 0.000000
# 6 0.000000 0.000000 0.000000 0.000000 0.000000 -1.588376
#
#
# Mechanical properties :
#
#
# Convention : Reuss Voigt Hill
#
# Bulk Modulus (GPa) = 47.59740 63.15237 55.37488
# Shear Modulus (GPa) = -3.66209 15.69619 6.01705
#
# Velocity S-wave (km/s) = -1.36307 2.82196 1.74721
# Velocity P-wave (km/s) = 4.65524 6.53133 5.67139
#
# Compressibility (1/GPa) = 0.02100955
#
# Stress axis : x y z
#
# Youngs Moduli (GPa) = 60.63771 37.27333 56.11888
#
# Poissons Ratio (x) = 0.39037 0.48902
# Poissons Ratio (y) = 0.63506 0.04927
# Poissons Ratio (z) = 0.52840 0.03272
#
# Static dielectric constant tensor:
#      x y z
#    x 1.777180 0.000000 0.000000 
#    y 0.000000 1.681940 0.000000 
#    z 0.000000 0.000000 1.734240 
# 
# From -- ./inp_files/11062.got.cif
#   From: 2010.05.17/outbox.ucp.g08.bks.cvg/sg53_6_cif.got.tgz:11062.got - 2010.06.11 16:32:34.
