data_PCOD9420321
_publ_section_title
;
Structure prediction by ZEFSAII (Michael W. Deem and Ramdas Pophale) SiO2 
 PCOD9420321
Probable space group: P C C A
;
_chemical_formula_sum "Si O2"
_cell_formula_units_Z 28
_cell_length_a 13.420090
_cell_length_b 18.602303
_cell_length_c 5.300416
_cell_angle_alpha 90.000000
_cell_angle_beta 90.000000
_cell_angle_gamma 90.000000
_cell_volume 1323.220129
_symmetry_space_group_name_H-M "P C C A"
_symmetry_group_IT_number 54
_symmetry_cell_setting 'orthorhombic'
loop_
_space_group_symop_operation_xyz
x,y,z
1/2-x,-y,z
1/2+x,-y,1/2-z
-x,y,1/2-z
-x,-y,-z
1/2+x,y,-z
1/2-x,y,1/2+z
x,-y,1/2+z
loop_
_atom_site_type_symbol
_atom_site_label
_atom_site_fract_x
_atom_site_fract_y
_atom_site_fract_z
Si Si1 0.000000 0.048555 0.250000
Si Si2 0.686184 0.316694 0.811381
Si Si3 0.134954 0.528463 0.840249
Si Si4 0.682344 0.841958 0.235373
O O1 0.097115 0.099012 0.248734
O O2 0.000000 0.000000 0.500000
O O3 0.774157 0.318908 0.598562
O O4 0.629114 0.389976 0.754244
O O5 0.638402 0.239054 0.760740
O O6 0.250000 0.500000 0.871395
O O7 0.093593 0.479557 0.618207
O O8 0.758709 0.848611 0.470819
#
# Coordination Sequence:
#
# PCOD9420321 Si02
#       4
#     4   8   8   8
#     4  12  26  44  68  92 120 156 198 246 308 366
#     4  10  16  27  44  71 111 145 184 236 277 336
#     4  10  14  20  36  65 103 138 184 232 268 320
#     4  10  23  40  62  92 123 156 200 243 302 359
#
# _framework density 21.160501
#
# number of rings (size 3 to 8) (size 9 to 14) (size 15 to 20)
#    0.000    1.714    5.714    1.714    0.000    3.429 
#    0.000    0.000    0.000    0.000    0.000    2.000 
#    0.000    0.000    0.000    0.000    0.000    0.000 
#
# Total GULP energy -156267.015355 kJ/mol
# GULP energy per Si atom -5580.964834 kJ/mol
# Density = 2.111234 g / cm^3
# Si number density = 21.160501 Si / 1000 Ang^3
#
#
#
# Elastic Constant Matrix: (Units=GPa)
#
#
# Indices 1 2 3 4 5 6 
#
# 1 56.2244 30.6689 11.2414 0.0000 0.0000 0.0000
# 2 30.6689 167.3697 19.2484 0.0000 0.0000 0.0000
# 3 11.2414 19.2484 123.0881 0.0000 0.0000 0.0000
# 4 0.0000 0.0000 0.0000 36.4454 0.0000 0.0000
# 5 0.0000 0.0000 0.0000 0.0000 23.2711 0.0000
# 6 0.0000 0.0000 0.0000 0.0000 0.0000 -118.7572
#
#
#
# Elastic Compliance Matrix: (Units=1/GPa)
#
#
# Indices 1 2 3 4 5 6 
#
# 1 0.019955 -0.003510 -0.001274 0.000000 0.000000 0.000000
# 2 -0.003510 0.006702 -0.000727 0.000000 0.000000 0.000000
# 3 -0.001274 -0.000727 0.008354 0.000000 0.000000 0.000000
# 4 0.000000 0.000000 0.000000 0.027438 0.000000 0.000000
# 5 0.000000 0.000000 0.000000 0.000000 0.042972 0.000000
# 6 0.000000 0.000000 0.000000 0.000000 0.000000 -0.008421
#
#
# Mechanical properties :
#
#
# Convention : Reuss Voigt Hill
#
# Bulk Modulus (GPa) = 41.68588 52.11107 46.89848
# Shear Modulus (GPa) = 43.09630 7.22676 25.16153
#
# Velocity S-wave (km/s) = 4.51781 1.85003 3.45204
# Velocity P-wave (km/s) = 6.85250 5.40773 6.17253
#
# Compressibility (1/GPa) = 0.02398894
#
# Stress axis : x y z
#
# Youngs Moduli (GPa) = 50.11232 149.21699 119.69849
#
# Poissons Ratio (x) = 0.52377 0.15244
# Poissons Ratio (y) = 0.17590 0.08707
# Poissons Ratio (z) = 0.06382 0.10854
#
# Static dielectric constant tensor:
#      x y z
#    x 3.166870 0.000000 0.000000 
#    y 0.000000 1.772780 0.000000 
#    z 0.000000 0.000000 1.755830 
# 
# From -- ./inp_files/353.got.cif
#   From: 2010.05.17/outbox.cif.g08.bks.cpg/sg54_1_cif.got.tgz:353.got - 2010.06.03 13:09:01.
