data_PCOD9420044
_publ_section_title
;
Structure prediction by ZEFSAII (Michael W. Deem and Ramdas Pophale) SiO2 
 PCOD9420044
Probable space group: P M N A
;
_chemical_formula_sum "Si O2"
_cell_formula_units_Z 40
_cell_length_a 7.354437
_cell_length_b 12.114247
_cell_length_c 22.420305
_cell_angle_alpha 90.000000
_cell_angle_beta 90.000000
_cell_angle_gamma 90.000000
_cell_volume 1997.502689
_symmetry_space_group_name_H-M "P M N A"
_symmetry_group_IT_number 53
_symmetry_cell_setting 'orthorhombic'
loop_
_space_group_symop_operation_xyz
x,y,z
1/2-x,-y,1/2+z
x,-y,-z
1/2-x,y,1/2-z
-x,-y,-z
1/2+x,y,1/2-z
-x,y,z
1/2+x,-y,1/2+z
loop_
_atom_site_type_symbol
_atom_site_label
_atom_site_fract_x
_atom_site_fract_y
_atom_site_fract_z
Si Si1 0.222294 0.078216 0.555933
Si Si2 0.721562 0.446787 0.085992
Si Si3 0.217475 0.027322 0.318807
Si Si4 0.779213 0.329639 0.537868
Si Si5 0.283702 0.721962 0.817292
O O1 0.280570 0.037475 0.622009
O O2 0.282383 0.204663 0.546404
O O3 0.000000 0.076784 0.555404
O O4 0.277506 0.000000 0.500000
O O5 0.500000 0.449751 0.087102
O O6 0.779585 0.574382 0.083634
O O7 0.788149 0.371130 0.139218
O O8 0.771236 0.381628 0.025804
O O9 0.250000 0.988933 0.250000
O O10 0.000000 0.030004 0.323714
O O11 0.287567 0.153307 0.323996
O O12 0.000000 0.325100 0.539396
O O13 0.250000 0.688198 0.750000
O O14 0.500000 0.729597 0.827995
#
# Coordination Sequence:
#
# PCOD9420044 Si02
#       5
#     8   8   8   8   8
#     4   9  15  23  38  60  82 104 135 172 204 236
#     4   8  13  22  36  55  79 101 123 159 202 236
#     4   9  17  28  42  60  83 110 136 165 202 241
#     4   8  13  21  35  56  79 101 126 160 202 238
#     4   9  16  26  40  58  79 103 132 162 192 229
#
# _framework density 20.025003000000002
#
# number of rings (size 3 to 8) (size 9 to 14) (size 15 to 20)
#    0.000    3.400    0.000    2.400    0.000    4.800 
#    0.000    1.000    0.000    0.600    0.000    4.200 
#    0.000    0.000    0.000    0.000    0.000    0.000 
#
# Total GULP energy -222827.747231 kJ/mol
# GULP energy per Si atom -5570.693681 kJ/mol
# Density = 1.997943 g / cm^3
# Si number density = 20.025003 Si / 1000 Ang^3
#
#
#
# Elastic Constant Matrix: (Units=GPa)
#
#
# Indices 1 2 3 4 5 6 
#
# 1 73.8629 6.4937 0.5137 0.0000 0.0000 0.0000
# 2 6.4937 180.9393 122.0290 0.0000 0.0000 0.0000
# 3 0.5137 122.0290 146.4200 0.0000 0.0000 0.0000
# 4 0.0000 0.0000 0.0000 48.8193 0.0000 0.0000
# 5 0.0000 0.0000 0.0000 0.0000 13.3521 0.0000
# 6 0.0000 0.0000 0.0000 0.0000 0.0000 -17.3584
#
#
#
# Elastic Compliance Matrix: (Units=1/GPa)
#
#
# Indices 1 2 3 4 5 6 
#
# 1 0.013625 -0.001043 0.000821 0.000000 0.000000 0.000000
# 2 -0.001043 0.012700 -0.010581 0.000000 0.000000 0.000000
# 3 0.000821 -0.010581 0.015645 0.000000 0.000000 0.000000
# 4 0.000000 0.000000 0.000000 0.020484 0.000000 0.000000
# 5 0.000000 0.000000 0.000000 0.000000 0.074895 0.000000
# 6 0.000000 0.000000 0.000000 0.000000 0.000000 -0.057609
#
#
# Mechanical properties :
#
#
# Convention : Reuss Voigt Hill
#
# Bulk Modulus (GPa) = 49.10392 73.25502 61.17947
# Shear Modulus (GPa) = 46.23972 27.10831 36.67401
#
# Velocity S-wave (km/s) = 4.81052 3.68329 4.28414
# Velocity P-wave (km/s) = 7.44509 7.39933 7.42224
#
# Compressibility (1/GPa) = 0.02036497
#
# Stress axis : x y z
#
# Youngs Moduli (GPa) = 73.39677 78.74012 63.91833
#
# Poissons Ratio (x) = 0.08212 -0.05250
# Poissons Ratio (y) = 0.07655 0.67630
# Poissons Ratio (z) = -0.06029 0.83313
#
# Static dielectric constant tensor:
#      x y z
#    x 1.799890 0.000000 0.000000 
#    y 0.000000 1.698190 0.000000 
#    z 0.000000 0.000000 1.693890 
# 
# From -- ./inp_files/21643.got.cif
#   From: 2010.05.17/outbox.cif.g08.bks.cpg/sg53_11_cif.got.tgz:21643.got - 2010.06.03 12:45:16.
