data_PCOD9420842
_publ_section_title
;
Structure prediction by ZEFSAII (Michael W. Deem and Ramdas Pophale) SiO2 
 PCOD9420842
Probable space group: P C C A
;
_chemical_formula_sum "Si O2"
_cell_formula_units_Z 32
_cell_length_a 5.232232
_cell_length_b 10.114672
_cell_length_c 31.335498
_cell_angle_alpha 90.000000
_cell_angle_beta 90.000000
_cell_angle_gamma 90.000000
_cell_volume 1658.346955
_symmetry_space_group_name_H-M "P C C A"
_symmetry_group_IT_number 54
_symmetry_cell_setting 'orthorhombic'
loop_
_space_group_symop_operation_xyz
x,y,z
1/2-x,-y,z
1/2+x,-y,1/2-z
-x,y,1/2-z
-x,-y,-z
1/2+x,y,-z
1/2-x,y,1/2+z
x,-y,1/2+z
loop_
_atom_site_type_symbol
_atom_site_label
_atom_site_fract_x
_atom_site_fract_y
_atom_site_fract_z
Si Si1 0.750000 0.000000 0.220389
Si Si2 0.300854 0.257323 0.337832
Si Si3 0.750000 0.500000 0.723505
Si Si4 0.711633 0.345621 0.884489
Si Si5 0.545098 0.650609 0.482661
O O1 0.701349 0.124881 0.189743
O O2 0.500000 0.978804 0.250000
O O3 0.338525 0.378154 0.305215
O O4 0.530908 0.268993 0.371775
O O5 0.029039 0.283790 0.360094
O O6 0.500000 0.458109 0.750000
O O7 0.750000 0.500000 0.872370
O O8 0.644116 0.346739 0.934582
O O9 0.500000 0.500000 0.500000
O O10 0.266276 0.712456 0.488243
#
# Coordination Sequence:
#
# PCOD9420842 Si02
#       5
#     4   8   4   8   8
#     4  12  26  50  70  86 120 168 224 260 308 388
#     4  12  25  40  63  91 122 163 203 263 319 367
#     4  12  22  36  56  86 116 144 188 246 318 374
#     4  12  21  37  59  95 134 157 198 261 312 366
#     4  10  19  30  53  86 133 164 200 235 305 361
#
# _framework density 19.296323999999998
#
# number of rings (size 3 to 8) (size 9 to 14) (size 15 to 20)
#    0.000    0.500    5.000    6.000    3.500    0.000 
#    0.000    0.000    0.000    0.000    0.000   17.500 
#    0.000    0.000    0.000    0.000    0.000    0.000 
#
# Total GULP energy -178744.597314 kJ/mol
# GULP energy per Si atom -5585.768666 kJ/mol
# Density = 1.925240 g / cm^3
# Si number density = 19.296324 Si / 1000 Ang^3
#
#
#
# Elastic Constant Matrix: (Units=GPa)
#
#
# Indices 1 2 3 4 5 6 
#
# 1 172.0142 18.5549 48.8467 0.0000 0.0000 0.0000
# 2 18.5549 88.0736 46.1119 0.0000 0.0000 0.0000
# 3 48.8467 46.1119 111.4974 0.0000 0.0000 0.0000
# 4 0.0000 0.0000 0.0000 22.6654 0.0000 0.0000
# 5 0.0000 0.0000 0.0000 0.0000 80.1882 0.0000
# 6 0.0000 0.0000 0.0000 0.0000 0.0000 16.6320
#
#
#
# Elastic Compliance Matrix: (Units=1/GPa)
#
#
# Indices 1 2 3 4 5 6 
#
# 1 0.006641 0.000158 -0.002975 0.000000 0.000000 0.000000
# 2 0.000158 0.014496 -0.006064 0.000000 0.000000 0.000000
# 3 -0.002975 -0.006064 0.012780 0.000000 0.000000 0.000000
# 4 0.000000 0.000000 0.000000 0.044120 0.000000 0.000000
# 5 0.000000 0.000000 0.000000 0.000000 0.012471 0.000000
# 6 0.000000 0.000000 0.000000 0.000000 0.000000 0.060125
#
#
# Mechanical properties :
#
#
# Convention : Reuss Voigt Hill
#
# Bulk Modulus (GPa) = 61.89932 66.51246 64.20589
# Shear Modulus (GPa) = 28.77197 41.10191 34.93694
#
# Velocity S-wave (km/s) = 3.86561 4.62024 4.25967
# Velocity P-wave (km/s) = 7.21609 7.93763 7.58544
#
# Compressibility (1/GPa) = 0.01615527
#
# Stress axis : x y z
#
# Youngs Moduli (GPa) = 150.57530 68.98510 78.24571
#
# Poissons Ratio (x) = -0.01093 0.23278
# Poissons Ratio (y) = -0.02386 0.47452
# Poissons Ratio (z) = 0.44797 0.41836
#
# Static dielectric constant tensor:
#      x y z
#    x 1.801390 0.000000 0.000000 
#    y 0.000000 1.778090 0.000000 
#    z 0.000000 0.000000 1.690680 
# 
# From -- ./inp_files/26889.got.cif
#   From: 2010.05.17/outbox.cif.g08.bks.cpg/sg54_14_cif.got.tgz:26889.got - 2010.06.03 13:09:01.
