data_PCOD9420437
_publ_section_title
;
Structure prediction by ZEFSAII (Michael W. Deem and Ramdas Pophale) SiO2 
 PCOD9420437
Probable space group: P C C A
;
_chemical_formula_sum "Si O2"
_cell_formula_units_Z 52
_cell_length_a 31.472019
_cell_length_b 5.216562
_cell_length_c 16.371308
_cell_angle_alpha 90.000000
_cell_angle_beta 90.000000
_cell_angle_gamma 90.000000
_cell_volume 2687.771579
_symmetry_space_group_name_H-M "P C C A"
_symmetry_group_IT_number 54
_symmetry_cell_setting 'orthorhombic'
loop_
_space_group_symop_operation_xyz
x,y,z
1/2-x,-y,z
1/2+x,-y,1/2-z
-x,y,1/2-z
-x,-y,-z
1/2+x,y,-z
1/2-x,y,1/2+z
x,-y,1/2+z
loop_
_atom_site_type_symbol
_atom_site_label
_atom_site_fract_x
_atom_site_fract_y
_atom_site_fract_z
Si Si1 0.116578 0.583419 0.969663
Si Si2 0.094366 0.068071 0.067491
Si Si3 0.902394 0.523371 0.718140
Si Si4 0.707185 0.402131 0.464134
Si Si5 0.048148 0.981544 0.223709
Si Si6 0.750000 0.000000 0.341121
Si Si7 0.831405 0.768801 0.827073
O O1 0.106885 0.507970 0.877457
O O2 0.101269 0.346181 0.026727
O O3 0.166896 0.645976 0.979262
O O4 0.094737 0.843183 0.001534
O O5 0.134774 0.039932 0.129928
O O6 0.054397 0.038770 0.127316
O O7 0.924368 0.267390 0.751747
O O8 0.859541 0.592822 0.768157
O O9 0.933097 0.766066 0.733019
O O10 0.750000 0.500000 0.507776
O O11 0.688907 0.612987 0.401843
O O12 0.724207 0.183611 0.403323
O O13 0.000000 0.939398 0.250000
O O14 0.711236 0.886151 0.288233
#
# Coordination Sequence:
#
# PCOD9420437 Si02
#       7
#     8   8   8   8   8   4   8
#     4  11  21  39  58  91 123 162 193 246 307 365
#     4  10  20  38  64  84 116 164 203 228 300 373
#     4  11  24  39  63  92 127 154 197 256 317 349
#     4   9  18  32  54  82 114 161 208 242 283 356
#     4  11  23  44  67  91 117 157 206 253 299 372
#     4  10  16  32  56  86 112 156 224 246 274 344
#     4   9  19  33  57  83 115 161 207 247 282 354
#
# _framework density 19.346881
#
# number of rings (size 3 to 8) (size 9 to 14) (size 15 to 20)
#    0.000    1.846    1.538    4.154    2.154    0.000 
#    0.000    7.692    0.000    0.000    0.000    0.000 
#    0.000    0.000    0.000    0.000    0.000    0.000 
#
# Total GULP energy -289785.054657 kJ/mol
# GULP energy per Si atom -5572.789513 kJ/mol
# Density = 1.930285 g / cm^3
# Si number density = 19.346881 Si / 1000 Ang^3
#
#
#
# Elastic Constant Matrix: (Units=GPa)
#
#
# Indices 1 2 3 4 5 6 
#
# 1 59.3349 22.2936 13.1284 0.0000 0.0000 0.0000
# 2 22.2936 91.2193 5.8063 0.0000 0.0000 0.0000
# 3 13.1284 5.8063 58.1589 0.0000 0.0000 0.0000
# 4 0.0000 0.0000 0.0000 13.9902 0.0000 0.0000
# 5 0.0000 0.0000 0.0000 0.0000 12.4492 0.0000
# 6 0.0000 0.0000 0.0000 0.0000 0.0000 21.0819
#
#
#
# Elastic Compliance Matrix: (Units=1/GPa)
#
#
# Indices 1 2 3 4 5 6 
#
# 1 0.019412 -0.004494 -0.003933 0.000000 0.000000 0.000000
# 2 -0.004494 0.012073 -0.000191 0.000000 0.000000 0.000000
# 3 -0.003933 -0.000191 0.018101 0.000000 0.000000 0.000000
# 4 0.000000 0.000000 0.000000 0.071479 0.000000 0.000000
# 5 0.000000 0.000000 0.000000 0.000000 0.080327 0.000000
# 6 0.000000 0.000000 0.000000 0.000000 0.000000 0.047434
#
#
# Mechanical properties :
#
#
# Convention : Reuss Voigt Hill
#
# Bulk Modulus (GPa) = 30.91165 32.35216 31.63190
# Shear Modulus (GPa) = 18.06062 20.66991 19.36526
#
# Velocity S-wave (km/s) = 3.05866 3.27216 3.16721
# Velocity P-wave (km/s) = 5.33724 5.57086 5.45530
#
# Compressibility (1/GPa) = 0.03235026
#
# Stress axis : x y z
#
# Youngs Moduli (GPa) = 51.51384 82.82920 55.24487
#
# Poissons Ratio (x) = 0.37223 0.21730
# Poissons Ratio (y) = 0.23150 0.01055
# Poissons Ratio (z) = 0.20262 0.01581
#
# Static dielectric constant tensor:
#      x y z
#    x 1.756220 0.000000 0.000000 
#    y 0.000000 1.753630 0.000000 
#    z 0.000000 0.000000 1.662960 
# 
# From -- ./inp_files/19293.got.cif
#   From: 2010.05.17/outbox.cif.g08.bks.cpg/sg54_10_cif.got.tgz:19293.got - 2010.06.03 13:09:01.
