data_PCOD9420573
_publ_section_title
;
Structure prediction by ZEFSAII (Michael W. Deem and Ramdas Pophale) SiO2 
 PCOD9420573
Probable space group: P C C A
;
_chemical_formula_sum "Si O2"
_cell_formula_units_Z 52
_cell_length_a 17.151940
_cell_length_b 8.226350
_cell_length_c 14.507203
_cell_angle_alpha 90.000000
_cell_angle_beta 90.000000
_cell_angle_gamma 90.000000
_cell_volume 2046.935321
_symmetry_space_group_name_H-M "P C C A"
_symmetry_group_IT_number 54
_symmetry_cell_setting 'orthorhombic'
loop_
_space_group_symop_operation_xyz
x,y,z
1/2-x,-y,z
1/2+x,-y,1/2-z
-x,y,1/2-z
-x,-y,-z
1/2+x,y,-z
1/2-x,y,1/2+z
x,-y,1/2+z
loop_
_atom_site_type_symbol
_atom_site_label
_atom_site_fract_x
_atom_site_fract_y
_atom_site_fract_z
Si Si1 0.826283 0.696877 0.877618
Si Si2 0.750000 0.500000 0.541162
Si Si3 0.396818 0.323543 0.939822
Si Si4 0.196642 0.154898 0.740650
Si Si5 0.034082 0.508747 0.620559
Si Si6 0.043001 0.171188 0.838320
Si Si7 0.405541 0.037173 0.067162
O O1 0.786023 0.629802 0.969745
O O2 0.760285 0.724896 0.801632
O O3 0.888197 0.573416 0.833201
O O4 0.874579 0.854824 0.915699
O O5 0.818728 0.590475 0.594798
O O6 0.428274 0.438893 0.024636
O O7 0.380356 0.144306 0.978488
O O8 0.472943 0.342357 0.877910
O O9 0.135192 0.178198 0.823219
O O10 0.140506 0.125782 0.651980
O O11 0.250000 0.000000 0.762454
O O12 0.986421 0.355453 0.654863
O O13 0.000000 0.093942 0.750000
O O14 0.997703 0.078708 0.919261
#
# Coordination Sequence:
#
# PCOD9420573 Si02
#       7
#     8   4   8   8   8   8   8
#     4  10  19  31  56  85 112 142 198 248 276 346
#     4  10  18  30  56  80 110 138 186 242 290 348
#     4   9  17  32  54  78 110 145 180 231 295 350
#     4   9  17  32  57  83 107 150 201 242 281 335
#     4   9  19  33  52  83 110 144 185 231 293 350
#     4   9  18  34  56  76 112 154 189 238 292 342
#     4   9  17  32  54  83 112 147 192 238 292 341
#
# _framework density 25.403831
#
# number of rings (size 3 to 8) (size 9 to 14) (size 15 to 20)
#    0.000    2.769    1.538    0.000    2.154    0.615 
#    0.000    3.846    6.769    0.000    0.000    0.000 
#    0.000    0.000    0.000    0.000    0.000    0.000 
#
# Total GULP energy -290041.056302 kJ/mol
# GULP energy per Si atom -5577.712621 kJ/mol
# Density = 2.534601 g / cm^3
# Si number density = 25.403831 Si / 1000 Ang^3
#
#
#
# Elastic Constant Matrix: (Units=GPa)
#
#
# Indices 1 2 3 4 5 6 
#
# 1 207.4064 69.1416 12.7187 0.0000 0.0000 0.0000
# 2 69.1416 99.0028 17.9787 0.0000 0.0000 0.0000
# 3 12.7187 17.9787 27.2132 0.0000 0.0000 0.0000
# 4 0.0000 0.0000 0.0000 4.7509 0.0000 0.0000
# 5 0.0000 0.0000 0.0000 0.0000 25.0297 0.0000
# 6 0.0000 0.0000 0.0000 0.0000 0.0000 37.6096
#
#
#
# Elastic Compliance Matrix: (Units=1/GPa)
#
#
# Indices 1 2 3 4 5 6 
#
# 1 0.006285 -0.004381 -0.000043 0.000000 0.000000 0.000000
# 2 -0.004381 0.014532 -0.007553 0.000000 0.000000 0.000000
# 3 -0.000043 -0.007553 0.041757 0.000000 0.000000 0.000000
# 4 0.000000 0.000000 0.000000 0.210485 0.000000 0.000000
# 5 0.000000 0.000000 0.000000 0.000000 0.039952 0.000000
# 6 0.000000 0.000000 0.000000 0.000000 0.000000 0.026589
#
#
# Mechanical properties :
#
#
# Convention : Reuss Voigt Hill
#
# Bulk Modulus (GPa) = 25.89371 59.25560 42.57465
# Shear Modulus (GPa) = 13.28275 29.06362 21.17319
#
# Velocity S-wave (km/s) = 2.28910 3.38607 2.89011
# Velocity P-wave (km/s) = 4.14748 6.21799 5.28512
#
# Compressibility (1/GPa) = 0.03861942
#
# Stress axis : x y z
#
# Youngs Moduli (GPa) = 159.11810 68.81281 23.94815
#
# Poissons Ratio (x) = 0.30149 0.00102
# Poissons Ratio (y) = 0.69715 0.18088
# Poissons Ratio (z) = 0.00680 0.51975
#
# Static dielectric constant tensor:
#      x y z
#    x 1.982160 0.000000 0.000000 
#    y 0.000000 2.039790 0.000000 
#    z 0.000000 0.000000 2.103550 
# 
# From -- ./inp_files/24414.got.cif
#   From: 2010.05.17/outbox.cif.g08.bks.cpg/sg54_13_cif.got.tgz:24414.got - 2010.06.03 13:09:01.
