data_PCOD9420793
_publ_section_title
;
Structure prediction by ZEFSAII (Michael W. Deem and Ramdas Pophale) SiO2 
 PCOD9420793
Probable space group: P C C A
;
_chemical_formula_sum "Si O2"
_cell_formula_units_Z 48
_cell_length_a 15.598424
_cell_length_b 8.406386
_cell_length_c 16.843949
_cell_angle_alpha 90.000000
_cell_angle_beta 90.000000
_cell_angle_gamma 90.000000
_cell_volume 2208.685942
_symmetry_space_group_name_H-M "P C C A"
_symmetry_group_IT_number 54
_symmetry_cell_setting 'orthorhombic'
loop_
_space_group_symop_operation_xyz
x,y,z
1/2-x,-y,z
1/2+x,-y,1/2-z
-x,y,1/2-z
-x,-y,-z
1/2+x,y,-z
1/2-x,y,1/2+z
x,-y,1/2+z
loop_
_atom_site_type_symbol
_atom_site_label
_atom_site_fract_x
_atom_site_fract_y
_atom_site_fract_z
Si Si1 0.852958 0.690686 0.555440
Si Si2 0.750000 0.000000 0.084870
Si Si3 0.510066 0.889339 0.420758
Si Si4 0.000000 0.048527 0.750000
Si Si5 0.796913 0.160625 0.369583
Si Si6 0.250000 0.500000 0.063044
Si Si7 0.250000 0.500000 0.315544
Si Si8 0.818460 0.191503 0.728306
O O1 0.829537 0.556643 0.491425
O O2 0.808823 0.618093 0.633100
O O3 0.951310 0.735884 0.563491
O O4 0.805167 0.861703 0.542157
O O5 0.689781 0.105737 0.143118
O O6 0.483515 0.957910 0.333533
O O7 0.608666 0.851870 0.404101
O O8 0.500000 0.000000 0.500000
O O9 0.909389 0.139320 0.765353
O O10 0.768089 0.337592 0.391945
O O11 0.769912 0.155179 0.276636
O O12 0.750000 0.000000 0.398349
O O13 0.184167 0.617822 0.273870
#
# Coordination Sequence:
#
# PCOD9420793 Si02
#       8
#     8   4   8   4   8   4   4   8
#     4  10  23  43  68 106 145 196 258 319 388 463
#     4  10  18  38  74  90 138 186 246 312 372 454
#     4  12  27  45  77 116 150 205 269 324 401 476
#     4  12  24  46  76 112 148 198 272 324 384 484
#     4  12  25  47  73 106 157 203 256 323 395 477
#     4  11  27  44  70 108 149 213 254 309 409 468
#     4   9  23  42  66 106 147 195 252 321 401 466
#     4  11  21  44  70 105 142 199 256 310 395 464
#
# _framework density 21.732379999999999
#
# number of rings (size 3 to 8) (size 9 to 14) (size 15 to 20)
#    0.000    1.000    4.167    1.500    5.833    2.000 
#    6.000    0.000    0.000    0.000    0.000    0.000 
#    0.000    0.000    0.000    0.000    0.000    0.000 
#
# Total GULP energy -267211.496935 kJ/mol
# GULP energy per Si atom -5566.906186 kJ/mol
# Density = 2.168292 g / cm^3
# Si number density = 21.732380 Si / 1000 Ang^3
#
#
#
# Elastic Constant Matrix: (Units=GPa)
#
#
# Indices 1 2 3 4 5 6 
#
# 1 103.4697 27.1733 2.8304 0.0000 0.0000 0.0000
# 2 27.1733 140.8242 33.8779 0.0000 0.0000 0.0000
# 3 2.8304 33.8779 86.3206 0.0000 0.0000 0.0000
# 4 0.0000 0.0000 0.0000 25.4551 0.0000 0.0000
# 5 0.0000 0.0000 0.0000 0.0000 1.6713 0.0000
# 6 0.0000 0.0000 0.0000 0.0000 0.0000 46.6030
#
#
#
# Elastic Compliance Matrix: (Units=1/GPa)
#
#
# Indices 1 2 3 4 5 6 
#
# 1 0.010199 -0.002084 0.000484 0.000000 0.000000 0.000000
# 2 -0.002084 0.008267 -0.003176 0.000000 0.000000 0.000000
# 3 0.000484 -0.003176 0.012815 0.000000 0.000000 0.000000
# 4 0.000000 0.000000 0.000000 0.039285 0.000000 0.000000
# 5 0.000000 0.000000 0.000000 0.000000 0.598327 0.000000
# 6 0.000000 0.000000 0.000000 0.000000 0.000000 0.021458
#
#
# Mechanical properties :
#
#
# Convention : Reuss Voigt Hill
#
# Bulk Modulus (GPa) = 46.02435 50.93084 48.47760
# Shear Modulus (GPa) = 7.07066 32.52808 19.79937
#
# Velocity S-wave (km/s) = 1.80571 3.87299 3.02164
# Velocity P-wave (km/s) = 5.05680 6.59442 5.87612
#
# Compressibility (1/GPa) = 0.02172763
#
# Stress axis : x y z
#
# Youngs Moduli (GPa) = 98.05063 120.95770 78.03077
#
# Poissons Ratio (x) = 0.25211 -0.03774
# Poissons Ratio (y) = 0.20437 0.24785
# Poissons Ratio (z) = -0.04742 0.38420
#
# Static dielectric constant tensor:
#      x y z
#    x 1.828400 0.000000 0.000000 
#    y 0.000000 1.829480 0.000000 
#    z 0.000000 0.000000 1.936060 
# 
# From -- ./inp_files/18108.got.cif
#   From: 2010.05.17/outbox.cif.g08.bks.cpg/sg54_10_cif.got.tgz:18108.got - 2010.06.03 13:09:01.
