data_PCOD9420867
_publ_section_title
;
Structure prediction by ZEFSAII (Michael W. Deem and Ramdas Pophale) SiO2 
 PCOD9420867
Probable space group: P C C A
;
_chemical_formula_sum "Si O2"
_cell_formula_units_Z 44
_cell_length_a 4.917217
_cell_length_b 29.507037
_cell_length_c 13.958469
_cell_angle_alpha 90.000000
_cell_angle_beta 90.000000
_cell_angle_gamma 90.000000
_cell_volume 2025.269219
_symmetry_space_group_name_H-M "P C C A"
_symmetry_group_IT_number 54
_symmetry_cell_setting 'orthorhombic'
loop_
_space_group_symop_operation_xyz
x,y,z
1/2-x,-y,z
1/2+x,-y,1/2-z
-x,y,1/2-z
-x,-y,-z
1/2+x,y,-z
1/2-x,y,1/2+z
x,-y,1/2+z
loop_
_atom_site_type_symbol
_atom_site_label
_atom_site_fract_x
_atom_site_fract_y
_atom_site_fract_z
Si Si1 0.027048 0.174367 0.932237
Si Si2 0.246186 0.547809 0.179656
Si Si3 0.940665 0.635170 0.435724
Si Si4 0.750000 0.000000 0.692546
Si Si5 0.148870 0.267222 0.568612
Si Si6 0.955087 0.925083 0.433910
O O1 0.985225 0.124913 0.888206
O O2 0.331143 0.175029 0.973432
O O3 0.936894 0.220574 0.879660
O O4 0.250000 0.500000 0.121366
O O5 0.500000 0.557019 0.250000
O O6 0.161785 0.591797 0.120964
O O7 0.000000 0.538187 0.250000
O O8 0.752896 0.634370 0.531411
O O9 0.892872 0.683691 0.384811
O O10 0.576460 0.963715 0.632598
O O11 0.500000 0.023355 0.750000
O O12 0.949900 0.266838 0.475121
O O13 0.147610 0.928612 0.528633
#
# Coordination Sequence:
#
# PCOD9420867 Si02
#       6
#     8   8   8   4   8   8
#     4   8  14  25  45  71  95 120 156 201 243 284
#     4  10  21  36  51  69  99 138 174 209 255 308
#     4  10  19  31  51  77 101 127 164 211 255 300
#     4  12  24  36  50  74 108 140 166 208 270 314
#     4   8  14  25  42  70 100 120 148 197 251 292
#     4  10  19  34  55  76  97 130 177 216 242 292
#
# _framework density 21.725505999999999
#
# number of rings (size 3 to 8) (size 9 to 14) (size 15 to 20)
#    0.000    2.545    0.000    2.727    0.000    0.727 
#    0.000    0.000    0.000    1.091    0.000    2.545 
#    0.000    0.000    0.000    0.000    0.000    0.000 
#
# Total GULP energy -244995.938129 kJ/mol
# GULP energy per Si atom -5568.089503 kJ/mol
# Density = 2.167606 g / cm^3
# Si number density = 21.725506 Si / 1000 Ang^3
#
#
#
# Elastic Constant Matrix: (Units=GPa)
#
#
# Indices 1 2 3 4 5 6 
#
# 1 81.5169 -10.4171 -6.4832 0.0000 0.0000 0.0000
# 2 -10.4171 192.1285 22.9214 0.0000 0.0000 0.0000
# 3 -6.4832 22.9214 10.8027 0.0000 0.0000 0.0000
# 4 0.0000 0.0000 0.0000 -127.3213 0.0000 0.0000
# 5 0.0000 0.0000 0.0000 0.0000 6.4341 0.0000
# 6 0.0000 0.0000 0.0000 0.0000 0.0000 35.9817
#
#
#
# Elastic Compliance Matrix: (Units=1/GPa)
#
#
# Indices 1 2 3 4 5 6 
#
# 1 0.012895 -0.000300 0.008376 0.000000 0.000000 0.000000
# 2 -0.000300 0.006976 -0.014982 0.000000 0.000000 0.000000
# 3 0.008376 -0.014982 0.129385 0.000000 0.000000 0.000000
# 4 0.000000 0.000000 0.000000 -0.007854 0.000000 0.000000
# 5 0.000000 0.000000 0.000000 0.000000 0.155421 0.000000
# 6 0.000000 0.000000 0.000000 0.000000 0.000000 0.027792
#
#
# Mechanical properties :
#
#
# Convention : Reuss Voigt Hill
#
# Bulk Modulus (GPa) = 7.38314 32.94337 20.16326
# Shear Modulus (GPa) = 13.03525 1.58070 7.30797
#
# Velocity S-wave (km/s) = 2.45214 0.85391 1.83605
# Velocity P-wave (km/s) = 3.37981 4.02102 3.71427
#
# Compressibility (1/GPa) = 0.13544371
#
# Stress axis : x y z
#
# Youngs Moduli (GPa) = 77.54835 143.34971 7.72888
#
# Poissons Ratio (x) = 0.04302 -0.06473
# Poissons Ratio (y) = 0.02327 0.11579
# Poissons Ratio (z) = -0.64952 2.14764
#
# Static dielectric constant tensor:
#      x y z
#    x 1.756310 0.000000 0.000000 
#    y 0.000000 1.974800 0.000000 
#    z 0.000000 0.000000 1.789260 
# 
# From -- ./inp_files/10880.got.cif
#   From: 2010.05.17/outbox.cif.g08.bks.cpg/sg54_6_cif.got.tgz:10880.got - 2010.06.03 13:09:01.
