data_PCOD9420967
_publ_section_title
;
Structure prediction by ZEFSAII (Michael W. Deem and Ramdas Pophale) SiO2 
 PCOD9420967
Probable space group: P C C A
;
_chemical_formula_sum "Si O2"
_cell_formula_units_Z 60
_cell_length_a 30.832651
_cell_length_b 11.922158
_cell_length_c 7.856465
_cell_angle_alpha 90.000000
_cell_angle_beta 90.000000
_cell_angle_gamma 90.000000
_cell_volume 2887.971614
_symmetry_space_group_name_H-M "P C C A"
_symmetry_group_IT_number 54
_symmetry_cell_setting 'orthorhombic'
loop_
_space_group_symop_operation_xyz
x,y,z
1/2-x,-y,z
1/2+x,-y,1/2-z
-x,y,1/2-z
-x,-y,-z
1/2+x,y,-z
1/2-x,y,1/2+z
x,-y,1/2+z
loop_
_atom_site_type_symbol
_atom_site_label
_atom_site_fract_x
_atom_site_fract_y
_atom_site_fract_z
Si Si1 0.159469 0.563306 0.739178
Si Si2 0.638274 0.665065 0.575915
Si Si3 0.750000 0.500000 0.794667
Si Si4 0.277504 0.743912 0.810605
Si Si5 0.576735 0.150911 0.068657
Si Si6 0.313275 0.215968 0.936149
Si Si7 0.488864 0.871669 0.448829
Si Si8 0.400207 0.098050 0.825979
O O1 0.144578 0.445882 0.813479
O O2 0.126419 0.619457 0.609676
O O3 0.203296 0.532430 0.630391
O O4 0.171192 0.660079 0.874282
O O5 0.682800 0.738323 0.557659
O O6 0.603480 0.748822 0.648552
O O7 0.761256 0.385360 0.698017
O O8 0.233418 0.810012 0.848237
O O9 0.300056 0.776597 0.633754
O O10 0.526202 0.185648 0.059461
O O11 0.592398 0.133341 0.870960
O O12 0.588486 0.034313 0.160609
O O13 0.352365 0.132548 0.888607
O O14 0.500000 0.857991 0.250000
O O15 0.437606 0.849448 0.449802
O O16 0.500000 0.000000 0.500000
#
# Coordination Sequence:
#
# PCOD9420967 Si02
#       8
#     8   8   4   8   8   8   8   8
#     4  10  19  33  54  84 113 150 194 247 290 340
#     4  11  21  36  57  85 120 153 199 241 295 340
#     4   8  16  30  48  74  98 136 192 246 278 294
#     4  10  21  33  56  82 114 155 200 243 289 344
#     4  10  21  38  62  90 121 150 191 246 298 350
#     4  11  21  36  57  84 117 156 199 243 290 344
#     4   8  16  34  60  90 110 143 187 246 294 338
#     4  10  21  38  63  87 119 152 196 240 296 351
#
# _framework density 20.775827
#
# number of rings (size 3 to 8) (size 9 to 14) (size 15 to 20)
#    0.000    2.133    1.333    3.200    1.867    4.267 
#    0.000    0.667    0.000    0.800    0.000    0.000 
#    0.000    0.000    0.000    0.000    0.000    0.000 
#
# Total GULP energy -334151.659220 kJ/mol
# GULP energy per Si atom -5569.194320 kJ/mol
# Density = 2.072854 g / cm^3
# Si number density = 20.775827 Si / 1000 Ang^3
#
#
#
# Elastic Constant Matrix: (Units=GPa)
#
#
# Indices 1 2 3 4 5 6 
#
# 1 85.2160 13.7843 17.8976 0.0000 0.0000 0.0000
# 2 13.7843 40.1017 17.9165 0.0000 0.0000 0.0000
# 3 17.8976 17.9165 58.0042 0.0000 0.0000 0.0000
# 4 0.0000 0.0000 0.0000 15.9407 0.0000 0.0000
# 5 0.0000 0.0000 0.0000 0.0000 8.9115 0.0000
# 6 0.0000 0.0000 0.0000 0.0000 0.0000 19.7088
#
#
#
# Elastic Compliance Matrix: (Units=1/GPa)
#
#
# Indices 1 2 3 4 5 6 
#
# 1 0.012866 -0.003073 -0.003021 0.000000 0.000000 0.000000
# 2 -0.003073 0.029663 -0.008214 0.000000 0.000000 0.000000
# 3 -0.003021 -0.008214 0.020709 0.000000 0.000000 0.000000
# 4 0.000000 0.000000 0.000000 0.062733 0.000000 0.000000
# 5 0.000000 0.000000 0.000000 0.000000 0.112215 0.000000
# 6 0.000000 0.000000 0.000000 0.000000 0.000000 0.050739
#
#
# Mechanical properties :
#
#
# Convention : Reuss Voigt Hill
#
# Bulk Modulus (GPa) = 28.88276 31.39097 30.13686
# Shear Modulus (GPa) = 15.19380 17.82708 16.51044
#
# Velocity S-wave (km/s) = 2.70723 2.93246 2.82209
# Velocity P-wave (km/s) = 4.86872 5.15829 5.01559
#
# Compressibility (1/GPa) = 0.03462273
#
# Stress axis : x y z
#
# Youngs Moduli (GPa) = 77.72175 33.71222 48.28713
#
# Poissons Ratio (x) = 0.10360 0.14587
# Poissons Ratio (y) = 0.23884 0.39664
# Poissons Ratio (z) = 0.23478 0.27692
#
# Static dielectric constant tensor:
#      x y z
#    x 2.455900 0.000000 0.000000 
#    y 0.000000 1.743080 0.000000 
#    z 0.000000 0.000000 1.809820 
# 
# From -- ./inp_files/5951.got.cif
#   From: 2010.05.17/outbox.cif.g08.bks.cpg/sg54_3_cif.got.tgz:5951.got - 2010.06.03 13:09:01.
