data_PCOD9420545
_publ_section_title
;
Structure prediction by ZEFSAII (Michael W. Deem and Ramdas Pophale) SiO2 
 PCOD9420545
Probable space group: P C C A
;
_chemical_formula_sum "Si O2"
_cell_formula_units_Z 32
_cell_length_a 5.472268
_cell_length_b 16.640534
_cell_length_c 17.246018
_cell_angle_alpha 90.000000
_cell_angle_beta 90.000000
_cell_angle_gamma 90.000000
_cell_volume 1570.447608
_symmetry_space_group_name_H-M "P C C A"
_symmetry_group_IT_number 54
_symmetry_cell_setting 'orthorhombic'
loop_
_space_group_symop_operation_xyz
x,y,z
1/2-x,-y,z
1/2+x,-y,1/2-z
-x,y,1/2-z
-x,-y,-z
1/2+x,y,-z
1/2-x,y,1/2+z
x,-y,1/2+z
loop_
_atom_site_type_symbol
_atom_site_label
_atom_site_fract_x
_atom_site_fract_y
_atom_site_fract_z
Si Si1 0.750000 0.000000 0.200746
Si Si2 0.250000 0.500000 0.449809
Si Si3 0.253788 0.180608 0.840933
Si Si4 0.426092 0.425293 0.161497
Si Si5 0.252665 0.753852 0.660584
O O1 0.770559 0.084645 0.157491
O O2 0.500000 0.006561 0.250000
O O3 0.500000 0.500000 0.500000
O O4 0.327376 0.428687 0.390452
O O5 0.250419 0.213374 0.750551
O O6 0.498461 0.218330 0.875335
O O7 0.996950 0.208381 0.875151
O O8 0.250000 0.500000 0.142483
O O9 0.500000 0.434968 0.250000
O O10 0.286399 0.341327 0.155848
#
# Coordination Sequence:
#
# PCOD9420545 Si02
#       5
#     4   4   8   8   8
#     4  12  16  26  42  64 100 170 192 214 290 402
#     4  12  28  48  62  88 126 166 204 260 328 372
#     4  10  18  29  43  71 113 150 191 236 301 355
#     4  12  25  38  67  93 117 160 220 258 300 368
#     4  10  20  31  47  75 112 139 195 252 294 330
#
# _framework density 20.376353999999999
#
# number of rings (size 3 to 8) (size 9 to 14) (size 15 to 20)
#    0.000    1.000   10.000    0.000    7.000    0.000 
#    0.000    0.000    0.000    0.000    0.000    0.000 
#    0.000    0.000    0.000   38.250    0.000    0.000 
#
# Total GULP energy -178266.771059 kJ/mol
# GULP energy per Si atom -5570.836596 kJ/mol
# Density = 2.032998 g / cm^3
# Si number density = 20.376354 Si / 1000 Ang^3
#
#
#
# Elastic Constant Matrix: (Units=GPa)
#
#
# Indices 1 2 3 4 5 6 
#
# 1 213.7127 61.7084 34.5913 0.0000 0.0000 0.0000
# 2 61.7084 183.0788 14.3729 0.0000 0.0000 0.0000
# 3 34.5913 14.3729 47.8834 0.0000 0.0000 0.0000
# 4 0.0000 0.0000 0.0000 -7.8483 0.0000 0.0000
# 5 0.0000 0.0000 0.0000 0.0000 -11.1726 0.0000
# 6 0.0000 0.0000 0.0000 0.0000 0.0000 44.3605
#
#
#
# Elastic Compliance Matrix: (Units=1/GPa)
#
#
# Indices 1 2 3 4 5 6 
#
# 1 0.005748 -0.001650 -0.003657 0.000000 0.000000 0.000000
# 2 -0.001650 0.006068 -0.000629 0.000000 0.000000 0.000000
# 3 -0.003657 -0.000629 0.023715 0.000000 0.000000 0.000000
# 4 0.000000 0.000000 0.000000 -0.127417 0.000000 0.000000
# 5 0.000000 0.000000 0.000000 0.000000 -0.089504 0.000000
# 6 0.000000 0.000000 0.000000 0.000000 0.000000 0.022543
#
#
# Mechanical properties :
#
#
# Convention : Reuss Voigt Hill
#
# Bulk Modulus (GPa) = 42.26971 74.00222 58.13596
# Shear Modulus (GPa) = -35.94780 27.33475 -4.30653
#
# Velocity S-wave (km/s) = -4.20479 3.66661 -1.45536
# Velocity P-wave (km/s) = 1.66856 7.37034 5.07631
#
# Compressibility (1/GPa) = 0.02365760
#
# Stress axis : x y z
#
# Youngs Moduli (GPa) = 173.98766 164.80617 42.16813
#
# Poissons Ratio (x) = 0.27196 0.15420
# Poissons Ratio (y) = 0.28711 0.02653
# Poissons Ratio (z) = 0.63623 0.10370
#
# Static dielectric constant tensor:
#      x y z
#    x 1.787980 0.000000 0.000000 
#    y 0.000000 1.641420 0.000000 
#    z 0.000000 0.000000 1.138270 
# 
# From -- ./inp_files/15720.got.cif
#   From: 2010.05.17/outbox.cif.g08.bks.cpg/sg54_8_cif.got.tgz:15720.got - 2010.06.03 13:09:01.
