data_PCOD9420688
_publ_section_title
;
Structure prediction by ZEFSAII (Michael W. Deem and Ramdas Pophale) SiO2 
 PCOD9420688
Probable space group: P C C A
;
_chemical_formula_sum "Si O2"
_cell_formula_units_Z 64
_cell_length_a 21.031625
_cell_length_b 8.215329
_cell_length_c 16.605696
_cell_angle_alpha 90.000000
_cell_angle_beta 90.000000
_cell_angle_gamma 90.000000
_cell_volume 2869.160696
_symmetry_space_group_name_H-M "P C C A"
_symmetry_group_IT_number 54
_symmetry_cell_setting 'orthorhombic'
loop_
_space_group_symop_operation_xyz
x,y,z
1/2-x,-y,z
1/2+x,-y,1/2-z
-x,y,1/2-z
-x,-y,-z
1/2+x,y,-z
1/2-x,y,1/2+z
x,-y,1/2+z
loop_
_atom_site_type_symbol
_atom_site_label
_atom_site_fract_x
_atom_site_fract_y
_atom_site_fract_z
Si Si1 0.632886 0.882844 0.449008
Si Si2 0.590143 0.951521 0.609378
Si Si3 0.925176 0.541880 0.909151
Si Si4 0.370902 0.777395 0.738840
Si Si5 0.846354 0.561742 0.747143
Si Si6 0.463554 0.732952 0.331004
Si Si7 0.544792 0.805689 0.902586
Si Si8 0.759018 0.171716 0.313460
O O1 0.643351 0.933009 0.541260
O O2 0.600194 0.704421 0.452335
O O3 0.693020 0.863223 0.388220
O O4 0.583427 0.025848 0.420730
O O5 0.618765 0.920160 0.697366
O O6 0.530354 0.832263 0.592879
O O7 0.554262 0.123776 0.608984
O O8 0.874964 0.529703 0.835981
O O9 0.933797 0.362459 0.947001
O O10 0.991837 0.597131 0.869930
O O11 0.348519 0.618994 0.788579
O O12 0.436098 0.766933 0.689907
O O13 0.315039 0.791678 0.671725
O O14 0.897628 0.662746 0.698909
O O15 0.786828 0.678095 0.762955
O O16 0.500000 0.795183 0.250000
O O17 0.750000 0.000000 0.268055
#
# Coordination Sequence:
#
# PCOD9420688 Si02
#       8
#     8   8   8   8   8   8   8   8
#     4  11  24  43  59  95 135 170 214 262 319 395
#     4  12  24  37  64 100 134 167 210 270 325 379
#     4   9  20  36  62  90 129 178 214 258 321 379
#     4  11  22  40  67  96 121 166 223 268 319 376
#     4   9  20  36  62  95 120 160 221 276 310 374
#     4  10  18  34  58  92 132 166 212 267 319 372
#     4  11  21  40  67  94 131 177 218 255 320 392
#     4  11  21  41  69  83 118 172 215 264 316 381
#
# _framework density 22.306176000000001
#
# number of rings (size 3 to 8) (size 9 to 14) (size 15 to 20)
#    0.000    1.500    2.500    3.375    1.750    2.500 
#    2.250    1.875    0.000    4.500    0.000    0.000 
#    0.000    0.000    0.000    0.000    0.000    0.000 
#
# Total GULP energy -356457.396286 kJ/mol
# GULP energy per Si atom -5569.646817 kJ/mol
# Density = 2.225541 g / cm^3
# Si number density = 22.306176 Si / 1000 Ang^3
#
#
#
# Elastic Constant Matrix: (Units=GPa)
#
#
# Indices 1 2 3 4 5 6 
#
# 1 93.9569 16.7031 12.9847 0.0000 0.0000 0.0000
# 2 16.7031 127.7972 -0.4082 0.0000 0.0000 0.0000
# 3 12.9847 -0.4082 35.5066 0.0000 0.0000 0.0000
# 4 0.0000 0.0000 0.0000 9.3998 0.0000 0.0000
# 5 0.0000 0.0000 0.0000 0.0000 9.5765 0.0000
# 6 0.0000 0.0000 0.0000 0.0000 0.0000 18.4334
#
#
#
# Elastic Compliance Matrix: (Units=1/GPa)
#
#
# Indices 1 2 3 4 5 6 
#
# 1 0.011496 -0.001516 -0.004222 0.000000 0.000000 0.000000
# 2 -0.001516 0.008025 0.000647 0.000000 0.000000 0.000000
# 3 -0.004222 0.000647 0.029715 0.000000 0.000000 0.000000
# 4 0.000000 0.000000 0.000000 0.106385 0.000000 0.000000
# 5 0.000000 0.000000 0.000000 0.000000 0.104422 0.000000
# 6 0.000000 0.000000 0.000000 0.000000 0.000000 0.054249
#
#
# Mechanical properties :
#
#
# Convention : Reuss Voigt Hill
#
# Bulk Modulus (GPa) = 25.60528 35.09109 30.34819
# Shear Modulus (GPa) = 14.81513 22.68069 18.74791
#
# Velocity S-wave (km/s) = 2.57995 3.19217 2.90225
# Velocity P-wave (km/s) = 4.51429 5.41778 4.98654
#
# Compressibility (1/GPa) = 0.03905445
#
# Stress axis : x y z
#
# Youngs Moduli (GPa) = 86.98600 124.60893 33.65301
#
# Poissons Ratio (x) = 0.18891 0.14207
# Poissons Ratio (y) = 0.13187 -0.02176
# Poissons Ratio (z) = 0.36722 -0.08058
#
# Static dielectric constant tensor:
#      x y z
#    x 1.855070 0.000000 0.000000 
#    y 0.000000 1.947160 0.000000 
#    z 0.000000 0.000000 1.839150 
# 
# From -- ./inp_files/18948.got.cif
#   From: 2010.05.17/outbox.cif.g08.bks.cpg/sg54_10_cif.got.tgz:18948.got - 2010.06.03 13:09:01.
