data_PCOD9420777
_publ_section_title
;
Structure prediction by ZEFSAII (Michael W. Deem and Ramdas Pophale) SiO2 
 PCOD9420777
Probable space group: P C C A
;
_chemical_formula_sum "Si O2"
_cell_formula_units_Z 60
_cell_length_a 24.253619
_cell_length_b 8.028982
_cell_length_c 15.570897
_cell_angle_alpha 90.000000
_cell_angle_beta 90.000000
_cell_angle_gamma 90.000000
_cell_volume 3032.149896
_symmetry_space_group_name_H-M "P C C A"
_symmetry_group_IT_number 54
_symmetry_cell_setting 'orthorhombic'
loop_
_space_group_symop_operation_xyz
x,y,z
1/2-x,-y,z
1/2+x,-y,1/2-z
-x,y,1/2-z
-x,-y,-z
1/2+x,y,-z
1/2-x,y,1/2+z
x,-y,1/2+z
loop_
_atom_site_type_symbol
_atom_site_label
_atom_site_fract_x
_atom_site_fract_y
_atom_site_fract_z
Si Si1 0.937150 0.265811 0.864654
Si Si2 0.362467 0.560229 0.506276
Si Si3 0.943519 0.580953 0.736828
Si Si4 0.843813 0.750443 0.672306
Si Si5 0.250000 0.500000 0.594856
Si Si6 0.054112 0.347031 0.918758
Si Si7 0.116768 0.112359 0.788223
Si Si8 0.236747 0.809348 0.222048
O O1 0.943580 0.423658 0.800455
O O2 0.922600 0.119498 0.796725
O O3 0.993389 0.265152 0.920865
O O4 0.887007 0.304116 0.928011
O O5 0.349070 0.651349 0.416346
O O6 0.305648 0.485308 0.540090
O O7 0.410228 0.417954 0.497438
O O8 0.883539 0.660052 0.741349
O O9 0.950572 0.510984 0.640666
O O10 0.000000 0.683651 0.750000
O O11 0.781559 0.766869 0.704619
O O12 0.869948 0.933754 0.672154
O O13 0.256474 0.666227 0.651782
O O14 0.090586 0.222535 0.862662
O O15 0.174803 0.189944 0.757781
O O16 0.250000 0.000000 0.192735
#
# Coordination Sequence:
#
# PCOD9420777 Si02
#       8
#     8   8   8   8   4   8   8   8
#     4  10  18  38  61  86 120 157 208 256 303 375
#     4  11  23  37  57  96 122 156 206 263 324 376
#     4   8  16  32  56  83 110 153 203 242 284 360
#     4  10  22  37  58  86 124 156 199 259 312 363
#     4  12  24  40  68  92 124 172 216 256 312 392
#     4   9  20  35  59  86 120 160 199 252 313 368
#     4  10  20  39  59  85 117 166 210 247 304 380
#     4  10  23  42  62  89 120 165 215 260 299 372
#
# _framework density 19.787939000000001
#
# number of rings (size 3 to 8) (size 9 to 14) (size 15 to 20)
#    0.000    2.133    1.333    2.400    5.600    1.067 
#    2.400    2.000    0.000    0.000    0.000    0.000 
#    0.000    0.000    0.000    0.000    0.000    0.000 
#
# Total GULP energy -334236.421180 kJ/mol
# GULP energy per Si atom -5570.607020 kJ/mol
# Density = 1.974290 g / cm^3
# Si number density = 19.787939 Si / 1000 Ang^3
#
#
#
# Elastic Constant Matrix: (Units=GPa)
#
#
# Indices 1 2 3 4 5 6 
#
# 1 101.7790 30.8745 11.3584 0.0000 0.0000 0.0000
# 2 30.8745 32.7841 8.3997 0.0000 0.0000 0.0000
# 3 11.3584 8.3997 37.0806 0.0000 0.0000 0.0000
# 4 0.0000 0.0000 0.0000 -18.9417 0.0000 0.0000
# 5 0.0000 0.0000 0.0000 0.0000 18.9997 0.0000
# 6 0.0000 0.0000 0.0000 0.0000 0.0000 -16.9307
#
#
#
# Elastic Compliance Matrix: (Units=1/GPa)
#
#
# Indices 1 2 3 4 5 6 
#
# 1 0.013819 -0.012665 -0.001364 0.000000 0.000000 0.000000
# 2 -0.012665 0.043989 -0.006085 0.000000 0.000000 0.000000
# 3 -0.001364 -0.006085 0.028765 0.000000 0.000000 0.000000
# 4 0.000000 0.000000 0.000000 -0.052793 0.000000 0.000000
# 5 0.000000 0.000000 0.000000 0.000000 0.052632 0.000000
# 6 0.000000 0.000000 0.000000 0.000000 0.000000 -0.059064
#
#
# Mechanical properties :
#
#
# Convention : Reuss Voigt Hill
#
# Bulk Modulus (GPa) = 21.57759 30.32322 25.95041
# Shear Modulus (GPa) = 60.22351 4.69284 32.45818
#
# Velocity S-wave (km/s) = 5.52273 1.54166 4.05446
# Velocity P-wave (km/s) = 7.18300 4.30422 5.92122
#
# Compressibility (1/GPa) = 0.04634438
#
# Stress axis : x y z
#
# Youngs Moduli (GPa) = 72.36251 22.73304 34.76497
#
# Poissons Ratio (x) = 0.28791 0.04743
# Poissons Ratio (y) = 0.91646 0.21155
# Poissons Ratio (z) = 0.09872 0.13833
#
# Static dielectric constant tensor:
#      x y z
#    x 1.750010 0.000000 0.000000 
#    y 0.000000 1.707950 0.000000 
#    z 0.000000 0.000000 1.712790 
# 
# From -- ./inp_files/14948.got.cif
#   From: 2010.05.17/outbox.cif.g08.bks.cpg/sg54_8_cif.got.tgz:14948.got - 2010.06.03 13:09:01.
