data_PCOD9420111
_publ_section_title
;
Structure prediction by ZEFSAII (Michael W. Deem and Ramdas Pophale) SiO2 
 PCOD9420111
Probable space group: P M N A
;
_chemical_formula_sum "Si O2"
_cell_formula_units_Z 64
_cell_length_a 9.000000
_cell_length_b 12.000000
_cell_length_c 30.000000
_cell_angle_alpha 90.000000
_cell_angle_beta 90.000000
_cell_angle_gamma 90.000000
_cell_volume 3240.000000
_symmetry_space_group_name_H-M "P M N A"
_symmetry_group_IT_number 53
_symmetry_cell_setting 'orthorhombic'
loop_
_space_group_symop_operation_xyz
x,y,z
1/2-x,-y,1/2+z
x,-y,-z
1/2-x,y,1/2-z
-x,-y,-z
1/2+x,y,1/2-z
-x,y,z
1/2+x,-y,1/2+z
loop_
_atom_site_type_symbol
_atom_site_label
_atom_site_fract_x
_atom_site_fract_y
_atom_site_fract_z
Si Si1 0.162653 0.502018 0.407832
Si Si2 0.670670 0.549238 0.672447
Si Si3 0.673935 0.188862 0.633289
Si Si4 0.675618 0.340995 0.793961
Si Si5 0.330722 0.255052 0.952744
Si Si6 0.833078 0.621214 0.975186
Si Si7 0.174174 0.991965 0.796214
Si Si8 0.822516 0.759137 0.701797
O O1 0.304527 0.502686 0.375994
O O2 0.157113 0.619721 0.432456
O O3 0.199629 0.401917 0.441011
O O4 0.000000 0.487929 0.385667
O O5 0.500000 0.553097 0.686082
O O6 0.767609 0.467393 0.702641
O O7 0.747958 0.668363 0.670375
O O8 0.500000 0.219826 0.628111
O O9 0.762219 0.278361 0.663042
O O10 0.754892 0.182093 0.585860
O O11 0.680778 0.079255 0.663849
O O12 0.750000 0.291059 0.750000
O O13 0.500000 0.334096 0.791485
O O14 0.500000 0.219867 0.963482
O O15 0.219713 0.278179 0.993456
O O16 0.000000 0.641508 0.957500
O O17 0.841888 0.500000 0.000000
O O18 0.250000 0.031577 0.750000
O O19 0.000000 0.966095 0.787214
O O20 0.264523 0.881788 0.809164
O O21 0.750000 0.733461 0.750000
O O22 0.000000 0.752252 0.703047
#
# Coordination Sequence:
#
# PCOD9420111 Si02
#       8
#     8   8   8   8   8   8   8   8
#     4  10  19  32  49  74 105 138 175 214 256 308
#     4  12  23  36  54  76 105 138 174 215 261 311
#     4  11  22  35  53  77 106 139 175 216 260 311
#     4  12  24  37  51  72 103 139 176 212 256 313
#     4  10  19  31  49  73 105 140 175 216 256 307
#     4   9  17  29  47  70 100 138 176 212 254 306
#     4  10  21  37  56  78 102 133 175 221 266 309
#     4  11  22  38  58  78 102 133 174 221 267 311
#
# _framework density 19.753086
#
# number of rings (size 3 to 8) (size 9 to 14) (size 15 to 20)
#    0.000    1.375    1.250    6.750    0.000    5.500 
#    0.000    0.000    0.000    0.000    0.000    0.875 
#    0.000    7.000    0.000    0.000    0.000    0.000 
#
# Total GULP energy -356846.014641 kJ/mol
# GULP energy per Si atom -5575.718979 kJ/mol
# Density = 1.970813 g / cm^3
# Si number density = 19.753086 Si / 1000 Ang^3
#
#
#
# Elastic Constant Matrix: (Units=GPa)
#
#
# Indices 1 2 3 4 5 6 
#
# 1 160.5405 23.9366 -4.0651 0.0000 0.0000 0.0000
# 2 23.9366 45.0774 -3.9453 0.0000 0.0000 0.0000
# 3 -4.0651 -3.9453 1.0717 0.0000 0.0000 0.0000
# 4 0.0000 0.0000 0.0000 -14.5817 0.0000 0.0000
# 5 0.0000 0.0000 0.0000 0.0000 20.4857 0.0000
# 6 0.0000 0.0000 0.0000 0.0000 0.0000 -32.1970
#
#
#
# Elastic Compliance Matrix: (Units=1/GPa)
#
#
# Indices 1 2 3 4 5 6 
#
# 1 0.007018 -0.002061 0.019036 0.000000 0.000000 0.000000
# 2 -0.002061 0.033335 0.114905 0.000000 0.000000 0.000000
# 3 0.019036 0.114905 1.428347 0.000000 0.000000 0.000000
# 4 0.000000 0.000000 0.000000 -0.068579 0.000000 0.000000
# 5 0.000000 0.000000 0.000000 0.000000 0.048815 0.000000
# 6 0.000000 0.000000 0.000000 0.000000 0.000000 -0.031059
#
#
# Mechanical properties :
#
#
# Convention : Reuss Voigt Hill
#
# Bulk Modulus (GPa) = 0.57721 26.50465 13.54093
# Shear Modulus (GPa) = 2.88750 7.45895 5.17322
#
# Velocity S-wave (km/s) = 1.21036 1.94532 1.62007
# Velocity P-wave (km/s) = 1.49871 4.30033 3.22017
#
# Compressibility (1/GPa) = 1.73246026
#
# Stress axis : x y z
#
# Youngs Moduli (GPa) = 142.48625 29.99838 0.70011
#
# Poissons Ratio (x) = 0.06182 -0.01333
# Poissons Ratio (y) = 0.29362 -0.08045
# Poissons Ratio (z) = -2.71233 -3.44696
#
# Static dielectric constant tensor:
#      x y z
#    x 1.679150 0.000000 0.000000 
#    y 0.000000 1.729270 0.000000 
#    z 0.000000 0.000000 2.116530 
# 
# From -- ./inp_files/38193.got.cif
#   From: 2010.05.17/outbox.ucp.g08.bks.cvg/sg53_20_cif.got.tgz:38193.got - 2010.06.11 16:32:34.
