data_PCOD9420367
_publ_section_title
;
Structure prediction by ZEFSAII (Michael W. Deem and Ramdas Pophale) SiO2 
 PCOD9420367
Probable space group: P C C A
;
_chemical_formula_sum "Si O2"
_cell_formula_units_Z 28
_cell_length_a 5.477472
_cell_length_b 15.231707
_cell_length_c 14.081461
_cell_angle_alpha 90.000000
_cell_angle_beta 90.000000
_cell_angle_gamma 90.000000
_cell_volume 1174.833873
_symmetry_space_group_name_H-M "P C C A"
_symmetry_group_IT_number 54
_symmetry_cell_setting 'orthorhombic'
loop_
_space_group_symop_operation_xyz
x,y,z
1/2-x,-y,z
1/2+x,-y,1/2-z
-x,y,1/2-z
-x,-y,-z
1/2+x,y,-z
1/2-x,y,1/2+z
x,-y,1/2+z
loop_
_atom_site_type_symbol
_atom_site_label
_atom_site_fract_x
_atom_site_fract_y
_atom_site_fract_z
Si Si1 0.250000 0.000000 0.190133
Si Si2 0.600925 0.255619 0.607047
Si Si3 0.005233 0.536891 0.892858
Si Si4 0.391433 0.182994 0.109812
O O1 0.353804 0.079899 0.126493
O O2 0.500000 0.975521 0.250000
O O3 0.554125 0.359399 0.601490
O O4 0.606432 0.213539 0.500527
O O5 0.856904 0.222784 0.648934
O O6 0.353986 0.222079 0.653786
O O7 0.250000 0.500000 0.846639
O O8 0.750000 0.500000 0.853479
O O9 0.000000 0.500000 0.000000
#
# Coordination Sequence:
#
# PCOD9420367 Si02
#       4
#     4   8   8   8
#     4  12  26  42  56  74 100 140 190 236 284 326
#     4  10  19  32  54  85 111 141 174 211 272 327
#     4  10  16  25  43  74 120 149 160 189 244 329
#     4  10  20  35  54  75 107 136 177 227 269 329
#
# _framework density 23.833157
#
# number of rings (size 3 to 8) (size 9 to 14) (size 15 to 20)
#    0.000    1.714    0.000   10.286    0.000    4.571 
#    0.000    0.000    0.000    0.000    0.000    0.000 
#    0.000  208.000    0.000    0.000    0.000    0.000 
#
# Total GULP energy -156173.459839 kJ/mol
# GULP energy per Si atom -5577.623566 kJ/mol
# Density = 2.377891 g / cm^3
# Si number density = 23.833157 Si / 1000 Ang^3
#
#
#
# Elastic Constant Matrix: (Units=GPa)
#
#
# Indices 1 2 3 4 5 6 
#
# 1 319.7950 96.1555 54.8852 0.0000 0.0000 0.0000
# 2 96.1555 251.1942 42.4785 0.0000 0.0000 0.0000
# 3 54.8852 42.4785 105.7025 0.0000 0.0000 0.0000
# 4 0.0000 0.0000 0.0000 -123.2427 0.0000 0.0000
# 5 0.0000 0.0000 0.0000 0.0000 5.3593 0.0000
# 6 0.0000 0.0000 0.0000 0.0000 0.0000 52.1579
#
#
#
# Elastic Compliance Matrix: (Units=1/GPa)
#
#
# Indices 1 2 3 4 5 6 
#
# 1 0.003734 -0.001182 -0.001464 0.000000 0.000000 0.000000
# 2 -0.001182 0.004645 -0.001253 0.000000 0.000000 0.000000
# 3 -0.001464 -0.001253 0.010724 0.000000 0.000000 0.000000
# 4 0.000000 0.000000 0.000000 -0.008114 0.000000 0.000000
# 5 0.000000 0.000000 0.000000 0.000000 0.186591 0.000000
# 6 0.000000 0.000000 0.000000 0.000000 0.000000 0.019173
#
#
# Mechanical properties :
#
#
# Convention : Reuss Voigt Hill
#
# Bulk Modulus (GPa) = 88.45060 118.19223 103.32141
# Shear Modulus (GPa) = 21.89927 19.06641 20.48284
#
# Velocity S-wave (km/s) = 3.03455 2.83149 2.93478
# Velocity P-wave (km/s) = 7.03356 7.77103 7.41148
#
# Compressibility (1/GPa) = 0.01130575
#
# Stress axis : x y z
#
# Youngs Moduli (GPa) = 267.84437 215.27446 93.24722
#
# Poissons Ratio (x) = 0.25438 0.13649
# Poissons Ratio (y) = 0.31649 0.11686
# Poissons Ratio (z) = 0.39205 0.26979
#
# Static dielectric constant tensor:
#      x y z
#    x 1.795610 0.000000 0.000000 
#    y 0.000000 2.136300 0.000000 
#    z 0.000000 0.000000 1.196110 
# 
# From -- ./inp_files/19458.got.cif
#   From: 2010.05.17/outbox.cif.g08.bks.cpg/sg54_10_cif.got.tgz:19458.got - 2010.06.03 13:09:01.
