data_PCOD9420539
_publ_section_title
;
Structure prediction by ZEFSAII (Michael W. Deem and Ramdas Pophale) SiO2 
 PCOD9420539
Probable space group: P C C A
;
_chemical_formula_sum "Si O2"
_cell_formula_units_Z 56
_cell_length_a 14.136200
_cell_length_b 14.666579
_cell_length_c 11.449610
_cell_angle_alpha 90.000000
_cell_angle_beta 90.000000
_cell_angle_gamma 90.000000
_cell_volume 2373.844138
_symmetry_space_group_name_H-M "P C C A"
_symmetry_group_IT_number 54
_symmetry_cell_setting 'orthorhombic'
loop_
_space_group_symop_operation_xyz
x,y,z
1/2-x,-y,z
1/2+x,-y,1/2-z
-x,y,1/2-z
-x,-y,-z
1/2+x,y,-z
1/2-x,y,1/2+z
x,-y,1/2+z
loop_
_atom_site_type_symbol
_atom_site_label
_atom_site_fract_x
_atom_site_fract_y
_atom_site_fract_z
Si Si1 0.046402 0.484180 0.627335
Si Si2 0.678494 0.645682 0.406942
Si Si3 0.862914 0.086422 0.336999
Si Si4 0.607328 0.301800 0.446586
Si Si5 0.644208 0.763953 0.174593
Si Si6 0.866118 0.118159 0.811358
Si Si7 0.148279 0.199993 0.931769
O O1 0.140391 0.545486 0.615002
O O2 0.054097 0.374951 0.630854
O O3 0.000000 0.513962 0.750000
O O4 0.000000 0.500000 0.500000
O O5 0.787621 0.654712 0.440379
O O6 0.667690 0.702430 0.286738
O O7 0.626440 0.701114 0.512227
O O8 0.900072 0.145183 0.227968
O O9 0.748235 0.100151 0.318362
O O10 0.875227 0.131519 0.463335
O O11 0.900276 0.983859 0.334819
O O12 0.581746 0.292061 0.582865
O O13 0.608582 0.199119 0.399154
O O14 0.740368 0.791839 0.105264
O O15 0.894667 0.159212 0.685880
#
# Coordination Sequence:
#
# PCOD9420539 Si02
#       7
#     8   8   8   8   8   8   8
#     4  12  29  46  64  90 123 164 212 264 331 386
#     4  10  20  40  64  87 117 161 206 260 312 373
#     4   9  17  26  47  86 136 157 180 241 320 357
#     4  11  21  38  63  92 122 158 209 258 308 372
#     4   9  16  33  53  88 124 154 198 243 305 364
#     4  10  18  26  50  87 126 159 184 243 308 358
#     4   9  16  30  50  84 124 152 199 240 299 359
#
# _framework density 23.590429
#
# number of rings (size 3 to 8) (size 9 to 14) (size 15 to 20)
#    0.000    2.000    5.714    1.286    4.000    1.143 
#    0.000    2.857    0.000    0.000    0.000   13.000 
#    0.000    0.000    0.000    0.000    0.000    0.000 
#
# Total GULP energy -312399.162042 kJ/mol
# GULP energy per Si atom -5578.556465 kJ/mol
# Density = 2.353674 g / cm^3
# Si number density = 23.590429 Si / 1000 Ang^3
#
#
#
# Elastic Constant Matrix: (Units=GPa)
#
#
# Indices 1 2 3 4 5 6 
#
# 1 53.6874 16.4050 7.8249 0.0000 0.0000 0.0000
# 2 16.4050 148.7235 47.0838 0.0000 0.0000 0.0000
# 3 7.8249 47.0838 141.5748 0.0000 0.0000 0.0000
# 4 0.0000 0.0000 0.0000 24.0909 0.0000 0.0000
# 5 0.0000 0.0000 0.0000 0.0000 12.3938 0.0000
# 6 0.0000 0.0000 0.0000 0.0000 0.0000 4.6512
#
#
#
# Elastic Compliance Matrix: (Units=1/GPa)
#
#
# Indices 1 2 3 4 5 6 
#
# 1 0.019296 -0.002002 -0.000401 0.000000 0.000000 0.000000
# 2 -0.002002 0.007723 -0.002458 0.000000 0.000000 0.000000
# 3 -0.000401 -0.002458 0.007903 0.000000 0.000000 0.000000
# 4 0.000000 0.000000 0.000000 0.041509 0.000000 0.000000
# 5 0.000000 0.000000 0.000000 0.000000 0.080686 0.000000
# 6 0.000000 0.000000 0.000000 0.000000 0.000000 0.214998
#
#
# Mechanical properties :
#
#
# Convention : Reuss Voigt Hill
#
# Bulk Modulus (GPa) = 39.67981 54.06810 46.87395
# Shear Modulus (GPa) = 12.81275 26.40532 19.60904
#
# Velocity S-wave (km/s) = 2.33305 3.34926 2.88623
# Velocity P-wave (km/s) = 4.91063 6.15841 5.56957
#
# Compressibility (1/GPa) = 0.02520173
#
# Stress axis : x y z
#
# Youngs Moduli (GPa) = 51.82317 129.48737 126.53523
#
# Poissons Ratio (x) = 0.25918 0.05072
# Poissons Ratio (y) = 0.10373 0.31099
# Poissons Ratio (z) = 0.02077 0.31825
#
# Static dielectric constant tensor:
#      x y z
#    x 1.992340 0.000000 0.000000 
#    y 0.000000 1.911690 0.000000 
#    z 0.000000 0.000000 1.889280 
# 
# From -- ./inp_files/8436.got.cif
#   From: 2010.05.17/outbox.cif.g08.bks.cpg/sg54_5_cif.got.tgz:8436.got - 2010.06.03 13:09:01.
