data_PCOD9420874
_publ_section_title
;
Structure prediction by ZEFSAII (Michael W. Deem and Ramdas Pophale) SiO2 
 PCOD9420874
Probable space group: P C C A
;
_chemical_formula_sum "Si O2"
_cell_formula_units_Z 64
_cell_length_a 18.301520
_cell_length_b 9.070276
_cell_length_c 18.803006
_cell_angle_alpha 90.000000
_cell_angle_beta 90.000000
_cell_angle_gamma 90.000000
_cell_volume 3121.295943
_symmetry_space_group_name_H-M "P C C A"
_symmetry_group_IT_number 54
_symmetry_cell_setting 'orthorhombic'
loop_
_space_group_symop_operation_xyz
x,y,z
1/2-x,-y,z
1/2+x,-y,1/2-z
-x,y,1/2-z
-x,-y,-z
1/2+x,y,-z
1/2-x,y,1/2+z
x,-y,1/2+z
loop_
_atom_site_type_symbol
_atom_site_label
_atom_site_fract_x
_atom_site_fract_y
_atom_site_fract_z
Si Si1 0.932554 0.695944 0.128745
Si Si2 0.952198 0.903178 0.445527
Si Si3 0.669828 0.940171 0.616760
Si Si4 0.664442 0.483613 0.541947
Si Si5 0.519036 0.410814 0.825586
Si Si6 0.675356 0.431773 0.885719
Si Si7 0.584906 0.225091 0.587140
Si Si8 0.320129 0.900661 0.055516
O O1 0.866339 0.800319 0.156504
O O2 0.892714 0.610598 0.063895
O O3 0.995486 0.809544 0.104475
O O4 0.972853 0.563623 0.169826
O O5 0.915172 0.795054 0.502255
O O6 0.891251 0.012568 0.415343
O O7 0.000000 0.000000 0.500000
O O8 0.674225 0.900810 0.531529
O O9 0.750000 0.000000 0.637490
O O10 0.612691 0.075515 0.621732
O O11 0.750000 0.500000 0.553572
O O12 0.658020 0.474354 0.456864
O O13 0.644514 0.351202 0.594741
O O14 0.500000 0.341996 0.750000
O O15 0.604417 0.437711 0.836489
O O16 0.489509 0.296968 0.885165
O O17 0.750000 0.500000 0.855132
O O18 0.686159 0.263550 0.913592
O O19 0.250000 0.000000 0.072504
#
# Coordination Sequence:
#
# PCOD9420874 Si02
#       8
#     8   8   8   8   8   8   8   8
#     4  11  20  35  59  88 118 160 196 246 307 368
#     4  11  18  31  57  92 124 145 185 235 312 383
#     4  10  19  33  56  93 131 155 186 233 312 386
#     4  10  19  31  53  92 127 152 187 234 311 383
#     4  11  26  45  60  80 116 169 226 268 291 333
#     4  11  23  38  61  91 125 160 199 246 314 378
#     4  10  20  33  58  84 117 161 192 245 301 362
#     4  10  21  33  56  93 133 157 175 236 315 393
#
# _framework density 20.504304000000001
#
# number of rings (size 3 to 8) (size 9 to 14) (size 15 to 20)
#    0.000    1.500    3.750    3.000   10.500    2.000 
#    0.000    4.375    0.000    0.750    0.000    0.000 
#    0.000    0.000    0.000    0.000    0.000    0.000 
#
# Total GULP energy -356578.863637 kJ/mol
# GULP energy per Si atom -5571.544744 kJ/mol
# Density = 2.045763 g / cm^3
# Si number density = 20.504304 Si / 1000 Ang^3
#
#
#
# Elastic Constant Matrix: (Units=GPa)
#
#
# Indices 1 2 3 4 5 6 
#
# 1 125.3941 38.8225 16.7038 0.0000 0.0000 0.0000
# 2 38.8225 96.5340 8.8528 0.0000 0.0000 0.0000
# 3 16.7038 8.8528 9.6714 0.0000 0.0000 0.0000
# 4 0.0000 0.0000 0.0000 1.3740 0.0000 0.0000
# 5 0.0000 0.0000 0.0000 0.0000 9.4242 0.0000
# 6 0.0000 0.0000 0.0000 0.0000 0.0000 31.9403
#
#
#
# Elastic Compliance Matrix: (Units=1/GPa)
#
#
# Indices 1 2 3 4 5 6 
#
# 1 0.011076 -0.002948 -0.016432 0.000000 0.000000 0.000000
# 2 -0.002948 0.012093 -0.005978 0.000000 0.000000 0.000000
# 3 -0.016432 -0.005978 0.137251 0.000000 0.000000 0.000000
# 4 0.000000 0.000000 0.000000 0.727806 0.000000 0.000000
# 5 0.000000 0.000000 0.000000 0.000000 0.106110 0.000000
# 6 0.000000 0.000000 0.000000 0.000000 0.000000 0.031308
#
#
# Mechanical properties :
#
#
# Convention : Reuss Voigt Hill
#
# Bulk Modulus (GPa) = 9.11546 40.03974 24.57760
# Shear Modulus (GPa) = 4.49265 19.69572 12.09418
#
# Velocity S-wave (km/s) = 1.48183 3.10266 2.43129
# Velocity P-wave (km/s) = 2.71718 5.69256 4.46028
#
# Compressibility (1/GPa) = 0.10970377
#
# Stress axis : x y z
#
# Youngs Moduli (GPa) = 90.28214 82.69445 7.28591
#
# Poissons Ratio (x) = 0.24375 0.11972
# Poissons Ratio (y) = 0.26611 0.04356
# Poissons Ratio (z) = 1.48354 0.49437
#
# Static dielectric constant tensor:
#      x y z
#    x -13.374560 0.000000 0.000000 
#    y 0.000000 1.839880 0.000000 
#    z 0.000000 0.000000 1.738690 
# 
# From -- ./inp_files/21961.got.cif
#   From: 2010.05.17/outbox.cif.g08.bks.cpg/sg54_11_cif.got.tgz:21961.got - 2010.06.03 13:09:01.
