data_PCOD9420342
_publ_section_title
;
Structure prediction by ZEFSAII (Michael W. Deem and Ramdas Pophale) SiO2 
 PCOD9420342
Probable space group: P C C A
;
_chemical_formula_sum "Si O2"
_cell_formula_units_Z 40
_cell_length_a 13.634934
_cell_length_b 22.121611
_cell_length_c 5.474117
_cell_angle_alpha 90.000000
_cell_angle_beta 90.000000
_cell_angle_gamma 90.000000
_cell_volume 1651.139879
_symmetry_space_group_name_H-M "P C C A"
_symmetry_group_IT_number 54
_symmetry_cell_setting 'orthorhombic'
loop_
_space_group_symop_operation_xyz
x,y,z
1/2-x,-y,z
1/2+x,-y,1/2-z
-x,y,1/2-z
-x,-y,-z
1/2+x,y,-z
1/2-x,y,1/2+z
x,-y,1/2+z
loop_
_atom_site_type_symbol
_atom_site_label
_atom_site_fract_x
_atom_site_fract_y
_atom_site_fract_z
Si Si1 0.187650 0.150408 0.443288
Si Si2 0.387353 0.976388 0.295767
Si Si3 0.366476 0.284958 0.879614
Si Si4 0.361939 0.475745 0.385385
Si Si5 0.640241 0.333230 0.119393
O O1 0.237898 0.149627 0.710680
O O2 0.123150 0.090939 0.399899
O O3 0.131012 0.213675 0.425518
O O4 0.500000 0.993271 0.250000
O O5 0.346866 0.018220 0.517383
O O6 0.406233 0.300470 0.613188
O O7 0.251474 0.306571 0.861580
O O8 0.404065 0.320413 0.115525
O O9 0.250000 0.500000 0.364551
O O10 0.405159 0.509446 0.620243
O O11 0.358130 0.404401 0.429269
#
# Coordination Sequence:
#
# PCOD9420342 Si02
#       5
#     8   8   8   8   8
#     4  12  21  34  55  82 106 127 172 221 245 297
#     4  10  23  42  59  77 106 141 168 199 257 317
#     4  10  16  27  38  61  86 119 151 196 242 294
#     4  10  16  22  31  49  71 111 169 201 219 277
#     4  10  16  25  38  51  87 123 153 199 249 289
#
# _framework density 24.225688999999999
#
# number of rings (size 3 to 8) (size 9 to 14) (size 15 to 20)
#    0.000    1.600    4.000    7.200    0.000    2.400 
#    0.000    0.000    0.000    0.000    0.000    0.000 
#    0.000    0.000    0.000    0.000    0.000   74.000 
#
# Total GULP energy -223626.888332 kJ/mol
# GULP energy per Si atom -5590.672208 kJ/mol
# Density = 2.417055 g / cm^3
# Si number density = 24.225689 Si / 1000 Ang^3
#
#
#
# Elastic Constant Matrix: (Units=GPa)
#
#
# Indices 1 2 3 4 5 6 
#
# 1 53.7132 -36.1963 1.8188 0.0000 0.0000 0.0000
# 2 -36.1963 112.2245 -27.5103 0.0000 0.0000 0.0000
# 3 1.8188 -27.5103 161.9590 0.0000 0.0000 0.0000
# 4 0.0000 0.0000 0.0000 48.8713 0.0000 0.0000
# 5 0.0000 0.0000 0.0000 0.0000 309.1040 0.0000
# 6 0.0000 0.0000 0.0000 0.0000 0.0000 -15.3959
#
#
#
# Elastic Compliance Matrix: (Units=1/GPa)
#
#
# Indices 1 2 3 4 5 6 
#
# 1 0.023970 0.007998 0.001089 0.000000 0.000000 0.000000
# 2 0.007998 0.011967 0.001943 0.000000 0.000000 0.000000
# 3 0.001089 0.001943 0.006492 0.000000 0.000000 0.000000
# 4 0.000000 0.000000 0.000000 0.020462 0.000000 0.000000
# 5 0.000000 0.000000 0.000000 0.000000 0.003235 0.000000
# 6 0.000000 0.000000 0.000000 0.000000 0.000000 -0.064952
#
#
# Mechanical properties :
#
#
# Convention : Reuss Voigt Hill
#
# Bulk Modulus (GPa) = 15.50614 22.68013 19.09313
# Shear Modulus (GPa) = 8200.66237 94.50151 4147.58194
#
# Velocity S-wave (km/s) = 58.24482 6.25248 41.42193
# Velocity P-wave (km/s) = 67.30299 7.84264 47.91242
#
# Compressibility (1/GPa) = 0.06449059
#
# Stress axis : x y z
#
# Youngs Moduli (GPa) = 41.71799 83.56511 154.03153
#
# Poissons Ratio (x) = -0.66838 -0.16780
# Poissons Ratio (y) = -0.33368 -0.29926
# Poissons Ratio (z) = -0.04545 -0.16235
#
# Static dielectric constant tensor:
#      x y z
#    x 1.926140 0.000000 0.000000 
#    y 0.000000 1.816620 0.000000 
#    z 0.000000 0.000000 1.990280 
# 
# From -- ./inp_files/931.got.cif
#   From: 2010.05.17/outbox.cif.g08.bks.cpg/sg54_1_cif.got.tgz:931.got - 2010.06.03 13:09:01.
