data_PCOD9420595
_publ_section_title
;
Structure prediction by ZEFSAII (Michael W. Deem and Ramdas Pophale) SiO2 
 PCOD9420595
Probable space group: P C C A
;
_chemical_formula_sum "Si O2"
_cell_formula_units_Z 48
_cell_length_a 20.572431
_cell_length_b 6.188324
_cell_length_c 18.867228
_cell_angle_alpha 90.000000
_cell_angle_beta 90.000000
_cell_angle_gamma 90.000000
_cell_volume 2401.965448
_symmetry_space_group_name_H-M "P C C A"
_symmetry_group_IT_number 54
_symmetry_cell_setting 'orthorhombic'
loop_
_space_group_symop_operation_xyz
x,y,z
1/2-x,-y,z
1/2+x,-y,1/2-z
-x,y,1/2-z
-x,-y,-z
1/2+x,y,-z
1/2-x,y,1/2+z
x,-y,1/2+z
loop_
_atom_site_type_symbol
_atom_site_label
_atom_site_fract_x
_atom_site_fract_y
_atom_site_fract_z
Si Si1 0.304258 0.177846 0.836919
Si Si2 0.812555 0.147477 0.874298
Si Si3 0.073414 0.876153 0.579702
Si Si4 0.925583 0.887331 0.572717
Si Si5 0.372875 0.525897 0.518908
Si Si6 0.750000 0.500000 0.772012
Si Si7 0.750000 0.500000 0.548557
O O1 0.372525 0.082638 0.865032
O O2 0.299878 0.356294 0.774895
O O3 0.279579 0.311506 0.904377
O O4 0.250000 0.000000 0.818942
O O5 0.791486 0.326369 0.816816
O O6 0.750000 0.000000 0.885927
O O7 0.875215 0.990443 0.867852
O O8 0.833543 0.286679 0.941571
O O9 0.087350 0.621938 0.572156
O O10 0.998912 0.918516 0.599043
O O11 0.081666 0.963140 0.497838
O O12 0.915855 0.643842 0.540600
O O13 0.311420 0.393250 0.490112
#
# Coordination Sequence:
#
# PCOD9420595 Si02
#       7
#     8   8   8   8   8   4   4
#     4  10  20  35  56  77 107 145 185 233 278 328
#     4  11  22  36  57  80 107 144 192 239 281 328
#     4  10  19  34  57  87 122 150 176 223 287 353
#     4   9  20  34  55  90 123 149 178 221 286 355
#     4  10  18  31  55  85 118 149 176 220 279 346
#     4  11  23  38  56  76  99 145 204 250 278 315
#     4   9  17  28  48  84 111 135 176 216 270 329
#
# _framework density 19.983633999999999
#
# number of rings (size 3 to 8) (size 9 to 14) (size 15 to 20)
#    0.000    2.000    0.000    4.500    0.000    4.667 
#    0.000    0.000    0.000   15.000    0.000    0.000 
#    0.000    0.000    0.000    0.000    0.000    0.000 
#
# Total GULP energy -267331.859456 kJ/mol
# GULP energy per Si atom -5569.413739 kJ/mol
# Density = 1.993815 g / cm^3
# Si number density = 19.983634 Si / 1000 Ang^3
#
#
#
# Elastic Constant Matrix: (Units=GPa)
#
#
# Indices 1 2 3 4 5 6 
#
# 1 152.9100 53.4013 36.4555 0.0000 0.0000 0.0000
# 2 53.4013 76.2242 18.6877 0.0000 0.0000 0.0000
# 3 36.4555 18.6877 45.8872 0.0000 0.0000 0.0000
# 4 0.0000 0.0000 0.0000 6.0574 0.0000 0.0000
# 5 0.0000 0.0000 0.0000 0.0000 12.0904 0.0000
# 6 0.0000 0.0000 0.0000 0.0000 0.0000 22.0630
#
#
#
# Elastic Compliance Matrix: (Units=1/GPa)
#
#
# Indices 1 2 3 4 5 6 
#
# 1 0.009777 -0.005494 -0.005530 0.000000 0.000000 0.000000
# 2 -0.005494 0.017661 -0.002828 0.000000 0.000000 0.000000
# 3 -0.005530 -0.002828 0.027338 0.000000 0.000000 0.000000
# 4 0.000000 0.000000 0.000000 0.165087 0.000000 0.000000
# 5 0.000000 0.000000 0.000000 0.000000 0.082710 0.000000
# 6 0.000000 0.000000 0.000000 0.000000 0.000000 0.045325
#
#
# Mechanical properties :
#
#
# Convention : Reuss Voigt Hill
#
# Bulk Modulus (GPa) = 36.93816 54.67892 45.80854
# Shear Modulus (GPa) = 12.99965 19.14061 16.07013
#
# Velocity S-wave (km/s) = 2.55329 3.09822 2.83886
# Velocity P-wave (km/s) = 5.21696 6.34191 5.80674
#
# Compressibility (1/GPa) = 0.02707228
#
# Stress axis : x y z
#
# Youngs Moduli (GPa) = 102.28333 56.62091 36.57962
#
# Poissons Ratio (x) = 0.31106 0.20228
# Poissons Ratio (y) = 0.56191 0.10345
# Poissons Ratio (z) = 0.56562 0.16013
#
# Static dielectric constant tensor:
#      x y z
#    x 1.872570 0.000000 0.000000 
#    y 0.000000 1.779740 0.000000 
#    z 0.000000 0.000000 1.737700 
# 
# From -- ./inp_files/22123.got.cif
#   From: 2010.05.17/outbox.cif.g08.bks.cpg/sg54_12_cif.got.tgz:22123.got - 2010.06.03 13:09:01.
