data_PCOD9420916
_publ_section_title
;
Structure prediction by ZEFSAII (Michael W. Deem and Ramdas Pophale) SiO2 
 PCOD9420916
Probable space group: P C C A
;
_chemical_formula_sum "Si O2"
_cell_formula_units_Z 56
_cell_length_a 5.092528
_cell_length_b 16.118985
_cell_length_c 33.019511
_cell_angle_alpha 90.000000
_cell_angle_beta 90.000000
_cell_angle_gamma 90.000000
_cell_volume 2710.452208
_symmetry_space_group_name_H-M "P C C A"
_symmetry_group_IT_number 54
_symmetry_cell_setting 'orthorhombic'
loop_
_space_group_symop_operation_xyz
x,y,z
1/2-x,-y,z
1/2+x,-y,1/2-z
-x,y,1/2-z
-x,-y,-z
1/2+x,y,-z
1/2-x,y,1/2+z
x,-y,1/2+z
loop_
_atom_site_type_symbol
_atom_site_label
_atom_site_fract_x
_atom_site_fract_y
_atom_site_fract_z
Si Si1 0.498426 0.057768 0.399545
Si Si2 0.080593 0.167141 0.976375
Si Si3 0.406578 0.367760 0.474594
Si Si4 0.375287 0.626268 0.881497
Si Si5 0.859255 0.241110 0.292444
Si Si6 0.146076 0.802091 0.339389
Si Si7 0.128508 0.417272 0.168744
O O1 0.520178 0.121605 0.436691
O O2 0.439682 0.113908 0.360583
O O3 0.250000 0.000000 0.407623
O O4 0.750000 0.000000 0.395112
O O5 0.078643 0.266827 0.972347
O O6 0.876966 0.144002 0.011923
O O7 0.182223 0.393685 0.506129
O O8 0.344273 0.393397 0.428692
O O9 0.366011 0.724599 0.870777
O O10 0.661806 0.599487 0.866860
O O11 0.153590 0.584872 0.853057
O O12 0.560522 0.216267 0.302972
O O13 0.869854 0.339767 0.300950
O O14 0.000000 0.223555 0.250000
O O15 0.054347 0.197814 0.324586
O O16 0.250000 0.500000 0.188445
#
# Coordination Sequence:
#
# PCOD9420916 Si02
#       7
#     8   8   8   8   8   8   8
#     4  12  24  37  57  82 117 157 194 242 296 338
#     4  10  21  35  52  78 115 151 192 242 296 343
#     4  10  19  32  54  80 107 145 199 249 281 317
#     4  10  19  36  59  79 112 156 194 233 275 331
#     4  10  21  39  66  90 114 147 182 227 283 341
#     4  10  21  39  59  85 114 147 199 233 273 347
#     4  10  21  36  59  90 120 146 178 221 283 348
#
# _framework density 20.660761000000001
#
# number of rings (size 3 to 8) (size 9 to 14) (size 15 to 20)
#    0.000    1.714    1.429    3.429    0.000    1.714 
#    0.000    4.286    0.000   17.143    0.000    0.000 
#    0.000    0.000    0.000    0.000    0.000    0.000 
#
# Total GULP energy -312697.562445 kJ/mol
# GULP energy per Si atom -5583.885044 kJ/mol
# Density = 2.061374 g / cm^3
# Si number density = 20.660761 Si / 1000 Ang^3
#
#
#
# Elastic Constant Matrix: (Units=GPa)
#
#
# Indices 1 2 3 4 5 6 
#
# 1 90.9398 14.2303 -20.4364 0.0000 0.0000 0.0000
# 2 14.2303 49.7086 -8.6026 0.0000 0.0000 0.0000
# 3 -20.4364 -8.6026 29.8151 0.0000 0.0000 0.0000
# 4 0.0000 0.0000 0.0000 -0.6966 0.0000 0.0000
# 5 0.0000 0.0000 0.0000 0.0000 14.9691 0.0000
# 6 0.0000 0.0000 0.0000 0.0000 0.0000 20.1512
#
#
#
# Elastic Compliance Matrix: (Units=1/GPa)
#
#
# Indices 1 2 3 4 5 6 
#
# 1 0.013252 -0.002338 0.008409 0.000000 0.000000 0.000000
# 2 -0.002338 0.021587 0.004626 0.000000 0.000000 0.000000
# 3 0.008409 0.004626 0.040638 0.000000 0.000000 0.000000
# 4 0.000000 0.000000 0.000000 -1.435588 0.000000 0.000000
# 5 0.000000 0.000000 0.000000 0.000000 0.066804 0.000000
# 6 0.000000 0.000000 0.000000 0.000000 0.000000 0.049625
#
#
# Mechanical properties :
#
#
# Convention : Reuss Voigt Hill
#
# Bulk Modulus (GPa) = 10.32323 15.64957 12.98640
# Shear Modulus (GPa) = -4.05586 19.23622 7.59018
#
# Velocity S-wave (km/s) = -1.40262 3.05462 1.91877
# Velocity P-wave (km/s) = 1.54411 4.47571 3.34785
#
# Compressibility (1/GPa) = 0.09686893
#
# Stress axis : x y z
#
# Youngs Moduli (GPa) = 75.46125 46.32373 24.60737
#
# Poissons Ratio (x) = 0.10833 -0.20691
# Poissons Ratio (y) = 0.17646 -0.11383
# Poissons Ratio (z) = -0.63452 -0.21428
#
# Static dielectric constant tensor:
#      x y z
#    x 1.695020 0.000000 0.000000 
#    y 0.000000 1.768780 0.000000 
#    z 0.000000 0.000000 1.723120 
# 
# From -- ./inp_files/27206.got.cif
#   From: 2010.05.17/outbox.cif.g08.bks.cpg/sg54_14_cif.got.tgz:27206.got - 2010.06.03 13:09:01.
