data_PCOD9420320
_publ_section_title
;
Structure prediction by ZEFSAII (Michael W. Deem and Ramdas Pophale) SiO2 
 PCOD9420320
Probable space group: P C C A
;
_chemical_formula_sum "Si O2"
_cell_formula_units_Z 64
_cell_length_a 27.046922
_cell_length_b 27.599587
_cell_length_c 5.364418
_cell_angle_alpha 90.000000
_cell_angle_beta 90.000000
_cell_angle_gamma 90.000000
_cell_volume 4004.451546
_symmetry_space_group_name_H-M "P C C A"
_symmetry_group_IT_number 54
_symmetry_cell_setting 'orthorhombic'
loop_
_space_group_symop_operation_xyz
x,y,z
1/2-x,-y,z
1/2+x,-y,1/2-z
-x,y,1/2-z
-x,-y,-z
1/2+x,y,-z
1/2-x,y,1/2+z
x,-y,1/2+z
loop_
_atom_site_type_symbol
_atom_site_label
_atom_site_fract_x
_atom_site_fract_y
_atom_site_fract_z
Si Si1 0.057508 0.020844 0.998690
Si Si2 0.773590 0.697282 0.072523
Si Si3 0.114646 0.680294 0.438254
Si Si4 0.267903 0.587102 0.461058
Si Si5 0.881384 0.618388 0.555066
Si Si6 0.059573 0.526057 0.764316
Si Si7 0.533337 0.762823 0.500469
Si Si8 0.467269 0.870240 0.000316
O O1 0.060317 0.078683 0.994734
O O2 0.080192 0.999352 0.750121
O O3 0.000000 0.000000 0.000000
O O4 0.743192 0.717182 0.306295
O O5 0.831414 0.702117 0.119200
O O6 0.760479 0.639500 0.057186
O O7 0.120217 0.653156 0.703376
O O8 0.073519 0.721010 0.473923
O O9 0.103484 0.645278 0.201646
O O10 0.246035 0.562021 0.703592
O O11 0.326023 0.597461 0.481777
O O12 0.918337 0.575967 0.635617
O O13 0.075000 0.512061 0.482219
O O14 0.000000 0.528205 0.750000
O O15 0.500000 0.756779 0.250000
O O16 0.443151 0.816989 0.009299
O O17 0.500000 0.760958 0.750000
O O18 0.500000 0.870775 0.750000
O O19 0.500000 0.872827 0.250000
#
# Coordination Sequence:
#
# PCOD9420320 Si02
#       8
#     8   8   8   8   8   8   8   8
#     4  10  14  20  36  61  74  95 155 223 223 269
#     4  10  16  30  49  75  99 123 148 197 235 279
#     4  12  21  33  53  79  98 127 168 193 233 283
#     4  10  16  30  49  80 101 122 142 186 239 283
#     4  12  21  33  61  81  95 124 158 202 231 278
#     4  10  23  43  59  75  99 126 158 192 238 279
#     4  10  23  36  44  61 101 142 164 199 232 290
#     4  10  16  27  40  53  82 122 155 194 252 266
#
# _framework density 15.982214000000001
#
# number of rings (size 3 to 8) (size 9 to 14) (size 15 to 20)
#    0.000    1.500    7.500    1.500    0.000    1.500 
#    0.000    0.000    0.000    2.250    0.000    0.000 
#    0.000    0.000    0.000    0.000    0.000    3.750 
#
# Total GULP energy -356432.907983 kJ/mol
# GULP energy per Si atom -5569.264187 kJ/mol
# Density = 1.594584 g / cm^3
# Si number density = 15.982214 Si / 1000 Ang^3
#
#
#
# Elastic Constant Matrix: (Units=GPa)
#
#
# Indices 1 2 3 4 5 6 
#
# 1 33.0452 31.4858 18.2049 0.0000 0.0000 0.0000
# 2 31.4858 65.5798 30.2383 0.0000 0.0000 0.0000
# 3 18.2049 30.2383 139.6070 0.0000 0.0000 0.0000
# 4 0.0000 0.0000 0.0000 17.5427 0.0000 0.0000
# 5 0.0000 0.0000 0.0000 0.0000 16.8921 0.0000
# 6 0.0000 0.0000 0.0000 0.0000 0.0000 -5.0029
#
#
#
# Elastic Compliance Matrix: (Units=1/GPa)
#
#
# Indices 1 2 3 4 5 6 
#
# 1 0.056116 -0.026183 -0.001646 0.000000 0.000000 0.000000
# 2 -0.026183 0.029157 -0.002901 0.000000 0.000000 0.000000
# 3 -0.001646 -0.002901 0.008006 0.000000 0.000000 0.000000
# 4 0.000000 0.000000 0.000000 0.057004 0.000000 0.000000
# 5 0.000000 0.000000 0.000000 0.000000 0.059199 0.000000
# 6 0.000000 0.000000 0.000000 0.000000 0.000000 -0.199884
#
#
# Mechanical properties :
#
#
# Convention : Reuss Voigt Hill
#
# Bulk Modulus (GPa) = 31.42856 44.23223 37.83040
# Shear Modulus (GPa) = 61.22658 16.43994 38.83326
#
# Velocity S-wave (km/s) = 6.19616 3.21072 4.93463
# Velocity P-wave (km/s) = 8.42005 6.44057 7.49594
#
# Compressibility (1/GPa) = 0.03181820
#
# Stress axis : x y z
#
# Youngs Moduli (GPa) = 17.82032 34.29718 124.90612
#
# Poissons Ratio (x) = 0.89799 0.20565
# Poissons Ratio (y) = 0.46658 0.36235
# Poissons Ratio (z) = 0.02934 0.09950
#
# Static dielectric constant tensor:
#      x y z
#    x 1.504500 0.000000 0.000000 
#    y 0.000000 1.548210 0.000000 
#    z 0.000000 0.000000 1.613590 
# 
# From -- ./inp_files/1733.got.cif
#   From: 2010.05.17/outbox.cif.g08.bks.cpg/sg54_1_cif.got.tgz:1733.got - 2010.06.03 13:09:01.
