data_PCOD9420633
_publ_section_title
;
Structure prediction by ZEFSAII (Michael W. Deem and Ramdas Pophale) SiO2 
 PCOD9420633
Probable space group: P C C A
;
_chemical_formula_sum "Si O2"
_cell_formula_units_Z 48
_cell_length_a 15.377316
_cell_length_b 7.561210
_cell_length_c 19.153503
_cell_angle_alpha 90.000000
_cell_angle_beta 90.000000
_cell_angle_gamma 90.000000
_cell_volume 2226.999160
_symmetry_space_group_name_H-M "P C C A"
_symmetry_group_IT_number 54
_symmetry_cell_setting 'orthorhombic'
loop_
_space_group_symop_operation_xyz
x,y,z
1/2-x,-y,z
1/2+x,-y,1/2-z
-x,y,1/2-z
-x,-y,-z
1/2+x,y,-z
1/2-x,y,1/2+z
x,-y,1/2+z
loop_
_atom_site_type_symbol
_atom_site_label
_atom_site_fract_x
_atom_site_fract_y
_atom_site_fract_z
Si Si1 0.905584 0.239565 0.267050
Si Si2 0.250488 0.786337 0.643697
Si Si3 0.680006 0.120759 0.638864
Si Si4 0.933181 0.178477 0.808668
Si Si5 0.217636 0.696816 0.484817
Si Si6 0.455408 0.880059 0.940338
O O1 0.837588 0.298005 0.325541
O O2 0.855106 0.256786 0.194226
O O3 0.000000 0.315880 0.250000
O O4 0.920941 0.030799 0.288272
O O5 0.337838 0.735829 0.685484
O O6 0.249488 0.745433 0.561895
O O7 0.250000 0.000000 0.648284
O O8 0.731144 0.191971 0.572891
O O9 0.750000 0.000000 0.678921
O O10 0.600301 0.007732 0.610166
O O11 0.000000 0.247816 0.750000
O O12 0.974328 0.197170 0.886268
O O13 0.250000 0.500000 0.471926
O O14 0.115341 0.744482 0.473487
O O15 0.500000 0.000000 0.000000
#
# Coordination Sequence:
#
# PCOD9420633 Si02
#       6
#     8   8   8   8   8   8
#     4  10  18  32  62  97 122 150 205 269 323 374
#     4  10  20  37  61  89 123 161 212 266 320 381
#     4  10  19  35  60  91 120 155 205 256 311 379
#     4  10  18  32  59  98 121 147 200 274 322 364
#     4  11  25  41  58  86 130 176 209 258 328 390
#     4  11  20  35  66  95 119 157 215 266 312 383
#
# _framework density 21.553668999999999
#
# number of rings (size 3 to 8) (size 9 to 14) (size 15 to 20)
#    0.000    1.667    3.333    6.000    2.333    0.000 
#    0.000    4.167    0.000    0.000    0.000    0.000 
#    0.000    0.000    0.000    0.000    0.000    0.000 
#
# Total GULP energy -267737.874094 kJ/mol
# GULP energy per Si atom -5577.872377 kJ/mol
# Density = 2.150461 g / cm^3
# Si number density = 21.553669 Si / 1000 Ang^3
#
#
#
# Elastic Constant Matrix: (Units=GPa)
#
#
# Indices 1 2 3 4 5 6 
#
# 1 130.3492 14.5503 45.4743 0.0000 0.0000 0.0000
# 2 14.5503 55.7731 0.9997 0.0000 0.0000 0.0000
# 3 45.4743 0.9997 108.4723 0.0000 0.0000 0.0000
# 4 0.0000 0.0000 0.0000 49.0099 0.0000 0.0000
# 5 0.0000 0.0000 0.0000 0.0000 33.2859 0.0000
# 6 0.0000 0.0000 0.0000 0.0000 0.0000 7.5695
#
#
#
# Elastic Compliance Matrix: (Units=1/GPa)
#
#
# Indices 1 2 3 4 5 6 
#
# 1 0.009285 -0.002353 -0.003871 0.000000 0.000000 0.000000
# 2 -0.002353 0.018529 0.000816 0.000000 0.000000 0.000000
# 3 -0.003871 0.000816 0.010834 0.000000 0.000000 0.000000
# 4 0.000000 0.000000 0.000000 0.020404 0.000000 0.000000
# 5 0.000000 0.000000 0.000000 0.000000 0.030043 0.000000
# 6 0.000000 0.000000 0.000000 0.000000 0.000000 0.132108
#
#
# Mechanical properties :
#
#
# Convention : Reuss Voigt Hill
#
# Bulk Modulus (GPa) = 35.92995 46.29369 41.11182
# Shear Modulus (GPa) = 20.72144 33.54443 27.13294
#
# Velocity S-wave (km/s) = 3.10399 3.94930 3.55188
# Velocity P-wave (km/s) = 5.43622 6.50546 5.99473
#
# Compressibility (1/GPa) = 0.02783193
#
# Stress axis : x y z
#
# Youngs Moduli (GPa) = 107.70423 53.96950 92.30106
#
# Poissons Ratio (x) = 0.12698 0.35727
# Poissons Ratio (y) = 0.25341 -0.07528
# Poissons Ratio (z) = 0.41689 -0.04402
#
# Static dielectric constant tensor:
#      x y z
#    x 1.818620 0.000000 0.000000 
#    y 0.000000 1.991660 0.000000 
#    z 0.000000 0.000000 1.767030 
# 
# From -- ./inp_files/18042.got.cif
#   From: 2010.05.17/outbox.cif.g08.bks.cpg/sg54_10_cif.got.tgz:18042.got - 2010.06.03 13:09:01.
