data_PCOD9420215
_publ_section_title
;
Structure prediction by ZEFSAII (Michael W. Deem and Ramdas Pophale) SiO2 
 PCOD9420215
Probable space group: P M N A
;
_chemical_formula_sum "Si O2"
_cell_formula_units_Z 48
_cell_length_a 9.000000
_cell_length_b 9.000000
_cell_length_c 30.000000
_cell_angle_alpha 90.000000
_cell_angle_beta 90.000000
_cell_angle_gamma 90.000000
_cell_volume 2430.000000
_symmetry_space_group_name_H-M "P M N A"
_symmetry_group_IT_number 53
_symmetry_cell_setting 'orthorhombic'
loop_
_space_group_symop_operation_xyz
x,y,z
1/2-x,-y,1/2+z
x,-y,-z
1/2-x,y,1/2-z
-x,-y,-z
1/2+x,y,1/2-z
-x,y,z
1/2+x,-y,1/2+z
loop_
_atom_site_type_symbol
_atom_site_label
_atom_site_fract_x
_atom_site_fract_y
_atom_site_fract_z
Si Si1 0.829501 0.815956 0.967517
Si Si2 0.674094 0.147361 0.703548
Si Si3 0.321651 0.186142 0.297742
Si Si4 0.673223 0.612725 0.618504
Si Si5 0.166572 0.323835 0.633241
Si Si6 0.330729 0.881460 0.049130
O O1 0.816849 0.713925 0.924804
O O2 0.000000 0.814862 0.982720
O O3 0.779118 0.979623 0.952393
O O4 0.722276 0.777941 0.008483
O O5 0.750000 0.175848 0.750000
O O6 0.500000 0.142032 0.709093
O O7 0.719972 0.275216 0.670583
O O8 0.723579 0.981858 0.688723
O O9 0.250000 0.220075 0.250000
O O10 0.500000 0.188828 0.292894
O O11 0.283365 0.297409 0.337174
O O12 0.500000 0.566138 0.622990
O O13 0.783382 0.477776 0.613233
O O14 0.176299 0.202187 0.595063
O O15 0.000000 0.328479 0.651315
O O16 0.500000 0.931032 0.042916
#
# Coordination Sequence:
#
# PCOD9420215 Si02
#       6
#     8   8   8   8   8   8
#     4  10  20  36  60  85 107 139 186 231 275 330
#     4  10  20  37  61  85 111 142 181 229 275 323
#     4   9  19  36  58  83 108 138 178 223 271 321
#     4  10  22  38  55  79 112 147 182 225 276 327
#     4  11  24  38  54  80 113 150 187 222 270 329
#     4  10  21  37  57  82 112 144 181 228 279 328
#
# _framework density 19.753086
#
# number of rings (size 3 to 8) (size 9 to 14) (size 15 to 20)
#    0.000    2.000    0.000    4.000    0.000    8.000 
#    0.000    5.000    0.000    0.000    0.000    0.000 
#    0.000    0.000    0.000    0.000    0.000    0.000 
#
# Total GULP energy -267619.097556 kJ/mol
# GULP energy per Si atom -5575.397866 kJ/mol
# Density = 1.970813 g / cm^3
# Si number density = 19.753086 Si / 1000 Ang^3
#
#
#
# Elastic Constant Matrix: (Units=GPa)
#
#
# Indices 1 2 3 4 5 6 
#
# 1 0.0815 3.6911 11.9463 0.0000 0.0000 0.0000
# 2 3.6911 3.3817 12.0182 0.0000 0.0000 0.0000
# 3 11.9463 12.0182 -38.6258 0.0000 0.0000 0.0000
# 4 0.0000 0.0000 0.0000 84.7182 0.0000 0.0000
# 5 0.0000 0.0000 0.0000 0.0000 40.6676 0.0000
# 6 0.0000 0.0000 0.0000 0.0000 0.0000 15.5109
#
#
#
# Elastic Compliance Matrix: (Units=1/GPa)
#
#
# Indices 1 2 3 4 5 6 
#
# 1 -0.254425 0.264679 0.003664 0.000000 0.000000 0.000000
# 2 0.264679 -0.134920 0.039881 0.000000 0.000000 0.000000
# 3 0.003664 0.039881 -0.012347 0.000000 0.000000 0.000000
# 4 0.000000 0.000000 0.000000 0.011804 0.000000 0.000000
# 5 0.000000 0.000000 0.000000 0.000000 0.024590 0.000000
# 6 0.000000 0.000000 0.000000 0.000000 0.000000 0.064471
#
#
# Mechanical properties :
#
#
# Convention : Reuss Voigt Hill
#
# Bulk Modulus (GPa) = 4.65642 2.23874 3.44758
# Shear Modulus (GPa) = -5.91232 23.99146 9.03957
#
# Velocity S-wave (km/s) = -1.73194 3.48885 2.14155
# Velocity P-wave (km/s) = 1.27947 4.16716 2.80430
#
# Compressibility (1/GPa) = 0.21475716
#
# Stress axis : x y z
#
# Youngs Moduli (GPa) = -3.93043 -7.41181 -80.98903
#
# Poissons Ratio (x) = 1.96175 0.29675
# Poissons Ratio (y) = 1.04030 3.22995
# Poissons Ratio (z) = 0.01440 0.29559
#
# Static dielectric constant tensor:
#      x y z
#    x 1.671700 0.000000 0.000000 
#    y 0.000000 1.770630 0.000000 
#    z 0.000000 0.000000 1.674720 
# 
# From -- ./inp_files/37738.got.cif
#   From: 2010.05.17/outbox.ucp.g08.bks.cvg/sg53_19_cif.got.tgz:37738.got - 2010.06.11 16:32:34.
