data_PCOD9420685
_publ_section_title
;
Structure prediction by ZEFSAII (Michael W. Deem and Ramdas Pophale) SiO2 
 PCOD9420685
Probable space group: P C C A
;
_chemical_formula_sum "Si O2"
_cell_formula_units_Z 60
_cell_length_a 24.828091
_cell_length_b 12.468216
_cell_length_c 9.859072
_cell_angle_alpha 90.000000
_cell_angle_beta 90.000000
_cell_angle_gamma 90.000000
_cell_volume 3051.994061
_symmetry_space_group_name_H-M "P C C A"
_symmetry_group_IT_number 54
_symmetry_cell_setting 'orthorhombic'
loop_
_space_group_symop_operation_xyz
x,y,z
1/2-x,-y,z
1/2+x,-y,1/2-z
-x,y,1/2-z
-x,-y,-z
1/2+x,y,-z
1/2-x,y,1/2+z
x,-y,1/2+z
loop_
_atom_site_type_symbol
_atom_site_label
_atom_site_fract_x
_atom_site_fract_y
_atom_site_fract_z
Si Si1 0.918145 0.017691 0.638774
Si Si2 0.000000 0.844235 0.750000
Si Si3 0.380702 0.477527 0.684520
Si Si4 0.113701 0.127778 0.602502
Si Si5 0.994558 0.787871 0.048876
Si Si6 0.722498 0.383656 0.690226
Si Si7 0.950539 0.439577 0.572786
Si Si8 0.193169 0.680693 0.107885
O O1 0.882066 0.075919 0.749587
O O2 0.961190 0.105671 0.586934
O O3 0.950610 0.923500 0.715986
O O4 0.889104 0.963388 0.512140
O O5 0.008229 0.776805 0.614278
O O6 0.337229 0.395997 0.748127
O O7 0.404212 0.437357 0.542143
O O8 0.349053 0.588870 0.655451
O O9 0.426993 0.501065 0.795294
O O10 0.055812 0.188729 0.592095
O O11 0.160327 0.212202 0.580981
O O12 0.969407 0.680309 0.108529
O O13 0.750000 0.500000 0.703872
O O14 0.719433 0.356174 0.532889
O O15 0.760820 0.308119 0.778771
O O16 0.000000 0.500000 0.500000
#
# Coordination Sequence:
#
# PCOD9420685 Si02
#       8
#     8   4   8   8   8   8   8   8
#     4  11  19  40  60  92 127 168 217 259 311 386
#     4  10  18  34  58  86 120 174 220 266 280 382
#     4  11  23  42  62  92 133 175 215 258 319 387
#     4  11  22  38  65  93 127 162 215 268 322 381
#     4  11  22  35  62  89 134 178 216 249 315 383
#     4  10  22  42  70  92 122 163 225 274 323 392
#     4  12  26  39  59  96 147 180 208 257 321 399
#     4  11  23  42  68  97 119 162 220 282 329 383
#
# _framework density 19.659279999999999
#
# number of rings (size 3 to 8) (size 9 to 14) (size 15 to 20)
#    0.000    1.067    4.000    4.000    3.733    2.133 
#    0.000    0.000    0.000    2.400    0.000    0.000 
#    0.000    0.000    0.000    0.000    0.000    0.000 
#
# Total GULP energy -335538.719893 kJ/mol
# GULP energy per Si atom -5592.311998 kJ/mol
# Density = 1.961453 g / cm^3
# Si number density = 19.659280 Si / 1000 Ang^3
#
#
#
# Elastic Constant Matrix: (Units=GPa)
#
#
# Indices 1 2 3 4 5 6 
#
# 1 56.7560 29.9263 21.0709 0.0000 0.0000 0.0000
# 2 29.9263 53.0964 4.4732 0.0000 0.0000 0.0000
# 3 21.0709 4.4732 100.9519 0.0000 0.0000 0.0000
# 4 0.0000 0.0000 0.0000 16.1352 0.0000 0.0000
# 5 0.0000 0.0000 0.0000 0.0000 38.5769 0.0000
# 6 0.0000 0.0000 0.0000 0.0000 0.0000 11.0660
#
#
#
# Elastic Compliance Matrix: (Units=1/GPa)
#
#
# Indices 1 2 3 4 5 6 
#
# 1 0.027422 -0.015029 -0.005058 0.000000 0.000000 0.000000
# 2 -0.015029 0.027142 0.001934 0.000000 0.000000 0.000000
# 3 -0.005058 0.001934 0.010876 0.000000 0.000000 0.000000
# 4 0.000000 0.000000 0.000000 0.061976 0.000000 0.000000
# 5 0.000000 0.000000 0.000000 0.000000 0.025922 0.000000
# 6 0.000000 0.000000 0.000000 0.000000 0.000000 0.090367
#
#
# Mechanical properties :
#
#
# Convention : Reuss Voigt Hill
#
# Bulk Modulus (GPa) = 34.32458 35.74946 35.03702
# Shear Modulus (GPa) = 17.25800 23.51121 20.38461
#
# Velocity S-wave (km/s) = 2.96608 3.46198 3.22358
# Velocity P-wave (km/s) = 5.40627 5.84845 5.63170
#
# Compressibility (1/GPa) = 0.02913364
#
# Stress axis : x y z
#
# Youngs Moduli (GPa) = 36.46764 36.84390 91.94880
#
# Poissons Ratio (x) = 0.55374 0.46503
# Poissons Ratio (y) = 0.54808 -0.17786
# Poissons Ratio (z) = 0.18444 -0.07127
#
# Static dielectric constant tensor:
#      x y z
#    x 1.682090 0.000000 0.000000 
#    y 0.000000 1.683660 0.000000 
#    z 0.000000 0.000000 1.721950 
# 
# From -- ./inp_files/5583.got.cif
#   From: 2010.05.17/outbox.cif.g08.bks.cpg/sg54_3_cif.got.tgz:5583.got - 2010.06.03 13:09:01.
