data_PCOD9420229
_publ_section_title
;
Structure prediction by ZEFSAII (Michael W. Deem and Ramdas Pophale) SiO2 
 PCOD9420229
Probable space group: P M N A
;
_chemical_formula_sum "Si O2"
_cell_formula_units_Z 60
_cell_length_a 21.000000
_cell_length_b 12.000000
_cell_length_c 12.000000
_cell_angle_alpha 90.000000
_cell_angle_beta 90.000000
_cell_angle_gamma 90.000000
_cell_volume 3024.000000
_symmetry_space_group_name_H-M "P M N A"
_symmetry_group_IT_number 53
_symmetry_cell_setting 'orthorhombic'
loop_
_space_group_symop_operation_xyz
x,y,z
1/2-x,-y,1/2+z
x,-y,-z
1/2-x,y,1/2-z
-x,-y,-z
1/2+x,y,1/2-z
-x,y,z
1/2+x,-y,1/2+z
loop_
_atom_site_type_symbol
_atom_site_label
_atom_site_fract_x
_atom_site_fract_y
_atom_site_fract_z
Si Si1 0.791594 0.572796 0.596800
Si Si2 0.244974 0.803162 0.883849
Si Si3 0.311029 0.000000 0.000000
Si Si4 0.828663 0.883002 0.275874
Si Si5 0.071112 0.979951 0.867138
Si Si6 0.898837 0.248338 0.067455
Si Si7 0.925294 0.703336 0.181978
Si Si8 0.353831 0.469218 0.329382
O O1 0.819624 0.500000 0.500000
O O2 0.785483 0.701722 0.567052
O O3 0.718261 0.530211 0.618455
O O4 0.835084 0.562057 0.704289
O O5 0.250000 0.791892 0.750000
O O6 0.270061 0.919396 0.923282
O O7 0.175028 0.786365 0.931146
O O8 0.341210 0.077693 0.903562
O O9 0.750000 0.874001 0.250000
O O10 0.871506 0.772947 0.250546
O O11 0.867608 0.971008 0.197301
O O12 0.070359 0.846028 0.856107
O O13 0.000000 0.022941 0.833442
O O14 0.078458 0.000000 0.000000
O O15 0.895963 0.372813 0.114634
O O16 0.925603 0.246281 0.943176
O O17 0.893363 0.582120 0.167483
O O18 0.000000 0.701064 0.220614
#
# Coordination Sequence:
#
# PCOD9420229 Si02
#       8
#     8   8   4   8   8   8   8   8
#     4  10  20  38  64  93 135 172 219 280 341 402
#     4  11  21  40  62 101 143 174 221 288 341 402
#     4  12  26  38  65  98 137 178 222 282 354 414
#     4  12  27  43  69 102 135 180 231 287 346 416
#     4  11  23  43  69  97 137 184 229 281 344 411
#     4  11  20  37  65  95 133 179 219 269 342 407
#     4  12  26  43  63  95 139 176 225 285 342 412
#     4  10  22  38  62  97 131 174 218 276 339 406
#
# _framework density 19.841270000000002
#
# number of rings (size 3 to 8) (size 9 to 14) (size 15 to 20)
#    0.000    0.933    4.000    5.600    5.600    1.600 
#    0.000    1.333    0.000    0.400    0.000    0.000 
#    0.000    0.000    0.000    0.000    0.000    0.000 
#
# Total GULP energy -334526.439336 kJ/mol
# GULP energy per Si atom -5575.440656 kJ/mol
# Density = 1.979611 g / cm^3
# Si number density = 19.841270 Si / 1000 Ang^3
#
#
#
# Elastic Constant Matrix: (Units=GPa)
#
#
# Indices 1 2 3 4 5 6 
#
# 1 104.9022 34.5435 16.3783 0.0000 0.0000 0.0000
# 2 34.5435 132.7303 12.9374 0.0000 0.0000 0.0000
# 3 16.3783 12.9374 62.8098 0.0000 0.0000 0.0000
# 4 0.0000 0.0000 0.0000 30.7772 0.0000 0.0000
# 5 0.0000 0.0000 0.0000 0.0000 20.7608 0.0000
# 6 0.0000 0.0000 0.0000 0.0000 0.0000 20.1187
#
#
#
# Elastic Compliance Matrix: (Units=1/GPa)
#
#
# Indices 1 2 3 4 5 6 
#
# 1 0.010734 -0.002572 -0.002269 0.000000 0.000000 0.000000
# 2 -0.002572 0.008305 -0.001040 0.000000 0.000000 0.000000
# 3 -0.002269 -0.001040 0.016727 0.000000 0.000000 0.000000
# 4 0.000000 0.000000 0.000000 0.032492 0.000000 0.000000
# 5 0.000000 0.000000 0.000000 0.000000 0.048168 0.000000
# 6 0.000000 0.000000 0.000000 0.000000 0.000000 0.049705
#
#
# Mechanical properties :
#
#
# Convention : Reuss Voigt Hill
#
# Bulk Modulus (GPa) = 41.66123 47.57341 44.61732
# Shear Modulus (GPa) = 26.89703 30.10354 28.50028
#
# Velocity S-wave (km/s) = 3.68586 3.89937 3.79412
# Velocity P-wave (km/s) = 6.25755 6.65602 6.45985
#
# Compressibility (1/GPa) = 0.02400313
#
# Stress axis : x y z
#
# Youngs Moduli (GPa) = 93.16160 120.41078 59.78367
#
# Poissons Ratio (x) = 0.30974 0.13566
# Poissons Ratio (y) = 0.23965 0.06217
# Poissons Ratio (z) = 0.21140 0.12521
#
# Static dielectric constant tensor:
#      x y z
#    x 1.692570 0.000000 0.000000 
#    y 0.000000 1.782190 0.000000 
#    z 0.000000 0.000000 1.699220 
# 
# From -- ./inp_files/17928.got.cif
#   From: 2010.05.17/outbox.ucp.g08.bks.cvg/sg53_9_cif.got.tgz:17928.got - 2010.06.11 16:32:34.
