data_PCOD9420746
_publ_section_title
;
Structure prediction by ZEFSAII (Michael W. Deem and Ramdas Pophale) SiO2 
 PCOD9420746
Probable space group: P C C A
;
_chemical_formula_sum "Si O2"
_cell_formula_units_Z 48
_cell_length_a 13.891810
_cell_length_b 8.288708
_cell_length_c 16.997594
_cell_angle_alpha 90.000000
_cell_angle_beta 90.000000
_cell_angle_gamma 90.000000
_cell_volume 1957.190624
_symmetry_space_group_name_H-M "P C C A"
_symmetry_group_IT_number 54
_symmetry_cell_setting 'orthorhombic'
loop_
_space_group_symop_operation_xyz
x,y,z
1/2-x,-y,z
1/2+x,-y,1/2-z
-x,y,1/2-z
-x,-y,-z
1/2+x,y,-z
1/2-x,y,1/2+z
x,-y,1/2+z
loop_
_atom_site_type_symbol
_atom_site_label
_atom_site_fract_x
_atom_site_fract_y
_atom_site_fract_z
Si Si1 0.323864 0.774388 0.879280
Si Si2 0.146065 0.246773 0.167800
Si Si3 0.116451 0.288395 0.446612
Si Si4 0.133887 0.962089 0.529025
Si Si5 0.070150 0.521612 0.805736
Si Si6 0.250000 0.500000 0.056127
Si Si7 0.250000 0.000000 0.270031
O O1 0.209301 0.761880 0.894190
O O2 0.370741 0.823609 0.961985
O O3 0.356375 0.608614 0.840689
O O4 0.335401 0.928809 0.823457
O O5 0.098464 0.351493 0.237288
O O6 0.223698 0.146612 0.215644
O O7 0.097729 0.110917 0.111349
O O8 0.199970 0.367460 0.109762
O O9 0.044665 0.376075 0.385030
O O10 0.165827 0.417828 0.504766
O O11 0.088988 0.128974 0.496202
O O12 0.250000 0.000000 0.537014
O O13 0.000000 0.416287 0.750000
#
# Coordination Sequence:
#
# PCOD9420746 Si02
#       7
#     8   8   8   8   8   4   4
#     4  11  19  39  63  89 115 169 211 257 313 371
#     4  12  22  35  59 101 125 151 211 275 313 352
#     4  11  19  39  66  89 119 166 213 259 322 363
#     4  10  18  36  61  92 121 148 208 275 314 352
#     4  12  26  41  58  92 139 173 200 246 320 398
#     4  12  20  34  68  96 122 152 214 280 310 346
#     4  12  20  34  66  96 122 148 216 278 306 348
#
# _framework density 24.524947999999998
#
# number of rings (size 3 to 8) (size 9 to 14) (size 15 to 20)
#    0.000    0.667   10.000    1.000    0.000    0.000 
#    0.000    7.500    0.000    0.000    0.000    0.000 
#    0.000    0.000    0.000    0.000    0.000    0.000 
#
# Total GULP energy -267977.585458 kJ/mol
# GULP energy per Si atom -5582.866364 kJ/mol
# Density = 2.446913 g / cm^3
# Si number density = 24.524948 Si / 1000 Ang^3
#
#
#
# Elastic Constant Matrix: (Units=GPa)
#
#
# Indices 1 2 3 4 5 6 
#
# 1 33.4141 15.5767 16.0637 0.0000 0.0000 0.0000
# 2 15.5767 143.0363 69.7295 0.0000 0.0000 0.0000
# 3 16.0637 69.7295 163.0720 0.0000 0.0000 0.0000
# 4 0.0000 0.0000 0.0000 -246.4233 0.0000 0.0000
# 5 0.0000 0.0000 0.0000 0.0000 32.6829 0.0000
# 6 0.0000 0.0000 0.0000 0.0000 0.0000 18.5928
#
#
#
# Elastic Compliance Matrix: (Units=1/GPa)
#
#
# Indices 1 2 3 4 5 6 
#
# 1 0.032090 -0.002468 -0.002106 0.000000 0.000000 0.000000
# 2 -0.002468 0.009022 -0.003615 0.000000 0.000000 0.000000
# 3 -0.002106 -0.003615 0.007885 0.000000 0.000000 0.000000
# 4 0.000000 0.000000 0.000000 -0.004058 0.000000 0.000000
# 5 0.000000 0.000000 0.000000 0.000000 0.030597 0.000000
# 6 0.000000 0.000000 0.000000 0.000000 0.000000 0.053784
#
#
# Mechanical properties :
#
#
# Convention : Reuss Voigt Hill
#
# Bulk Modulus (GPa) = 30.65538 60.25133 45.45336
# Shear Modulus (GPa) = 31.93420 -23.15269 4.39076
#
# Velocity S-wave (km/s) = 3.61239 -3.07587 1.33948
# Velocity P-wave (km/s) = 5.47046 3.46498 4.57887
#
# Compressibility (1/GPa) = 0.03262070
#
# Stress axis : x y z
#
# Youngs Moduli (GPa) = 31.16197 110.83793 126.81734
#
# Poissons Ratio (x) = 0.27356 0.26705
# Poissons Ratio (y) = 0.07691 0.45841
# Poissons Ratio (z) = 0.06562 0.40065
#
# Static dielectric constant tensor:
#      x y z
#    x 2.289510 0.000000 0.000000 
#    y 0.000000 1.964330 0.000000 
#    z 0.000000 0.000000 1.955890 
# 
# From -- ./inp_files/14200.got.cif
#   From: 2010.05.17/outbox.cif.g08.bks.cpg/sg54_8_cif.got.tgz:14200.got - 2010.06.03 13:09:01.
