data_PCOD9420435
_publ_section_title
;
Structure prediction by ZEFSAII (Michael W. Deem and Ramdas Pophale) SiO2 
 PCOD9420435
Probable space group: P C C A
;
_chemical_formula_sum "Si O2"
_cell_formula_units_Z 48
_cell_length_a 10.596038
_cell_length_b 11.843231
_cell_length_c 18.233590
_cell_angle_alpha 90.000000
_cell_angle_beta 90.000000
_cell_angle_gamma 90.000000
_cell_volume 2288.157382
_symmetry_space_group_name_H-M "P C C A"
_symmetry_group_IT_number 54
_symmetry_cell_setting 'orthorhombic'
loop_
_space_group_symop_operation_xyz
x,y,z
1/2-x,-y,z
1/2+x,-y,1/2-z
-x,y,1/2-z
-x,-y,-z
1/2+x,y,-z
1/2-x,y,1/2+z
x,-y,1/2+z
loop_
_atom_site_type_symbol
_atom_site_label
_atom_site_fract_x
_atom_site_fract_y
_atom_site_fract_z
Si Si1 0.841948 0.307393 0.607272
Si Si2 0.117526 0.928132 0.655684
Si Si3 0.717547 0.870296 0.486386
Si Si4 0.866801 0.318784 0.898590
Si Si5 0.750000 0.500000 0.501112
Si Si6 0.749148 0.250006 0.255725
Si Si7 0.000000 0.902526 0.250000
O O1 0.815212 0.196200 0.559427
O O2 0.819874 0.411503 0.553005
O O3 0.749678 0.310759 0.677622
O O4 0.989484 0.308774 0.626680
O O5 0.106005 0.875717 0.574970
O O6 0.140081 0.832258 0.716869
O O7 0.250000 0.000000 0.653088
O O8 0.011792 0.015027 0.680138
O O9 0.822715 0.794027 0.443252
O O10 0.750000 0.000000 0.502190
O O11 0.781034 0.327035 0.825919
O O12 0.841541 0.425211 0.950374
O O13 0.625963 0.169842 0.247520
#
# Coordination Sequence:
#
# PCOD9420435 Si02
#       7
#     8   8   8   8   4   8   4
#     4  11  21  37  58  85 111 143 191 234 278 330
#     4   8  17  32  50  74 116 152 183 215 256 330
#     4   9  20  35  52  84 120 149 178 221 273 337
#     4  10  20  40  60  76 108 152 188 223 285 333
#     4  10  24  40  58  80 106 146 188 248 282 316
#     4  10  19  34  56  83 108 143 189 230 269 329
#     4  10  16  32  54  80 112 156 186 210 270 330
#
# _framework density 20.977578999999999
#
# number of rings (size 3 to 8) (size 9 to 14) (size 15 to 20)
#    0.000    2.333    1.667    1.500    0.000    3.333 
#    6.000    0.000    0.000    0.000    0.000    0.000 
#    0.000    0.000    0.000    0.000    0.000    0.000 
#
# Total GULP energy -267748.252318 kJ/mol
# GULP energy per Si atom -5578.088590 kJ/mol
# Density = 2.092983 g / cm^3
# Si number density = 20.977579 Si / 1000 Ang^3
#
#
#
# Elastic Constant Matrix: (Units=GPa)
#
#
# Indices 1 2 3 4 5 6 
#
# 1 13.2591 4.7834 0.9823 0.0000 0.0000 0.0000
# 2 4.7834 110.4633 46.4768 0.0000 0.0000 0.0000
# 3 0.9823 46.4768 112.3993 0.0000 0.0000 0.0000
# 4 0.0000 0.0000 0.0000 -8.4064 0.0000 0.0000
# 5 0.0000 0.0000 0.0000 0.0000 18.2516 0.0000
# 6 0.0000 0.0000 0.0000 0.0000 0.0000 7.4282
#
#
#
# Elastic Compliance Matrix: (Units=1/GPa)
#
#
# Indices 1 2 3 4 5 6 
#
# 1 0.076684 -0.003679 0.000851 0.000000 0.000000 0.000000
# 2 -0.003679 0.011136 -0.004573 0.000000 0.000000 0.000000
# 3 0.000851 -0.004573 0.010780 0.000000 0.000000 0.000000
# 4 0.000000 0.000000 0.000000 -0.118957 0.000000 0.000000
# 5 0.000000 0.000000 0.000000 0.000000 0.054790 0.000000
# 6 0.000000 0.000000 0.000000 0.000000 0.000000 0.134623
#
#
# Mechanical properties :
#
#
# Convention : Reuss Voigt Hill
#
# Bulk Modulus (GPa) = 11.93323 37.84520 24.88922
# Shear Modulus (GPa) = 23.60836 15.71328 19.66082
#
# Velocity S-wave (km/s) = 3.35835 2.73985 3.06474
# Velocity P-wave (km/s) = 4.55400 5.29990 4.94105
#
# Compressibility (1/GPa) = 0.08379959
#
# Stress axis : x y z
#
# Youngs Moduli (GPa) = 13.04052 89.79924 92.76313
#
# Poissons Ratio (x) = 0.33035 -0.07894
# Poissons Ratio (y) = 0.04797 0.42416
# Poissons Ratio (z) = -0.01110 0.41061
#
# Static dielectric constant tensor:
#      x y z
#    x 1.755870 0.000000 0.000000 
#    y 0.000000 1.768280 0.000000 
#    z 0.000000 0.000000 1.828270 
# 
# From -- ./inp_files/13441.got.cif
#   From: 2010.05.17/outbox.cif.g08.bks.cpg/sg54_7_cif.got.tgz:13441.got - 2010.06.03 13:09:01.
