data_PCOD9420039
_publ_section_title
;
Structure prediction by ZEFSAII (Michael W. Deem and Ramdas Pophale) SiO2 
 PCOD9420039
Probable space group: P M N A
;
_chemical_formula_sum "Si O2"
_cell_formula_units_Z 40
_cell_length_a 10.634291
_cell_length_b 14.855917
_cell_length_c 12.204063
_cell_angle_alpha 90.000000
_cell_angle_beta 90.000000
_cell_angle_gamma 90.000000
_cell_volume 1928.024044
_symmetry_space_group_name_H-M "P M N A"
_symmetry_group_IT_number 53
_symmetry_cell_setting 'orthorhombic'
loop_
_space_group_symop_operation_xyz
x,y,z
1/2-x,-y,1/2+z
x,-y,-z
1/2-x,y,1/2-z
-x,-y,-z
1/2+x,y,1/2-z
-x,y,z
1/2+x,-y,1/2+z
loop_
_atom_site_type_symbol
_atom_site_label
_atom_site_fract_x
_atom_site_fract_y
_atom_site_fract_z
Si Si1 0.359922 0.825140 0.672948
Si Si2 0.853356 0.778804 0.087191
Si Si3 0.359114 0.432546 0.165884
Si Si4 0.141686 0.363402 0.580670
Si Si5 0.147555 0.027312 0.886013
O O1 0.250000 0.789892 0.750000
O O2 0.500000 0.798183 0.708979
O O3 0.347377 0.798284 0.545036
O O4 0.353374 0.934840 0.680153
O O5 0.754844 0.701199 0.114032
O O6 0.810550 0.872799 0.142971
O O7 0.000000 0.756738 0.112592
O O8 0.250000 0.410099 0.250000
O O9 0.500000 0.417002 0.210232
O O10 0.349155 0.538710 0.136214
O O11 0.348059 0.381293 0.050159
O O12 0.000000 0.327772 0.602314
O O13 0.000000 0.045935 0.907969
O O14 0.212449 0.000000 0.000000
#
# Coordination Sequence:
#
# PCOD9420039 Si02
#       5
#     8   8   8   8   8
#     4   9  17  29  45  66  93 124 158 196 237 281
#     4   9  17  30  49  70  91 121 161 198 233 280
#     4   9  19  36  55  73  97 130 163 197 242 295
#     4   9  19  35  52  73 102 130 157 198 251 295
#     4   7  12  26  45  61  82 116 153 185 218 260
#
# _framework density 20.746628999999999
#
# number of rings (size 3 to 8) (size 9 to 14) (size 15 to 20)
#    0.000    3.400    0.000    3.600    0.000    3.200 
#    0.000    8.000    0.000    8.400    0.000    0.000 
#    0.000    0.000    0.000    0.000    0.000    0.000 
#
# Total GULP energy -222805.489146 kJ/mol
# GULP energy per Si atom -5570.137229 kJ/mol
# Density = 2.069941 g / cm^3
# Si number density = 20.746629 Si / 1000 Ang^3
#
#
#
# Elastic Constant Matrix: (Units=GPa)
#
#
# Indices 1 2 3 4 5 6 
#
# 1 136.9553 60.7730 52.6139 0.0000 0.0000 0.0000
# 2 60.7730 116.6488 0.9793 0.0000 0.0000 0.0000
# 3 52.6139 0.9793 62.7832 0.0000 0.0000 0.0000
# 4 0.0000 0.0000 0.0000 -2.8126 0.0000 0.0000
# 5 0.0000 0.0000 0.0000 0.0000 -65.3430 0.0000
# 6 0.0000 0.0000 0.0000 0.0000 0.0000 45.5124
#
#
#
# Elastic Compliance Matrix: (Units=1/GPa)
#
#
# Indices 1 2 3 4 5 6 
#
# 1 0.016117 -0.008284 -0.013377 0.000000 0.000000 0.000000
# 2 -0.008284 0.012832 0.006742 0.000000 0.000000 0.000000
# 3 -0.013377 0.006742 0.027033 0.000000 0.000000 0.000000
# 4 0.000000 0.000000 0.000000 -0.355537 0.000000 0.000000
# 5 0.000000 0.000000 0.000000 0.000000 -0.015304 0.000000
# 6 0.000000 0.000000 0.000000 0.000000 0.000000 0.021972
#
#
# Mechanical properties :
#
#
# Convention : Reuss Voigt Hill
#
# Bulk Modulus (GPa) = 38.24987 60.56887 49.40937
# Shear Modulus (GPa) = -19.65925 8.93941 -5.35992
#
# Velocity S-wave (km/s) = -3.08163 2.07803 -1.60907
# Velocity P-wave (km/s) = 2.41138 5.91739 4.51831
#
# Compressibility (1/GPa) = 0.02614388
#
# Stress axis : x y z
#
# Youngs Moduli (GPa) = 62.04659 77.92844 36.99172
#
# Poissons Ratio (x) = 0.64560 0.49484
# Poissons Ratio (y) = 0.51402 -0.24941
# Poissons Ratio (z) = 0.83001 -0.52543
#
# Static dielectric constant tensor:
#      x y z
#    x 1.723480 0.000000 0.000000 
#    y 0.000000 1.782780 0.000000 
#    z 0.000000 0.000000 1.776390 
# 
# From -- ./inp_files/14788.got.cif
#   From: 2010.05.17/outbox.cif.g08.bks.cpg/sg53_8_cif.got.tgz:14788.got - 2010.06.03 12:45:16.
