data_PCOD9420970
_publ_section_title
;
Structure prediction by ZEFSAII (Michael W. Deem and Ramdas Pophale) SiO2 
 PCOD9420970
Probable space group: P C C A
;
_chemical_formula_sum "Si O2"
_cell_formula_units_Z 44
_cell_length_a 5.013700
_cell_length_b 28.577291
_cell_length_c 15.529968
_cell_angle_alpha 90.000000
_cell_angle_beta 90.000000
_cell_angle_gamma 90.000000
_cell_volume 2225.102194
_symmetry_space_group_name_H-M "P C C A"
_symmetry_group_IT_number 54
_symmetry_cell_setting 'orthorhombic'
loop_
_space_group_symop_operation_xyz
x,y,z
1/2-x,-y,z
1/2+x,-y,1/2-z
-x,y,1/2-z
-x,-y,-z
1/2+x,y,-z
1/2-x,y,1/2+z
x,-y,1/2+z
loop_
_atom_site_type_symbol
_atom_site_label
_atom_site_fract_x
_atom_site_fract_y
_atom_site_fract_z
Si Si1 0.747378 0.449303 0.312667
Si Si2 0.485719 0.161648 0.439514
Si Si3 0.954003 0.268121 0.556741
Si Si4 0.250000 0.000000 0.437326
Si Si5 0.594025 0.366117 0.438396
Si Si6 0.259313 0.085872 0.309261
O O1 0.750000 0.500000 0.359985
O O2 0.500000 0.454359 0.250000
O O3 0.682617 0.405948 0.373294
O O4 0.000000 0.441792 0.250000
O O5 0.776441 0.153840 0.481489
O O6 0.488694 0.215838 0.409070
O O7 0.382415 0.129365 0.362568
O O8 0.644702 0.270632 0.528559
O O9 0.563615 0.314266 0.395692
O O10 0.291540 0.954832 0.377671
O O11 0.500000 0.000000 0.500000
O O12 0.309117 0.370216 0.484826
O O13 0.500000 0.068263 0.250000
O O14 0.000000 0.096129 0.250000
#
# Coordination Sequence:
#
# PCOD9420970 Si02
#       6
#     8   8   8   4   8   8
#     4  10  21  36  52  74 109 149 183 223 283 348
#     4  10  19  36  59  81 107 149 193 223 267 341
#     4   8  16  30  52  78 104 134 175 225 270 316
#     4  12  24  42  64  86 112 154 204 234 272 348
#     4  10  19  33  55  81 105 136 183 234 277 321
#     4  12  24  39  58  87 122 150 182 240 298 328
#
# _framework density 19.774370999999999
#
# number of rings (size 3 to 8) (size 9 to 14) (size 15 to 20)
#    0.000    1.818    0.000    4.909    0.000    0.727 
#    0.000    0.909    0.000    2.182    0.000    0.000 
#    0.000    0.000    0.000    0.000    0.000    0.000 
#
# Total GULP energy -245125.326990 kJ/mol
# GULP energy per Si atom -5571.030159 kJ/mol
# Density = 1.972936 g / cm^3
# Si number density = 19.774371 Si / 1000 Ang^3
#
#
#
# Elastic Constant Matrix: (Units=GPa)
#
#
# Indices 1 2 3 4 5 6 
#
# 1 81.0914 9.5701 9.4735 0.0000 0.0000 0.0000
# 2 9.5701 163.9064 58.4424 0.0000 0.0000 0.0000
# 3 9.4735 58.4424 61.1870 0.0000 0.0000 0.0000
# 4 0.0000 0.0000 0.0000 77.3480 0.0000 0.0000
# 5 0.0000 0.0000 0.0000 0.0000 10.7749 0.0000
# 6 0.0000 0.0000 0.0000 0.0000 0.0000 26.5425
#
#
#
# Elastic Compliance Matrix: (Units=1/GPa)
#
#
# Indices 1 2 3 4 5 6 
#
# 1 0.012559 -0.000061 -0.001887 0.000000 0.000000 0.000000
# 2 -0.000061 0.009252 -0.008828 0.000000 0.000000 0.000000
# 3 -0.001887 -0.008828 0.025067 0.000000 0.000000 0.000000
# 4 0.000000 0.000000 0.000000 0.012929 0.000000 0.000000
# 5 0.000000 0.000000 0.000000 0.000000 0.092808 0.000000
# 6 0.000000 0.000000 0.000000 0.000000 0.000000 0.037675
#
#
# Mechanical properties :
#
#
# Convention : Reuss Voigt Hill
#
# Bulk Modulus (GPa) = 39.48096 51.23964 45.36030
# Shear Modulus (GPa) = 22.69797 38.17969 30.43883
#
# Velocity S-wave (km/s) = 3.39167 4.39882 3.92766
# Velocity P-wave (km/s) = 5.94533 7.19499 6.59980
#
# Compressibility (1/GPa) = 0.02532867
#
# Stress axis : x y z
#
# Youngs Moduli (GPa) = 79.62210 108.08223 39.89268
#
# Poissons Ratio (x) = 0.00655 0.07526
# Poissons Ratio (y) = 0.00483 0.35216
# Poissons Ratio (z) = 0.15022 0.95413
#
# Static dielectric constant tensor:
#      x y z
#    x 1.681160 0.000000 0.000000 
#    y 0.000000 1.794350 0.000000 
#    z 0.000000 0.000000 0.865200 
# 
# From -- ./inp_files/10886.got.cif
#   From: 2010.05.17/outbox.cif.g08.bks.cpg/sg54_6_cif.got.tgz:10886.got - 2010.06.03 13:09:01.
