data_PCOD9420393
_publ_section_title
;
Structure prediction by ZEFSAII (Michael W. Deem and Ramdas Pophale) SiO2 
 PCOD9420393
Probable space group: P C C A
;
_chemical_formula_sum "Si O2"
_cell_formula_units_Z 32
_cell_length_a 5.417867
_cell_length_b 17.922235
_cell_length_c 14.533784
_cell_angle_alpha 90.000000
_cell_angle_beta 90.000000
_cell_angle_gamma 90.000000
_cell_volume 1411.234577
_symmetry_space_group_name_H-M "P C C A"
_symmetry_group_IT_number 54
_symmetry_cell_setting 'orthorhombic'
loop_
_space_group_symop_operation_xyz
x,y,z
1/2-x,-y,z
1/2+x,-y,1/2-z
-x,y,1/2-z
-x,-y,-z
1/2+x,y,-z
1/2-x,y,1/2+z
x,-y,1/2+z
loop_
_atom_site_type_symbol
_atom_site_label
_atom_site_fract_x
_atom_site_fract_y
_atom_site_fract_z
Si Si1 0.061959 0.295991 0.441140
Si Si2 0.995785 0.468158 0.104911
Si Si3 0.755917 0.088925 0.854071
Si Si4 0.233291 0.151436 0.354398
O O1 0.287290 0.285908 0.515163
O O2 0.041939 0.379763 0.402700
O O3 0.152183 0.237077 0.364699
O O4 0.750000 0.500000 0.149710
O O5 0.250000 0.500000 0.144534
O O6 0.000000 0.500000 0.000000
O O7 0.745482 0.123503 0.750937
O O8 0.498122 0.110042 0.900150
O O9 0.003119 0.126098 0.893809
O O10 0.750000 0.000000 0.846659
#
# Coordination Sequence:
#
# PCOD9420393 Si02
#       4
#     8   8   8   8
#     4  12  21  32  50  78 119 139 162 220 270 323
#     4  10  16  30  48  69  99 141 183 201 229 299
#     4  10  19  38  62  75  94 133 191 234 251 306
#     4  10  20  32  54  84 101 132 175 227 270 300
#
# _framework density 22.675180999999998
#
# number of rings (size 3 to 8) (size 9 to 14) (size 15 to 20)
#    0.000    1.500    5.000    5.250    0.000    0.000 
#    0.000    0.000    0.000   25.500    0.000   14.000 
#    0.000    0.000    0.000    0.000    0.000    0.000 
#
# Total GULP energy -178376.301837 kJ/mol
# GULP energy per Si atom -5574.259432 kJ/mol
# Density = 2.262357 g / cm^3
# Si number density = 22.675181 Si / 1000 Ang^3
#
#
#
# Elastic Constant Matrix: (Units=GPa)
#
#
# Indices 1 2 3 4 5 6 
#
# 1 267.6120 62.3908 21.7954 0.0000 0.0000 0.0000
# 2 62.3908 220.6535 27.3588 0.0000 0.0000 0.0000
# 3 21.7954 27.3588 76.7803 0.0000 0.0000 0.0000
# 4 0.0000 0.0000 0.0000 149.4948 0.0000 0.0000
# 5 0.0000 0.0000 0.0000 0.0000 -12.4822 0.0000
# 6 0.0000 0.0000 0.0000 0.0000 0.0000 35.2125
#
#
#
# Elastic Compliance Matrix: (Units=1/GPa)
#
#
# Indices 1 2 3 4 5 6 
#
# 1 0.004044 -0.001047 -0.000775 0.000000 0.000000 0.000000
# 2 -0.001047 0.005013 -0.001489 0.000000 0.000000 0.000000
# 3 -0.000775 -0.001489 0.013775 0.000000 0.000000 0.000000
# 4 0.000000 0.000000 0.000000 0.006689 0.000000 0.000000
# 5 0.000000 0.000000 0.000000 0.000000 -0.080114 0.000000
# 6 0.000000 0.000000 0.000000 0.000000 0.000000 0.028399
#
#
# Mechanical properties :
#
#
# Convention : Reuss Voigt Hill
#
# Bulk Modulus (GPa) = 61.69264 87.57065 74.63164
# Shear Modulus (GPa) = -491.68560 64.67841 -213.50360
#
# Velocity S-wave (km/s) = -14.74142 5.34657 -9.71400
# Velocity P-wave (km/s) = 16.20122 8.76458 9.63488
#
# Compressibility (1/GPa) = 0.01620939
#
# Stress axis : x y z
#
# Youngs Moduli (GPa) = 247.27716 199.49113 72.59736
#
# Poissons Ratio (x) = 0.20895 0.05624
# Poissons Ratio (y) = 0.25900 0.10809
# Poissons Ratio (z) = 0.19158 0.29701
#
# Static dielectric constant tensor:
#      x y z
#    x 2.314860 0.000000 0.000000 
#    y 0.000000 1.935560 0.000000 
#    z 0.000000 0.000000 1.797000 
# 
# From -- ./inp_files/15671.got.cif
#   From: 2010.05.17/outbox.cif.g08.bks.cpg/sg54_8_cif.got.tgz:15671.got - 2010.06.03 13:09:01.
