data_PCOD9420747
_publ_section_title
;
Structure prediction by ZEFSAII (Michael W. Deem and Ramdas Pophale) SiO2 
 PCOD9420747
Probable space group: P C C A
;
_chemical_formula_sum "Si O2"
_cell_formula_units_Z 56
_cell_length_a 16.311996
_cell_length_b 8.060682
_cell_length_c 18.989138
_cell_angle_alpha 90.000000
_cell_angle_beta 90.000000
_cell_angle_gamma 90.000000
_cell_volume 2496.802239
_symmetry_space_group_name_H-M "P C C A"
_symmetry_group_IT_number 54
_symmetry_cell_setting 'orthorhombic'
loop_
_space_group_symop_operation_xyz
x,y,z
1/2-x,-y,z
1/2+x,-y,1/2-z
-x,y,1/2-z
-x,-y,-z
1/2+x,y,-z
1/2-x,y,1/2+z
x,-y,1/2+z
loop_
_atom_site_type_symbol
_atom_site_label
_atom_site_fract_x
_atom_site_fract_y
_atom_site_fract_z
Si Si1 0.079493 0.243923 0.312859
Si Si2 0.411336 0.873395 0.156780
Si Si3 0.376348 0.677008 0.954695
Si Si4 0.002629 0.608812 0.326609
Si Si5 0.905826 0.971540 0.477284
Si Si6 0.847643 0.533920 0.902919
Si Si7 0.714154 0.185544 0.579881
O O1 0.090260 0.141958 0.240710
O O2 0.048274 0.433302 0.307916
O O3 0.162506 0.236165 0.353366
O O4 0.007484 0.160317 0.358258
O O5 0.392153 0.028519 0.107082
O O6 0.359055 0.716713 0.130944
O O7 0.442754 0.676372 0.892024
O O8 0.284424 0.678704 0.926708
O O9 0.373326 0.852836 0.994595
O O10 0.384761 0.544661 0.017531
O O11 0.000000 0.699373 0.250000
O O12 0.911120 0.575118 0.356443
O O13 0.850293 0.833948 0.515142
O O14 0.000000 0.000000 0.500000
O O15 0.750000 0.500000 0.903892
O O16 0.750000 0.000000 0.591337
#
# Coordination Sequence:
#
# PCOD9420747 Si02
#       7
#     8   8   8   8   8   8   8
#     4  10  18  36  62  87 123 162 209 246 315 383
#     4   9  18  36  59  90 115 163 204 247 310 369
#     4  10  24  38  58  92 123 159 210 256 318 375
#     4  11  22  41  62  89 127 169 203 254 320 395
#     4  10  19  38  64  85 117 160 211 259 301 362
#     4  10  21  37  57  89 124 154 204 257 308 376
#     4  10  22  38  57  90 123 157 208 258 304 367
#
# _framework density 22.428687
#
# number of rings (size 3 to 8) (size 9 to 14) (size 15 to 20)
#    0.000    2.000    4.286    0.429    2.000    2.286 
#    0.000    6.429    0.000    0.000    0.000    0.000 
#    0.000    0.000    0.000    0.000    0.000    0.000 
#
# Total GULP energy -311961.259632 kJ/mol
# GULP energy per Si atom -5570.736779 kJ/mol
# Density = 2.237764 g / cm^3
# Si number density = 22.428687 Si / 1000 Ang^3
#
#
#
# Elastic Constant Matrix: (Units=GPa)
#
#
# Indices 1 2 3 4 5 6 
#
# 1 115.8367 -1.2156 37.9627 0.0000 0.0000 0.0000
# 2 -1.2156 38.4832 8.6792 0.0000 0.0000 0.0000
# 3 37.9627 8.6792 107.2139 0.0000 0.0000 0.0000
# 4 0.0000 0.0000 0.0000 -17.3050 0.0000 0.0000
# 5 0.0000 0.0000 0.0000 0.0000 37.8583 0.0000
# 6 0.0000 0.0000 0.0000 0.0000 0.0000 18.3966
#
#
#
# Elastic Compliance Matrix: (Units=1/GPa)
#
#
# Indices 1 2 3 4 5 6 
#
# 1 0.009813 0.001114 -0.003565 0.000000 0.000000 0.000000
# 2 0.001114 0.026595 -0.002547 0.000000 0.000000 0.000000
# 3 -0.003565 -0.002547 0.010796 0.000000 0.000000 0.000000
# 4 0.000000 0.000000 0.000000 -0.057787 0.000000 0.000000
# 5 0.000000 0.000000 0.000000 0.000000 0.026414 0.000000
# 6 0.000000 0.000000 0.000000 0.000000 0.000000 0.054358
#
#
# Mechanical properties :
#
#
# Convention : Reuss Voigt Hill
#
# Bulk Modulus (GPa) = 26.87653 39.15401 33.01527
# Shear Modulus (GPa) = 54.00297 22.19716 38.10006
#
# Velocity S-wave (km/s) = 4.91222 3.14933 4.12602
# Velocity P-wave (km/s) = 6.64698 5.54250 6.11971
#
# Compressibility (1/GPa) = 0.03720718
#
# Stress axis : x y z
#
# Youngs Moduli (GPa) = 101.90786 37.60093 92.63054
#
# Poissons Ratio (x) = -0.04188 0.33020
# Poissons Ratio (y) = -0.11352 0.23596
# Poissons Ratio (z) = 0.36327 0.09578
#
# Static dielectric constant tensor:
#      x y z
#    x 2.209280 0.000000 0.000000 
#    y 0.000000 1.913270 0.000000 
#    z 0.000000 0.000000 1.698700 
# 
# From -- ./inp_files/21622.got.cif
#   From: 2010.05.17/outbox.cif.g08.bks.cpg/sg54_11_cif.got.tgz:21622.got - 2010.06.03 13:09:01.
