data_PCOD9420927
_publ_section_title
;
Structure prediction by ZEFSAII (Michael W. Deem and Ramdas Pophale) SiO2 
 PCOD9420927
Probable space group: P C C A
;
_chemical_formula_sum "Si O2"
_cell_formula_units_Z 56
_cell_length_a 12.050035
_cell_length_b 11.206046
_cell_length_c 21.312620
_cell_angle_alpha 90.000000
_cell_angle_beta 90.000000
_cell_angle_gamma 90.000000
_cell_volume 2877.912270
_symmetry_space_group_name_H-M "P C C A"
_symmetry_group_IT_number 54
_symmetry_cell_setting 'orthorhombic'
loop_
_space_group_symop_operation_xyz
x,y,z
1/2-x,-y,z
1/2+x,-y,1/2-z
-x,y,1/2-z
-x,-y,-z
1/2+x,y,-z
1/2-x,y,1/2+z
x,-y,1/2+z
loop_
_atom_site_type_symbol
_atom_site_label
_atom_site_fract_x
_atom_site_fract_y
_atom_site_fract_z
Si Si1 0.750000 0.000000 0.119449
Si Si2 0.362794 0.737164 0.580083
Si Si3 0.155227 0.597331 0.947858
Si Si4 0.500000 0.629532 0.250000
Si Si5 0.059452 0.508538 0.620391
Si Si6 0.056674 0.889570 0.463777
Si Si7 0.376637 0.242520 0.586857
Si Si8 0.889589 0.782166 0.657662
O O1 0.838016 0.932989 0.075016
O O2 0.678061 0.903865 0.157760
O O3 0.354970 0.678085 0.510035
O O4 0.392421 0.622400 0.621174
O O5 0.463637 0.829054 0.578919
O O6 0.247980 0.801079 0.598766
O O7 0.250000 0.500000 0.954900
O O8 0.169554 0.691188 0.890813
O O9 0.046242 0.523323 0.925913
O O10 0.529819 0.549953 0.309580
O O11 0.403842 0.716743 0.275950
O O12 0.136171 0.614627 0.594058
O O13 0.092711 0.795646 0.516836
O O14 0.000000 0.000000 0.500000
O O15 0.483504 0.205615 0.629300
#
# Coordination Sequence:
#
# PCOD9420927 Si02
#       8
#     4   8   8   4   8   8   8   8
#     4  12  24  38  66  88 126 162 218 250 314 376
#     4  12  22  33  61  90 131 161 196 245 305 389
#     4  10  19  32  55  92 130 156 193 238 316 384
#     4   8  20  44  68  80 122 154 222 256 318 362
#     4  10  21  37  59  91 116 166 198 258 309 373
#     4  12  22  38  57  93 130 165 198 249 300 380
#     4  10  20  37  55  89 126 161 193 233 320 367
#     4  10  21  42  62  89 114 172 206 259 303 369
#
# _framework density 19.458549999999999
#
# number of rings (size 3 to 8) (size 9 to 14) (size 15 to 20)
#    0.000    1.714    4.286    3.429    4.000    0.000 
#    0.000   11.429    6.286    0.000    0.000    0.000 
#    0.000    0.000    0.000    0.000    0.000    0.000 
#
# Total GULP energy -312415.953049 kJ/mol
# GULP energy per Si atom -5578.856304 kJ/mol
# Density = 1.941426 g / cm^3
# Si number density = 19.458550 Si / 1000 Ang^3
#
#
#
# Elastic Constant Matrix: (Units=GPa)
#
#
# Indices 1 2 3 4 5 6 
#
# 1 120.8493 41.8994 12.8482 0.0000 0.0000 0.0000
# 2 41.8994 83.3827 22.6743 0.0000 0.0000 0.0000
# 3 12.8482 22.6743 71.1209 0.0000 0.0000 0.0000
# 4 0.0000 0.0000 0.0000 20.7139 0.0000 0.0000
# 5 0.0000 0.0000 0.0000 0.0000 9.4568 0.0000
# 6 0.0000 0.0000 0.0000 0.0000 0.0000 36.1644
#
#
#
# Elastic Compliance Matrix: (Units=1/GPa)
#
#
# Indices 1 2 3 4 5 6 
#
# 1 0.010024 -0.004976 -0.000224 0.000000 0.000000 0.000000
# 2 -0.004976 0.015601 -0.004075 0.000000 0.000000 0.000000
# 3 -0.000224 -0.004075 0.015400 0.000000 0.000000 0.000000
# 4 0.000000 0.000000 0.000000 0.048277 0.000000 0.000000
# 5 0.000000 0.000000 0.000000 0.000000 0.105744 0.000000
# 6 0.000000 0.000000 0.000000 0.000000 0.000000 0.027651
#
#
# Mechanical properties :
#
#
# Convention : Reuss Voigt Hill
#
# Bulk Modulus (GPa) = 44.49437 47.79965 46.14701
# Shear Modulus (GPa) = 20.10131 26.46242 23.28186
#
# Velocity S-wave (km/s) = 3.21757 3.69173 3.46278
# Velocity P-wave (km/s) = 6.05966 6.54141 6.30514
#
# Compressibility (1/GPa) = 0.02247475
#
# Stress axis : x y z
#
# Youngs Moduli (GPa) = 99.76244 64.09692 64.93383
#
# Poissons Ratio (x) = 0.31894 0.01457
# Poissons Ratio (y) = 0.49641 0.26461
# Poissons Ratio (z) = 0.02239 0.26120
#
# Static dielectric constant tensor:
#      x y z
#    x 1.756580 0.000000 0.000000 
#    y 0.000000 1.706080 0.000000 
#    z 0.000000 0.000000 1.672440 
# 
# From -- ./inp_files/21213.got.cif
#   From: 2010.05.17/outbox.cif.g08.bks.cpg/sg54_11_cif.got.tgz:21213.got - 2010.06.03 13:09:01.
