data_PCOD9420780
_publ_section_title
;
Structure prediction by ZEFSAII (Michael W. Deem and Ramdas Pophale) SiO2 
 PCOD9420780
Probable space group: P C C A
;
_chemical_formula_sum "Si O2"
_cell_formula_units_Z 48
_cell_length_a 17.877082
_cell_length_b 11.451724
_cell_length_c 12.415736
_cell_angle_alpha 90.000000
_cell_angle_beta 90.000000
_cell_angle_gamma 90.000000
_cell_volume 2541.791799
_symmetry_space_group_name_H-M "P C C A"
_symmetry_group_IT_number 54
_symmetry_cell_setting 'orthorhombic'
loop_
_space_group_symop_operation_xyz
x,y,z
1/2-x,-y,z
1/2+x,-y,1/2-z
-x,y,1/2-z
-x,-y,-z
1/2+x,y,-z
1/2-x,y,1/2+z
x,-y,1/2+z
loop_
_atom_site_type_symbol
_atom_site_label
_atom_site_fract_x
_atom_site_fract_y
_atom_site_fract_z
Si Si1 0.345472 0.809962 0.338699
Si Si2 0.250000 0.000000 0.711743
Si Si3 0.153027 0.808679 0.094940
Si Si4 0.979942 0.648383 0.373274
Si Si5 0.500000 0.742524 0.250000
Si Si6 0.581132 0.401394 0.937296
Si Si7 0.227100 0.630710 0.687479
O O1 0.296034 0.910648 0.285300
O O2 0.341014 0.811263 0.466424
O O3 0.430656 0.815654 0.296351
O O4 0.312342 0.690359 0.289575
O O5 0.310781 0.927297 0.641930
O O6 0.068363 0.767029 0.120324
O O7 0.203982 0.707989 0.148324
O O8 0.932548 0.540043 0.423424
O O9 0.000000 0.623809 0.250000
O O10 0.053532 0.645713 0.447927
O O11 0.469850 0.661821 0.153018
O O12 0.665713 0.371723 0.907645
O O13 0.250000 0.500000 0.712754
#
# Coordination Sequence:
#
# PCOD9420780 Si02
#       7
#     8   4   8   8   4   8   8
#     4  10  22  40  66  86 123 166 210 265 314 380
#     4  10  24  44  64  88 122 162 220 276 312 360
#     4  11  22  42  63  91 123 168 213 262 323 367
#     4  11  22  36  60  92 129 164 200 253 311 378
#     4  10  18  38  62  90 120 166 204 238 318 384
#     4  10  20  35  58  90 130 165 194 246 309 384
#     4  10  21  36  59  95 127 161 207 249 314 391
#
# _framework density 18.884316999999999
#
# number of rings (size 3 to 8) (size 9 to 14) (size 15 to 20)
#    0.000    1.667    4.167    0.500    0.000    3.333 
#    1.500    2.500    0.000    0.000    0.000    0.000 
#    0.000    0.000    0.000    0.000    0.000    0.000 
#
# Total GULP energy -267927.429351 kJ/mol
# GULP energy per Si atom -5581.821445 kJ/mol
# Density = 1.884134 g / cm^3
# Si number density = 18.884317 Si / 1000 Ang^3
#
#
#
# Elastic Constant Matrix: (Units=GPa)
#
#
# Indices 1 2 3 4 5 6 
#
# 1 56.9108 23.6242 8.9372 0.0000 0.0000 0.0000
# 2 23.6242 78.8415 20.5440 0.0000 0.0000 0.0000
# 3 8.9372 20.5440 101.4979 0.0000 0.0000 0.0000
# 4 0.0000 0.0000 0.0000 13.9772 0.0000 0.0000
# 5 0.0000 0.0000 0.0000 0.0000 20.8326 0.0000
# 6 0.0000 0.0000 0.0000 0.0000 0.0000 27.9005
#
#
#
# Elastic Compliance Matrix: (Units=1/GPa)
#
#
# Indices 1 2 3 4 5 6 
#
# 1 0.020100 -0.005871 -0.000581 0.000000 0.000000 0.000000
# 2 -0.005871 0.015105 -0.002540 0.000000 0.000000 0.000000
# 3 -0.000581 -0.002540 0.010418 0.000000 0.000000 0.000000
# 4 0.000000 0.000000 0.000000 0.071545 0.000000 0.000000
# 5 0.000000 0.000000 0.000000 0.000000 0.048002 0.000000
# 6 0.000000 0.000000 0.000000 0.000000 0.000000 0.035842
#
#
# Mechanical properties :
#
#
# Convention : Reuss Voigt Hill
#
# Bulk Modulus (GPa) = 36.18413 38.16232 37.17323
# Shear Modulus (GPa) = 21.90970 24.81839 23.36404
#
# Velocity S-wave (km/s) = 3.40988 3.62917 3.52123
# Velocity P-wave (km/s) = 5.89114 6.14927 6.02159
#
# Compressibility (1/GPa) = 0.02763642
#
# Stress axis : x y z
#
# Youngs Moduli (GPa) = 49.75153 66.20367 95.98949
#
# Poissons Ratio (x) = 0.38870 0.05581
# Poissons Ratio (y) = 0.29210 0.24385
# Poissons Ratio (z) = 0.02893 0.16818
#
# Static dielectric constant tensor:
#      x y z
#    x 1.674780 0.000000 0.000000 
#    y 0.000000 1.654710 0.000000 
#    z 0.000000 0.000000 1.619810 
# 
# From -- ./inp_files/8988.got.cif
#   From: 2010.05.17/outbox.cif.g08.bks.cpg/sg54_5_cif.got.tgz:8988.got - 2010.06.03 13:09:01.
