data_PCOD9420886
_publ_section_title
;
Structure prediction by ZEFSAII (Michael W. Deem and Ramdas Pophale) SiO2 
 PCOD9420886
Probable space group: P C C A
;
_chemical_formula_sum "Si O2"
_cell_formula_units_Z 64
_cell_length_a 37.009920
_cell_length_b 14.106572
_cell_length_c 5.240386
_cell_angle_alpha 90.000000
_cell_angle_beta 90.000000
_cell_angle_gamma 90.000000
_cell_volume 2735.916974
_symmetry_space_group_name_H-M "P C C A"
_symmetry_group_IT_number 54
_symmetry_cell_setting 'orthorhombic'
loop_
_space_group_symop_operation_xyz
x,y,z
1/2-x,-y,z
1/2+x,-y,1/2-z
-x,y,1/2-z
-x,-y,-z
1/2+x,y,-z
1/2-x,y,1/2+z
x,-y,1/2+z
loop_
_atom_site_type_symbol
_atom_site_label
_atom_site_fract_x
_atom_site_fract_y
_atom_site_fract_z
Si Si1 0.391219 0.356409 0.427834
Si Si2 0.271814 0.868089 0.418227
Si Si3 0.037850 0.557997 0.193107
Si Si4 0.354491 0.130310 0.934948
Si Si5 0.271066 0.636938 0.408943
Si Si6 0.601950 0.869988 0.557868
Si Si7 0.983222 0.106424 0.501318
Si Si8 0.148061 0.638573 0.926535
O O1 0.427844 0.387335 0.293065
O O2 0.395250 0.243906 0.452676
O O3 0.380139 0.393683 0.707720
O O4 0.361325 0.384197 0.218361
O O5 0.254508 0.895699 0.148805
O O6 0.312938 0.901606 0.458603
O O7 0.272627 0.752567 0.414354
O O8 0.037985 0.469616 0.395533
O O9 0.000000 0.608069 0.250000
O O10 0.372929 0.096939 0.674263
O O11 0.352750 0.245859 0.922437
O O12 0.380423 0.105492 0.170814
O O13 0.244574 0.608611 0.181799
O O14 0.311875 0.605106 0.361237
O O15 0.560101 0.897971 0.518013
O O16 0.000000 0.154006 0.750000
O O17 0.000000 0.000000 0.500000
O O18 0.000000 0.153310 0.250000
#
# Coordination Sequence:
#
# PCOD9420886 Si02
#       8
#     8   8   8   8   8   8   8   8
#     4  10  19  32  50  72  99 129 163 206 249 301
#     4   9  15  23  37  59  91 135 173 197 235 294
#     4  10  21  37  54  72  96 125 158 203 256 306
#     4   9  17  28  43  67 100 136 170 206 247 298
#     4   9  15  23  37  59  91 129 164 196 236 292
#     4  10  19  32  50  73 101 135 170 205 253 301
#     4  10  21  37  55  75 101 135 168 210 253 291
#     4   9  17  28  43  67  99 129 163 206 247 290
#
# _framework density 23.392522
#
# number of rings (size 3 to 8) (size 9 to 14) (size 15 to 20)
#    0.000    2.500    0.000    3.000    0.000    6.500 
#    0.000    1.875    0.000    0.000    0.000    0.000 
#    0.000   35.000    0.000  157.500    0.000   70.000 
#
# Total GULP energy -357652.112538 kJ/mol
# GULP energy per Si atom -5588.314258 kJ/mol
# Density = 2.333928 g / cm^3
# Si number density = 23.392522 Si / 1000 Ang^3
#
#
#
# Elastic Constant Matrix: (Units=GPa)
#
#
# Indices 1 2 3 4 5 6 
#
# 1 168.5551 0.4648 51.6244 0.0000 0.0000 0.0000
# 2 0.4648 61.5887 -13.2601 0.0000 0.0000 0.0000
# 3 51.6244 -13.2601 155.3097 0.0000 0.0000 0.0000
# 4 0.0000 0.0000 0.0000 -27.1629 0.0000 0.0000
# 5 0.0000 0.0000 0.0000 0.0000 43.3395 0.0000
# 6 0.0000 0.0000 0.0000 0.0000 0.0000 24.4250
#
#
#
# Elastic Compliance Matrix: (Units=1/GPa)
#
#
# Indices 1 2 3 4 5 6 
#
# 1 0.006622 -0.000534 -0.002247 0.000000 0.000000 0.000000
# 2 -0.000534 0.016584 0.001593 0.000000 0.000000 0.000000
# 3 -0.002247 0.001593 0.007322 0.000000 0.000000 0.000000
# 4 0.000000 0.000000 0.000000 -0.036815 0.000000 0.000000
# 5 0.000000 0.000000 0.000000 0.000000 0.023074 0.000000
# 6 0.000000 0.000000 0.000000 0.000000 0.000000 0.040942
#
#
# Mechanical properties :
#
#
# Convention : Reuss Voigt Hill
#
# Bulk Modulus (GPa) = 35.51977 51.45685 43.48831
# Shear Modulus (GPa) = 71.95578 31.22861 51.59220
#
# Velocity S-wave (km/s) = 5.55220 3.65771 4.70137
# Velocity P-wave (km/s) = 7.50465 6.31532 6.93553
#
# Compressibility (1/GPa) = 0.02815334
#
# Stress axis : x y z
#
# Youngs Moduli (GPa) = 151.00263 60.29980 136.58176
#
# Poissons Ratio (x) = 0.03218 0.30688
# Poissons Ratio (y) = 0.08059 -0.21762
# Poissons Ratio (z) = 0.33928 -0.09608
#
# Static dielectric constant tensor:
#      x y z
#    x 1.846260 0.000000 0.000000 
#    y 0.000000 1.706040 0.000000 
#    z 0.000000 0.000000 1.492150 
# 
# From -- ./inp_files/2245.got.cif
#   From: 2010.05.17/outbox.cif.g08.bks.cpg/sg54_2_cif.got.tgz:2245.got - 2010.06.03 13:09:01.
