data_PCOD9420973
_publ_section_title
;
Structure prediction by ZEFSAII (Michael W. Deem and Ramdas Pophale) SiO2 
 PCOD9420973
Probable space group: P C C A
;
_chemical_formula_sum "Si O2"
_cell_formula_units_Z 32
_cell_length_a 5.294626
_cell_length_b 9.733115
_cell_length_c 25.093060
_cell_angle_alpha 90.000000
_cell_angle_beta 90.000000
_cell_angle_gamma 90.000000
_cell_volume 1293.125773
_symmetry_space_group_name_H-M "P C C A"
_symmetry_group_IT_number 54
_symmetry_cell_setting 'orthorhombic'
loop_
_space_group_symop_operation_xyz
x,y,z
1/2-x,-y,z
1/2+x,-y,1/2-z
-x,y,1/2-z
-x,-y,-z
1/2+x,y,-z
1/2-x,y,1/2+z
x,-y,1/2+z
loop_
_atom_site_type_symbol
_atom_site_label
_atom_site_fract_x
_atom_site_fract_y
_atom_site_fract_z
Si Si1 0.851287 0.290416 0.480146
Si Si2 0.250000 0.000000 0.958017
Si Si3 0.479007 0.780746 0.687556
Si Si4 0.999051 0.838051 0.875211
Si Si5 0.250000 0.500000 0.717590
O O1 0.577388 0.354153 0.486179
O O2 0.936031 0.278597 0.419220
O O3 0.810082 0.137506 0.508821
O O4 0.465841 0.034616 0.915398
O O5 0.500000 0.815665 0.750000
O O6 0.741210 0.808299 0.656717
O O7 0.389091 0.621408 0.686410
O O8 0.235999 0.852685 0.662955
O O9 0.500000 0.441687 0.750000
#
# Coordination Sequence:
#
# PCOD9420973 Si02
#       5
#     8   4   8   8   4
#     4  10  19  33  55  84 111 144 195 245 274 316
#     4  10  22  38  60  86 118 156 204 240 272 334
#     4  11  23  39  59  87 116 149 192 240 292 349
#     4  11  21  35  59  88 118 152 193 239 283 335
#     4  10  20  40  66  84 106 146 196 252 292 334
#
# _framework density 24.746241000000001
#
# number of rings (size 3 to 8) (size 9 to 14) (size 15 to 20)
#    0.000    1.500    0.000    9.750    0.000    5.000 
#    0.000    3.750    0.000    3.000    0.000   70.000 
#    0.000    0.000    0.000    0.000    0.000    0.000 
#
# Total GULP energy -178540.572966 kJ/mol
# GULP energy per Si atom -5579.392905 kJ/mol
# Density = 2.468992 g / cm^3
# Si number density = 24.746241 Si / 1000 Ang^3
#
#
#
# Elastic Constant Matrix: (Units=GPa)
#
#
# Indices 1 2 3 4 5 6 
#
# 1 264.5851 32.6325 105.4306 0.0000 0.0000 0.0000
# 2 32.6325 67.2467 28.0772 0.0000 0.0000 0.0000
# 3 105.4306 28.0772 168.1431 0.0000 0.0000 0.0000
# 4 0.0000 0.0000 0.0000 -5.9845 0.0000 0.0000
# 5 0.0000 0.0000 0.0000 0.0000 72.4376 0.0000
# 6 0.0000 0.0000 0.0000 0.0000 0.0000 22.2744
#
#
#
# Elastic Compliance Matrix: (Units=1/GPa)
#
#
# Indices 1 2 3 4 5 6 
#
# 1 0.005132 -0.001233 -0.003012 0.000000 0.000000 0.000000
# 2 -0.001233 0.016281 -0.001946 0.000000 0.000000 0.000000
# 3 -0.003012 -0.001946 0.008161 0.000000 0.000000 0.000000
# 4 0.000000 0.000000 0.000000 -0.167099 0.000000 0.000000
# 5 0.000000 0.000000 0.000000 0.000000 0.013805 0.000000
# 6 0.000000 0.000000 0.000000 0.000000 0.000000 0.044895
#
#
# Mechanical properties :
#
#
# Convention : Reuss Voigt Hill
#
# Bulk Modulus (GPa) = 58.16324 92.47284 75.31804
# Shear Modulus (GPa) = -82.35266 40.00115 -21.17575
#
# Velocity S-wave (km/s) = -5.77504 4.02488 -2.92844
# Velocity P-wave (km/s) = 4.57310 7.68434 4.36668
#
# Compressibility (1/GPa) = 0.01719299
#
# Stress axis : x y z
#
# Youngs Moduli (GPa) = 194.86733 61.42047 122.53756
#
# Poissons Ratio (x) = 0.07571 0.36907
# Poissons Ratio (y) = 0.24021 0.23843
# Poissons Ratio (z) = 0.58692 0.11951
#
# Static dielectric constant tensor:
#      x y z
#    x 2.104400 0.000000 0.000000 
#    y 0.000000 2.160040 0.000000 
#    z 0.000000 0.000000 1.966790 
# 
# From -- ./inp_files/22663.got.cif
#   From: 2010.05.17/outbox.cif.g08.bks.cpg/sg54_12_cif.got.tgz:22663.got - 2010.06.03 13:09:01.
