data_PCOD9420278
_publ_section_title
;
Structure prediction by ZEFSAII (Michael W. Deem and Ramdas Pophale) SiO2 
 PCOD9420278
Probable space group: P M N A
;
_chemical_formula_sum "Si O2"
_cell_formula_units_Z 64
_cell_length_a 15.000000
_cell_length_b 24.000000
_cell_length_c 9.000000
_cell_angle_alpha 90.000000
_cell_angle_beta 90.000000
_cell_angle_gamma 90.000000
_cell_volume 3240.000000
_symmetry_space_group_name_H-M "P M N A"
_symmetry_group_IT_number 53
_symmetry_cell_setting 'orthorhombic'
loop_
_space_group_symop_operation_xyz
x,y,z
1/2-x,-y,1/2+z
x,-y,-z
1/2-x,y,1/2-z
-x,-y,-z
1/2+x,y,1/2-z
-x,y,z
1/2+x,-y,1/2+z
loop_
_atom_site_type_symbol
_atom_site_label
_atom_site_fract_x
_atom_site_fract_y
_atom_site_fract_z
Si Si1 0.104050 0.558925 0.071818
Si Si2 0.249375 0.773702 0.928833
Si Si3 0.148825 0.926531 0.222538
Si Si4 0.393142 0.051721 0.189584
Si Si5 0.600326 0.859532 0.025848
Si Si6 0.749639 0.349465 0.570358
Si Si7 0.395891 0.440876 0.928732
Si Si8 0.604132 0.134131 0.442823
O O1 0.165099 0.611456 0.029144
O O2 0.110706 0.553316 0.250286
O O3 0.000000 0.567983 0.032996
O O4 0.132257 0.500000 0.000000
O O5 0.250000 0.769711 0.750000
O O6 0.164709 0.812247 0.972869
O O7 0.334272 0.809869 0.984777
O O8 0.248562 0.711628 0.997292
O O9 0.250000 0.910537 0.250000
O O10 0.096156 0.876394 0.303255
O O11 0.139850 0.991151 0.267063
O O12 0.119848 0.916917 0.054952
O O13 0.500000 0.045771 0.193104
O O14 0.366835 0.104019 0.291196
O O15 0.367807 0.078968 0.032750
O O16 0.500000 0.848609 0.969749
O O17 0.750000 0.342628 0.750000
O O18 0.834703 0.388250 0.528911
O O19 0.500000 0.431691 0.967518
O O20 0.367956 0.500000 0.000000
O O21 0.500000 0.148439 0.435741
#
# Coordination Sequence:
#
# PCOD9420278 Si02
#       8
#     8   8   8   8   8   8   8   8
#     4   9  18  35  60  92 126 159 195 239 293 347
#     4  12  26  43  62  86 116 159 213 254 299 357
#     4  12  24  36  64  95 119 148 193 245 307 379
#     4  10  22  40  62  88 118 153 191 240 310 375
#     4  11  24  43  62  85 120 156 196 249 306 365
#     4  10  23  39  59  85 125 161 202 249 291 347
#     4   9  18  35  60  92 126 159 195 239 293 347
#     4  11  24  43  62  85 120 156 196 249 306 365
#
# _framework density 19.753086
#
# number of rings (size 3 to 8) (size 9 to 14) (size 15 to 20)
#    0.000    1.500    2.500    2.250    3.500    5.000 
#    0.000    0.000    0.000    0.000    0.000    0.000 
#    0.000    0.000    0.000    0.000    0.000    0.000 
#
# Total GULP energy -356903.784074 kJ/mol
# GULP energy per Si atom -5576.621626 kJ/mol
# Density = 1.970813 g / cm^3
# Si number density = 19.753086 Si / 1000 Ang^3
#
#
#
# Elastic Constant Matrix: (Units=GPa)
#
#
# Indices 1 2 3 4 5 6 
#
# 1 122.5313 83.0738 24.9246 0.0000 0.0000 0.0000
# 2 83.0738 185.0545 25.7073 0.0000 0.0000 0.0000
# 3 24.9246 25.7073 8.7078 0.0000 0.0000 0.0000
# 4 0.0000 0.0000 0.0000 80.8817 0.0000 0.0000
# 5 0.0000 0.0000 0.0000 0.0000 15.8343 0.0000
# 6 0.0000 0.0000 0.0000 0.0000 0.0000 12.7913
#
#
#
# Elastic Compliance Matrix: (Units=1/GPa)
#
#
# Indices 1 2 3 4 5 6 
#
# 1 0.019856 -0.001726 -0.051736 0.000000 0.000000 0.000000
# 2 -0.001726 0.009311 -0.022546 0.000000 0.000000 0.000000
# 3 -0.051736 -0.022546 0.329485 0.000000 0.000000 0.000000
# 4 0.000000 0.000000 0.000000 0.012364 0.000000 0.000000
# 5 0.000000 0.000000 0.000000 0.000000 0.063154 0.000000
# 6 0.000000 0.000000 0.000000 0.000000 0.000000 0.078178
#
#
# Mechanical properties :
#
#
# Convention : Reuss Voigt Hill
#
# Bulk Modulus (GPa) = 4.83947 64.85612 34.84780
# Shear Modulus (GPa) = 6.81903 34.07397 20.44650
#
# Velocity S-wave (km/s) = 1.86001 4.15781 3.22079
# Velocity P-wave (km/s) = 2.65860 7.48028 5.61350
#
# Compressibility (1/GPa) = 0.20663401
#
# Stress axis : x y z
#
# Youngs Moduli (GPa) = 50.36372 107.40169 3.03504
#
# Poissons Ratio (x) = 0.18542 0.15702
# Poissons Ratio (y) = 0.08695 0.06843
# Poissons Ratio (z) = 2.60563 2.42147
#
# Static dielectric constant tensor:
#      x y z
#    x 1.631350 0.000000 0.000000 
#    y 0.000000 1.618170 0.000000 
#    z 0.000000 0.000000 1.814140 
# 
# From -- ./inp_files/8983.got.cif
#   From: 2010.05.17/outbox.ucp.g08.bks.cvg/sg53_5_cif.got.tgz:8983.got - 2010.06.11 16:32:34.
