data_PCOD9420703
_publ_section_title
;
Structure prediction by ZEFSAII (Michael W. Deem and Ramdas Pophale) SiO2 
 PCOD9420703
Probable space group: P C C A
;
_chemical_formula_sum "Si O2"
_cell_formula_units_Z 44
_cell_length_a 10.103766
_cell_length_b 9.299007
_cell_length_c 23.034125
_cell_angle_alpha 90.000000
_cell_angle_beta 90.000000
_cell_angle_gamma 90.000000
_cell_volume 2164.171002
_symmetry_space_group_name_H-M "P C C A"
_symmetry_group_IT_number 54
_symmetry_cell_setting 'orthorhombic'
loop_
_space_group_symop_operation_xyz
x,y,z
1/2-x,-y,z
1/2+x,-y,1/2-z
-x,y,1/2-z
-x,-y,-z
1/2+x,y,-z
1/2-x,y,1/2+z
x,-y,1/2+z
loop_
_atom_site_type_symbol
_atom_site_label
_atom_site_fract_x
_atom_site_fract_y
_atom_site_fract_z
Si Si1 0.758849 0.768495 0.820457
Si Si2 0.988347 0.836164 0.523580
Si Si3 0.750000 0.000000 0.736513
Si Si4 0.767381 0.326931 0.949219
Si Si5 0.125043 0.437140 0.276350
Si Si6 0.454819 0.839858 0.344799
O O1 0.686560 0.875305 0.776526
O O2 0.706133 0.709273 0.880989
O O3 0.805773 0.641048 0.778353
O O4 0.889036 0.862043 0.837221
O O5 0.889960 0.739960 0.484689
O O6 0.925207 0.848282 0.587708
O O7 0.131246 0.756109 0.531644
O O8 0.000000 0.000000 0.500000
O O9 0.863229 0.936060 0.695442
O O10 0.750000 0.500000 0.956045
O O11 0.250000 0.500000 0.309173
O O12 0.065860 0.319128 0.319146
O O13 0.000000 0.523205 0.250000
#
# Coordination Sequence:
#
# PCOD9420703 Si02
#       6
#     8   8   4   8   8   8
#     4   9  20  37  60  86 124 171 212 263 331 393
#     4  11  25  43  69  98 134 174 230 279 334 392
#     4  10  18  34  62  86 122 158 216 260 336 378
#     4  11  24  44  68  97 135 181 226 278 337 401
#     4   9  17  35  58  85 120 164 204 256 320 388
#     4   9  21  37  57  86 128 164 205 277 327 380
#
# _framework density 20.331109000000001
#
# number of rings (size 3 to 8) (size 9 to 14) (size 15 to 20)
#    0.000    2.182    0.000    3.273    7.636    0.727 
#    0.000   10.909    0.000    0.000    0.000    0.000 
#    0.000    0.000    0.000    0.000    0.000    0.000 
#
# Total GULP energy -245074.362930 kJ/mol
# GULP energy per Si atom -5569.871885 kJ/mol
# Density = 2.028483 g / cm^3
# Si number density = 20.331109 Si / 1000 Ang^3
#
#
#
# Elastic Constant Matrix: (Units=GPa)
#
#
# Indices 1 2 3 4 5 6 
#
# 1 56.0966 32.3378 12.4369 0.0000 0.0000 0.0000
# 2 32.3378 99.9010 40.1954 0.0000 0.0000 0.0000
# 3 12.4369 40.1954 132.6340 0.0000 0.0000 0.0000
# 4 0.0000 0.0000 0.0000 43.2056 0.0000 0.0000
# 5 0.0000 0.0000 0.0000 0.0000 -29.0785 0.0000
# 6 0.0000 0.0000 0.0000 0.0000 0.0000 33.7606
#
#
#
# Elastic Compliance Matrix: (Units=1/GPa)
#
#
# Indices 1 2 3 4 5 6 
#
# 1 0.021917 -0.007138 0.000108 0.000000 0.000000 0.000000
# 2 -0.007138 0.013725 -0.003490 0.000000 0.000000 0.000000
# 3 0.000108 -0.003490 0.008587 0.000000 0.000000 0.000000
# 4 0.000000 0.000000 0.000000 0.023145 0.000000 0.000000
# 5 0.000000 0.000000 0.000000 0.000000 -0.034390 0.000000
# 6 0.000000 0.000000 0.000000 0.000000 0.000000 0.029620
#
#
# Mechanical properties :
#
#
# Convention : Reuss Voigt Hill
#
# Bulk Modulus (GPa) = 43.12382 50.95243 47.03812
# Shear Modulus (GPa) = 54.71981 23.15497 38.93739
#
# Velocity S-wave (km/s) = 5.19353 3.37841 4.38101
# Velocity P-wave (km/s) = 7.56442 6.35090 6.98407
#
# Compressibility (1/GPa) = 0.02318904
#
# Stress axis : x y z
#
# Youngs Moduli (GPa) = 45.62607 72.86123 116.45404
#
# Poissons Ratio (x) = 0.52009 -0.01259
# Poissons Ratio (y) = 0.32568 0.40643
# Poissons Ratio (z) = -0.00493 0.25429
#
# Static dielectric constant tensor:
#      x y z
#    x 1.835100 0.000000 0.000000 
#    y 0.000000 1.714980 0.000000 
#    z 0.000000 0.000000 1.727460 
# 
# From -- ./inp_files/23971.got.cif
#   From: 2010.05.17/outbox.cif.g08.bks.cpg/sg54_12_cif.got.tgz:23971.got - 2010.06.03 13:09:01.
