data_PCOD9420426
_publ_section_title
;
Structure prediction by ZEFSAII (Michael W. Deem and Ramdas Pophale) SiO2 
 PCOD9420426
Probable space group: P C C A
;
_chemical_formula_sum "Si O2"
_cell_formula_units_Z 32
_cell_length_a 25.283784
_cell_length_b 13.458210
_cell_length_c 5.200894
_cell_angle_alpha 90.000000
_cell_angle_beta 90.000000
_cell_angle_gamma 90.000000
_cell_volume 1769.731474
_symmetry_space_group_name_H-M "P C C A"
_symmetry_group_IT_number 54
_symmetry_cell_setting 'orthorhombic'
loop_
_space_group_symop_operation_xyz
x,y,z
1/2-x,-y,z
1/2+x,-y,1/2-z
-x,y,1/2-z
-x,-y,-z
1/2+x,y,-z
1/2-x,y,1/2+z
x,-y,1/2+z
loop_
_atom_site_type_symbol
_atom_site_label
_atom_site_fract_x
_atom_site_fract_y
_atom_site_fract_z
Si Si1 0.106563 0.434886 0.340369
Si Si2 0.435918 0.051187 0.216067
Si Si3 0.227454 0.387468 0.448671
Si Si4 0.465176 0.748621 0.497651
O O1 0.099214 0.480463 0.057762
O O2 0.166702 0.396738 0.372063
O O3 0.067108 0.345840 0.401428
O O4 0.500000 0.043569 0.250000
O O5 0.416210 0.026069 0.500648
O O6 0.428983 0.160650 0.098251
O O7 0.250000 0.500000 0.486477
O O8 0.261839 0.339438 0.223518
O O9 0.500000 0.782757 0.250000
O O10 0.500000 0.722513 0.750000
#
# Coordination Sequence:
#
# PCOD9420426 Si02
#       4
#     8   8   8   8
#     4  12  22  33  50  69  97 137 164 193 235 282
#     4   9  16  30  52  69  86 119 160 204 246 267
#     4  10  16  31  51  69  85 115 156 214 245 263
#     4  11  23  35  46  70 103 132 166 196 223 287
#
# _framework density 18.081838999999999
#
# number of rings (size 3 to 8) (size 9 to 14) (size 15 to 20)
#    0.000    1.500    5.000    5.250    0.000    3.000 
#    0.000    0.000    0.000    0.000    0.000    0.000 
#    0.000    6.000    0.000    0.000    0.000    0.000 
#
# Total GULP energy -178359.171619 kJ/mol
# GULP energy per Si atom -5573.724113 kJ/mol
# Density = 1.804068 g / cm^3
# Si number density = 18.081839 Si / 1000 Ang^3
#
#
#
# Elastic Constant Matrix: (Units=GPa)
#
#
# Indices 1 2 3 4 5 6 
#
# 1 17.6564 8.8024 -9.9173 0.0000 0.0000 0.0000
# 2 8.8024 35.4981 -10.3843 0.0000 0.0000 0.0000
# 3 -9.9173 -10.3843 83.2888 0.0000 0.0000 0.0000
# 4 0.0000 0.0000 0.0000 20.6984 0.0000 0.0000
# 5 0.0000 0.0000 0.0000 0.0000 8.8474 0.0000
# 6 0.0000 0.0000 0.0000 0.0000 0.0000 -5.0052
#
#
#
# Elastic Compliance Matrix: (Units=1/GPa)
#
#
# Indices 1 2 3 4 5 6 
#
# 1 0.067559 -0.014944 0.006181 0.000000 0.000000 0.000000
# 2 -0.014944 0.032543 0.002278 0.000000 0.000000 0.000000
# 3 0.006181 0.002278 0.013026 0.000000 0.000000 0.000000
# 4 0.000000 0.000000 0.000000 0.048313 0.000000 0.000000
# 5 0.000000 0.000000 0.000000 0.000000 0.113028 0.000000
# 6 0.000000 0.000000 0.000000 0.000000 0.000000 -0.199794
#
#
# Mechanical properties :
#
#
# Convention : Reuss Voigt Hill
#
# Bulk Modulus (GPa) = 9.98429 12.60497 11.29463
# Shear Modulus (GPa) = 41.31189 14.77096 28.04143
#
# Velocity S-wave (km/s) = 4.78506 2.86124 3.94230
# Velocity P-wave (km/s) = 6.00523 4.23105 5.19444
#
# Compressibility (1/GPa) = 0.10015739
#
# Stress axis : x y z
#
# Youngs Moduli (GPa) = 14.80195 30.72899 76.76706
#
# Poissons Ratio (x) = 0.45922 -0.47451
# Poissons Ratio (y) = 0.22120 -0.17487
# Poissons Ratio (z) = -0.09149 -0.07000
#
# Static dielectric constant tensor:
#      x y z
#    x 1.611260 0.000000 0.000000 
#    y 0.000000 1.681280 0.000000 
#    z 0.000000 0.000000 1.705370 
# 
# From -- ./inp_files/1549.got.cif
#   From: 2010.05.17/outbox.cif.g08.bks.cpg/sg54_1_cif.got.tgz:1549.got - 2010.06.03 13:09:01.
