data_PCOD9420897
_publ_section_title
;
Structure prediction by ZEFSAII (Michael W. Deem and Ramdas Pophale) SiO2 
 PCOD9420897
Probable space group: P C C A
;
_chemical_formula_sum "Si O2"
_cell_formula_units_Z 40
_cell_length_a 5.326114
_cell_length_b 12.375285
_cell_length_c 25.893073
_cell_angle_alpha 90.000000
_cell_angle_beta 90.000000
_cell_angle_gamma 90.000000
_cell_volume 1706.668854
_symmetry_space_group_name_H-M "P C C A"
_symmetry_group_IT_number 54
_symmetry_cell_setting 'orthorhombic'
loop_
_space_group_symop_operation_xyz
x,y,z
1/2-x,-y,z
1/2+x,-y,1/2-z
-x,y,1/2-z
-x,-y,-z
1/2+x,y,-z
1/2-x,y,1/2+z
x,-y,1/2+z
loop_
_atom_site_type_symbol
_atom_site_label
_atom_site_fract_x
_atom_site_fract_y
_atom_site_fract_z
Si Si1 0.845689 0.390351 0.050816
Si Si2 0.341968 0.668601 0.606072
Si Si3 0.268843 0.277745 0.719456
Si Si4 0.654953 0.826223 0.980318
Si Si5 0.992651 0.045496 0.309407
O O1 0.750000 0.500000 0.024173
O O2 0.618572 0.368989 0.090414
O O3 0.860215 0.289056 0.012234
O O4 0.106877 0.393679 0.080918
O O5 0.311749 0.665981 0.666894
O O6 0.324033 0.788069 0.578866
O O7 0.500000 0.334694 0.750000
O O8 0.423080 0.170504 0.699120
O O9 0.000000 0.257259 0.750000
O O10 0.398367 0.881223 0.996512
O O11 0.000000 0.999842 0.250000
O O12 0.250000 0.000000 0.332619
O O13 0.750000 0.000000 0.337400
#
# Coordination Sequence:
#
# PCOD9420897 Si02
#       5
#     8   8   8   8   8
#     4  10  19  32  52  75  97 123 164 222 278 311
#     4  10  20  32  48  72 100 130 168 206 254 310
#     4  11  21  34  52  72 102 141 171 198 238 296
#     4   8  16  28  45  70  97 118 152 203 263 312
#     4   9  16  28  47  71  94 117 152 195 239 280
#
# _framework density 23.437467999999999
#
# number of rings (size 3 to 8) (size 9 to 14) (size 15 to 20)
#    0.000    2.400    0.000    4.800    0.000    7.200 
#    0.000    0.000    0.000   12.000    0.000    0.000 
#    0.000   43.200    0.000    0.000    0.000  110.800 
#
# Total GULP energy -222816.466754 kJ/mol
# GULP energy per Si atom -5570.411669 kJ/mol
# Density = 2.338412 g / cm^3
# Si number density = 23.437468 Si / 1000 Ang^3
#
#
#
# Elastic Constant Matrix: (Units=GPa)
#
#
# Indices 1 2 3 4 5 6 
#
# 1 240.4380 13.2083 46.2338 0.0000 0.0000 0.0000
# 2 13.2083 38.2887 9.2493 0.0000 0.0000 0.0000
# 3 46.2338 9.2493 107.7528 0.0000 0.0000 0.0000
# 4 0.0000 0.0000 0.0000 -10.5866 0.0000 0.0000
# 5 0.0000 0.0000 0.0000 0.0000 31.9024 0.0000
# 6 0.0000 0.0000 0.0000 0.0000 0.0000 18.3008
#
#
#
# Elastic Compliance Matrix: (Units=1/GPa)
#
#
# Indices 1 2 3 4 5 6 
#
# 1 0.004580 -0.001129 -0.001868 0.000000 0.000000 0.000000
# 2 -0.001129 0.026949 -0.001829 0.000000 0.000000 0.000000
# 3 -0.001868 -0.001829 0.010239 0.000000 0.000000 0.000000
# 4 0.000000 0.000000 0.000000 -0.094459 0.000000 0.000000
# 5 0.000000 0.000000 0.000000 0.000000 0.031346 0.000000
# 6 0.000000 0.000000 0.000000 0.000000 0.000000 0.054642
#
#
# Mechanical properties :
#
#
# Convention : Reuss Voigt Hill
#
# Bulk Modulus (GPa) = 31.13716 58.20693 44.67204
# Shear Modulus (GPa) = 93.18933 29.10922 61.14927
#
# Velocity S-wave (km/s) = 6.31246 3.52802 5.11342
# Velocity P-wave (km/s) = 8.15129 6.44087 7.34603
#
# Compressibility (1/GPa) = 0.03211597
#
# Stress axis : x y z
#
# Youngs Moduli (GPa) = 218.32350 37.10777 97.66411
#
# Poissons Ratio (x) = 0.04188 0.18248
# Poissons Ratio (y) = 0.24643 0.17862
# Poissons Ratio (z) = 0.40792 0.06787
#
# Static dielectric constant tensor:
#      x y z
#    x 1.899770 0.000000 0.000000 
#    y 0.000000 2.005870 0.000000 
#    z 0.000000 0.000000 1.889980 
# 
# From -- ./inp_files/22827.got.cif
#   From: 2010.05.17/outbox.cif.g08.bks.cpg/sg54_12_cif.got.tgz:22827.got - 2010.06.03 13:09:01.
