data_PCOD9420303
_publ_section_title
;
Structure prediction by ZEFSAII (Michael W. Deem and Ramdas Pophale) SiO2 
 PCOD9420303
Probable space group: P C C A
;
_chemical_formula_sum "Si O2"
_cell_formula_units_Z 56
_cell_length_a 18.352359
_cell_length_b 27.168288
_cell_length_c 5.569815
_cell_angle_alpha 90.000000
_cell_angle_beta 90.000000
_cell_angle_gamma 90.000000
_cell_volume 2777.121872
_symmetry_space_group_name_H-M "P C C A"
_symmetry_group_IT_number 54
_symmetry_cell_setting 'orthorhombic'
loop_
_space_group_symop_operation_xyz
x,y,z
1/2-x,-y,z
1/2+x,-y,1/2-z
-x,y,1/2-z
-x,-y,-z
1/2+x,y,-z
1/2-x,y,1/2+z
x,-y,1/2+z
loop_
_atom_site_type_symbol
_atom_site_label
_atom_site_fract_x
_atom_site_fract_y
_atom_site_fract_z
Si Si1 0.582797 0.016787 0.772194
Si Si2 0.203875 0.739392 0.155121
Si Si3 0.835322 0.480365 0.852597
Si Si4 0.755759 0.908431 0.407349
Si Si5 0.295115 0.370953 0.168275
Si Si6 0.608107 0.165070 0.378786
Si Si7 0.597837 0.868840 0.377070
O O1 0.500000 0.996506 0.750000
O O2 0.579189 0.074061 0.837595
O O3 0.615578 0.009150 0.507288
O O4 0.250451 0.744419 0.404053
O O5 0.171900 0.683860 0.158139
O O6 0.144547 0.782054 0.152913
O O7 0.750000 0.500000 0.854607
O O8 0.866819 0.501243 0.604846
O O9 0.839276 0.421449 0.843840
O O10 0.748724 0.936293 0.657005
O O11 0.828768 0.876772 0.401456
O O12 0.686967 0.870299 0.398859
O O13 0.254307 0.373424 0.426359
O O14 0.574039 0.160575 0.642060
O O15 0.569930 0.150988 0.129989
#
# Coordination Sequence:
#
# PCOD9420303 Si02
#       7
#     8   8   8   8   8   8   8
#     4  10  21  37  54  71  89 105 125 159 198 230
#     4  10  18  25  36  53  79 101 131 167 208 241
#     4  10  14  20  31  37  55  81 122 162 208 247
#     4   8  14  23  39  57  78 100 130 150 177 210
#     4  10  16  22  29  45  61  89 121 164 208 248
#     4  10  17  28  43  62  83 109 135 161 190 232
#     4  10  18  29  49  65  81 107 135 151 187 237
#
# _framework density 20.164760999999999
#
# number of rings (size 3 to 8) (size 9 to 14) (size 15 to 20)
#    0.000    2.286    2.857    4.286    0.000    0.000 
#    0.000    0.000    0.000   23.143    0.000    0.000 
#    0.000    0.000    0.000    0.000    0.000    0.000 
#
# Total GULP energy -312026.901752 kJ/mol
# GULP energy per Si atom -5571.908960 kJ/mol
# Density = 2.011887 g / cm^3
# Si number density = 20.164761 Si / 1000 Ang^3
#
#
#
# Elastic Constant Matrix: (Units=GPa)
#
#
# Indices 1 2 3 4 5 6 
#
# 1 36.1436 0.7475 20.8479 0.0000 0.0000 0.0000
# 2 0.7475 137.2117 39.7408 0.0000 0.0000 0.0000
# 3 20.8479 39.7408 212.1888 0.0000 0.0000 0.0000
# 4 0.0000 0.0000 0.0000 34.0882 0.0000 0.0000
# 5 0.0000 0.0000 0.0000 0.0000 19.5969 0.0000
# 6 0.0000 0.0000 0.0000 0.0000 0.0000 9.3448
#
#
#
# Elastic Compliance Matrix: (Units=1/GPa)
#
#
# Indices 1 2 3 4 5 6 
#
# 1 0.029396 0.000715 -0.003022 0.000000 0.000000 0.000000
# 2 0.000715 0.007723 -0.001517 0.000000 0.000000 0.000000
# 3 -0.003022 -0.001517 0.005294 0.000000 0.000000 0.000000
# 4 0.000000 0.000000 0.000000 0.029336 0.000000 0.000000
# 5 0.000000 0.000000 0.000000 0.000000 0.051028 0.000000
# 6 0.000000 0.000000 0.000000 0.000000 0.000000 0.107011
#
#
# Mechanical properties :
#
#
# Convention : Reuss Voigt Hill
#
# Bulk Modulus (GPa) = 28.76415 56.46852 42.61633
# Shear Modulus (GPa) = 20.07834 34.21985 27.14910
#
# Velocity S-wave (km/s) = 3.15892 4.12395 3.67326
# Velocity P-wave (km/s) = 5.25362 7.12322 6.25863
#
# Compressibility (1/GPa) = 0.03476550
#
# Stress axis : x y z
#
# Youngs Moduli (GPa) = 34.01848 129.47636 188.90056
#
# Poissons Ratio (x) = -0.09260 0.57088
# Poissons Ratio (y) = -0.02433 0.28652
# Poissons Ratio (z) = 0.10281 0.19639
#
# Static dielectric constant tensor:
#      x y z
#    x 1.752690 0.000000 0.000000 
#    y 0.000000 1.684270 0.000000 
#    z 0.000000 0.000000 1.844690 
# 
# From -- ./inp_files/1469.got.cif
#   From: 2010.05.17/outbox.cif.g08.bks.cpg/sg54_1_cif.got.tgz:1469.got - 2010.06.03 13:09:01.
