data_PCOD9420072
_publ_section_title
;
Structure prediction by ZEFSAII (Michael W. Deem and Ramdas Pophale) SiO2 
 PCOD9420072
Probable space group: P M N A
;
_chemical_formula_sum "Si O2"
_cell_formula_units_Z 48
_cell_length_a 9.833725
_cell_length_b 8.053361
_cell_length_c 29.987105
_cell_angle_alpha 90.000000
_cell_angle_beta 90.000000
_cell_angle_gamma 90.000000
_cell_volume 2374.814908
_symmetry_space_group_name_H-M "P M N A"
_symmetry_group_IT_number 53
_symmetry_cell_setting 'orthorhombic'
loop_
_space_group_symop_operation_xyz
x,y,z
1/2-x,-y,1/2+z
x,-y,-z
1/2-x,y,1/2-z
-x,-y,-z
1/2+x,y,1/2-z
-x,y,z
1/2+x,-y,1/2+z
loop_
_atom_site_type_symbol
_atom_site_label
_atom_site_fract_x
_atom_site_fract_y
_atom_site_fract_z
Si Si1 0.152458 0.207913 0.424647
Si Si2 0.662495 0.453600 0.145148
Si Si3 0.836108 0.759120 0.295766
Si Si4 0.847106 0.669146 0.477843
Si Si5 0.154269 0.934448 0.051924
Si Si6 0.160645 0.136711 0.294051
O O1 0.195588 0.385929 0.404200
O O2 0.137295 0.219953 0.477657
O O3 0.000000 0.166321 0.406726
O O4 0.265691 0.069226 0.418692
O O5 0.500000 0.474071 0.145183
O O6 0.712419 0.621099 0.168539
O O7 0.696459 0.289900 0.174133
O O8 0.750000 0.739290 0.250000
O O9 0.817939 0.949289 0.311876
O O10 0.000000 0.737710 0.287308
O O11 0.796651 0.500000 0.500000
O O12 0.743138 0.767109 0.447428
O O13 0.000000 0.644859 0.458959
O O14 0.000000 0.090254 0.933584
O O15 0.147653 0.000000 0.000000
O O16 0.250000 0.151356 0.250000
O O17 0.000000 0.151375 0.283773
#
# Coordination Sequence:
#
# PCOD9420072 Si02
#       6
#     8   8   8   8   8   8
#     4   9  17  31  48  67  94 122 153 197 238 278
#     4   9  17  30  47  70  96 123 156 193 238 282
#     4   9  17  30  48  69  94 122 157 194 230 277
#     4   9  17  30  48  72  94 119 158 198 237 284
#     4   9  17  30  48  67  89 121 156 189 230 280
#     4   9  17  30  48  70  93 122 158 193 231 279
#
# _framework density 20.212102000000002
#
# number of rings (size 3 to 8) (size 9 to 14) (size 15 to 20)
#    0.000    3.000    0.000    1.000    0.000    2.333 
#    3.000    1.667    0.000    0.000    0.000    0.000 
#    0.000    0.000    0.000    0.000    0.000    0.000 
#
# Total GULP energy -267240.467109 kJ/mol
# GULP energy per Si atom -5567.509731 kJ/mol
# Density = 2.016610 g / cm^3
# Si number density = 20.212102 Si / 1000 Ang^3
#
#
#
# Elastic Constant Matrix: (Units=GPa)
#
#
# Indices 1 2 3 4 5 6 
#
# 1 37.6684 21.1839 16.6453 0.0000 0.0000 0.0000
# 2 21.1839 68.8307 15.6611 0.0000 0.0000 0.0000
# 3 16.6453 15.6611 47.6002 0.0000 0.0000 0.0000
# 4 0.0000 0.0000 0.0000 31.4671 0.0000 0.0000
# 5 0.0000 0.0000 0.0000 0.0000 12.4683 0.0000
# 6 0.0000 0.0000 0.0000 0.0000 0.0000 -51.2252
#
#
#
# Elastic Compliance Matrix: (Units=1/GPa)
#
#
# Indices 1 2 3 4 5 6 
#
# 1 0.035749 -0.008818 -0.009600 0.000000 0.000000 0.000000
# 2 -0.008818 0.017879 -0.002799 0.000000 0.000000 0.000000
# 3 -0.009600 -0.002799 0.025286 0.000000 0.000000 0.000000
# 4 0.000000 0.000000 0.000000 0.031779 0.000000 0.000000
# 5 0.000000 0.000000 0.000000 0.000000 0.080203 0.000000
# 6 0.000000 0.000000 0.000000 0.000000 0.000000 -0.019522
#
#
# Mechanical properties :
#
#
# Convention : Reuss Voigt Hill
#
# Bulk Modulus (GPa) = 27.41181 29.00886 28.21033
# Shear Modulus (GPa) = 22.12703 5.24929 13.68816
#
# Velocity S-wave (km/s) = 3.31228 1.61330 2.60518
# Velocity P-wave (km/s) = 5.31223 4.22536 4.79966
#
# Compressibility (1/GPa) = 0.03648063
#
# Stress axis : x y z
#
# Youngs Moduli (GPa) = 27.97317 55.93102 39.54746
#
# Poissons Ratio (x) = 0.49320 0.37964
# Poissons Ratio (y) = 0.24667 0.11069
# Poissons Ratio (z) = 0.26853 0.15655
#
# Static dielectric constant tensor:
#      x y z
#    x 1.696930 0.000000 0.000000 
#    y 0.000000 1.753590 0.000000 
#    z 0.000000 0.000000 1.795060 
# 
# From -- ./inp_files/37775.got.cif
#   From: 2010.05.17/outbox.cif.g08.bks.cpg/sg53_19_cif.got.tgz:37775.got - 2010.06.03 12:45:16.
