data_PCOD9420536
_publ_section_title
;
Structure prediction by ZEFSAII (Michael W. Deem and Ramdas Pophale) SiO2 
 PCOD9420536
Probable space group: P C C A
;
_chemical_formula_sum "Si O2"
_cell_formula_units_Z 32
_cell_length_a 13.896201
_cell_length_b 16.263575
_cell_length_c 5.494259
_cell_angle_alpha 90.000000
_cell_angle_beta 90.000000
_cell_angle_gamma 90.000000
_cell_volume 1241.713013
_symmetry_space_group_name_H-M "P C C A"
_symmetry_group_IT_number 54
_symmetry_cell_setting 'orthorhombic'
loop_
_space_group_symop_operation_xyz
x,y,z
1/2-x,-y,z
1/2+x,-y,1/2-z
-x,y,1/2-z
-x,-y,-z
1/2+x,y,-z
1/2-x,y,1/2+z
x,-y,1/2+z
loop_
_atom_site_type_symbol
_atom_site_label
_atom_site_fract_x
_atom_site_fract_y
_atom_site_fract_z
Si Si1 0.360511 0.467435 0.143274
Si Si2 0.606231 0.215102 0.974929
Si Si3 0.114165 0.722608 0.023957
Si Si4 0.890556 0.971705 0.795094
O O1 0.250000 0.500000 0.159820
O O2 0.402715 0.487407 0.407100
O O3 0.368532 0.370997 0.096261
O O4 0.652582 0.264037 0.749457
O O5 0.604898 0.121364 0.887972
O O6 0.498429 0.252092 0.999454
O O7 0.648025 0.223066 0.246008
O O8 0.000000 0.002953 0.750000
O O9 0.848803 0.976889 0.521962
#
# Coordination Sequence:
#
# PCOD9420536 Si02
#       4
#     8   8   8   8
#     4  10  21  38  56  72  91 124 168 221 266 306
#     4  10  19  32  45  73 108 141 168 201 246 307
#     4  10  19  32  49  69  99 134 167 208 254 303
#     4  10  18  26  43  66 100 149 179 193 226 285
#
# _framework density 25.770849999999999
#
# number of rings (size 3 to 8) (size 9 to 14) (size 15 to 20)
#    0.000    2.000    2.500    3.000    7.000    0.000 
#    0.000   15.000    0.000    0.000    0.000    0.000 
#    0.000    0.000    0.000  522.000    0.000    0.000 
#
# Total GULP energy -178894.097201 kJ/mol
# GULP energy per Si atom -5590.440538 kJ/mol
# Density = 2.571219 g / cm^3
# Si number density = 25.770850 Si / 1000 Ang^3
#
#
#
# Elastic Constant Matrix: (Units=GPa)
#
#
# Indices 1 2 3 4 5 6 
#
# 1 122.1628 16.4733 19.0271 0.0000 0.0000 0.0000
# 2 16.4733 153.3969 42.8611 0.0000 0.0000 0.0000
# 3 19.0271 42.8611 274.6903 0.0000 0.0000 0.0000
# 4 0.0000 0.0000 0.0000 64.5068 0.0000 0.0000
# 5 0.0000 0.0000 0.0000 0.0000 -33.2603 0.0000
# 6 0.0000 0.0000 0.0000 0.0000 0.0000 5.5973
#
#
#
# Elastic Compliance Matrix: (Units=1/GPa)
#
#
# Indices 1 2 3 4 5 6 
#
# 1 0.008361 -0.000770 -0.000459 0.000000 0.000000 0.000000
# 2 -0.000770 0.006887 -0.001021 0.000000 0.000000 0.000000
# 3 -0.000459 -0.001021 0.003832 0.000000 0.000000 0.000000
# 4 0.000000 0.000000 0.000000 0.015502 0.000000 0.000000
# 5 0.000000 0.000000 0.000000 0.000000 -0.030066 0.000000
# 6 0.000000 0.000000 0.000000 0.000000 0.000000 0.178656
#
#
# Mechanical properties :
#
#
# Convention : Reuss Voigt Hill
#
# Bulk Modulus (GPa) = 68.58822 78.55254 73.57038
# Shear Modulus (GPa) = 25.96967 38.82800 32.39883
#
# Velocity S-wave (km/s) = 3.17790 3.88579 3.54953
# Velocity P-wave (km/s) = 6.33544 7.11897 6.73860
#
# Compressibility (1/GPa) = 0.01457976
#
# Stress axis : x y z
#
# Youngs Moduli (GPa) = 119.60178 145.19996 260.98617
#
# Poissons Ratio (x) = 0.11175 0.11981
# Poissons Ratio (y) = 0.09205 0.26655
# Poissons Ratio (z) = 0.05490 0.14829
#
# Static dielectric constant tensor:
#      x y z
#    x 1.886350 0.000000 0.000000 
#    y 0.000000 1.948020 0.000000 
#    z 0.000000 0.000000 2.134690 
# 
# From -- ./inp_files/865.got.cif
#   From: 2010.05.17/outbox.cif.g08.bks.cpg/sg54_1_cif.got.tgz:865.got - 2010.06.03 13:09:01.
