data_PCOD9420498
_publ_section_title
;
Structure prediction by ZEFSAII (Michael W. Deem and Ramdas Pophale) SiO2 
 PCOD9420498
Probable space group: P C C A
;
_chemical_formula_sum "Si O2"
_cell_formula_units_Z 48
_cell_length_a 22.192027
_cell_length_b 7.488155
_cell_length_c 11.854927
_cell_angle_alpha 90.000000
_cell_angle_beta 90.000000
_cell_angle_gamma 90.000000
_cell_volume 1970.020210
_symmetry_space_group_name_H-M "P C C A"
_symmetry_group_IT_number 54
_symmetry_cell_setting 'orthorhombic'
loop_
_space_group_symop_operation_xyz
x,y,z
1/2-x,-y,z
1/2+x,-y,1/2-z
-x,y,1/2-z
-x,-y,-z
1/2+x,y,-z
1/2-x,y,1/2+z
x,-y,1/2+z
loop_
_atom_site_type_symbol
_atom_site_label
_atom_site_fract_x
_atom_site_fract_y
_atom_site_fract_z
Si Si1 0.237353 0.298663 0.069014
Si Si2 0.636383 0.756569 0.959993
Si Si3 0.611461 0.634609 0.397949
Si Si4 0.877007 0.964515 0.758798
Si Si5 0.500000 0.161822 0.250000
Si Si6 0.009300 0.213899 0.502469
Si Si7 0.250000 0.000000 0.759476
O O1 0.250000 0.500000 0.106747
O O2 0.295570 0.253353 0.992696
O O3 0.168783 0.298251 0.025708
O O4 0.243005 0.168768 0.175469
O O5 0.624923 0.574718 0.888272
O O6 0.509076 0.732615 0.865309
O O7 0.577752 0.756411 0.039452
O O8 0.618065 0.755886 0.287284
O O9 0.545941 0.684793 0.445332
O O10 0.816974 0.012192 0.688052
O O11 0.941306 0.042144 0.724987
O O12 0.867605 0.071574 0.878738
O O13 0.000000 0.000000 0.500000
#
# Coordination Sequence:
#
# PCOD9420498 Si02
#       7
#     8   8   8   8   4   8   4
#     4   8  15  26  46  79  98 123 169 206 247 309
#     4   9  17  30  52  78 102 132 171 210 256 311
#     4  10  17  31  55  77  99 135 170 209 264 309
#     4   9  17  32  51  75 103 134 169 214 257 306
#     4  10  20  34  54  70 106 136 172 218 254 300
#     4  11  20  35  54  74 102 142 171 214 260 304
#     4   8  14  26  50  70  98 132 164 204 254 306
#
# _framework density 24.365234000000001
#
# number of rings (size 3 to 8) (size 9 to 14) (size 15 to 20)
#    0.000    2.667    3.333    0.500    0.000    0.000 
#    0.000    3.333    3.667    0.000    0.000   14.000 
#    0.000    0.000    0.000    0.000    0.000    0.000 
#
# Total GULP energy -267319.907544 kJ/mol
# GULP energy per Si atom -5569.164740 kJ/mol
# Density = 2.430978 g / cm^3
# Si number density = 24.365234 Si / 1000 Ang^3
#
#
#
# Elastic Constant Matrix: (Units=GPa)
#
#
# Indices 1 2 3 4 5 6 
#
# 1 242.8231 -5.5955 3.3701 0.0000 0.0000 0.0000
# 2 -5.5955 109.7384 13.0027 0.0000 0.0000 0.0000
# 3 3.3701 13.0027 49.6492 0.0000 0.0000 0.0000
# 4 0.0000 0.0000 0.0000 12.5656 0.0000 0.0000
# 5 0.0000 0.0000 0.0000 0.0000 9.6450 0.0000
# 6 0.0000 0.0000 0.0000 0.0000 0.0000 33.5897
#
#
#
# Elastic Compliance Matrix: (Units=1/GPa)
#
#
# Indices 1 2 3 4 5 6 
#
# 1 0.004129 0.000252 -0.000346 0.000000 0.000000 0.000000
# 2 0.000252 0.009420 -0.002484 0.000000 0.000000 0.000000
# 3 -0.000346 -0.002484 0.020815 0.000000 0.000000 0.000000
# 4 0.000000 0.000000 0.000000 0.079582 0.000000 0.000000
# 5 0.000000 0.000000 0.000000 0.000000 0.103681 0.000000
# 6 0.000000 0.000000 0.000000 0.000000 0.000000 0.029771
#
#
# Mechanical properties :
#
#
# Convention : Reuss Voigt Hill
#
# Bulk Modulus (GPa) = 34.23875 47.08503 40.66189
# Shear Modulus (GPa) = 19.06282 37.25562 28.15922
#
# Velocity S-wave (km/s) = 2.80014 3.91455 3.40327
# Velocity P-wave (km/s) = 4.95350 6.30858 5.67166
#
# Compressibility (1/GPa) = 0.02920667
#
# Stress axis : x y z
#
# Youngs Moduli (GPa) = 242.19967 106.16007 48.04146
#
# Poissons Ratio (x) = -0.02670 0.01663
# Poissons Ratio (y) = -0.06092 0.11934
# Poissons Ratio (z) = 0.08383 0.26370
#
# Static dielectric constant tensor:
#      x y z
#    x 2.122010 0.000000 0.000000 
#    y 0.000000 1.916420 0.000000 
#    z 0.000000 0.000000 2.005950 
# 
# From -- ./inp_files/21497.got.cif
#   From: 2010.05.17/outbox.cif.g08.bks.cpg/sg54_11_cif.got.tgz:21497.got - 2010.06.03 13:09:01.
