data_PCOD9420995
_publ_section_title
;
Structure prediction by ZEFSAII (Michael W. Deem and Ramdas Pophale) SiO2 
 PCOD9420995
Probable space group: P C C A
;
_chemical_formula_sum "Si O2"
_cell_formula_units_Z 56
_cell_length_a 17.318940
_cell_length_b 16.385611
_cell_length_c 9.284842
_cell_angle_alpha 90.000000
_cell_angle_beta 90.000000
_cell_angle_gamma 90.000000
_cell_volume 2634.865589
_symmetry_space_group_name_H-M "P C C A"
_symmetry_group_IT_number 54
_symmetry_cell_setting 'orthorhombic'
loop_
_space_group_symop_operation_xyz
x,y,z
1/2-x,-y,z
1/2+x,-y,1/2-z
-x,y,1/2-z
-x,-y,-z
1/2+x,y,-z
1/2-x,y,1/2+z
x,-y,1/2+z
loop_
_atom_site_type_symbol
_atom_site_label
_atom_site_fract_x
_atom_site_fract_y
_atom_site_fract_z
Si Si1 0.702936 0.281119 0.175092
Si Si2 0.173432 0.463660 0.803118
Si Si3 0.058464 0.269733 0.617545
Si Si4 0.926841 0.442675 0.973942
Si Si5 0.341089 0.024050 0.762355
Si Si6 0.209092 0.181017 0.106335
Si Si7 0.378999 0.107413 0.048520
O O1 0.700829 0.376291 0.134653
O O2 0.640449 0.275619 0.301805
O O3 0.776865 0.241230 0.256108
O O4 0.681126 0.229444 0.034184
O O5 0.250000 0.500000 0.731315
O O6 0.105957 0.451810 0.687270
O O7 0.139955 0.525174 0.921148
O O8 0.051162 0.347377 0.513331
O O9 0.060906 0.181465 0.544384
O O10 0.000000 0.275180 0.750000
O O11 0.000000 0.500000 0.000000
O O12 0.339242 0.103312 0.658691
O O13 0.250000 0.000000 0.785308
O O14 0.383852 0.948436 0.689564
O O15 0.379362 0.050478 0.910203
O O16 0.291902 0.143995 0.057354
#
# Coordination Sequence:
#
# PCOD9420995 Si02
#       7
#     8   8   8   8   8   8   8
#     4  10  22  36  60  90 129 164 205 267 335 385
#     4  11  25  38  62 101 136 166 215 288 347 384
#     4  10  23  44  65  87 121 172 224 270 326 385
#     4  11  23  45  70  91 128 187 230 263 331 427
#     4  10  19  33  58  93 130 165 215 253 326 403
#     4  10  19  34  59  90 128 163 208 258 324 393
#     4  10  21  34  60  90 122 167 208 270 316 385
#
# _framework density 21.253456
#
# number of rings (size 3 to 8) (size 9 to 14) (size 15 to 20)
#    0.000    1.714    1.429    3.857   12.000    0.000 
#    0.000    0.714    0.000    0.000    0.000    0.000 
#    0.000    0.000    0.000    0.000    0.000    0.000 
#
# Total GULP energy -312581.117423 kJ/mol
# GULP energy per Si atom -5581.805668 kJ/mol
# Density = 2.120508 g / cm^3
# Si number density = 21.253456 Si / 1000 Ang^3
#
#
#
# Elastic Constant Matrix: (Units=GPa)
#
#
# Indices 1 2 3 4 5 6 
#
# 1 24.4182 30.4999 -9.5656 0.0000 0.0000 0.0000
# 2 30.4999 158.8604 53.5289 0.0000 0.0000 0.0000
# 3 -9.5656 53.5289 75.2627 0.0000 0.0000 0.0000
# 4 0.0000 0.0000 0.0000 -107.3731 0.0000 0.0000
# 5 0.0000 0.0000 0.0000 0.0000 17.8857 0.0000
# 6 0.0000 0.0000 0.0000 0.0000 0.0000 19.1471
#
#
#
# Elastic Compliance Matrix: (Units=1/GPa)
#
#
# Indices 1 2 3 4 5 6 
#
# 1 0.085601 -0.026436 0.029682 0.000000 0.000000 0.000000
# 2 -0.026436 0.016443 -0.015055 0.000000 0.000000 0.000000
# 3 0.029682 -0.015055 0.027767 0.000000 0.000000 0.000000
# 4 0.000000 0.000000 0.000000 -0.009313 0.000000 0.000000
# 5 0.000000 0.000000 0.000000 0.000000 0.055911 0.000000
# 6 0.000000 0.000000 0.000000 0.000000 0.000000 0.052227
#
#
# Mechanical properties :
#
#
# Convention : Reuss Voigt Hill
#
# Bulk Modulus (GPa) = 9.41690 45.27419 27.34555
# Shear Modulus (GPa) = 17.38220 -1.79620 7.79300
#
# Velocity S-wave (km/s) = 2.86291 -0.92031 1.91694
# Velocity P-wave (km/s) = 3.92030 4.49655 4.21828
#
# Compressibility (1/GPa) = 0.10619206
#
# Stress axis : x y z
#
# Youngs Moduli (GPa) = 11.68214 60.81580 36.01460
#
# Poissons Ratio (x) = 1.60773 -1.06897
# Poissons Ratio (y) = 0.30883 0.54219
# Poissons Ratio (z) = -0.34674 0.91556
#
# Static dielectric constant tensor:
#      x y z
#    x 1.772020 0.000000 0.000000 
#    y 0.000000 1.833790 0.000000 
#    z 0.000000 0.000000 1.763070 
# 
# From -- ./inp_files/4801.got.cif
#   From: 2010.05.17/outbox.cif.g08.bks.cpg/sg54_3_cif.got.tgz:4801.got - 2010.06.03 13:09:01.
