data_PCOD9420165
_publ_section_title
;
Structure prediction by ZEFSAII (Michael W. Deem and Ramdas Pophale) SiO2 
 PCOD9420165
Probable space group: P M N A
;
_chemical_formula_sum "Si O2"
_cell_formula_units_Z 48
_cell_length_a 9.000000
_cell_length_b 15.000000
_cell_length_c 18.000000
_cell_angle_alpha 90.000000
_cell_angle_beta 90.000000
_cell_angle_gamma 90.000000
_cell_volume 2430.000000
_symmetry_space_group_name_H-M "P M N A"
_symmetry_group_IT_number 53
_symmetry_cell_setting 'orthorhombic'
loop_
_space_group_symop_operation_xyz
x,y,z
1/2-x,-y,1/2+z
x,-y,-z
1/2-x,y,1/2-z
-x,-y,-z
1/2+x,y,1/2-z
-x,y,z
1/2+x,-y,1/2+z
loop_
_atom_site_type_symbol
_atom_site_label
_atom_site_fract_x
_atom_site_fract_y
_atom_site_fract_z
Si Si1 0.323466 0.808859 0.329737
Si Si2 0.331414 0.075200 0.943653
Si Si3 0.671011 0.281834 0.320553
Si Si4 0.178577 0.512245 0.827093
Si Si5 0.661098 0.246987 0.047373
Si Si6 0.175280 0.360343 0.588874
O O1 0.250000 0.816248 0.250000
O O2 0.500000 0.801569 0.326306
O O3 0.273189 0.894942 0.377109
O O4 0.256609 0.719112 0.366739
O O5 0.500000 0.050628 0.918832
O O6 0.345370 0.164951 0.991733
O O7 0.276811 0.000000 0.000000
O O8 0.750000 0.241775 0.250000
O O9 0.500000 0.286316 0.305360
O O10 0.723347 0.384069 0.332740
O O11 0.711054 0.231269 0.394541
O O12 0.250000 0.478339 0.750000
O O13 0.247127 0.452232 0.891136
O O14 0.000000 0.505598 0.825356
O O15 0.500000 0.255246 0.085418
O O16 0.687332 0.333474 0.997128
O O17 0.000000 0.361438 0.607845
#
# Coordination Sequence:
#
# PCOD9420165 Si02
#       6
#     8   8   8   8   8   8
#     4  11  21  34  54  80 111 143 177 216 259 311
#     4   9  19  38  61  83 109 139 171 212 263 317
#     4  10  21  36  54  74 101 137 177 220 261 304
#     4  10  20  33  49  72 102 138 178 219 261 303
#     4   9  19  35  55  78 103 133 169 209 258 312
#     4  10  20  34  52  76 106 140 175 213 261 313
#
# _framework density 19.753086
#
# number of rings (size 3 to 8) (size 9 to 14) (size 15 to 20)
#    0.000    2.167    0.000    4.500    0.000    6.333 
#    0.000    4.167    0.000    0.000    0.000    0.000 
#    0.000    0.000    0.000    0.000    0.000    0.000 
#
# Total GULP energy -267581.139363 kJ/mol
# GULP energy per Si atom -5574.607070 kJ/mol
# Density = 1.970813 g / cm^3
# Si number density = 19.753086 Si / 1000 Ang^3
#
#
#
# Elastic Constant Matrix: (Units=GPa)
#
#
# Indices 1 2 3 4 5 6 
#
# 1 82.1708 1.3989 42.6134 0.0000 0.0000 0.0000
# 2 1.3989 -9.1127 8.4019 0.0000 0.0000 0.0000
# 3 42.6134 8.4019 57.1103 0.0000 0.0000 0.0000
# 4 0.0000 0.0000 0.0000 17.3898 0.0000 0.0000
# 5 0.0000 0.0000 0.0000 0.0000 -6.4146 0.0000
# 6 0.0000 0.0000 0.0000 0.0000 0.0000 127.8330
#
#
#
# Elastic Compliance Matrix: (Units=1/GPa)
#
#
# Indices 1 2 3 4 5 6 
#
# 1 0.018987 -0.008936 -0.012853 0.000000 0.000000 0.000000
# 2 -0.008936 -0.092425 0.020265 0.000000 0.000000 0.000000
# 3 -0.012853 0.020265 0.024119 0.000000 0.000000 0.000000
# 4 0.000000 0.000000 0.000000 0.057505 0.000000 0.000000
# 5 0.000000 0.000000 0.000000 0.000000 -0.155895 0.000000
# 6 0.000000 0.000000 0.000000 0.000000 0.000000 0.007823
#
#
# Mechanical properties :
#
#
# Convention : Reuss Voigt Hill
#
# Bulk Modulus (GPa) = -19.09628 26.11077 3.50725
# Shear Modulus (GPa) = -32.40581 32.94527 0.26973
#
# Velocity S-wave (km/s) = -4.05476 4.08837 0.36993
# Velocity P-wave (km/s) = 5.62227 5.96101 1.40066
#
# Compressibility (1/GPa) = -0.05236623
#
# Stress axis : x y z
#
# Youngs Moduli (GPa) = 52.66640 -10.81962 41.46093
#
# Poissons Ratio (x) = -0.09668 0.53290
# Poissons Ratio (y) = 0.47061 -0.84020
# Poissons Ratio (z) = 0.67692 0.21926
#
# Static dielectric constant tensor:
#      x y z
#    x 1.694180 0.000000 0.000000 
#    y 0.000000 1.696250 0.000000 
#    z 0.000000 0.000000 1.751880 
# 
# From -- ./inp_files/20140.got.cif
#   From: 2010.05.17/outbox.ucp.g08.bks.cvg/sg53_11_cif.got.tgz:20140.got - 2010.06.11 16:32:34.
