data_PCOD9420700
_publ_section_title
;
Structure prediction by ZEFSAII (Michael W. Deem and Ramdas Pophale) SiO2 
 PCOD9420700
Probable space group: P C C A
;
_chemical_formula_sum "Si O2"
_cell_formula_units_Z 48
_cell_length_a 14.124775
_cell_length_b 6.780217
_cell_length_c 21.984350
_cell_angle_alpha 90.000000
_cell_angle_beta 90.000000
_cell_angle_gamma 90.000000
_cell_volume 2105.420085
_symmetry_space_group_name_H-M "P C C A"
_symmetry_group_IT_number 54
_symmetry_cell_setting 'orthorhombic'
loop_
_space_group_symop_operation_xyz
x,y,z
1/2-x,-y,z
1/2+x,-y,1/2-z
-x,y,1/2-z
-x,-y,-z
1/2+x,y,-z
1/2-x,y,1/2+z
x,-y,1/2+z
loop_
_atom_site_type_symbol
_atom_site_label
_atom_site_fract_x
_atom_site_fract_y
_atom_site_fract_z
Si Si1 0.838392 0.348863 0.236687
Si Si2 0.966213 0.463203 0.330794
Si Si3 0.512867 0.115800 0.181340
Si Si4 0.002893 0.803924 0.928940
Si Si5 0.657033 0.952518 0.515581
Si Si6 0.715141 0.271061 0.137617
O O1 0.750000 0.500000 0.243217
O O2 0.795646 0.200141 0.186165
O O3 0.884089 0.784553 0.170397
O O4 0.935657 0.417338 0.204311
O O5 0.944148 0.693599 0.322722
O O6 0.990371 0.408543 0.399562
O O7 0.880459 0.330272 0.304297
O O8 0.500000 0.034503 0.250000
O O9 0.496626 0.960253 0.127445
O O10 0.921657 0.840489 0.977595
O O11 0.102611 0.854537 0.959540
O O12 0.696836 0.827771 0.572612
O O13 0.750000 0.000000 0.477121
O O14 0.750000 0.500000 0.126886
#
# Coordination Sequence:
#
# PCOD9420700 Si02
#       6
#     8   8   8   8   8   8
#     4  10  18  34  61  95 124 155 208 248 308 386
#     4  11  20  38  64  88 131 164 194 264 319 368
#     4  11  20  37  64  91 127 159 199 262 313 376
#     4  10  25  42  62  95 122 167 218 251 317 375
#     4  10  22  45  62  85 129 164 215 271 293 368
#     4  10  18  36  63  91 116 160 216 249 303 379
#
# _framework density 22.798300000000001
#
# number of rings (size 3 to 8) (size 9 to 14) (size 15 to 20)
#    0.000    1.667    5.000    1.000    2.333    0.000 
#    9.000    2.500    3.667    0.000    0.000    0.000 
#    0.000    0.000    0.000    0.000    0.000    0.000 
#
# Total GULP energy -267256.170534 kJ/mol
# GULP energy per Si atom -5567.836886 kJ/mol
# Density = 2.274641 g / cm^3
# Si number density = 22.798300 Si / 1000 Ang^3
#
#
#
# Elastic Constant Matrix: (Units=GPa)
#
#
# Indices 1 2 3 4 5 6 
#
# 1 144.6375 14.2635 44.4953 0.0000 0.0000 0.0000
# 2 14.2635 63.4251 8.2679 0.0000 0.0000 0.0000
# 3 44.4953 8.2679 49.9244 0.0000 0.0000 0.0000
# 4 0.0000 0.0000 0.0000 18.9224 0.0000 0.0000
# 5 0.0000 0.0000 0.0000 0.0000 9.3610 0.0000
# 6 0.0000 0.0000 0.0000 0.0000 0.0000 21.1503
#
#
#
# Elastic Compliance Matrix: (Units=1/GPa)
#
#
# Indices 1 2 3 4 5 6 
#
# 1 0.009596 -0.001066 -0.008376 0.000000 0.000000 0.000000
# 2 -0.001066 0.016233 -0.001738 0.000000 0.000000 0.000000
# 3 -0.008376 -0.001738 0.027783 0.000000 0.000000 0.000000
# 4 0.000000 0.000000 0.000000 0.052847 0.000000 0.000000
# 5 0.000000 0.000000 0.000000 0.000000 0.106826 0.000000
# 6 0.000000 0.000000 0.000000 0.000000 0.000000 0.047281
#
#
# Mechanical properties :
#
#
# Convention : Reuss Voigt Hill
#
# Bulk Modulus (GPa) = 31.99814 43.56004 37.77909
# Shear Modulus (GPa) = 17.04496 22.61744 19.83120
#
# Velocity S-wave (km/s) = 2.73727 3.15313 2.95253
# Velocity P-wave (km/s) = 4.90469 5.69249 5.31321
#
# Compressibility (1/GPa) = 0.03125182
#
# Stress axis : x y z
#
# Youngs Moduli (GPa) = 104.21491 61.60309 35.99347
#
# Poissons Ratio (x) = 0.06568 0.30146
# Poissons Ratio (y) = 0.11111 0.06256
# Poissons Ratio (z) = 0.87285 0.10707
#
# Static dielectric constant tensor:
#      x y z
#    x 1.858470 0.000000 0.000000 
#    y 0.000000 2.002100 0.000000 
#    z 0.000000 0.000000 1.919010 
# 
# From -- ./inp_files/26460.got.cif
#   From: 2010.05.17/outbox.cif.g08.bks.cpg/sg54_14_cif.got.tgz:26460.got - 2010.06.03 13:09:01.
