data_PCOD9420468
_publ_section_title
;
Structure prediction by ZEFSAII (Michael W. Deem and Ramdas Pophale) SiO2 
 PCOD9420468
Probable space group: P C C A
;
_chemical_formula_sum "Si O2"
_cell_formula_units_Z 56
_cell_length_a 18.821493
_cell_length_b 5.511437
_cell_length_c 21.554169
_cell_angle_alpha 90.000000
_cell_angle_beta 90.000000
_cell_angle_gamma 90.000000
_cell_volume 2235.888806
_symmetry_space_group_name_H-M "P C C A"
_symmetry_group_IT_number 54
_symmetry_cell_setting 'orthorhombic'
loop_
_space_group_symop_operation_xyz
x,y,z
1/2-x,-y,z
1/2+x,-y,1/2-z
-x,y,1/2-z
-x,-y,-z
1/2+x,y,-z
1/2-x,y,1/2+z
x,-y,1/2+z
loop_
_atom_site_type_symbol
_atom_site_label
_atom_site_fract_x
_atom_site_fract_y
_atom_site_fract_z
Si Si1 0.938977 0.240506 0.950421
Si Si2 0.288915 0.749033 0.530221
Si Si3 0.592041 0.420942 0.677406
Si Si4 0.250000 0.000000 0.866799
Si Si5 0.984233 0.263306 0.424850
Si Si6 0.389432 0.918760 0.779959
Si Si7 0.750000 0.500000 0.628233
Si Si8 0.708738 0.251848 0.321343
O O1 0.869141 0.229430 0.992826
O O2 0.937947 0.496068 0.915043
O O3 0.002771 0.251914 0.000704
O O4 0.949103 0.995978 0.911143
O O5 0.250000 0.500000 0.515353
O O6 0.300531 0.736459 0.605331
O O7 0.250000 0.000000 0.520849
O O8 0.553544 0.314566 0.616404
O O9 0.565299 0.696948 0.690164
O O10 0.676658 0.469797 0.666595
O O11 0.581905 0.195048 0.725219
O O12 0.180369 0.031109 0.823752
O O13 0.249229 0.244597 0.905706
O O14 0.362273 0.791641 0.717499
O O15 0.750000 0.500000 0.302376
O O16 0.750000 0.000000 0.308085
#
# Coordination Sequence:
#
# PCOD9420468 Si02
#       8
#     8   8   8   4   8   8   4   8
#     4  10  21  40  64  82 109 147 193 238 276 340
#     4  10  21  38  61  89 115 140 182 244 297 323
#     4  10  19  31  49  78 112 146 184 227 273 325
#     4   8  14  22  38  60  92 140 166 200 250 310
#     4  10  21  38  62  84 106 153 199 222 272 351
#     4  10  17  27  47  71 111 143 178 225 268 322
#     4   8  16  26  40  66 104 138 166 210 266 306
#     4  10  19  30  51  79 109 149 189 223 277 342
#
# _framework density 25.045968999999999
#
# number of rings (size 3 to 8) (size 9 to 14) (size 15 to 20)
#    0.000    2.286    0.714    2.571    4.000    0.000 
#    1.286    0.000    6.286    5.143    0.000    0.000 
#    0.000    0.000    0.000    0.000    0.000    0.000 
#
# Total GULP energy -312282.694247 kJ/mol
# GULP energy per Si atom -5576.476683 kJ/mol
# Density = 2.498896 g / cm^3
# Si number density = 25.045969 Si / 1000 Ang^3
#
#
#
# Elastic Constant Matrix: (Units=GPa)
#
#
# Indices 1 2 3 4 5 6 
#
# 1 69.5617 43.1810 -5.4004 0.0000 0.0000 0.0000
# 2 43.1810 306.6398 36.8773 0.0000 0.0000 0.0000
# 3 -5.4004 36.8773 62.6110 0.0000 0.0000 0.0000
# 4 0.0000 0.0000 0.0000 10.3034 0.0000 0.0000
# 5 0.0000 0.0000 0.0000 0.0000 17.8126 0.0000
# 6 0.0000 0.0000 0.0000 0.0000 0.0000 33.6396
#
#
#
# Elastic Compliance Matrix: (Units=1/GPa)
#
#
# Indices 1 2 3 4 5 6 
#
# 1 0.016246 -0.002644 0.002958 0.000000 0.000000 0.000000
# 2 -0.002644 0.003940 -0.002549 0.000000 0.000000 0.000000
# 3 0.002958 -0.002549 0.017728 0.000000 0.000000 0.000000
# 4 0.000000 0.000000 0.000000 0.097055 0.000000 0.000000
# 5 0.000000 0.000000 0.000000 0.000000 0.056140 0.000000
# 6 0.000000 0.000000 0.000000 0.000000 0.000000 0.029727
#
#
# Mechanical properties :
#
#
# Convention : Reuss Voigt Hill
#
# Bulk Modulus (GPa) = 29.89844 65.34758 47.62301
# Shear Modulus (GPa) = 21.14588 36.62811 28.88699
#
# Velocity S-wave (km/s) = 2.90881 3.82833 3.39980
# Velocity P-wave (km/s) = 4.82129 6.75938 5.87086
#
# Compressibility (1/GPa) = 0.03344656
#
# Stress axis : x y z
#
# Youngs Moduli (GPa) = 61.55202 253.81182 56.40828
#
# Poissons Ratio (x) = 0.67098 -0.16688
# Poissons Ratio (y) = 0.16272 0.14376
# Poissons Ratio (z) = -0.18209 0.64686
#
# Static dielectric constant tensor:
#      x y z
#    x 1.513890 0.000000 0.000000 
#    y 0.000000 3.575980 0.000000 
#    z 0.000000 0.000000 2.010880 
# 
# From -- ./inp_files/24761.got.cif
#   From: 2010.05.17/outbox.cif.g08.bks.cpg/sg54_13_cif.got.tgz:24761.got - 2010.06.03 13:09:01.
