data_PCOD9420556
_publ_section_title
;
Structure prediction by ZEFSAII (Michael W. Deem and Ramdas Pophale) SiO2 
 PCOD9420556
Probable space group: P C C A
;
_chemical_formula_sum "Si O2"
_cell_formula_units_Z 64
_cell_length_a 12.390821
_cell_length_b 7.671137
_cell_length_c 29.741168
_cell_angle_alpha 90.000000
_cell_angle_beta 90.000000
_cell_angle_gamma 90.000000
_cell_volume 2826.948145
_symmetry_space_group_name_H-M "P C C A"
_symmetry_group_IT_number 54
_symmetry_cell_setting 'orthorhombic'
loop_
_space_group_symop_operation_xyz
x,y,z
1/2-x,-y,z
1/2+x,-y,1/2-z
-x,y,1/2-z
-x,-y,-z
1/2+x,y,-z
1/2-x,y,1/2+z
x,-y,1/2+z
loop_
_atom_site_type_symbol
_atom_site_label
_atom_site_fract_x
_atom_site_fract_y
_atom_site_fract_z
Si Si1 0.483675 0.324780 0.401968
Si Si2 0.649166 0.871117 0.377681
Si Si3 0.286622 0.696228 0.547551
Si Si4 0.011896 0.740185 0.200654
Si Si5 0.571406 0.737767 0.116866
Si Si6 0.238254 0.310183 0.201714
Si Si7 0.761542 0.288569 0.551249
Si Si8 0.909469 0.647610 0.717373
O O1 0.596869 0.290806 0.428004
O O2 0.479787 0.236961 0.352012
O O3 0.470792 0.537939 0.394750
O O4 0.383710 0.260212 0.432277
O O5 0.697064 0.763225 0.418605
O O6 0.523554 0.878648 0.389352
O O7 0.650786 0.782768 0.328749
O O8 0.750000 0.000000 0.372440
O O9 0.250000 0.500000 0.540433
O O10 0.273505 0.777697 0.498040
O O11 0.141385 0.756172 0.197695
O O12 0.000000 0.831821 0.250000
O O13 0.952625 0.551348 0.209386
O O14 0.674428 0.777735 0.086885
O O15 0.603776 0.731222 0.169114
O O16 0.250000 0.500000 0.180196
O O17 0.197050 0.333285 0.252318
O O18 0.750000 0.500000 0.552453
O O19 0.000000 0.727041 0.750000
#
# Coordination Sequence:
#
# PCOD9420556 Si02
#       8
#     8   8   8   8   8   8   8   8
#     4  10  19  35  57  93 127 151 198 249 312 373
#     4  12  25  39  59  85 117 160 209 253 302 362
#     4  11  21  37  64  88 117 157 200 260 307 364
#     4  10  19  28  50  88 123 150 183 241 295 357
#     4  10  20  37  57  87 129 156 193 250 316 364
#     4  12  19  34  59  88 117 150 199 243 304 355
#     4   9  22  33  58  95 123 156 191 254 319 373
#     4  10  18  29  53  88 117 148 188 238 294 357
#
# _framework density 22.639253
#
# number of rings (size 3 to 8) (size 9 to 14) (size 15 to 20)
#    0.000    1.500    6.250    1.125    3.500    2.000 
#    0.000    0.625    2.750    0.000    0.000    0.000 
#    0.000    0.000    0.000    0.000    0.000    0.000 
#
# Total GULP energy -356314.674652 kJ/mol
# GULP energy per Si atom -5567.416791 kJ/mol
# Density = 2.258772 g / cm^3
# Si number density = 22.639253 Si / 1000 Ang^3
#
#
#
# Elastic Constant Matrix: (Units=GPa)
#
#
# Indices 1 2 3 4 5 6 
#
# 1 110.3841 9.0061 65.8875 0.0000 0.0000 0.0000
# 2 9.0061 28.3045 19.3494 0.0000 0.0000 0.0000
# 3 65.8875 19.3494 179.4553 0.0000 0.0000 0.0000
# 4 0.0000 0.0000 0.0000 24.2362 0.0000 0.0000
# 5 0.0000 0.0000 0.0000 0.0000 27.0557 0.0000
# 6 0.0000 0.0000 0.0000 0.0000 0.0000 9.8698
#
#
#
# Elastic Compliance Matrix: (Units=1/GPa)
#
#
# Indices 1 2 3 4 5 6 
#
# 1 0.011620 -0.000843 -0.004176 0.000000 0.000000 0.000000
# 2 -0.000843 0.038203 -0.003810 0.000000 0.000000 0.000000
# 3 -0.004176 -0.003810 0.007516 0.000000 0.000000 0.000000
# 4 0.000000 0.000000 0.000000 0.041261 0.000000 0.000000
# 5 0.000000 0.000000 0.000000 0.000000 0.036961 0.000000
# 6 0.000000 0.000000 0.000000 0.000000 0.000000 0.101320
#
#
# Mechanical properties :
#
#
# Convention : Reuss Voigt Hill
#
# Bulk Modulus (GPa) = 25.19973 56.29224 40.74598
# Shear Modulus (GPa) = 18.67313 27.15905 22.91609
#
# Velocity S-wave (km/s) = 2.87507 3.46735 3.18500
# Velocity P-wave (km/s) = 4.70920 6.39913 5.61807
#
# Compressibility (1/GPa) = 0.03968296
#
# Stress axis : x y z
#
# Youngs Moduli (GPa) = 86.05535 26.17620 133.04490
#
# Poissons Ratio (x) = 0.02207 0.55554
# Poissons Ratio (y) = 0.07254 0.50685
# Poissons Ratio (z) = 0.35933 0.09972
#
# Static dielectric constant tensor:
#      x y z
#    x 1.720000 0.000000 0.000000 
#    y 0.000000 1.958430 0.000000 
#    z 0.000000 0.000000 1.991280 
# 
# From -- ./inp_files/28138.got.cif
#   From: 2010.05.17/outbox.cif.g08.bks.cpg/sg54_15_cif.got.tgz:28138.got - 2010.06.03 13:09:01.
