data_PCOD9420144
_publ_section_title
;
Structure prediction by ZEFSAII (Michael W. Deem and Ramdas Pophale) SiO2 
 PCOD9420144
Probable space group: P M N A
;
_chemical_formula_sum "Si O2"
_cell_formula_units_Z 48
_cell_length_a 9.000000
_cell_length_b 12.000000
_cell_length_c 24.000000
_cell_angle_alpha 90.000000
_cell_angle_beta 90.000000
_cell_angle_gamma 90.000000
_cell_volume 2592.000000
_symmetry_space_group_name_H-M "P M N A"
_symmetry_group_IT_number 53
_symmetry_cell_setting 'orthorhombic'
loop_
_space_group_symop_operation_xyz
x,y,z
1/2-x,-y,1/2+z
x,-y,-z
1/2-x,y,1/2-z
-x,-y,-z
1/2+x,y,1/2-z
-x,y,z
1/2+x,-y,1/2+z
loop_
_atom_site_type_symbol
_atom_site_label
_atom_site_fract_x
_atom_site_fract_y
_atom_site_fract_z
Si Si1 0.664714 0.351548 0.474965
Si Si2 0.672976 0.293880 0.920090
Si Si3 0.675030 0.939407 0.443621
Si Si4 0.171904 0.685340 0.694865
Si Si5 0.328149 0.490731 0.633060
Si Si6 0.833983 0.834975 0.887254
O O1 0.500000 0.366414 0.500984
O O2 0.790778 0.352652 0.520703
O O3 0.680334 0.439750 0.425305
O O4 0.666317 0.230679 0.445896
O O5 0.500000 0.290295 0.909178
O O6 0.740280 0.171186 0.926511
O O7 0.755749 0.371127 0.875620
O O8 0.500000 0.913589 0.451690
O O9 0.730172 0.000000 0.500000
O O10 0.685527 0.035366 0.397160
O O11 0.250000 0.726203 0.750000
O O12 0.244161 0.569165 0.676172
O O13 0.209006 0.776064 0.648200
O O14 0.000000 0.670357 0.703006
O O15 0.500000 0.481918 0.647808
O O16 0.000000 0.812328 0.863471
#
# Coordination Sequence:
#
# PCOD9420144 Si02
#       6
#     8   8   8   8   8   8
#     4   9  17  32  51  72 102 144 185 221 261 318
#     4  12  23  31  46  76 113 147 182 224 270 318
#     4  10  19  35  55  74 105 153 195 222 260 322
#     4  11  22  38  61  86 111 136 172 223 280 330
#     4  10  21  37  55  75 103 141 184 224 269 324
#     4   9  18  34  56  80 107 142 187 228 267 316
#
# _framework density 18.518519000000001
#
# number of rings (size 3 to 8) (size 9 to 14) (size 15 to 20)
#    0.000    1.833    1.667    5.000    0.000    6.333 
#    0.000    0.000    0.000    1.000    0.000    2.333 
#    0.000    0.000    0.000    0.000    0.000    0.000 
#
# Total GULP energy -267772.495151 kJ/mol
# GULP energy per Si atom -5578.593649 kJ/mol
# Density = 1.847637 g / cm^3
# Si number density = 18.518519 Si / 1000 Ang^3
#
#
#
# Elastic Constant Matrix: (Units=GPa)
#
#
# Indices 1 2 3 4 5 6 
#
# 1 110.3741 33.3866 17.7995 0.0000 0.0000 0.0000
# 2 33.3866 74.0804 1.6679 0.0000 0.0000 0.0000
# 3 17.7995 1.6679 22.6434 0.0000 0.0000 0.0000
# 4 0.0000 0.0000 0.0000 4.8643 0.0000 0.0000
# 5 0.0000 0.0000 0.0000 0.0000 23.2767 0.0000
# 6 0.0000 0.0000 0.0000 0.0000 0.0000 23.0570
#
#
#
# Elastic Compliance Matrix: (Units=1/GPa)
#
#
# Indices 1 2 3 4 5 6 
#
# 1 0.012125 -0.005259 -0.009144 0.000000 0.000000 0.000000
# 2 -0.005259 0.015802 0.002970 0.000000 0.000000 0.000000
# 3 -0.009144 0.002970 0.051132 0.000000 0.000000 0.000000
# 4 0.000000 0.000000 0.000000 0.205581 0.000000 0.000000
# 5 0.000000 0.000000 0.000000 0.000000 0.042961 0.000000
# 6 0.000000 0.000000 0.000000 0.000000 0.000000 0.043371
#
#
# Mechanical properties :
#
#
# Convention : Reuss Voigt Hill
#
# Bulk Modulus (GPa) = 17.79568 34.75622 26.27595
# Shear Modulus (GPa) = 12.11914 20.52251 16.32082
#
# Velocity S-wave (km/s) = 2.56097 3.33260 2.97193
# Velocity P-wave (km/s) = 4.28664 5.79805 5.09866
#
# Compressibility (1/GPa) = 0.05619342
#
# Stress axis : x y z
#
# Youngs Moduli (GPa) = 82.47111 63.28308 19.55711
#
# Poissons Ratio (x) = 0.33279 0.17883
# Poissons Ratio (y) = 0.43370 -0.05808
# Poissons Ratio (z) = 0.75413 -0.18794
#
# Static dielectric constant tensor:
#      x y z
#    x 1.625060 0.000000 0.000000 
#    y 0.000000 1.657770 0.000000 
#    z 0.000000 0.000000 1.810960 
# 
# From -- ./inp_files/33868.got.cif
#   From: 2010.05.17/outbox.ucp.g08.bks.cvg/sg53_17_cif.got.tgz:33868.got - 2010.06.11 16:32:34.
