data_PCOD9420841
_publ_section_title
;
Structure prediction by ZEFSAII (Michael W. Deem and Ramdas Pophale) SiO2 
 PCOD9420841
Probable space group: P C C A
;
_chemical_formula_sum "Si O2"
_cell_formula_units_Z 36
_cell_length_a 23.916578
_cell_length_b 15.323600
_cell_length_c 5.356129
_cell_angle_alpha 90.000000
_cell_angle_beta 90.000000
_cell_angle_gamma 90.000000
_cell_volume 1962.957405
_symmetry_space_group_name_H-M "P C C A"
_symmetry_group_IT_number 54
_symmetry_cell_setting 'orthorhombic'
loop_
_space_group_symop_operation_xyz
x,y,z
1/2-x,-y,z
1/2+x,-y,1/2-z
-x,y,1/2-z
-x,-y,-z
1/2+x,y,-z
1/2-x,y,1/2+z
x,-y,1/2+z
loop_
_atom_site_type_symbol
_atom_site_label
_atom_site_fract_x
_atom_site_fract_y
_atom_site_fract_z
Si Si1 0.894118 0.178160 0.765168
Si Si2 0.063498 0.533122 0.558492
Si Si3 0.500000 0.944948 0.750000
Si Si4 0.273491 0.899407 0.764037
Si Si5 0.933908 0.267458 0.264346
O O1 0.945703 0.113331 0.767296
O O2 0.838290 0.119630 0.784913
O O3 0.901037 0.224801 0.496903
O O4 0.904432 0.242008 0.002762
O O5 0.089036 0.525767 0.280674
O O6 0.064175 0.630073 0.669166
O O7 0.000000 0.500000 0.500000
O O8 0.500000 0.000000 0.500000
O O9 0.241058 0.859464 0.530785
O O10 0.250000 0.000000 0.780261
O O11 0.000000 0.239101 0.250000
#
# Coordination Sequence:
#
# PCOD9420841 Si02
#       5
#     8   8   4   8   8
#     4  12  25  40  58  87 120 160 203 254 317 361
#     4  10  19  30  53  83 123 176 199 217 264 360
#     4  12  26  36  56  80 120 154 196 240 302 394
#     4  10  23  42  64  82 105 149 213 274 308 351
#     4  12  21  37  56  88 133 168 187 236 298 368
#
# _framework density 18.339675
#
# number of rings (size 3 to 8) (size 9 to 14) (size 15 to 20)
#    0.000    0.889    4.444    4.000    9.333    0.000 
#    0.000    0.000    0.000    0.000    0.000    0.000 
#    0.000   62.222    0.000    0.000    0.000    0.000 
#
# Total GULP energy -200542.066729 kJ/mol
# GULP energy per Si atom -5570.612965 kJ/mol
# Density = 1.829793 g / cm^3
# Si number density = 18.339675 Si / 1000 Ang^3
#
#
#
# Elastic Constant Matrix: (Units=GPa)
#
#
# Indices 1 2 3 4 5 6 
#
# 1 69.0224 35.7314 -6.6300 0.0000 0.0000 0.0000
# 2 35.7314 89.0734 40.1408 0.0000 0.0000 0.0000
# 3 -6.6300 40.1408 163.6937 0.0000 0.0000 0.0000
# 4 0.0000 0.0000 0.0000 27.2387 0.0000 0.0000
# 5 0.0000 0.0000 0.0000 0.0000 23.6849 0.0000
# 6 0.0000 0.0000 0.0000 0.0000 0.0000 17.8108
#
#
#
# Elastic Compliance Matrix: (Units=1/GPa)
#
#
# Indices 1 2 3 4 5 6 
#
# 1 0.019554 -0.009220 0.003053 0.000000 0.000000 0.000000
# 2 -0.009220 0.016969 -0.004534 0.000000 0.000000 0.000000
# 3 0.003053 -0.004534 0.007345 0.000000 0.000000 0.000000
# 4 0.000000 0.000000 0.000000 0.036712 0.000000 0.000000
# 5 0.000000 0.000000 0.000000 0.000000 0.042221 0.000000
# 6 0.000000 0.000000 0.000000 0.000000 0.000000 0.056146
#
#
# Mechanical properties :
#
#
# Convention : Reuss Voigt Hill
#
# Bulk Modulus (GPa) = 44.51460 51.14155 47.82808
# Shear Modulus (GPa) = 24.05722 30.58336 27.32029
#
# Velocity S-wave (km/s) = 3.62575 4.08806 3.86383
# Velocity P-wave (km/s) = 6.46940 7.08726 6.78537
#
# Compressibility (1/GPa) = 0.02246454
#
# Stress axis : x y z
#
# Youngs Moduli (GPa) = 51.13986 58.93223 136.15531
#
# Poissons Ratio (x) = 0.54335 -0.41567
# Poissons Ratio (y) = 0.47150 0.61739
# Poissons Ratio (z) = -0.15612 0.26723
#
# Static dielectric constant tensor:
#      x y z
#    x 1.637590 0.000000 0.000000 
#    y 0.000000 1.643220 0.000000 
#    z 0.000000 0.000000 1.760290 
# 
# From -- ./inp_files/1219.got.cif
#   From: 2010.05.17/outbox.cif.g08.bks.cpg/sg54_1_cif.got.tgz:1219.got - 2010.06.03 13:09:01.
