data_PCOD9420838
_publ_section_title
;
Structure prediction by ZEFSAII (Michael W. Deem and Ramdas Pophale) SiO2 
 PCOD9420838
Probable space group: P C C A
;
_chemical_formula_sum "Si O2"
_cell_formula_units_Z 36
_cell_length_a 20.908948
_cell_length_b 15.872557
_cell_length_c 5.269843
_cell_angle_alpha 90.000000
_cell_angle_beta 90.000000
_cell_angle_gamma 90.000000
_cell_volume 1748.947426
_symmetry_space_group_name_H-M "P C C A"
_symmetry_group_IT_number 54
_symmetry_cell_setting 'orthorhombic'
loop_
_space_group_symop_operation_xyz
x,y,z
1/2-x,-y,z
1/2+x,-y,1/2-z
-x,y,1/2-z
-x,-y,-z
1/2+x,y,-z
1/2-x,y,1/2+z
x,-y,1/2+z
loop_
_atom_site_type_symbol
_atom_site_label
_atom_site_fract_x
_atom_site_fract_y
_atom_site_fract_z
Si Si1 0.821229 0.464837 0.079893
Si Si2 0.500000 0.557323 0.250000
Si Si3 0.883394 0.689011 0.744479
Si Si4 0.572601 0.033299 0.054012
Si Si5 0.074509 0.775127 0.254950
O O1 0.750000 0.500000 0.040025
O O2 0.851757 0.521960 0.302907
O O3 0.822982 0.369023 0.173538
O O4 0.500000 0.500000 0.500000
O O5 0.439858 0.620055 0.266233
O O6 0.897241 0.756246 0.522391
O O7 0.886805 0.727841 0.023481
O O8 0.572988 0.127323 0.161601
O O9 0.602438 0.975870 0.275252
O O10 0.500000 0.000000 0.000000
O O11 0.000000 0.746478 0.250000
#
# Coordination Sequence:
#
# PCOD9420838 Si02
#       5
#     8   4   8   8   8
#     4  10  21  40  62  78  98 140 190 239 294 341
#     4  12  22  32  46  66 100 140 176 214 264 332
#     4  12  23  35  51  76 110 141 186 239 282 323
#     4  10  19  30  50  69 100 151 206 212 246 324
#     4  12  21  34  49  76 111 152 189 225 273 321
#
# _framework density 20.583807
#
# number of rings (size 3 to 8) (size 9 to 14) (size 15 to 20)
#    0.000    0.889    4.444    5.333    3.111    0.000 
#    0.000    0.000    0.000    0.000    0.000    0.000 
#    0.000    0.000    0.000  280.000    0.000   15.556 
#
# Total GULP energy -200918.867229 kJ/mol
# GULP energy per Si atom -5581.079645 kJ/mol
# Density = 2.053696 g / cm^3
# Si number density = 20.583807 Si / 1000 Ang^3
#
#
#
# Elastic Constant Matrix: (Units=GPa)
#
#
# Indices 1 2 3 4 5 6 
#
# 1 33.9661 11.8318 -7.7633 0.0000 0.0000 0.0000
# 2 11.8318 99.7970 26.1930 0.0000 0.0000 0.0000
# 3 -7.7633 26.1930 165.1541 0.0000 0.0000 0.0000
# 4 0.0000 0.0000 0.0000 49.8605 0.0000 0.0000
# 5 0.0000 0.0000 0.0000 0.0000 12.6380 0.0000
# 6 0.0000 0.0000 0.0000 0.0000 0.0000 16.8783
#
#
#
# Elastic Compliance Matrix: (Units=1/GPa)
#
#
# Indices 1 2 3 4 5 6 
#
# 1 0.031430 -0.004293 0.002158 0.000000 0.000000 0.000000
# 2 -0.004293 0.011042 -0.001953 0.000000 0.000000 0.000000
# 3 0.002158 -0.001953 0.006466 0.000000 0.000000 0.000000
# 4 0.000000 0.000000 0.000000 0.020056 0.000000 0.000000
# 5 0.000000 0.000000 0.000000 0.000000 0.079126 0.000000
# 6 0.000000 0.000000 0.000000 0.000000 0.000000 0.059248
#
#
# Mechanical properties :
#
#
# Convention : Reuss Voigt Hill
#
# Bulk Modulus (GPa) = 24.53222 39.93780 32.23501
# Shear Modulus (GPa) = 21.82166 33.78575 27.80371
#
# Velocity S-wave (km/s) = 3.25951 4.05578 3.67925
# Velocity P-wave (km/s) = 5.10979 6.43251 5.80892
#
# Compressibility (1/GPa) = 0.04076272
#
# Stress axis : x y z
#
# Youngs Moduli (GPa) = 31.81702 90.56437 154.65169
#
# Poissons Ratio (x) = 0.38877 -0.33377
# Poissons Ratio (y) = 0.13658 0.30203
# Poissons Ratio (z) = -0.06867 0.17687
#
# Static dielectric constant tensor:
#      x y z
#    x 2.034820 0.000000 0.000000 
#    y 0.000000 1.761990 0.000000 
#    z 0.000000 0.000000 1.888070 
# 
# From -- ./inp_files/1589.got.cif
#   From: 2010.05.17/outbox.cif.g08.bks.cpg/sg54_1_cif.got.tgz:1589.got - 2010.06.03 13:09:01.
