data_PCOD9420805
_publ_section_title
;
Structure prediction by ZEFSAII (Michael W. Deem and Ramdas Pophale) SiO2 
 PCOD9420805
Probable space group: P C C A
;
_chemical_formula_sum "Si O2"
_cell_formula_units_Z 56
_cell_length_a 12.176013
_cell_length_b 15.750731
_cell_length_c 14.106503
_cell_angle_alpha 90.000000
_cell_angle_beta 90.000000
_cell_angle_gamma 90.000000
_cell_volume 2705.360739
_symmetry_space_group_name_H-M "P C C A"
_symmetry_group_IT_number 54
_symmetry_cell_setting 'orthorhombic'
loop_
_space_group_symop_operation_xyz
x,y,z
1/2-x,-y,z
1/2+x,-y,1/2-z
-x,y,1/2-z
-x,-y,-z
1/2+x,y,-z
1/2-x,y,1/2+z
x,-y,1/2+z
loop_
_atom_site_type_symbol
_atom_site_label
_atom_site_fract_x
_atom_site_fract_y
_atom_site_fract_z
Si Si1 0.623178 0.795574 0.240112
Si Si2 0.705720 0.095223 0.354726
Si Si3 0.423754 0.677462 0.613980
Si Si4 0.209486 0.782661 0.970547
Si Si5 0.250000 0.500000 0.330242
Si Si6 0.000000 0.826635 0.250000
Si Si7 0.362335 0.629294 0.966939
Si Si8 0.812613 0.616654 0.818858
O O1 0.500000 0.826985 0.250000
O O2 0.701522 0.848204 0.306998
O O3 0.670765 0.801499 0.134692
O O4 0.630163 0.699855 0.278031
O O5 0.698560 0.136072 0.460338
O O6 0.599360 0.111941 0.286344
O O7 0.750000 0.000000 0.358232
O O8 0.371092 0.715080 0.519078
O O9 0.485462 0.755388 0.666746
O O10 0.518735 0.616105 0.579150
O O11 0.319258 0.640985 0.672506
O O12 0.323605 0.728860 0.969451
O O13 0.215742 0.576620 0.397801
O O14 0.166533 0.458170 0.255071
O O15 0.351577 0.598244 0.074785
#
# Coordination Sequence:
#
# PCOD9420805 Si02
#       8
#     8   8   8   8   4   4   8   8
#     4  12  23  44  71  99 136 179 222 278 346 408
#     4  11  25  44  69 106 135 175 229 277 333 407
#     4  10  20  40  70  95 121 185 228 264 330 413
#     4  10  22  42  67  95 134 176 217 276 338 400
#     4  12  24  40  62  96 136 164 232 278 326 390
#     4  10  18  40  70  94 134 176 222 274 326 398
#     4  11  21  41  66  91 130 174 219 274 330 395
#     4  11  23  44  62  98 135 170 227 275 331 407
#
# _framework density 20.699642999999998
#
# number of rings (size 3 to 8) (size 9 to 14) (size 15 to 20)
#    0.000    1.143    5.714    3.000    1.000    0.571 
#    2.571    4.286    0.000    0.000    0.000    0.000 
#    0.000    0.000    0.000    0.000    0.000    0.000 
#
# Total GULP energy -312096.425572 kJ/mol
# GULP energy per Si atom -5573.150457 kJ/mol
# Density = 2.065253 g / cm^3
# Si number density = 20.699643 Si / 1000 Ang^3
#
#
#
# Elastic Constant Matrix: (Units=GPa)
#
#
# Indices 1 2 3 4 5 6 
#
# 1 69.9718 -2.4847 15.8612 0.0000 0.0000 0.0000
# 2 -2.4847 63.1879 10.5082 0.0000 0.0000 0.0000
# 3 15.8612 10.5082 120.7781 0.0000 0.0000 0.0000
# 4 0.0000 0.0000 0.0000 14.8694 0.0000 0.0000
# 5 0.0000 0.0000 0.0000 0.0000 96.9462 0.0000
# 6 0.0000 0.0000 0.0000 0.0000 0.0000 9.0384
#
#
#
# Elastic Compliance Matrix: (Units=1/GPa)
#
#
# Indices 1 2 3 4 5 6 
#
# 1 0.014782 0.000917 -0.002021 0.000000 0.000000 0.000000
# 2 0.000917 0.016115 -0.001523 0.000000 0.000000 0.000000
# 3 -0.002021 -0.001523 0.008678 0.000000 0.000000 0.000000
# 4 0.000000 0.000000 0.000000 0.067252 0.000000 0.000000
# 5 0.000000 0.000000 0.000000 0.000000 0.010315 0.000000
# 6 0.000000 0.000000 0.000000 0.000000 0.000000 0.110639
#
#
# Mechanical properties :
#
#
# Convention : Reuss Voigt Hill
#
# Bulk Modulus (GPa) = 29.13559 33.52302 31.32931
# Shear Modulus (GPa) = 20.45203 39.50768 29.97986
#
# Velocity S-wave (km/s) = 3.14672 4.37351 3.80982
# Velocity P-wave (km/s) = 5.22574 6.46015 5.87546
#
# Compressibility (1/GPa) = 0.03432228
#
# Stress axis : x y z
#
# Youngs Moduli (GPa) = 67.64902 62.05365 115.24017
#
# Poissons Ratio (x) = -0.05693 0.23291
# Poissons Ratio (y) = -0.06206 0.17546
# Poissons Ratio (z) = 0.13672 0.09448
#
# Static dielectric constant tensor:
#      x y z
#    x 1.795790 0.000000 0.000000 
#    y 0.000000 1.793720 0.000000 
#    z 0.000000 0.000000 1.693910 
# 
# From -- ./inp_files/12776.got.cif
#   From: 2010.05.17/outbox.cif.g08.bks.cpg/sg54_7_cif.got.tgz:12776.got - 2010.06.03 13:09:01.
