data_PCOD9420674
_publ_section_title
;
Structure prediction by ZEFSAII (Michael W. Deem and Ramdas Pophale) SiO2 
 PCOD9420674
Probable space group: P C C A
;
_chemical_formula_sum "Si O2"
_cell_formula_units_Z 36
_cell_length_a 10.034001
_cell_length_b 9.015758
_cell_length_c 21.150793
_cell_angle_alpha 90.000000
_cell_angle_beta 90.000000
_cell_angle_gamma 90.000000
_cell_volume 1913.387977
_symmetry_space_group_name_H-M "P C C A"
_symmetry_group_IT_number 54
_symmetry_cell_setting 'orthorhombic'
loop_
_space_group_symop_operation_xyz
x,y,z
1/2-x,-y,z
1/2+x,-y,1/2-z
-x,y,1/2-z
-x,-y,-z
1/2+x,y,-z
1/2-x,y,1/2+z
x,-y,1/2+z
loop_
_atom_site_type_symbol
_atom_site_label
_atom_site_fract_x
_atom_site_fract_y
_atom_site_fract_z
Si Si1 0.500000 0.346681 0.250000
Si Si2 0.464561 0.334951 0.977436
Si Si3 0.799363 0.167970 0.542397
Si Si4 0.232405 0.171737 0.805255
Si Si5 0.602979 0.579412 0.157990
O O1 0.625365 0.241499 0.241585
O O2 0.511969 0.456819 0.190659
O O3 0.313065 0.278589 0.985478
O O4 0.469886 0.352146 0.902027
O O5 0.500000 0.500000 0.000000
O O6 0.563504 0.218048 0.010052
O O7 0.807055 0.182757 0.619320
O O8 0.750000 0.000000 0.530143
O O9 0.358677 0.279990 0.799342
O O10 0.250000 0.000000 0.792091
O O11 0.750000 0.500000 0.144559
#
# Coordination Sequence:
#
# PCOD9420674 Si02
#       5
#     4   8   8   8   8
#     4  10  18  34  56  74 102 144 186 224 270 332
#     4  11  19  34  58  83 110 146 186 225 275 333
#     4  10  21  37  58  84 116 148 183 230 282 336
#     4   9  19  36  57  79 106 145 185 226 282 331
#     4   9  19  35  54  78 108 144 182 230 283 330
#
# _framework density 18.814793999999999
#
# number of rings (size 3 to 8) (size 9 to 14) (size 15 to 20)
#    0.000    2.222    0.000    5.333    0.000    0.889 
#    0.000   13.333    0.000    6.667    0.000    0.000 
#    0.000    0.000    0.000    0.000    0.000    0.000 
#
# Total GULP energy -200403.576167 kJ/mol
# GULP energy per Si atom -5566.766005 kJ/mol
# Density = 1.877197 g / cm^3
# Si number density = 18.814794 Si / 1000 Ang^3
#
#
#
# Elastic Constant Matrix: (Units=GPa)
#
#
# Indices 1 2 3 4 5 6 
#
# 1 71.2757 24.8663 39.4928 0.0000 0.0000 0.0000
# 2 24.8663 132.3208 19.5204 0.0000 0.0000 0.0000
# 3 39.4928 19.5204 36.8693 0.0000 0.0000 0.0000
# 4 0.0000 0.0000 0.0000 36.3208 0.0000 0.0000
# 5 0.0000 0.0000 0.0000 0.0000 34.4748 0.0000
# 6 0.0000 0.0000 0.0000 0.0000 0.0000 22.0702
#
#
#
# Elastic Compliance Matrix: (Units=1/GPa)
#
#
# Indices 1 2 3 4 5 6 
#
# 1 0.034669 -0.001125 -0.036540 0.000000 0.000000 0.000000
# 2 -0.001125 0.008234 -0.003155 0.000000 0.000000 0.000000
# 3 -0.036540 -0.003155 0.067934 0.000000 0.000000 0.000000
# 4 0.000000 0.000000 0.000000 0.027532 0.000000 0.000000
# 5 0.000000 0.000000 0.000000 0.000000 0.029007 0.000000
# 6 0.000000 0.000000 0.000000 0.000000 0.000000 0.045310
#
#
# Mechanical properties :
#
#
# Convention : Reuss Voigt Hill
#
# Bulk Modulus (GPa) = 34.25022 45.35831 39.80426
# Shear Modulus (GPa) = 16.44423 29.01226 22.72824
#
# Velocity S-wave (km/s) = 2.95957 3.93108 3.47940
# Velocity P-wave (km/s) = 5.47011 6.69064 6.11092
#
# Compressibility (1/GPa) = 0.02919690
#
# Stress axis : x y z
#
# Youngs Moduli (GPa) = 28.84432 121.44542 14.72022
#
# Poissons Ratio (x) = 0.13657 0.53788
# Poissons Ratio (y) = 0.03244 0.04644
# Poissons Ratio (z) = 1.05398 0.38316
#
# Static dielectric constant tensor:
#      x y z
#    x 1.572200 0.000000 0.000000 
#    y 0.000000 1.663840 0.000000 
#    z 0.000000 0.000000 1.914220 
# 
# From -- ./inp_files/20137.got.cif
#   From: 2010.05.17/outbox.cif.g08.bks.cpg/sg54_11_cif.got.tgz:20137.got - 2010.06.03 13:09:01.
