data_PCOD9420246
_publ_section_title
;
Structure prediction by ZEFSAII (Michael W. Deem and Ramdas Pophale) SiO2 
 PCOD9420246
Probable space group: P M N A
;
_chemical_formula_sum "Si O2"
_cell_formula_units_Z 48
_cell_length_a 9.000000
_cell_length_b 30.000000
_cell_length_c 9.000000
_cell_angle_alpha 90.000000
_cell_angle_beta 90.000000
_cell_angle_gamma 90.000000
_cell_volume 2430.000000
_symmetry_space_group_name_H-M "P M N A"
_symmetry_group_IT_number 53
_symmetry_cell_setting 'orthorhombic'
loop_
_space_group_symop_operation_xyz
x,y,z
1/2-x,-y,1/2+z
x,-y,-z
1/2-x,y,1/2-z
-x,-y,-z
1/2+x,y,1/2-z
-x,y,z
1/2+x,-y,1/2+z
loop_
_atom_site_type_symbol
_atom_site_label
_atom_site_fract_x
_atom_site_fract_y
_atom_site_fract_z
Si Si1 0.667421 0.961778 0.099750
Si Si2 0.173016 0.545056 0.908707
Si Si3 0.676007 0.629969 0.910873
Si Si4 0.672083 0.295756 0.592621
Si Si5 0.670439 0.809137 0.407298
Si Si6 0.665947 0.876978 0.892525
O O1 0.750000 0.954406 0.250000
O O2 0.500000 0.977132 0.134043
O O3 0.661862 0.916233 0.010811
O O4 0.739871 0.000000 0.000000
O O5 0.250000 0.537336 0.750000
O O6 0.257783 0.585838 0.988062
O O7 0.000000 0.557005 0.887874
O O8 0.182192 0.500000 0.000000
O O9 0.750000 0.628048 0.750000
O O10 0.500000 0.628370 0.905453
O O11 0.734318 0.674948 0.981437
O O12 0.750000 0.301979 0.750000
O O13 0.500000 0.309829 0.595244
O O14 0.676531 0.243319 0.559714
O O15 0.750000 0.817095 0.250000
O O16 0.500000 0.823189 0.393370
O O17 0.749365 0.835935 0.536076
O O18 0.750000 0.894445 0.750000
O O19 0.500000 0.863594 0.851767
#
# Coordination Sequence:
#
# PCOD9420246 Si02
#       6
#     8   8   8   8   8   8
#     4  10  22  39  59  85 115 149 189 232 281 335
#     4  10  21  37  57  81 110 144 184 229 276 330
#     4  11  22  37  58  82 112 148 185 229 279 332
#     4  10  21  38  59  84 113 146 186 230 278 332
#     4  10  21  38  60  84 113 148 186 231 280 333
#     4  11  23  38  58  84 115 150 190 235 282 335
#
# _framework density 19.753086
#
# number of rings (size 3 to 8) (size 9 to 14) (size 15 to 20)
#    0.000    1.667    0.000    5.500    0.000    7.667 
#    0.000    1.667    0.000    0.000    0.000    0.000 
#    0.000    0.000    0.000    0.000    0.000    0.000 
#
# Total GULP energy -267826.156759 kJ/mol
# GULP energy per Si atom -5579.711599 kJ/mol
# Density = 1.970813 g / cm^3
# Si number density = 19.753086 Si / 1000 Ang^3
#
#
#
# Elastic Constant Matrix: (Units=GPa)
#
#
# Indices 1 2 3 4 5 6 
#
# 1 161.6193 39.4972 51.1603 0.0000 0.0000 0.0000
# 2 39.4972 -26.3589 45.3837 0.0000 0.0000 0.0000
# 3 51.1603 45.3837 56.8516 0.0000 0.0000 0.0000
# 4 0.0000 0.0000 0.0000 28.3325 0.0000 0.0000
# 5 0.0000 0.0000 0.0000 0.0000 977.8908 0.0000
# 6 0.0000 0.0000 0.0000 0.0000 0.0000 18.8111
#
#
#
# Elastic Compliance Matrix: (Units=1/GPa)
#
#
# Indices 1 2 3 4 5 6 
#
# 1 0.008650 -0.000186 -0.007636 0.000000 0.000000 0.000000
# 2 -0.000186 -0.015974 0.012918 0.000000 0.000000 0.000000
# 3 -0.007636 0.012918 0.014148 0.000000 0.000000 0.000000
# 4 0.000000 0.000000 0.000000 0.035295 0.000000 0.000000
# 5 0.000000 0.000000 0.000000 0.000000 0.001023 0.000000
# 6 0.000000 0.000000 0.000000 0.000000 0.000000 0.053160
#
#
# Mechanical properties :
#
#
# Convention : Reuss Voigt Hill
#
# Bulk Modulus (GPa) = 58.75828 51.57717 55.16773
# Shear Modulus (GPa) = 54.47737 208.74494 131.61115
#
# Velocity S-wave (km/s) = 5.25728 10.29109 8.17146
# Velocity P-wave (km/s) = 8.16474 12.93740 10.81756
#
# Compressibility (1/GPa) = 0.01701888
#
# Stress axis : x y z
#
# Youngs Moduli (GPa) = 115.60931 -62.60364 70.67955
#
# Poissons Ratio (x) = -0.01162 0.53969
# Poissons Ratio (y) = 0.02146 -0.91307
# Poissons Ratio (z) = 0.88276 0.80874
#
# Static dielectric constant tensor:
#      x y z
#    x 2.055740 0.000000 0.000000 
#    y 0.000000 2.179510 0.000000 
#    z 0.000000 0.000000 1.665530 
# 
# From -- ./inp_files/6683.got.cif
#   From: 2010.05.17/outbox.ucp.g08.bks.cvg/sg53_4_cif.got.tgz:6683.got - 2010.06.11 16:32:34.
