data_PCOD9420107
_publ_section_title
;
Structure prediction by ZEFSAII (Michael W. Deem and Ramdas Pophale) SiO2 
 PCOD9420107
Probable space group: P M N A
;
_chemical_formula_sum "Si O2"
_cell_formula_units_Z 56
_cell_length_a 9.000000
_cell_length_b 21.000000
_cell_length_c 18.000000
_cell_angle_alpha 90.000000
_cell_angle_beta 90.000000
_cell_angle_gamma 90.000000
_cell_volume 3402.000000
_symmetry_space_group_name_H-M "P M N A"
_symmetry_group_IT_number 53
_symmetry_cell_setting 'orthorhombic'
loop_
_space_group_symop_operation_xyz
x,y,z
1/2-x,-y,1/2+z
x,-y,-z
1/2-x,y,1/2-z
-x,-y,-z
1/2+x,y,1/2-z
-x,y,z
1/2+x,-y,1/2+z
loop_
_atom_site_type_symbol
_atom_site_label
_atom_site_fract_x
_atom_site_fract_y
_atom_site_fract_z
Si Si1 0.669557 0.559875 0.442602
Si Si2 0.824678 0.476598 0.329534
Si Si3 0.177067 0.973114 0.328048
Si Si4 0.822855 0.243370 0.174189
Si Si5 0.676889 0.883617 0.883422
Si Si6 0.821859 0.637087 0.921798
Si Si7 0.329680 0.926695 0.471382
O O1 0.668383 0.500000 0.500000
O O2 0.500000 0.567481 0.415683
O O3 0.776786 0.537846 0.377757
O O4 0.714076 0.619981 0.492949
O O5 0.750000 0.480248 0.250000
O O6 0.761183 0.414358 0.371181
O O7 0.000000 0.471854 0.323576
O O8 0.250000 0.957363 0.250000
O O9 0.247893 0.930920 0.393034
O O10 0.000000 0.966067 0.326873
O O11 0.209403 0.047715 0.346307
O O12 0.750000 0.268422 0.250000
O O13 0.755816 0.174306 0.157693
O O14 0.789168 0.292698 0.107926
O O15 0.000000 0.239139 0.182811
O O16 0.500000 0.874854 0.883170
O O17 0.740189 0.888039 0.966813
O O18 0.000000 0.626537 0.914017
O O19 0.500000 0.905013 0.465698
O O20 0.331989 0.000000 0.500000
#
# Coordination Sequence:
#
# PCOD9420107 Si02
#       7
#     8   8   8   8   8   8   8
#     4   8  15  30  48  65  89 119 150 187 232 277
#     4  11  20  29  45  69  95 122 153 190 232 276
#     4  10  19  30  46  69  96 124 155 192 235 279
#     4  11  22  34  48  68  94 126 162 194 227 268
#     4  10  20  33  48  67  94 127 160 194 231 273
#     4   9  19  34  49  66  92 125 157 191 231 275
#     4   9  17  30  48  68  91 120 154 192 234 279
#
# _framework density 16.460905
#
# number of rings (size 3 to 8) (size 9 to 14) (size 15 to 20)
#    0.000    2.286    0.000    4.714    0.000    9.429 
#    0.000    0.000    0.000    0.000    0.000    1.000 
#    0.000    2.286    0.000    0.000    0.000    0.000 
#
# Total GULP energy -312274.410360 kJ/mol
# GULP energy per Si atom -5576.328756 kJ/mol
# Density = 1.642344 g / cm^3
# Si number density = 16.460905 Si / 1000 Ang^3
#
#
#
# Elastic Constant Matrix: (Units=GPa)
#
#
# Indices 1 2 3 4 5 6 
#
# 1 46.5590 7.1545 30.0931 0.0000 0.0000 0.0000
# 2 7.1545 20.8121 -0.8226 0.0000 0.0000 0.0000
# 3 30.0931 -0.8226 70.1406 0.0000 0.0000 0.0000
# 4 0.0000 0.0000 0.0000 13.1487 0.0000 0.0000
# 5 0.0000 0.0000 0.0000 0.0000 28.8482 0.0000
# 6 0.0000 0.0000 0.0000 0.0000 0.0000 32.2188
#
#
#
# Elastic Compliance Matrix: (Units=1/GPa)
#
#
# Indices 1 2 3 4 5 6 
#
# 1 0.032322 -0.011665 -0.014004 0.000000 0.000000 0.000000
# 2 -0.011665 0.052281 0.005618 0.000000 0.000000 0.000000
# 3 -0.014004 0.005618 0.020331 0.000000 0.000000 0.000000
# 4 0.000000 0.000000 0.000000 0.076053 0.000000 0.000000
# 5 0.000000 0.000000 0.000000 0.000000 0.034664 0.000000
# 6 0.000000 0.000000 0.000000 0.000000 0.000000 0.031038
#
#
# Mechanical properties :
#
#
# Convention : Reuss Voigt Hill
#
# Bulk Modulus (GPa) = 15.42450 23.37352 19.39901
# Shear Modulus (GPa) = 16.21257 21.58226 18.89742
#
# Velocity S-wave (km/s) = 3.14174 3.62487 3.39192
# Velocity P-wave (km/s) = 4.74883 5.63470 5.21063
#
# Compressibility (1/GPa) = 0.06483191
#
# Stress axis : x y z
#
# Youngs Moduli (GPa) = 30.93854 19.12746 49.18509
#
# Poissons Ratio (x) = 0.22312 0.68880
# Poissons Ratio (y) = 0.36089 -0.27631
# Poissons Ratio (z) = 0.43327 -0.10745
#
# Static dielectric constant tensor:
#      x y z
#    x 1.544400 0.000000 0.000000 
#    y 0.000000 1.542920 0.000000 
#    z 0.000000 0.000000 1.581040 
# 
# From -- ./inp_files/26655.got.cif
#   From: 2010.05.17/outbox.ucp.g08.bks.cvg/sg53_14_cif.got.tgz:26655.got - 2010.06.11 16:32:34.
