data_PCOD9420176
_publ_section_title
;
Structure prediction by ZEFSAII (Michael W. Deem and Ramdas Pophale) SiO2 
 PCOD9420176
Probable space group: P M N A
;
_chemical_formula_sum "Si O2"
_cell_formula_units_Z 52
_cell_length_a 15.000000
_cell_length_b 21.000000
_cell_length_c 9.000000
_cell_angle_alpha 90.000000
_cell_angle_beta 90.000000
_cell_angle_gamma 90.000000
_cell_volume 2835.000000
_symmetry_space_group_name_H-M "P M N A"
_symmetry_group_IT_number 53
_symmetry_cell_setting 'orthorhombic'
loop_
_space_group_symop_operation_xyz
x,y,z
1/2-x,-y,1/2+z
x,-y,-z
1/2-x,y,1/2-z
-x,-y,-z
1/2+x,y,1/2-z
-x,y,z
1/2+x,-y,1/2+z
loop_
_atom_site_type_symbol
_atom_site_label
_atom_site_fract_x
_atom_site_fract_y
_atom_site_fract_z
Si Si1 0.750000 0.863521 0.750000
Si Si2 0.233211 0.432877 0.572236
Si Si3 0.600033 0.645169 0.481406
Si Si4 0.101792 0.679831 0.369949
Si Si5 0.102027 0.790257 0.946246
Si Si6 0.897351 0.075509 0.467163
Si Si7 0.646526 0.820915 0.215281
O O1 0.681742 0.823192 0.645542
O O2 0.681392 0.903119 0.854666
O O3 0.205438 0.500000 0.500000
O O4 0.250000 0.441469 0.750000
O O5 0.324407 0.407382 0.496886
O O6 0.164118 0.373721 0.556570
O O7 0.500000 0.623768 0.520067
O O8 0.601796 0.661421 0.305007
O O9 0.616714 0.713785 0.556284
O O10 0.134543 0.753284 0.371704
O O11 0.000000 0.677414 0.424380
O O12 0.000000 0.802641 0.892204
O O13 0.104256 0.812083 0.120301
O O14 0.887738 0.121124 0.613114
O O15 0.000000 0.084513 0.411656
O O16 0.887311 0.000000 0.500000
O O17 0.750000 0.830735 0.250000
#
# Coordination Sequence:
#
# PCOD9420176 Si02
#       7
#     4   8   8   8   8   8   8
#     4  12  24  38  62  90 126 162 192 244 314 368
#     4  10  20  34  52  78 111 150 188 234 284 347
#     4   8  16  33  55  79 107 142 190 240 287 341
#     4   9  17  31  57  85 109 142 189 243 290 338
#     4  10  20  37  62  92 119 151 200 256 303 351
#     4  11  26  44  61  88 127 165 202 249 301 358
#     4  11  19  38  67  91 112 151 210 255 292 351
#
# _framework density 18.342151999999999
#
# number of rings (size 3 to 8) (size 9 to 14) (size 15 to 20)
#    0.000    2.000    1.538    5.077    1.077    0.615 
#    1.385    0.000    0.000    3.692    0.000    0.000 
#    0.000    0.000    0.000    0.000    0.000    0.000 
#
# Total GULP energy -290039.063628 kJ/mol
# GULP energy per Si atom -5577.674301 kJ/mol
# Density = 1.830040 g / cm^3
# Si number density = 18.342152 Si / 1000 Ang^3
#
#
#
# Elastic Constant Matrix: (Units=GPa)
#
#
# Indices 1 2 3 4 5 6 
#
# 1 153.8437 62.8835 34.0679 0.0000 0.0000 0.0000
# 2 62.8835 138.2742 39.9344 0.0000 0.0000 0.0000
# 3 34.0679 39.9344 49.2495 0.0000 0.0000 0.0000
# 4 0.0000 0.0000 0.0000 24.4814 0.0000 0.0000
# 5 0.0000 0.0000 0.0000 0.0000 13.8971 0.0000
# 6 0.0000 0.0000 0.0000 0.0000 0.0000 27.0536
#
#
#
# Elastic Compliance Matrix: (Units=1/GPa)
#
#
# Indices 1 2 3 4 5 6 
#
# 1 0.008436 -0.002809 -0.003558 0.000000 0.000000 0.000000
# 2 -0.002809 0.010379 -0.006473 0.000000 0.000000 0.000000
# 3 -0.003558 -0.006473 0.028014 0.000000 0.000000 0.000000
# 4 0.000000 0.000000 0.000000 0.040847 0.000000 0.000000
# 5 0.000000 0.000000 0.000000 0.000000 0.071957 0.000000
# 6 0.000000 0.000000 0.000000 0.000000 0.000000 0.036964
#
#
# Mechanical properties :
#
#
# Convention : Reuss Voigt Hill
#
# Bulk Modulus (GPa) = 47.28098 68.34878 57.81488
# Shear Modulus (GPa) = 21.80294 26.71853 24.26073
#
# Velocity S-wave (km/s) = 3.45146 3.82078 3.64081
# Velocity P-wave (km/s) = 6.45884 7.53715 7.01873
#
# Compressibility (1/GPa) = 0.02115015
#
# Stress axis : x y z
#
# Youngs Moduli (GPa) = 118.53729 96.35020 35.69597
#
# Poissons Ratio (x) = 0.27065 0.12700
# Poissons Ratio (y) = 0.33297 0.23105
# Poissons Ratio (z) = 0.42175 0.62364
#
# Static dielectric constant tensor:
#      x y z
#    x 1.660460 0.000000 0.000000 
#    y 0.000000 1.611630 0.000000 
#    z 0.000000 0.000000 1.641650 
# 
# From -- ./inp_files/8810.got.cif
#   From: 2010.05.17/outbox.ucp.g08.bks.cvg/sg53_5_cif.got.tgz:8810.got - 2010.06.11 16:32:34.
