data_PCOD9420362
_publ_section_title
;
Structure prediction by ZEFSAII (Michael W. Deem and Ramdas Pophale) SiO2 
 PCOD9420362
Probable space group: P C C A
;
_chemical_formula_sum "Si O2"
_cell_formula_units_Z 32
_cell_length_a 5.359184
_cell_length_b 7.256834
_cell_length_c 33.571239
_cell_angle_alpha 90.000000
_cell_angle_beta 90.000000
_cell_angle_gamma 90.000000
_cell_volume 1305.609275
_symmetry_space_group_name_H-M "P C C A"
_symmetry_group_IT_number 54
_symmetry_cell_setting 'orthorhombic'
loop_
_space_group_symop_operation_xyz
x,y,z
1/2-x,-y,z
1/2+x,-y,1/2-z
-x,y,1/2-z
-x,-y,-z
1/2+x,y,-z
1/2-x,y,1/2+z
x,-y,1/2+z
loop_
_atom_site_type_symbol
_atom_site_label
_atom_site_fract_x
_atom_site_fract_y
_atom_site_fract_z
Si Si1 0.945619 0.711193 0.108117
Si Si2 0.746467 0.222702 0.773575
Si Si3 0.546605 0.290298 0.015786
Si Si4 0.560586 0.704272 0.361255
O O1 0.716760 0.788935 0.134382
O O2 0.877515 0.711318 0.061885
O O3 0.000845 0.501417 0.122742
O O4 0.221362 0.794614 0.112674
O O5 0.500000 0.279600 0.750000
O O6 0.686488 0.292599 0.817839
O O7 0.000000 0.277539 0.750000
O O8 0.750000 0.000000 0.775946
O O9 0.500000 0.500000 0.000000
O O10 0.774261 0.207286 0.991155
#
# Coordination Sequence:
#
# PCOD9420362 Si02
#       4
#     8   8   8   8
#     4  10  19  30  46  74 105 129 158 195 242 300
#     4  10  21  37  55  73  93 123 168 215 253 295
#     4  10  16  25  41  64  99 132 160 190 225 279
#     4  10  18  32  49  68  99 129 153 199 250 292
#
# _framework density 24.509630000000001
#
# number of rings (size 3 to 8) (size 9 to 14) (size 15 to 20)
#    0.000    2.000    0.000    9.000    0.000    0.000 
#    0.000   10.000    0.000    0.000    0.000    0.000 
#    0.000   74.000    0.000    0.000    0.000    0.000 
#
# Total GULP energy -178538.511007 kJ/mol
# GULP energy per Si atom -5579.328469 kJ/mol
# Density = 2.445385 g / cm^3
# Si number density = 24.509630 Si / 1000 Ang^3
#
#
#
# Elastic Constant Matrix: (Units=GPa)
#
#
# Indices 1 2 3 4 5 6 
#
# 1 264.5064 16.0296 50.9752 0.0000 0.0000 0.0000
# 2 16.0296 101.5028 6.4125 0.0000 0.0000 0.0000
# 3 50.9752 6.4125 164.4788 0.0000 0.0000 0.0000
# 4 0.0000 0.0000 0.0000 12.9145 0.0000 0.0000
# 5 0.0000 0.0000 0.0000 0.0000 53.1980 0.0000
# 6 0.0000 0.0000 0.0000 0.0000 0.0000 -26.8131
#
#
#
# Elastic Compliance Matrix: (Units=1/GPa)
#
#
# Indices 1 2 3 4 5 6 
#
# 1 0.004053 -0.000562 -0.001234 0.000000 0.000000 0.000000
# 2 -0.000562 0.009954 -0.000214 0.000000 0.000000 0.000000
# 3 -0.001234 -0.000214 0.006471 0.000000 0.000000 0.000000
# 4 0.000000 0.000000 0.000000 0.077432 0.000000 0.000000
# 5 0.000000 0.000000 0.000000 0.000000 0.018798 0.000000
# 6 0.000000 0.000000 0.000000 0.000000 0.000000 -0.037295
#
#
# Mechanical properties :
#
#
# Convention : Reuss Voigt Hill
#
# Bulk Modulus (GPa) = 60.76293 75.25806 68.01050
# Shear Modulus (GPa) = 56.23178 38.33128 47.28153
#
# Velocity S-wave (km/s) = 4.79505 3.95894 4.39692
# Velocity P-wave (km/s) = 7.44997 7.18817 7.32024
#
# Compressibility (1/GPa) = 0.01645740
#
# Stress axis : x y z
#
# Youngs Moduli (GPa) = 246.76076 100.45996 154.54510
#
# Poissons Ratio (x) = 0.05646 0.19071
# Poissons Ratio (y) = 0.13869 0.03306
# Poissons Ratio (z) = 0.30451 0.02149
#
# Static dielectric constant tensor:
#      x y z
#    x 2.267790 0.000000 0.000000 
#    y 0.000000 2.274330 0.000000 
#    z 0.000000 0.000000 2.002380 
# 
# From -- ./inp_files/26844.got.cif
#   From: 2010.05.17/outbox.cif.g08.bks.cpg/sg54_14_cif.got.tgz:26844.got - 2010.06.03 13:09:01.
