data_PCOD9420850
_publ_section_title
;
Structure prediction by ZEFSAII (Michael W. Deem and Ramdas Pophale) SiO2 
 PCOD9420850
Probable space group: P C C A
;
_chemical_formula_sum "Si O2"
_cell_formula_units_Z 40
_cell_length_a 18.159939
_cell_length_b 15.716082
_cell_length_c 5.618039
_cell_angle_alpha 90.000000
_cell_angle_beta 90.000000
_cell_angle_gamma 90.000000
_cell_volume 1603.405693
_symmetry_space_group_name_H-M "P C C A"
_symmetry_group_IT_number 54
_symmetry_cell_setting 'orthorhombic'
loop_
_space_group_symop_operation_xyz
x,y,z
1/2-x,-y,z
1/2+x,-y,1/2-z
-x,y,1/2-z
-x,-y,-z
1/2+x,y,-z
1/2-x,y,1/2+z
x,-y,1/2+z
loop_
_atom_site_type_symbol
_atom_site_label
_atom_site_fract_x
_atom_site_fract_y
_atom_site_fract_z
Si Si1 0.083007 0.470893 0.226047
Si Si2 0.400349 0.273318 0.622092
Si Si3 0.886574 0.219843 0.879934
Si Si4 0.834561 0.032471 0.813590
Si Si5 0.256644 0.648678 0.586240
O O1 0.115898 0.486261 0.488932
O O2 0.077944 0.371408 0.163305
O O3 0.000000 0.507350 0.250000
O O4 0.427192 0.237157 0.369985
O O5 0.310646 0.281899 0.596275
O O6 0.421715 0.220796 0.856932
O O7 0.841581 0.133094 0.846870
O O8 0.831976 0.299974 0.905362
O O9 0.750000 0.000000 0.802846
O O10 0.867501 0.008135 0.555534
O O11 0.249263 0.602068 0.336468
#
# Coordination Sequence:
#
# PCOD9420850 Si02
#       5
#     8   8   8   8   8
#     4  10  21  38  59  81 104 125 157 218 284 317
#     4  10  19  31  53  72  98 136 174 202 251 313
#     4  10  19  31  47  71 106 144 174 203 250 287
#     4  10  21  27  43  67 106 145 172 214 246 292
#     4   8  16  25  44  61  94 128 170 188 234 277
#
# _framework density 24.946897
#
# number of rings (size 3 to 8) (size 9 to 14) (size 15 to 20)
#    0.000    2.400    0.000    2.400   16.800    0.000 
#    0.000    0.000    0.000   32.400    0.000    0.000 
#    0.000   16.000    0.000    0.000    0.000    0.000 
#
# Total GULP energy -223276.158507 kJ/mol
# GULP energy per Si atom -5581.903963 kJ/mol
# Density = 2.489012 g / cm^3
# Si number density = 24.946897 Si / 1000 Ang^3
#
#
#
# Elastic Constant Matrix: (Units=GPa)
#
#
# Indices 1 2 3 4 5 6 
#
# 1 55.6099 1.2167 28.2725 0.0000 0.0000 0.0000
# 2 1.2167 103.8655 36.2244 0.0000 0.0000 0.0000
# 3 28.2725 36.2244 322.1206 0.0000 0.0000 0.0000
# 4 0.0000 0.0000 0.0000 37.1886 0.0000 0.0000
# 5 0.0000 0.0000 0.0000 0.0000 28.2969 0.0000
# 6 0.0000 0.0000 0.0000 0.0000 0.0000 -27.5120
#
#
#
# Elastic Compliance Matrix: (Units=1/GPa)
#
#
# Indices 1 2 3 4 5 6 
#
# 1 0.018836 0.000370 -0.001695 0.000000 0.000000 0.000000
# 2 0.000370 0.010028 -0.001160 0.000000 0.000000 0.000000
# 3 -0.001695 -0.001160 0.003384 0.000000 0.000000 0.000000
# 4 0.000000 0.000000 0.000000 0.026890 0.000000 0.000000
# 5 0.000000 0.000000 0.000000 0.000000 0.035340 0.000000
# 6 0.000000 0.000000 0.000000 0.000000 0.000000 -0.036348
#
#
# Mechanical properties :
#
#
# Convention : Reuss Voigt Hill
#
# Bulk Modulus (GPa) = 36.65894 68.11368 52.38631
# Shear Modulus (GPa) = 69.25992 35.32018 52.29005
#
# Velocity S-wave (km/s) = 5.27477 3.76681 4.58324
# Velocity P-wave (km/s) = 7.19891 6.80303 7.00377
#
# Compressibility (1/GPa) = 0.02727848
#
# Stress axis : x y z
#
# Youngs Moduli (GPa) = 53.08978 99.71939 295.53764
#
# Poissons Ratio (x) = -0.03694 0.50091
# Poissons Ratio (y) = -0.01967 0.34289
# Poissons Ratio (z) = 0.08998 0.11570
#
# Static dielectric constant tensor:
#      x y z
#    x 2.024870 0.000000 0.000000 
#    y 0.000000 1.873120 0.000000 
#    z 0.000000 0.000000 2.128890 
# 
# From -- ./inp_files/1593.got.cif
#   From: 2010.05.17/outbox.cif.g08.bks.cpg/sg54_1_cif.got.tgz:1593.got - 2010.06.03 13:09:01.
