data_PCOD9420490
_publ_section_title
;
Structure prediction by ZEFSAII (Michael W. Deem and Ramdas Pophale) SiO2 
 PCOD9420490
Probable space group: P C C A
;
_chemical_formula_sum "Si O2"
_cell_formula_units_Z 28
_cell_length_a 5.530860
_cell_length_b 9.058351
_cell_length_c 26.529878
_cell_angle_alpha 90.000000
_cell_angle_beta 90.000000
_cell_angle_gamma 90.000000
_cell_volume 1329.159389
_symmetry_space_group_name_H-M "P C C A"
_symmetry_group_IT_number 54
_symmetry_cell_setting 'orthorhombic'
loop_
_space_group_symop_operation_xyz
x,y,z
1/2-x,-y,z
1/2+x,-y,1/2-z
-x,y,1/2-z
-x,-y,-z
1/2+x,y,-z
1/2-x,y,1/2+z
x,-y,1/2+z
loop_
_atom_site_type_symbol
_atom_site_label
_atom_site_fract_x
_atom_site_fract_y
_atom_site_fract_z
Si Si1 0.250000 0.500000 0.955307
Si Si2 0.691156 0.785259 0.481734
Si Si3 0.000036 0.913917 0.689524
Si Si4 0.877301 0.349189 0.380896
O O1 0.419999 0.415022 0.916844
O O2 0.144406 0.372619 0.990618
O O3 0.423434 0.853393 0.489898
O O4 0.757513 0.754196 0.423026
O O5 0.021244 0.757163 0.661781
O O6 0.000000 0.895291 0.750000
O O7 0.250000 0.000000 0.676870
O O8 0.750000 0.000000 0.675961
O O9 0.750000 0.500000 0.362001
#
# Coordination Sequence:
#
# PCOD9420490 Si02
#       4
#     4   8   8   8
#     4  10  18  32  54  94 136 154 192 248 326 358
#     4  10  17  30  51  88 124 161 185 237 305 377
#     4  10  25  48  65  83 123 174 206 249 326 389
#     4  11  20  35  65  97 117 158 214 261 297 362
#
# _framework density 21.065947000000001
#
# number of rings (size 3 to 8) (size 9 to 14) (size 15 to 20)
#    0.000    1.714    4.286    1.714    4.000    0.000 
#    2.571    0.000    0.000   20.571    0.000    0.000 
#    0.000    0.000    0.000    0.000    0.000    0.000 
#
# Total GULP energy -155903.064594 kJ/mol
# GULP energy per Si atom -5567.966593 kJ/mol
# Density = 2.101800 g / cm^3
# Si number density = 21.065947 Si / 1000 Ang^3
#
#
#
# Elastic Constant Matrix: (Units=GPa)
#
#
# Indices 1 2 3 4 5 6 
#
# 1 138.2799 61.4774 40.0054 0.0000 0.0000 0.0000
# 2 61.4774 111.8949 65.5145 0.0000 0.0000 0.0000
# 3 40.0054 65.5145 64.4151 0.0000 0.0000 0.0000
# 4 0.0000 0.0000 0.0000 68.5309 0.0000 0.0000
# 5 0.0000 0.0000 0.0000 0.0000 17.4976 0.0000
# 6 0.0000 0.0000 0.0000 0.0000 0.0000 19.6155
#
#
#
# Elastic Compliance Matrix: (Units=1/GPa)
#
#
# Indices 1 2 3 4 5 6 
#
# 1 0.009626 -0.004421 -0.001482 0.000000 0.000000 0.000000
# 2 -0.004421 0.024124 -0.021790 0.000000 0.000000 0.000000
# 3 -0.001482 -0.021790 0.038606 0.000000 0.000000 0.000000
# 4 0.000000 0.000000 0.000000 0.014592 0.000000 0.000000
# 5 0.000000 0.000000 0.000000 0.000000 0.057151 0.000000
# 6 0.000000 0.000000 0.000000 0.000000 0.000000 0.050980
#
#
# Mechanical properties :
#
#
# Convention : Reuss Voigt Hill
#
# Bulk Modulus (GPa) = 58.92473 72.06493 65.49483
# Shear Modulus (GPa) = 19.52195 30.96831 25.24513
#
# Velocity S-wave (km/s) = 3.04749 3.83830 3.46553
# Velocity P-wave (km/s) = 6.35729 7.34349 6.86812
#
# Compressibility (1/GPa) = 0.01697080
#
# Stress axis : x y z
#
# Youngs Moduli (GPa) = 103.88566 41.45218 25.90248
#
# Poissons Ratio (x) = 0.18327 0.03838
# Poissons Ratio (y) = 0.45931 0.56442
# Poissons Ratio (z) = 0.15391 0.90324
#
# Static dielectric constant tensor:
#      x y z
#    x 1.995270 0.000000 0.000000 
#    y 0.000000 1.802980 0.000000 
#    z 0.000000 0.000000 1.724660 
# 
# From -- ./inp_files/25031.got.cif
#   From: 2010.05.17/outbox.cif.g08.bks.cpg/sg54_13_cif.got.tgz:25031.got - 2010.06.03 13:09:01.
