data_PCOD9420799
_publ_section_title
;
Structure prediction by ZEFSAII (Michael W. Deem and Ramdas Pophale) SiO2 
 PCOD9420799
Probable space group: P C C A
;
_chemical_formula_sum "Si O2"
_cell_formula_units_Z 40
_cell_length_a 16.784847
_cell_length_b 8.713633
_cell_length_c 12.885121
_cell_angle_alpha 90.000000
_cell_angle_beta 90.000000
_cell_angle_gamma 90.000000
_cell_volume 1884.539100
_symmetry_space_group_name_H-M "P C C A"
_symmetry_group_IT_number 54
_symmetry_cell_setting 'orthorhombic'
loop_
_space_group_symop_operation_xyz
x,y,z
1/2-x,-y,z
1/2+x,-y,1/2-z
-x,y,1/2-z
-x,-y,-z
1/2+x,y,-z
1/2-x,y,1/2+z
x,-y,1/2+z
loop_
_atom_site_type_symbol
_atom_site_label
_atom_site_fract_x
_atom_site_fract_y
_atom_site_fract_z
Si Si1 0.250000 0.500000 0.459975
Si Si2 0.484348 0.854663 0.928412
Si Si3 0.616330 0.204453 0.265413
Si Si4 0.750000 0.000000 0.852063
Si Si5 0.162777 0.454738 0.266081
Si Si6 0.360421 0.261989 0.577423
O O1 0.187344 0.413625 0.383193
O O2 0.298717 0.376250 0.523012
O O3 0.425531 0.117822 0.330363
O O4 0.564658 0.803877 0.870486
O O5 0.438583 0.741450 0.006512
O O6 0.500000 0.000000 0.000000
O O7 0.701496 0.127054 0.286324
O O8 0.618282 0.382980 0.234271
O O9 0.683400 0.097149 0.914170
O O10 0.250000 0.500000 0.220941
O O11 0.124648 0.327660 0.192933
#
# Coordination Sequence:
#
# PCOD9420799 Si02
#       6
#     4   8   8   4   8   8
#     4  10  18  40  62  96 130 172 222 286 320 380
#     4  11  24  44  66  96 140 178 212 276 348 409
#     4  11  23  43  68  94 138 176 222 278 337 400
#     4  12  22  40  68 104 128 174 230 276 330 402
#     4  10  20  38  62  95 125 172 228 279 321 384
#     4  12  22  40  68  98 137 172 227 279 333 405
#
# _framework density 21.225349999999999
#
# number of rings (size 3 to 8) (size 9 to 14) (size 15 to 20)
#    0.600    0.400    7.000    0.000    0.000    1.600 
#    0.000    0.000    8.800    0.000    0.000    0.000 
#    0.000    0.000    0.000    0.000    0.000    0.000 
#
# Total GULP energy -223039.468883 kJ/mol
# GULP energy per Si atom -5575.986722 kJ/mol
# Density = 2.117704 g / cm^3
# Si number density = 21.225350 Si / 1000 Ang^3
#
#
#
# Elastic Constant Matrix: (Units=GPa)
#
#
# Indices 1 2 3 4 5 6 
#
# 1 46.6618 11.2810 -0.2063 0.0000 0.0000 0.0000
# 2 11.2810 67.2844 23.9958 0.0000 0.0000 0.0000
# 3 -0.2063 23.9958 67.0804 0.0000 0.0000 0.0000
# 4 0.0000 0.0000 0.0000 21.4083 0.0000 0.0000
# 5 0.0000 0.0000 0.0000 0.0000 22.3567 0.0000
# 6 0.0000 0.0000 0.0000 0.0000 0.0000 28.8056
#
#
#
# Elastic Compliance Matrix: (Units=1/GPa)
#
#
# Indices 1 2 3 4 5 6 
#
# 1 0.022490 -0.004350 0.001625 0.000000 0.000000 0.000000
# 2 -0.004350 0.017877 -0.006408 0.000000 0.000000 0.000000
# 3 0.001625 -0.006408 0.017205 0.000000 0.000000 0.000000
# 4 0.000000 0.000000 0.000000 0.046711 0.000000 0.000000
# 5 0.000000 0.000000 0.000000 0.000000 0.044729 0.000000
# 6 0.000000 0.000000 0.000000 0.000000 0.000000 0.034715
#
#
# Mechanical properties :
#
#
# Convention : Reuss Voigt Hill
#
# Bulk Modulus (GPa) = 25.44199 27.90751 26.67475
# Shear Modulus (GPa) = 23.24549 24.24454 23.74501
#
# Velocity S-wave (km/s) = 3.31293 3.38338 3.34834
# Velocity P-wave (km/s) = 5.16204 5.33289 5.24816
#
# Compressibility (1/GPa) = 0.03930510
#
# Stress axis : x y z
#
# Youngs Moduli (GPa) = 44.46471 55.93761 58.12323
#
# Poissons Ratio (x) = 0.24335 -0.09447
# Poissons Ratio (y) = 0.19344 0.37247
# Poissons Ratio (z) = -0.07227 0.35846
#
# Static dielectric constant tensor:
#      x y z
#    x 1.793540 0.000000 0.000000 
#    y 0.000000 1.794180 0.000000 
#    z 0.000000 0.000000 1.785200 
# 
# From -- ./inp_files/8814.got.cif
#   From: 2010.05.17/outbox.cif.g08.bks.cpg/sg54_5_cif.got.tgz:8814.got - 2010.06.03 13:09:01.
