data_PCOD9420094
_publ_section_title
;
Structure prediction by ZEFSAII (Michael W. Deem and Ramdas Pophale) SiO2 
 PCOD9420094
Probable space group: P M N A
;
_chemical_formula_sum "Si O2"
_cell_formula_units_Z 64
_cell_length_a 9.000000
_cell_length_b 15.000000
_cell_length_c 24.000000
_cell_angle_alpha 90.000000
_cell_angle_beta 90.000000
_cell_angle_gamma 90.000000
_cell_volume 3240.000000
_symmetry_space_group_name_H-M "P M N A"
_symmetry_group_IT_number 53
_symmetry_cell_setting 'orthorhombic'
loop_
_space_group_symop_operation_xyz
x,y,z
1/2-x,-y,1/2+z
x,-y,-z
1/2-x,y,1/2-z
-x,-y,-z
1/2+x,y,1/2-z
-x,y,z
1/2+x,-y,1/2+z
loop_
_atom_site_type_symbol
_atom_site_label
_atom_site_fract_x
_atom_site_fract_y
_atom_site_fract_z
Si Si1 0.675645 0.947377 0.689420
Si Si2 0.330312 0.198489 0.120838
Si Si3 0.171504 0.279916 0.018255
Si Si4 0.327651 0.382575 0.189860
Si Si5 0.321742 0.695135 0.310941
Si Si6 0.830676 0.535139 0.913800
Si Si7 0.821296 0.122299 0.688137
Si Si8 0.325005 0.633070 0.082679
O O1 0.750000 0.930278 0.750000
O O2 0.500000 0.963220 0.696352
O O3 0.713248 0.865506 0.650337
O O4 0.759470 0.032038 0.662447
O O5 0.500000 0.163432 0.120074
O O6 0.271309 0.220322 0.059240
O O7 0.333388 0.286765 0.159328
O O8 0.167389 0.374861 0.050224
O O9 0.000000 0.249699 0.012560
O O10 0.249212 0.297244 0.959216
O O11 0.250000 0.377895 0.250000
O O12 0.500000 0.414470 0.194070
O O13 0.226730 0.439063 0.147654
O O14 0.250000 0.679001 0.250000
O O15 0.500000 0.696481 0.306794
O O16 0.254882 0.788773 0.333348
O O17 0.258115 0.631363 0.357891
O O18 0.715262 0.465136 0.938913
O O19 0.000000 0.499445 0.913824
O O20 0.750000 0.117377 0.750000
O O21 0.000000 0.127706 0.689527
O O22 0.500000 0.647938 0.088331
#
# Coordination Sequence:
#
# PCOD9420094 Si02
#       8
#     8   8   8   8   8   8   8   8
#     4  11  20  31  50  79 112 147 185 224 266 315
#     4  10  20  34  52  77 108 143 182 225 269 315
#     4  10  21  38  58  80 107 141 180 223 270 317
#     4  10  20  33  50  73 105 143 180 218 267 322
#     4  11  22  39  60  84 113 142 175 217 268 322
#     4  10  21  37  56  78 105 138 179 225 271 317
#     4  10  18  32  53  79 110 143 178 217 264 316
#     4  12  24  38  58  83 108 138 178 221 266 317
#
# _framework density 19.753086
#
# number of rings (size 3 to 8) (size 9 to 14) (size 15 to 20)
#    0.000    1.500    0.000    8.250    0.000    6.000 
#    0.000    2.500    0.000    0.750    0.000    5.250 
#    0.000    0.000    0.000    0.000    0.000    0.000 
#
# Total GULP energy -357077.821072 kJ/mol
# GULP energy per Si atom -5579.340954 kJ/mol
# Density = 1.970813 g / cm^3
# Si number density = 19.753086 Si / 1000 Ang^3
#
#
#
# Elastic Constant Matrix: (Units=GPa)
#
#
# Indices 1 2 3 4 5 6 
#
# 1 180.7445 10.3412 45.7677 0.0000 0.0000 0.0000
# 2 10.3412 46.8075 12.5511 0.0000 0.0000 0.0000
# 3 45.7677 12.5511 98.1974 0.0000 0.0000 0.0000
# 4 0.0000 0.0000 0.0000 29.7335 0.0000 0.0000
# 5 0.0000 0.0000 0.0000 0.0000 24.4903 0.0000
# 6 0.0000 0.0000 0.0000 0.0000 0.0000 25.1854
#
#
#
# Elastic Compliance Matrix: (Units=1/GPa)
#
#
# Indices 1 2 3 4 5 6 
#
# 1 0.006291 -0.000625 -0.002852 0.000000 0.000000 0.000000
# 2 -0.000625 0.022184 -0.002544 0.000000 0.000000 0.000000
# 3 -0.002852 -0.002544 0.011838 0.000000 0.000000 0.000000
# 4 0.000000 0.000000 0.000000 0.033632 0.000000 0.000000
# 5 0.000000 0.000000 0.000000 0.000000 0.040833 0.000000
# 6 0.000000 0.000000 0.000000 0.000000 0.000000 0.039706
#
#
# Mechanical properties :
#
#
# Convention : Reuss Voigt Hill
#
# Bulk Modulus (GPa) = 35.37252 51.45215 43.41233
# Shear Modulus (GPa) = 28.41728 33.02112 30.71920
#
# Velocity S-wave (km/s) = 3.79704 4.09307 3.94783
# Velocity P-wave (km/s) = 6.09668 6.96002 6.54260
#
# Compressibility (1/GPa) = 0.02827054
#
# Stress axis : x y z
#
# Youngs Moduli (GPa) = 158.96691 45.07670 84.47354
#
# Poissons Ratio (x) = 0.02817 0.24092
# Poissons Ratio (y) = 0.09936 0.21492
# Poissons Ratio (z) = 0.45338 0.11468
#
# Static dielectric constant tensor:
#      x y z
#    x 1.676080 0.000000 0.000000 
#    y 0.000000 1.877310 0.000000 
#    z 0.000000 0.000000 1.795770 
# 
# From -- ./inp_files/34228.got.cif
#   From: 2010.05.17/outbox.ucp.g08.bks.cvg/sg53_18_cif.got.tgz:34228.got - 2010.06.11 16:32:34.
