data_PCOD9420577
_publ_section_title
;
Structure prediction by ZEFSAII (Michael W. Deem and Ramdas Pophale) SiO2 
 PCOD9420577
Probable space group: P C C A
;
_chemical_formula_sum "Si O2"
_cell_formula_units_Z 56
_cell_length_a 18.269728
_cell_length_b 5.482151
_cell_length_c 23.614257
_cell_angle_alpha 90.000000
_cell_angle_beta 90.000000
_cell_angle_gamma 90.000000
_cell_volume 2365.142764
_symmetry_space_group_name_H-M "P C C A"
_symmetry_group_IT_number 54
_symmetry_cell_setting 'orthorhombic'
loop_
_space_group_symop_operation_xyz
x,y,z
1/2-x,-y,z
1/2+x,-y,1/2-z
-x,y,1/2-z
-x,-y,-z
1/2+x,y,-z
1/2-x,y,1/2+z
x,-y,1/2+z
loop_
_atom_site_type_symbol
_atom_site_label
_atom_site_fract_x
_atom_site_fract_y
_atom_site_fract_z
Si Si1 0.339603 0.223471 0.414692
Si Si2 0.557308 0.177615 0.334057
Si Si3 0.819256 0.358484 0.263905
Si Si4 0.027835 0.674798 0.685456
Si Si5 0.360544 0.847971 0.785212
Si Si6 0.328584 0.733087 0.458657
Si Si7 0.296179 0.747120 0.591189
O O1 0.359106 0.130258 0.352208
O O2 0.366170 0.492780 0.432568
O O3 0.251416 0.245893 0.427580
O O4 0.366112 0.995850 0.451994
O O5 0.507586 0.416855 0.340736
O O6 0.579919 0.161278 0.266698
O O7 0.631039 0.208560 0.370592
O O8 0.514083 0.927982 0.345059
O O9 0.750000 0.500000 0.288810
O O10 0.884061 0.339115 0.308885
O O11 0.836816 0.563664 0.217738
O O12 0.817468 0.092091 0.236360
O O13 0.000000 0.684293 0.750000
O O14 0.316968 0.709505 0.525551
O O15 0.250000 0.500000 0.602420
O O16 0.250000 0.000000 0.597888
#
# Coordination Sequence:
#
# PCOD9420577 Si02
#       7
#     8   8   8   8   8   8   8
#     4  10  18  31  47  68 102 152 192 220 273 339
#     4  10  23  36  56  86 108 149 201 233 295 340
#     4  10  21  32  50  80 118 145 174 227 290 346
#     4  10  21  41  59  79 115 157 200 237 280 353
#     4  10  21  33  48  78 117 149 177 226 286 355
#     4  10  19  31  47  68  98 158 198 220 264 337
#     4  12  21  38  52  73 120 160 192 234 280 350
#
# _framework density 23.677218
#
# number of rings (size 3 to 8) (size 9 to 14) (size 15 to 20)
#    0.000    1.714    2.857    2.571    6.000    6.857 
#    0.000    0.000    0.000    0.000    0.000    0.000 
#    0.000   91.429    0.000    0.000    0.000    0.000 
#
# Total GULP energy -311798.135548 kJ/mol
# GULP energy per Si atom -5567.823849 kJ/mol
# Density = 2.362333 g / cm^3
# Si number density = 23.677218 Si / 1000 Ang^3
#
#
#
# Elastic Constant Matrix: (Units=GPa)
#
#
# Indices 1 2 3 4 5 6 
#
# 1 60.6284 24.8806 37.9096 0.0000 0.0000 0.0000
# 2 24.8806 259.2202 29.8000 0.0000 0.0000 0.0000
# 3 37.9096 29.8000 128.4488 0.0000 0.0000 0.0000
# 4 0.0000 0.0000 0.0000 83.3543 0.0000 0.0000
# 5 0.0000 0.0000 0.0000 0.0000 7.8622 0.0000
# 6 0.0000 0.0000 0.0000 0.0000 0.0000 23.2911
#
#
#
# Elastic Compliance Matrix: (Units=1/GPa)
#
#
# Indices 1 2 3 4 5 6 
#
# 1 0.020655 -0.001317 -0.005790 0.000000 0.000000 0.000000
# 2 -0.001317 0.004047 -0.000550 0.000000 0.000000 0.000000
# 3 -0.005790 -0.000550 0.009622 0.000000 0.000000 0.000000
# 4 0.000000 0.000000 0.000000 0.011997 0.000000 0.000000
# 5 0.000000 0.000000 0.000000 0.000000 0.127192 0.000000
# 6 0.000000 0.000000 0.000000 0.000000 0.000000 0.042935
#
#
# Mechanical properties :
#
#
# Convention : Reuss Voigt Hill
#
# Bulk Modulus (GPa) = 52.60698 70.38642 61.49670
# Shear Modulus (GPa) = 20.99963 46.61533 33.80748
#
# Velocity S-wave (km/s) = 2.98134 4.44191 3.78279
# Velocity P-wave (km/s) = 5.84105 7.48996 6.71630
#
# Compressibility (1/GPa) = 0.01900889
#
# Stress axis : x y z
#
# Youngs Moduli (GPa) = 48.41444 247.07307 103.93011
#
# Poissons Ratio (x) = 0.32536 0.60181
# Poissons Ratio (y) = 0.06375 0.05720
# Poissons Ratio (z) = 0.28034 0.13598
#
# Static dielectric constant tensor:
#      x y z
#    x 2.012490 0.000000 0.000000 
#    y 0.000000 2.109680 0.000000 
#    z 0.000000 0.000000 1.848900 
# 
# From -- ./inp_files/24749.got.cif
#   From: 2010.05.17/outbox.cif.g08.bks.cpg/sg54_13_cif.got.tgz:24749.got - 2010.06.03 13:09:01.
