data_PCOD9420446
_publ_section_title
;
Structure prediction by ZEFSAII (Michael W. Deem and Ramdas Pophale) SiO2 
 PCOD9420446
Probable space group: P C C A
;
_chemical_formula_sum "Si O2"
_cell_formula_units_Z 48
_cell_length_a 18.452477
_cell_length_b 7.742941
_cell_length_c 17.174475
_cell_angle_alpha 90.000000
_cell_angle_beta 90.000000
_cell_angle_gamma 90.000000
_cell_volume 2453.827859
_symmetry_space_group_name_H-M "P C C A"
_symmetry_group_IT_number 54
_symmetry_cell_setting 'orthorhombic'
loop_
_space_group_symop_operation_xyz
x,y,z
1/2-x,-y,z
1/2+x,-y,1/2-z
-x,y,1/2-z
-x,-y,-z
1/2+x,y,-z
1/2-x,y,1/2+z
x,-y,1/2+z
loop_
_atom_site_type_symbol
_atom_site_label
_atom_site_fract_x
_atom_site_fract_y
_atom_site_fract_z
Si Si1 0.890463 0.674336 0.193015
Si Si2 0.143454 0.874253 0.148609
Si Si3 0.000000 0.617988 0.750000
Si Si4 0.942543 0.347356 0.410118
Si Si5 0.795767 0.742840 0.852107
Si Si6 0.250000 0.500000 0.786801
Si Si7 0.494036 0.745227 0.568782
O O1 0.878572 0.792476 0.268594
O O2 0.936189 0.509478 0.222369
O O3 0.812239 0.601679 0.167242
O O4 0.938516 0.765918 0.127623
O O5 0.213475 0.766660 0.118388
O O6 0.074455 0.860010 0.092653
O O7 0.171986 0.066817 0.160986
O O8 0.027951 0.716135 0.673829
O O9 0.855532 0.343089 0.407289
O O10 0.977507 0.243978 0.481097
O O11 0.966996 0.546750 0.418662
O O12 0.788125 0.635278 0.772417
#
# Coordination Sequence:
#
# PCOD9420446 Si02
#       7
#     8   8   4   8   8   4   8
#     4  10  17  34  55  78 111 147 183 235 280 333
#     4  10  19  34  55  79 110 151 186 226 283 344
#     4  10  16  34  56  80 106 144 190 240 270 328
#     4  10  19  35  56  80 107 144 190 232 280 336
#     4  10  20  33  57  79 106 148 192 224 280 344
#     4  10  18  34  58  80 110 146 194 238 276 338
#     4  10  20  35  55  83 114 146 184 237 290 336
#
# _framework density 19.561274999999998
#
# number of rings (size 3 to 8) (size 9 to 14) (size 15 to 20)
#    0.000    2.000    5.000    1.000    0.000    0.667 
#    3.000    5.833    0.000    4.000    0.000    0.000 
#    0.000    0.000    0.000    0.000    0.000    0.000 
#
# Total GULP energy -267724.880405 kJ/mol
# GULP energy per Si atom -5577.601675 kJ/mol
# Density = 1.951675 g / cm^3
# Si number density = 19.561275 Si / 1000 Ang^3
#
#
#
# Elastic Constant Matrix: (Units=GPa)
#
#
# Indices 1 2 3 4 5 6 
#
# 1 143.0891 34.0649 62.6195 0.0000 0.0000 0.0000
# 2 34.0649 40.4770 16.7062 0.0000 0.0000 0.0000
# 3 62.6195 16.7062 107.5886 0.0000 0.0000 0.0000
# 4 0.0000 0.0000 0.0000 5.9702 0.0000 0.0000
# 5 0.0000 0.0000 0.0000 0.0000 23.5415 0.0000
# 6 0.0000 0.0000 0.0000 0.0000 0.0000 33.5211
#
#
#
# Elastic Compliance Matrix: (Units=1/GPa)
#
#
# Indices 1 2 3 4 5 6 
#
# 1 0.010989 -0.007061 -0.005299 0.000000 0.000000 0.000000
# 2 -0.007061 0.030934 -0.000694 0.000000 0.000000 0.000000
# 3 -0.005299 -0.000694 0.012487 0.000000 0.000000 0.000000
# 4 0.000000 0.000000 0.000000 0.167499 0.000000 0.000000
# 5 0.000000 0.000000 0.000000 0.000000 0.042478 0.000000
# 6 0.000000 0.000000 0.000000 0.000000 0.000000 0.029832
#
#
# Mechanical properties :
#
#
# Convention : Reuss Voigt Hill
#
# Bulk Modulus (GPa) = 35.33367 57.54845 46.44106
# Shear Modulus (GPa) = 15.16254 24.45750 19.81002
#
# Velocity S-wave (km/s) = 2.78714 3.53980 3.18577
# Velocity P-wave (km/s) = 5.33477 6.79635 6.10942
#
# Compressibility (1/GPa) = 0.02830161
#
# Stress axis : x y z
#
# Youngs Moduli (GPa) = 91.00229 32.32687 80.08477
#
# Poissons Ratio (x) = 0.22825 0.42440
# Poissons Ratio (y) = 0.64255 0.05557
# Poissons Ratio (z) = 0.48225 0.02243
#
# Static dielectric constant tensor:
#      x y z
#    x 1.732730 0.000000 0.000000 
#    y 0.000000 1.716930 0.000000 
#    z 0.000000 0.000000 1.673120 
# 
# From -- ./inp_files/18542.got.cif
#   From: 2010.05.17/outbox.cif.g08.bks.cpg/sg54_10_cif.got.tgz:18542.got - 2010.06.03 13:09:01.
