data_PCOD9420623
_publ_section_title
;
Structure prediction by ZEFSAII (Michael W. Deem and Ramdas Pophale) SiO2 
 PCOD9420623
Probable space group: P C C A
;
_chemical_formula_sum "Si O2"
_cell_formula_units_Z 32
_cell_length_a 7.211499
_cell_length_b 5.424053
_cell_length_c 33.537453
_cell_angle_alpha 90.000000
_cell_angle_beta 90.000000
_cell_angle_gamma 90.000000
_cell_volume 1311.836013
_symmetry_space_group_name_H-M "P C C A"
_symmetry_group_IT_number 54
_symmetry_cell_setting 'orthorhombic'
loop_
_space_group_symop_operation_xyz
x,y,z
1/2-x,-y,z
1/2+x,-y,1/2-z
-x,y,1/2-z
-x,-y,-z
1/2+x,y,-z
1/2-x,y,1/2+z
x,-y,1/2+z
loop_
_atom_site_type_symbol
_atom_site_label
_atom_site_fract_x
_atom_site_fract_y
_atom_site_fract_z
Si Si1 0.465573 0.206016 0.204876
Si Si2 0.531977 0.490090 0.914919
Si Si3 0.460431 0.297671 0.675296
Si Si4 0.028940 0.002886 0.547230
O O1 0.500000 0.121993 0.250000
O O2 0.251527 0.250420 0.190834
O O3 0.545058 0.482116 0.201400
O O4 0.538783 0.978905 0.178233
O O5 0.750000 0.500000 0.925271
O O6 0.526249 0.415421 0.868554
O O7 0.459497 0.754912 0.929276
O O8 0.450339 0.255754 0.937505
O O9 0.250000 0.000000 0.555064
O O10 0.000000 0.000000 0.500000
#
# Coordination Sequence:
#
# PCOD9420623 Si02
#       4
#     8   8   8   8
#     4  10  19  30  49  78 107 135 167 229 279 307
#     4  10  18  32  55  81 106 136 181 234 262 324
#     4  10  19  32  51  78 105 134 189 219 264 323
#     4  10  21  34  55  87 112 141 182 230 279 329
#
# _framework density 24.393294000000001
#
# number of rings (size 3 to 8) (size 9 to 14) (size 15 to 20)
#    0.000    2.000    2.500    3.000    7.000    0.000 
#    0.000    0.000    0.000    0.000   65.000    0.000 
#    0.000    0.000    0.000    0.000    0.000    0.000 
#
# Total GULP energy -178489.767079 kJ/mol
# GULP energy per Si atom -5577.805221 kJ/mol
# Density = 2.433777 g / cm^3
# Si number density = 24.393294 Si / 1000 Ang^3
#
#
#
# Elastic Constant Matrix: (Units=GPa)
#
#
# Indices 1 2 3 4 5 6 
#
# 1 110.8633 10.8765 8.8404 0.0000 0.0000 0.0000
# 2 10.8765 265.1370 83.9238 0.0000 0.0000 0.0000
# 3 8.8404 83.9238 146.6705 0.0000 0.0000 0.0000
# 4 0.0000 0.0000 0.0000 54.9673 0.0000 0.0000
# 5 0.0000 0.0000 0.0000 0.0000 13.6103 0.0000
# 6 0.0000 0.0000 0.0000 0.0000 0.0000 -26.6203
#
#
#
# Elastic Compliance Matrix: (Units=1/GPa)
#
#
# Indices 1 2 3 4 5 6 
#
# 1 0.009077 -0.000243 -0.000408 0.000000 0.000000 0.000000
# 2 -0.000243 0.004612 -0.002624 0.000000 0.000000 0.000000
# 3 -0.000408 -0.002624 0.008344 0.000000 0.000000 0.000000
# 4 0.000000 0.000000 0.000000 0.018193 0.000000 0.000000
# 5 0.000000 0.000000 0.000000 0.000000 0.073474 0.000000
# 6 0.000000 0.000000 0.000000 0.000000 0.000000 -0.037565
#
#
# Mechanical properties :
#
#
# Convention : Reuss Voigt Hill
#
# Bulk Modulus (GPa) = 64.59150 81.10579 72.84865
# Shear Modulus (GPa) = 56.91769 36.32679 46.62224
#
# Velocity S-wave (km/s) = 4.83570 3.86322 4.37655
# Velocity P-wave (km/s) = 7.59706 7.29525 7.44768
#
# Compressibility (1/GPa) = 0.01548191
#
# Stress axis : x y z
#
# Youngs Moduli (GPa) = 110.17458 216.80956 119.84224
#
# Poissons Ratio (x) = 0.05273 0.04888
# Poissons Ratio (y) = 0.02680 0.31452
# Poissons Ratio (z) = 0.04494 0.56901
#
# Static dielectric constant tensor:
#      x y z
#    x 2.211570 0.000000 0.000000 
#    y 0.000000 2.225730 0.000000 
#    z 0.000000 0.000000 1.915440 
# 
# From -- ./inp_files/27503.got.cif
#   From: 2010.05.17/outbox.cif.g08.bks.cpg/sg54_14_cif.got.tgz:27503.got - 2010.06.03 13:09:01.
