data_PCOD9420360
_publ_section_title
;
Structure prediction by ZEFSAII (Michael W. Deem and Ramdas Pophale) SiO2 
 PCOD9420360
Probable space group: P C C A
;
_chemical_formula_sum "Si O2"
_cell_formula_units_Z 60
_cell_length_a 35.749179
_cell_length_b 13.735254
_cell_length_c 5.297170
_cell_angle_alpha 90.000000
_cell_angle_beta 90.000000
_cell_angle_gamma 90.000000
_cell_volume 2601.037887
_symmetry_space_group_name_H-M "P C C A"
_symmetry_group_IT_number 54
_symmetry_cell_setting 'orthorhombic'
loop_
_space_group_symop_operation_xyz
x,y,z
1/2-x,-y,z
1/2+x,-y,1/2-z
-x,y,1/2-z
-x,-y,-z
1/2+x,y,-z
1/2-x,y,1/2+z
x,-y,1/2+z
loop_
_atom_site_type_symbol
_atom_site_label
_atom_site_fract_x
_atom_site_fract_y
_atom_site_fract_z
Si Si1 0.859274 0.107569 0.522964
Si Si2 0.768860 0.358594 0.584910
Si Si3 0.576828 0.435367 0.144559
Si Si4 0.982997 0.110939 0.000767
Si Si5 0.000000 0.431412 0.750000
Si Si6 0.106870 0.111882 0.476826
Si Si7 0.654093 0.560257 0.770247
Si Si8 0.771350 0.874164 0.063298
O O1 0.876754 0.157862 0.277606
O O2 0.814503 0.098266 0.514699
O O3 0.878076 0.999980 0.530148
O O4 0.873307 0.156046 0.779358
O O5 0.760557 0.393205 0.299717
O O6 0.808638 0.385147 0.698141
O O7 0.768778 0.242633 0.565093
O O8 0.576456 0.523153 0.357917
O O9 0.539345 0.377764 0.216997
O O10 0.615829 0.384730 0.202466
O O11 0.000000 0.156450 0.750000
O O12 0.938046 0.109550 0.007413
O O13 0.000000 0.158829 0.250000
O O14 0.000000 0.000000 0.000000
O O15 0.000000 0.500000 0.500000
O O16 0.653504 0.472417 0.561717
O O17 0.756357 0.904138 0.337577
#
# Coordination Sequence:
#
# PCOD9420360 Si02
#       8
#     8   8   8   8   4   8   8   8
#     4  10  18  32  48  65  93 123 151 200 243 279
#     4  10  21  35  50  67  90 121 157 195 229 280
#     4   8  14  23  36  57  86 114 136 167 206 251
#     4  10  16  25  41  63  96 131 152 181 228 279
#     4   8  12  20  34  52  80 114 136 160 196 246
#     4  10  19  30  45  72 100 123 154 197 244 278
#     4  10  19  30  46  70  97 120 145 187 233 279
#     4  10  21  37  52  66  86 121 163 201 238 282
#
# _framework density 23.067713999999999
#
# number of rings (size 3 to 8) (size 9 to 14) (size 15 to 20)
#    0.000    2.400    0.000    5.600    0.000    1.600 
#    0.000    8.000    0.000    0.000    0.000    0.000 
#   12.000    0.000   61.733    0.000    0.000    0.000 
#
# Total GULP energy -334649.935095 kJ/mol
# GULP energy per Si atom -5577.498918 kJ/mol
# Density = 2.301521 g / cm^3
# Si number density = 23.067714 Si / 1000 Ang^3
#
#
#
# Elastic Constant Matrix: (Units=GPa)
#
#
# Indices 1 2 3 4 5 6 
#
# 1 197.4571 -6.1183 47.0233 0.0000 0.0000 0.0000
# 2 -6.1183 41.9850 -9.9293 0.0000 0.0000 0.0000
# 3 47.0233 -9.9293 184.6392 0.0000 0.0000 0.0000
# 4 0.0000 0.0000 0.0000 19.2017 0.0000 0.0000
# 5 0.0000 0.0000 0.0000 0.0000 39.7930 0.0000
# 6 0.0000 0.0000 0.0000 0.0000 0.0000 -12.9938
#
#
#
# Elastic Compliance Matrix: (Units=1/GPa)
#
#
# Indices 1 2 3 4 5 6 
#
# 1 0.005400 0.000468 -0.001350 0.000000 0.000000 0.000000
# 2 0.000468 0.024165 0.001180 0.000000 0.000000 0.000000
# 3 -0.001350 0.001180 0.005823 0.000000 0.000000 0.000000
# 4 0.000000 0.000000 0.000000 0.052079 0.000000 0.000000
# 5 0.000000 0.000000 0.000000 0.000000 0.025130 0.000000
# 6 0.000000 0.000000 0.000000 0.000000 0.000000 -0.076960
#
#
# Mechanical properties :
#
#
# Convention : Reuss Voigt Hill
#
# Bulk Modulus (GPa) = 27.78945 54.00362 40.89653
# Shear Modulus (GPa) = 106.29809 35.40721 70.85265
#
# Velocity S-wave (km/s) = 6.79566 3.92206 5.54813
# Velocity P-wave (km/s) = 8.58182 6.63113 7.66875
#
# Compressibility (1/GPa) = 0.03598488
#
# Stress axis : x y z
#
# Youngs Moduli (GPa) = 185.17052 41.38154 171.72346
#
# Poissons Ratio (x) = -0.01935 0.23186
# Poissons Ratio (y) = -0.08660 -0.20271
# Poissons Ratio (z) = 0.25002 -0.04885
#
# Static dielectric constant tensor:
#      x y z
#    x 1.882730 0.000000 0.000000 
#    y 0.000000 1.999620 0.000000 
#    z 0.000000 0.000000 2.386730 
# 
# From -- ./inp_files/2222.got.cif
#   From: 2010.05.17/outbox.cif.g08.bks.cpg/sg54_2_cif.got.tgz:2222.got - 2010.06.03 13:09:01.
