data_PCOD9420346
_publ_section_title
;
Structure prediction by ZEFSAII (Michael W. Deem and Ramdas Pophale) SiO2 
 PCOD9420346
Probable space group: P C C A
;
_chemical_formula_sum "Si O2"
_cell_formula_units_Z 56
_cell_length_a 17.697625
_cell_length_b 24.395684
_cell_length_c 5.588305
_cell_angle_alpha 90.000000
_cell_angle_beta 90.000000
_cell_angle_gamma 90.000000
_cell_volume 2412.726470
_symmetry_space_group_name_H-M "P C C A"
_symmetry_group_IT_number 54
_symmetry_cell_setting 'orthorhombic'
loop_
_space_group_symop_operation_xyz
x,y,z
1/2-x,-y,z
1/2+x,-y,1/2-z
-x,y,1/2-z
-x,-y,-z
1/2+x,y,-z
1/2-x,y,1/2+z
x,-y,1/2+z
loop_
_atom_site_type_symbol
_atom_site_label
_atom_site_fract_x
_atom_site_fract_y
_atom_site_fract_z
Si Si1 0.914875 0.021792 0.988029
Si Si2 0.337186 0.695152 0.038731
Si Si3 0.094983 0.850615 0.122815
Si Si4 0.111215 0.816027 0.625353
Si Si5 0.836406 0.347567 0.961262
Si Si6 0.755501 0.099498 0.328934
Si Si7 0.836673 0.521743 0.417773
O O1 0.881522 0.006294 0.248533
O O2 0.922555 0.086296 0.937807
O O3 0.000000 0.000000 0.000000
O O4 0.345851 0.759839 0.070977
O O5 0.370565 0.668236 0.280786
O O6 0.249684 0.675766 0.028602
O O7 0.370984 0.677379 0.782215
O O8 0.066842 0.831935 0.383887
O O9 0.187097 0.855520 0.161143
O O10 0.076777 0.813489 0.892213
O O11 0.167894 0.866746 0.661004
O O12 0.834284 0.412831 0.933893
O O13 0.749598 0.068987 0.578874
O O14 0.750000 0.500000 0.411732
O O15 0.870819 0.497603 0.663920
#
# Coordination Sequence:
#
# PCOD9420346 Si02
#       7
#     8   8   8   8   8   8   8
#     4  10  21  38  59  76  90 109 135 177 225 259
#     4  10  18  25  36  53  81 104 139 172 220 263
#     4  10  19  31  48  70  89 110 145 166 203 268
#     4  10  19  28  45  64  92 123 140 169 206 266
#     4  10  19  24  35  53  74 102 143 193 225 277
#     4   8  16  25  41  59  87 112 144 156 192 236
#     4  10  16  25  35  43  63  96 139 188 246 283
#
# _framework density 23.210255
#
# number of rings (size 3 to 8) (size 9 to 14) (size 15 to 20)
#    0.000    2.286    0.000    6.000   12.000    0.000 
#    0.000    0.000    0.000   23.143    0.000    0.000 
#    0.000    0.000    0.000    0.000    0.000    0.000 
#
# Total GULP energy -312515.983787 kJ/mol
# GULP energy per Si atom -5580.642568 kJ/mol
# Density = 2.315743 g / cm^3
# Si number density = 23.210255 Si / 1000 Ang^3
#
#
#
# Elastic Constant Matrix: (Units=GPa)
#
#
# Indices 1 2 3 4 5 6 
#
# 1 31.8866 1.2580 12.7717 0.0000 0.0000 0.0000
# 2 1.2580 111.5765 16.3895 0.0000 0.0000 0.0000
# 3 12.7717 16.3895 265.5961 0.0000 0.0000 0.0000
# 4 0.0000 0.0000 0.0000 35.4823 0.0000 0.0000
# 5 0.0000 0.0000 0.0000 0.0000 25.7174 0.0000
# 6 0.0000 0.0000 0.0000 0.0000 0.0000 8.9269
#
#
#
# Elastic Compliance Matrix: (Units=1/GPa)
#
#
# Indices 1 2 3 4 5 6 
#
# 1 0.031979 -0.000136 -0.001529 0.000000 0.000000 0.000000
# 2 -0.000136 0.009045 -0.000552 0.000000 0.000000 0.000000
# 3 -0.001529 -0.000552 0.003873 0.000000 0.000000 0.000000
# 4 0.000000 0.000000 0.000000 0.028183 0.000000 0.000000
# 5 0.000000 0.000000 0.000000 0.000000 0.038884 0.000000
# 6 0.000000 0.000000 0.000000 0.000000 0.000000 0.112021
#
#
# Mechanical properties :
#
#
# Convention : Reuss Voigt Hill
#
# Bulk Modulus (GPa) = 24.71394 52.21084 38.46239
# Shear Modulus (GPa) = 20.66917 39.26799 29.96858
#
# Velocity S-wave (km/s) = 2.98739 4.11766 3.59720
# Velocity P-wave (km/s) = 4.75082 6.71940 5.81896
#
# Compressibility (1/GPa) = 0.04046299
#
# Stress axis : x y z
#
# Youngs Moduli (GPa) = 31.27042 110.55805 258.21781
#
# Poissons Ratio (x) = 0.01503 0.39492
# Poissons Ratio (y) = 0.00425 0.14244
# Poissons Ratio (z) = 0.04782 0.06099
#
# Static dielectric constant tensor:
#      x y z
#    x 1.974730 0.000000 0.000000 
#    y 0.000000 1.784940 0.000000 
#    z 0.000000 0.000000 2.091120 
# 
# From -- ./inp_files/2011.got.cif
#   From: 2010.05.17/outbox.cif.g08.bks.cpg/sg54_2_cif.got.tgz:2011.got - 2010.06.03 13:09:01.
