data_PCOD9420810
_publ_section_title
;
Structure prediction by ZEFSAII (Michael W. Deem and Ramdas Pophale) SiO2 
 PCOD9420810
Probable space group: P C C A
;
_chemical_formula_sum "Si O2"
_cell_formula_units_Z 32
_cell_length_a 15.703675
_cell_length_b 6.522600
_cell_length_c 13.423679
_cell_angle_alpha 90.000000
_cell_angle_beta 90.000000
_cell_angle_gamma 90.000000
_cell_volume 1374.971205
_symmetry_space_group_name_H-M "P C C A"
_symmetry_group_IT_number 54
_symmetry_cell_setting 'orthorhombic'
loop_
_space_group_symop_operation_xyz
x,y,z
1/2-x,-y,z
1/2+x,-y,1/2-z
-x,y,1/2-z
-x,-y,-z
1/2+x,y,-z
1/2-x,y,1/2+z
x,-y,1/2+z
loop_
_atom_site_type_symbol
_atom_site_label
_atom_site_fract_x
_atom_site_fract_y
_atom_site_fract_z
Si Si1 0.498676 0.961174 0.864214
Si Si2 0.500000 0.564700 0.750000
Si Si3 0.750000 0.500000 0.022651
Si Si4 0.359433 0.756281 0.325204
Si Si5 0.174302 0.151572 0.101566
O O1 0.500000 0.038317 0.750000
O O2 0.513868 0.720511 0.844194
O O3 0.407035 0.059104 0.884591
O O4 0.578457 0.067590 0.915708
O O5 0.576981 0.423879 0.713605
O O6 0.812060 0.632128 0.952272
O O7 0.797168 0.345107 0.096096
O O8 0.317421 0.828232 0.221857
O O9 0.250000 0.000000 0.069622
#
# Coordination Sequence:
#
# PCOD9420810 Si02
#       5
#     8   4   4   8   8
#     4   8  20  39  70  96 122 180 229 277 336 413
#     4  10  18  42  76  92 122 186 236 276 340 412
#     4  12  30  38  68 106 142 176 228 294 340 418
#     4  11  23  47  71 100 132 184 237 277 351 407
#     4  11  25  45  66 101 140 179 222 285 353 404
#
# _framework density 23.273212999999998
#
# number of rings (size 3 to 8) (size 9 to 14) (size 15 to 20)
#    0.750    1.000    3.750    0.750    7.000    4.000 
#    0.000    2.500    0.000    0.000    0.000    0.000 
#    0.000    0.000    0.000    0.000    0.000    0.000 
#
# Total GULP energy -178365.690872 kJ/mol
# GULP energy per Si atom -5573.927840 kJ/mol
# Density = 2.322024 g / cm^3
# Si number density = 23.273213 Si / 1000 Ang^3
#
#
#
# Elastic Constant Matrix: (Units=GPa)
#
#
# Indices 1 2 3 4 5 6 
#
# 1 29.0007 -5.8106 8.4390 0.0000 0.0000 0.0000
# 2 -5.8106 71.6209 17.4439 0.0000 0.0000 0.0000
# 3 8.4390 17.4439 113.9735 0.0000 0.0000 0.0000
# 4 0.0000 0.0000 0.0000 17.2369 0.0000 0.0000
# 5 0.0000 0.0000 0.0000 0.0000 -175.8102 0.0000
# 6 0.0000 0.0000 0.0000 0.0000 0.0000 50.2044
#
#
#
# Elastic Compliance Matrix: (Units=1/GPa)
#
#
# Indices 1 2 3 4 5 6 
#
# 1 0.036174 0.003726 -0.003249 0.000000 0.000000 0.000000
# 2 0.003726 0.014887 -0.002554 0.000000 0.000000 0.000000
# 3 -0.003249 -0.002554 0.009405 0.000000 0.000000 0.000000
# 4 0.000000 0.000000 0.000000 0.058015 0.000000 0.000000
# 5 0.000000 0.000000 0.000000 0.000000 -0.005688 0.000000
# 6 0.000000 0.000000 0.000000 0.000000 0.000000 0.019919
#
#
# Mechanical properties :
#
#
# Convention : Reuss Voigt Hill
#
# Bulk Modulus (GPa) = 17.75819 28.30441 23.03130
# Shear Modulus (GPa) = 32.12614 -8.70559 11.71028
#
# Velocity S-wave (km/s) = 3.71939 -1.93616 2.24557
# Velocity P-wave (km/s) = 5.10804 2.68140 4.07934
#
# Compressibility (1/GPa) = 0.05631205
#
# Stress axis : x y z
#
# Youngs Moduli (GPa) = 27.64432 67.17345 106.32112
#
# Poissons Ratio (x) = -0.25029 0.34541
# Poissons Ratio (y) = -0.10300 0.27158
# Poissons Ratio (z) = 0.08981 0.17158
#
# Static dielectric constant tensor:
#      x y z
#    x 1.958650 0.000000 0.000000 
#    y 0.000000 1.892830 0.000000 
#    z 0.000000 0.000000 1.890940 
# 
# From -- ./inp_files/13816.got.cif
#   From: 2010.05.17/outbox.cif.g08.bks.cpg/sg54_7_cif.got.tgz:13816.got - 2010.06.03 13:09:01.
