data_PCOD9420930
_publ_section_title
;
Structure prediction by ZEFSAII (Michael W. Deem and Ramdas Pophale) SiO2 
 PCOD9420930
Probable space group: P C C A
;
_chemical_formula_sum "Si O2"
_cell_formula_units_Z 48
_cell_length_a 19.248908
_cell_length_b 11.344710
_cell_length_c 11.884914
_cell_angle_alpha 90.000000
_cell_angle_beta 90.000000
_cell_angle_gamma 90.000000
_cell_volume 2595.347642
_symmetry_space_group_name_H-M "P C C A"
_symmetry_group_IT_number 54
_symmetry_cell_setting 'orthorhombic'
loop_
_space_group_symop_operation_xyz
x,y,z
1/2-x,-y,z
1/2+x,-y,1/2-z
-x,y,1/2-z
-x,-y,-z
1/2+x,y,-z
1/2-x,y,1/2+z
x,-y,1/2+z
loop_
_atom_site_type_symbol
_atom_site_label
_atom_site_fract_x
_atom_site_fract_y
_atom_site_fract_z
Si Si1 0.174056 0.156922 0.735260
Si Si2 0.078084 0.687473 0.786371
Si Si3 0.827338 0.461568 0.364934
Si Si4 0.143502 0.706025 0.018931
Si Si5 0.802543 0.239237 0.526471
Si Si6 0.332287 0.112871 0.682154
O O1 0.135451 0.212979 0.628855
O O2 0.162730 0.223507 0.852420
O O3 0.257616 0.166240 0.718513
O O4 0.160602 0.017387 0.731076
O O5 0.127163 0.582408 0.739670
O O6 0.088845 0.708582 0.918547
O O7 0.106736 0.804575 0.725410
O O8 0.000000 0.663837 0.750000
O O9 0.750000 0.500000 0.327257
O O10 0.854140 0.574430 0.432011
O O11 0.824412 0.352772 0.452986
O O12 0.218786 0.745322 0.967684
O O13 0.824255 0.124651 0.452725
#
# Coordination Sequence:
#
# PCOD9420930 Si02
#       6
#     8   8   8   8   8   8
#     4  10  19  32  62  87 113 142 197 259 296 339
#     4  11  23  40  59  83 126 164 192 236 302 367
#     4   9  21  37  62  87 115 153 199 252 292 342
#     4  10  21  34  57  86 112 149 199 236 299 355
#     4   9  18  34  55  89 117 140 187 256 303 334
#     4   9  20  34  55  87 114 151 188 244 306 348
#
# _framework density 18.494631999999999
#
# number of rings (size 3 to 8) (size 9 to 14) (size 15 to 20)
#    0.000    2.333    1.667    1.000    4.667    2.667 
#    0.000    0.833    0.000    0.000    0.000    0.000 
#    0.000    0.000    0.000    0.000    0.000    0.000 
#
# Total GULP energy -267530.222025 kJ/mol
# GULP energy per Si atom -5573.546292 kJ/mol
# Density = 1.845254 g / cm^3
# Si number density = 18.494632 Si / 1000 Ang^3
#
#
#
# Elastic Constant Matrix: (Units=GPa)
#
#
# Indices 1 2 3 4 5 6 
#
# 1 47.2547 24.4429 18.2517 0.0000 0.0000 0.0000
# 2 24.4429 64.2237 28.1125 0.0000 0.0000 0.0000
# 3 18.2517 28.1125 92.5463 0.0000 0.0000 0.0000
# 4 0.0000 0.0000 0.0000 16.0054 0.0000 0.0000
# 5 0.0000 0.0000 0.0000 0.0000 12.0659 0.0000
# 6 0.0000 0.0000 0.0000 0.0000 0.0000 13.2250
#
#
#
# Elastic Compliance Matrix: (Units=1/GPa)
#
#
# Indices 1 2 3 4 5 6 
#
# 1 0.026852 -0.009113 -0.002527 0.000000 0.000000 0.000000
# 2 -0.009113 0.021051 -0.004597 0.000000 0.000000 0.000000
# 3 -0.002527 -0.004597 0.012700 0.000000 0.000000 0.000000
# 4 0.000000 0.000000 0.000000 0.062479 0.000000 0.000000
# 5 0.000000 0.000000 0.000000 0.000000 0.082878 0.000000
# 6 0.000000 0.000000 0.000000 0.000000 0.000000 0.075615
#
#
# Mechanical properties :
#
#
# Convention : Reuss Voigt Hill
#
# Bulk Modulus (GPa) = 35.55220 38.40432 36.97826
# Shear Modulus (GPa) = 15.45942 17.14043 16.29993
#
# Velocity S-wave (km/s) = 2.89431 3.04761 2.97195
# Velocity P-wave (km/s) = 5.51671 5.76143 5.64040
#
# Compressibility (1/GPa) = 0.02812766
#
# Stress axis : x y z
#
# Youngs Moduli (GPa) = 37.24117 47.50266 78.73775
#
# Poissons Ratio (x) = 0.43291 0.19900
# Poissons Ratio (y) = 0.33939 0.36199
# Poissons Ratio (z) = 0.09412 0.21839
#
# Static dielectric constant tensor:
#      x y z
#    x 1.625160 0.000000 0.000000 
#    y 0.000000 1.652110 0.000000 
#    z 0.000000 0.000000 1.675850 
# 
# From -- ./inp_files/8918.got.cif
#   From: 2010.05.17/outbox.cif.g08.bks.cpg/sg54_5_cif.got.tgz:8918.got - 2010.06.03 13:09:01.
