data_PCOD9420771
_publ_section_title
;
Structure prediction by ZEFSAII (Michael W. Deem and Ramdas Pophale) SiO2 
 PCOD9420771
Probable space group: P C C A
;
_chemical_formula_sum "Si O2"
_cell_formula_units_Z 48
_cell_length_a 22.076958
_cell_length_b 8.067045
_cell_length_c 13.571934
_cell_angle_alpha 90.000000
_cell_angle_beta 90.000000
_cell_angle_gamma 90.000000
_cell_volume 2417.104629
_symmetry_space_group_name_H-M "P C C A"
_symmetry_group_IT_number 54
_symmetry_cell_setting 'orthorhombic'
loop_
_space_group_symop_operation_xyz
x,y,z
1/2-x,-y,z
1/2+x,-y,1/2-z
-x,y,1/2-z
-x,-y,-z
1/2+x,y,-z
1/2-x,y,1/2+z
x,-y,1/2+z
loop_
_atom_site_type_symbol
_atom_site_label
_atom_site_fract_x
_atom_site_fract_y
_atom_site_fract_z
Si Si1 0.681944 0.432399 0.543192
Si Si2 0.750000 0.000000 0.895119
Si Si3 0.453483 0.971302 0.086245
Si Si4 0.131712 0.430373 0.250152
Si Si5 0.656754 0.246243 0.954384
Si Si6 0.857982 0.776008 0.354100
Si Si7 0.500000 0.718927 0.250000
O O1 0.750000 0.500000 0.524612
O O2 0.670010 0.378140 0.654326
O O3 0.645647 0.603871 0.527921
O O4 0.658232 0.305577 0.460790
O O5 0.781689 0.857877 0.960316
O O6 0.695862 0.909500 0.835418
O O7 0.396022 0.884255 0.036877
O O8 0.483383 0.841582 0.160950
O O9 0.422476 0.130029 0.138939
O O10 0.500000 0.000000 0.000000
O O11 0.153940 0.326785 0.154939
O O12 0.141060 0.622894 0.221377
O O13 0.060793 0.388277 0.267162
#
# Coordination Sequence:
#
# PCOD9420771 Si02
#       7
#     8   4   8   8   8   8   4
#     4  11  21  36  59  86 116 152 200 247 283 354
#     4  10  18  38  56  76 122 148 188 244 286 354
#     4  10  21  39  64  84 116 158 194 242 295 348
#     4  10  23  38  60  88 116 159 197 240 298 351
#     4   9  21  38  57  83 116 155 190 240 301 336
#     4  10  22  38  60  86 117 160 192 242 305 345
#     4  10  22  42  58  88 126 148 200 254 278 360
#
# _framework density 19.858471000000002
#
# number of rings (size 3 to 8) (size 9 to 14) (size 15 to 20)
#    0.000    2.000    1.667    1.000    2.333    3.333 
#    0.000   11.667    0.000    0.000    0.000    0.000 
#    0.000    0.000    0.000    0.000    0.000    0.000 
#
# Total GULP energy -267633.271647 kJ/mol
# GULP energy per Si atom -5575.693159 kJ/mol
# Density = 1.981327 g / cm^3
# Si number density = 19.858471 Si / 1000 Ang^3
#
#
#
# Elastic Constant Matrix: (Units=GPa)
#
#
# Indices 1 2 3 4 5 6 
#
# 1 63.2531 28.5104 13.1876 0.0000 0.0000 0.0000
# 2 28.5104 84.8760 3.1485 0.0000 0.0000 0.0000
# 3 13.1876 3.1485 50.1790 0.0000 0.0000 0.0000
# 4 0.0000 0.0000 0.0000 13.5265 0.0000 0.0000
# 5 0.0000 0.0000 0.0000 0.0000 18.3442 0.0000
# 6 0.0000 0.0000 0.0000 0.0000 0.0000 24.5890
#
#
#
# Elastic Compliance Matrix: (Units=1/GPa)
#
#
# Indices 1 2 3 4 5 6 
#
# 1 0.019709 -0.006443 -0.004776 0.000000 0.000000 0.000000
# 2 -0.006443 0.013916 0.000820 0.000000 0.000000 0.000000
# 3 -0.004776 0.000820 0.021132 0.000000 0.000000 0.000000
# 4 0.000000 0.000000 0.000000 0.073929 0.000000 0.000000
# 5 0.000000 0.000000 0.000000 0.000000 0.054513 0.000000
# 6 0.000000 0.000000 0.000000 0.000000 0.000000 0.040669
#
#
# Mechanical properties :
#
#
# Convention : Reuss Voigt Hill
#
# Bulk Modulus (GPa) = 29.44630 32.00011 30.72320
# Shear Modulus (GPa) = 19.53233 21.52270 20.52751
#
# Velocity S-wave (km/s) = 3.13960 3.29569 3.21859
# Velocity P-wave (km/s) = 5.29180 5.53454 5.41453
#
# Compressibility (1/GPa) = 0.03396013
#
# Stress axis : x y z
#
# Youngs Moduli (GPa) = 50.73721 71.86062 47.32103
#
# Poissons Ratio (x) = 0.46302 0.22598
# Poissons Ratio (y) = 0.32692 -0.03881
# Poissons Ratio (z) = 0.24230 -0.05894
#
# Static dielectric constant tensor:
#      x y z
#    x 1.739420 0.000000 0.000000 
#    y 0.000000 1.741440 0.000000 
#    z 0.000000 0.000000 1.670720 
# 
# From -- ./inp_files/9925.got.cif
#   From: 2010.05.17/outbox.cif.g08.bks.cpg/sg54_5_cif.got.tgz:9925.got - 2010.06.03 13:09:01.
