data_PCOD9420977
_publ_section_title
;
Structure prediction by ZEFSAII (Michael W. Deem and Ramdas Pophale) SiO2 
 PCOD9420977
Probable space group: P C C A
;
_chemical_formula_sum "Si O2"
_cell_formula_units_Z 56
_cell_length_a 5.390196
_cell_length_b 29.168454
_cell_length_c 16.166165
_cell_angle_alpha 90.000000
_cell_angle_beta 90.000000
_cell_angle_gamma 90.000000
_cell_volume 2541.704019
_symmetry_space_group_name_H-M "P C C A"
_symmetry_group_IT_number 54
_symmetry_cell_setting 'orthorhombic'
loop_
_space_group_symop_operation_xyz
x,y,z
1/2-x,-y,z
1/2+x,-y,1/2-z
-x,y,1/2-z
-x,-y,-z
1/2+x,y,-z
1/2-x,y,1/2+z
x,-y,1/2+z
loop_
_atom_site_type_symbol
_atom_site_label
_atom_site_fract_x
_atom_site_fract_y
_atom_site_fract_z
Si Si1 0.750664 0.573538 0.204065
Si Si2 0.060104 0.552217 0.474825
Si Si3 0.751731 0.684927 0.704355
Si Si4 0.309094 0.127447 0.554611
Si Si5 0.269346 0.319128 0.985109
Si Si6 0.750526 0.946309 0.803176
Si Si7 0.305288 0.221402 0.045902
O O1 0.500000 0.558319 0.250000
O O2 0.788819 0.557659 0.110614
O O3 0.747527 0.629353 0.203853
O O4 0.000000 0.558586 0.250000
O O5 0.276414 0.570022 0.537218
O O6 0.000000 0.500000 0.500000
O O7 0.500000 0.700186 0.750000
O O8 0.765531 0.698396 0.608521
O O9 0.000000 0.700982 0.750000
O O10 0.582136 0.124874 0.512396
O O11 0.266293 0.086929 0.618744
O O12 0.273882 0.177570 0.599714
O O13 0.519994 0.345634 0.999313
O O14 0.275548 0.276590 0.050555
O O15 0.500000 0.938004 0.750000
O O16 0.000000 0.938827 0.750000
O O17 0.750000 0.000000 0.827905
O O18 0.594376 0.214372 0.025489
#
# Coordination Sequence:
#
# PCOD9420977 Si02
#       7
#     8   8   8   8   8   8   8
#     4  10  21  38  59  83 115 154 189 226 279 338
#     4  10  21  38  58  84 115 146 185 236 276 316
#     4  10  21  36  55  83 116 147 184 229 277 331
#     4  10  19  33  56  78 103 139 182 227 266 323
#     4  10  19  33  56  80 107 145 187 227 276 329
#     4  10  21  36  53  77 110 142 173 219 281 338
#     4   8  16  30  50  72 100 134 176 221 264 312
#
# _framework density 22.032464000000001
#
# number of rings (size 3 to 8) (size 9 to 14) (size 15 to 20)
#    0.000    2.286    0.000    2.571    0.000    1.714 
#    0.000    5.714    0.000   46.286    0.000    0.000 
#    0.000    0.000    0.000    0.000    0.000    0.000 
#
# Total GULP energy -311774.182977 kJ/mol
# GULP energy per Si atom -5567.396125 kJ/mol
# Density = 2.198232 g / cm^3
# Si number density = 22.032464 Si / 1000 Ang^3
#
#
#
# Elastic Constant Matrix: (Units=GPa)
#
#
# Indices 1 2 3 4 5 6 
#
# 1 230.5694 34.6947 52.6134 0.0000 0.0000 0.0000
# 2 34.6947 81.2774 -0.0415 0.0000 0.0000 0.0000
# 3 52.6134 -0.0415 48.0978 0.0000 0.0000 0.0000
# 4 0.0000 0.0000 0.0000 -28.0944 0.0000 0.0000
# 5 0.0000 0.0000 0.0000 0.0000 35.2064 0.0000
# 6 0.0000 0.0000 0.0000 0.0000 0.0000 23.9761
#
#
#
# Elastic Compliance Matrix: (Units=1/GPa)
#
#
# Indices 1 2 3 4 5 6 
#
# 1 0.006322 -0.002702 -0.006918 0.000000 0.000000 0.000000
# 2 -0.002702 0.013459 0.002968 0.000000 0.000000 0.000000
# 3 -0.006918 0.002968 0.028361 0.000000 0.000000 0.000000
# 4 0.000000 0.000000 0.000000 -0.035594 0.000000 0.000000
# 5 0.000000 0.000000 0.000000 0.000000 0.028404 0.000000
# 6 0.000000 0.000000 0.000000 0.000000 0.000000 0.041708
#
#
# Mechanical properties :
#
#
# Convention : Reuss Voigt Hill
#
# Bulk Modulus (GPa) = 28.70563 59.38642 44.04603
# Shear Modulus (GPa) = 46.47773 24.39614 35.43694
#
# Velocity S-wave (km/s) = 4.59792 3.33119 4.01483
# Velocity P-wave (km/s) = 6.42222 6.46594 6.44412
#
# Compressibility (1/GPa) = 0.03483637
#
# Stress axis : x y z
#
# Youngs Moduli (GPa) = 158.16773 74.30195 35.25924
#
# Poissons Ratio (x) = 0.20079 0.24393
# Poissons Ratio (y) = 0.42743 -0.10464
# Poissons Ratio (z) = 1.09425 -0.22050
#
# Static dielectric constant tensor:
#      x y z
#    x 1.973780 0.000000 0.000000 
#    y 0.000000 1.891700 0.000000 
#    z 0.000000 0.000000 1.825820 
# 
# From -- ./inp_files/10981.got.cif
#   From: 2010.05.17/outbox.cif.g08.bks.cpg/sg54_6_cif.got.tgz:10981.got - 2010.06.03 13:09:01.
