data_PCOD9420000
_publ_section_title
;
Structure prediction by ZEFSAII (Michael W. Deem and Ramdas Pophale) SiO2 
 PCOD9420000
Probable space group: P M N A
;
_chemical_formula_sum "Si O2"
_cell_formula_units_Z 44
_cell_length_a 14.837973
_cell_length_b 18.278065
_cell_length_c 8.590727
_cell_angle_alpha 90.000000
_cell_angle_beta 90.000000
_cell_angle_gamma 90.000000
_cell_volume 2329.886216
_symmetry_space_group_name_H-M "P M N A"
_symmetry_group_IT_number 53
_symmetry_cell_setting 'orthorhombic'
loop_
_space_group_symop_operation_xyz
x,y,z
1/2-x,-y,1/2+z
x,-y,-z
1/2-x,y,1/2-z
-x,-y,-z
1/2+x,y,1/2-z
-x,y,z
1/2+x,-y,1/2+z
loop_
_atom_site_type_symbol
_atom_site_label
_atom_site_fract_x
_atom_site_fract_y
_atom_site_fract_z
Si Si1 0.000000 0.413182 0.995443
Si Si2 0.000000 0.282963 0.222817
Si Si3 0.500000 0.729207 0.090412
Si Si4 0.673855 0.945423 0.642865
Si Si5 0.500000 0.023832 0.180519
Si Si6 0.842801 0.335718 0.806658
Si Si7 0.500000 0.138580 0.705471
Si Si8 0.649906 0.203195 0.480334
O O1 0.910449 0.386052 0.905266
O O2 0.000000 0.500000 0.000000
O O3 0.000000 0.365459 0.153887
O O4 0.000000 0.281992 0.407496
O O5 0.913108 0.241479 0.149682
O O6 0.589390 0.695490 0.173594
O O7 0.500000 0.814707 0.136837
O O8 0.750000 0.980641 0.750000
O O9 0.705474 0.864988 0.585742
O O10 0.655263 0.000000 0.500000
O O11 0.587168 0.935202 0.753056
O O12 0.500000 0.946129 0.266885
O O13 0.500000 0.000000 0.000000
O O14 0.750000 0.371492 0.750000
O O15 0.809360 0.268929 0.918432
O O16 0.583922 0.163377 0.602541
#
# Coordination Sequence:
#
# PCOD9420000 Si02
#       8
#     4   4   4   8   4   8   4   8
#     4   9  19  40  65  89 125 161 186 228 289 349
#     4   9  18  35  61  88 112 145 194 234 282 345
#     4   9  19  33  56  86 113 144 196 248 280 341
#     4  12  25  41  55  79 113 148 199 252 309 362
#     4  12  24  39  57  76 107 152 196 253 307 370
#     4   9  19  38  60  84 118 157 195 231 290 350
#     4   9  17  36  56  73  98 148 190 234 306 347
#     4   9  19  36  56  76 107 151 188 241 294 345
#
# _framework density 18.885043
#
# number of rings (size 3 to 8) (size 9 to 14) (size 15 to 20)
#    0.000    2.182    1.818    4.091    2.545    2.182 
#    3.273    6.364    0.000    0.000    0.000    0.000 
#    0.000    0.000    0.000    0.000    0.000    0.000 
#
# Total GULP energy -245240.381618 kJ/mol
# GULP energy per Si atom -5573.645037 kJ/mol
# Density = 1.884206 g / cm^3
# Si number density = 18.885043 Si / 1000 Ang^3
#
#
#
# Elastic Constant Matrix: (Units=GPa)
#
#
# Indices 1 2 3 4 5 6 
#
# 1 78.6794 -3.0607 24.2825 0.0000 0.0000 0.0000
# 2 -3.0607 102.6395 31.4072 0.0000 0.0000 0.0000
# 3 24.2825 31.4072 129.5411 0.0000 0.0000 0.0000
# 4 0.0000 0.0000 0.0000 10.4717 0.0000 0.0000
# 5 0.0000 0.0000 0.0000 0.0000 6.5378 0.0000
# 6 0.0000 0.0000 0.0000 0.0000 0.0000 4.3817
#
#
#
# Elastic Compliance Matrix: (Units=1/GPa)
#
#
# Indices 1 2 3 4 5 6 
#
# 1 0.013645 0.001285 -0.002869 0.000000 0.000000 0.000000
# 2 0.001285 0.010645 -0.002822 0.000000 0.000000 0.000000
# 3 -0.002869 -0.002822 0.008942 0.000000 0.000000 0.000000
# 4 0.000000 0.000000 0.000000 0.095495 0.000000 0.000000
# 5 0.000000 0.000000 0.000000 0.000000 0.152957 0.000000
# 6 0.000000 0.000000 0.000000 0.000000 0.000000 0.228223
#
#
# Mechanical properties :
#
#
# Convention : Reuss Voigt Hill
#
# Bulk Modulus (GPa) = 40.95122 46.23533 43.59327
# Shear Modulus (GPa) = 9.49020 21.49363 15.49192
#
# Velocity S-wave (km/s) = 2.24414 3.37728 2.86724
# Velocity P-wave (km/s) = 5.33352 6.30426 5.83910
#
# Compressibility (1/GPa) = 0.02441930
#
# Stress axis : x y z
#
# Youngs Moduli (GPa) = 73.28505 93.94472 111.83787
#
# Poissons Ratio (x) = -0.12071 0.32090
# Poissons Ratio (y) = -0.09416 0.31556
# Poissons Ratio (z) = 0.21028 0.26508
#
# Static dielectric constant tensor:
#      x y z
#    x 1.662210 0.000000 0.000000 
#    y 0.000000 1.654840 0.000000 
#    z 0.000000 0.000000 1.691410 
# 
# From -- ./inp_files/8602.got.cif
#   From: 2010.05.17/outbox.cif.g08.bks.cpg/sg53_5_cif.got.tgz:8602.got - 2010.06.03 12:45:16.
