data_PCOD9420962
_publ_section_title
;
Structure prediction by ZEFSAII (Michael W. Deem and Ramdas Pophale) SiO2 
 PCOD9420962
Probable space group: P C C A
;
_chemical_formula_sum "Si O2"
_cell_formula_units_Z 56
_cell_length_a 5.376800
_cell_length_b 28.895059
_cell_length_c 17.090442
_cell_angle_alpha 90.000000
_cell_angle_beta 90.000000
_cell_angle_gamma 90.000000
_cell_volume 2655.221541
_symmetry_space_group_name_H-M "P C C A"
_symmetry_group_IT_number 54
_symmetry_cell_setting 'orthorhombic'
loop_
_space_group_symop_operation_xyz
x,y,z
1/2-x,-y,z
1/2+x,-y,1/2-z
-x,y,1/2-z
-x,-y,-z
1/2+x,y,-z
1/2-x,y,1/2+z
x,-y,1/2+z
loop_
_atom_site_type_symbol
_atom_site_label
_atom_site_fract_x
_atom_site_fract_y
_atom_site_fract_z
Si Si1 0.750009 0.740773 0.040389
Si Si2 0.750000 0.346194 0.291552
Si Si3 0.250000 0.500000 0.552183
Si Si4 0.250000 0.000000 0.802274
Si Si5 0.749987 0.148846 0.038692
Si Si6 0.250000 0.244686 0.775470
Si Si7 0.750048 0.601968 0.948247
Si Si8 0.750000 0.898161 0.198423
O O1 0.750013 0.795975 0.024920
O O2 0.750002 0.738168 0.134783
O O3 0.500010 0.721816 0.999999
O O4 0.500000 0.363703 0.250000
O O5 0.750000 0.290810 0.278899
O O6 0.750007 0.360414 0.380784
O O7 0.000000 0.363704 0.250000
O O8 0.500000 0.500000 0.500000
O O9 0.250013 0.449545 0.591549
O O10 0.250002 0.050416 0.841822
O O11 0.500000 1.000000 0.750000
O O12 0.749997 0.139348 0.130366
O O13 0.499983 0.129748 0.000002
O O14 0.500000 0.219017 0.750000
O O15 0.000000 0.219016 0.750000
O O16 0.500075 0.605467 0.000013
O O17 0.500000 0.894980 0.250000
O O18 0.000000 0.894981 0.250000
#
# Coordination Sequence:
#
# PCOD9420962 Si02
#       8
#     8   8   4   4   8   8   8   8
#     4  10  21  38  58  78 103 140 177 213 263 321
#     4  10  21  38  53  77 113 141 170 218 267 306
#     4   8  16  30  52  80 106 134 176 220 252 298
#     4   8  16  30  48  72 104 136 174 218 250 296
#     4  10  21  36  53  78 110 135 168 221 271 312
#     4  10  21  38  56  78 108 137 170 221 266 307
#     4  10  19  35  58  81 106 142 182 216 256 311
#     4  10  19  33  54  78 103 140 182 214 254 312
#
# _framework density 21.090520999999999
#
# number of rings (size 3 to 8) (size 9 to 14) (size 15 to 20)
#    0.000    2.286    0.000    2.571    0.000    1.143 
#    0.000   18.571    0.000    0.000    0.000    0.000 
#    0.000    0.000    0.000    0.000    0.000    0.000 
#
# Total GULP energy -312558.493030 kJ/mol
# GULP energy per Si atom -5581.401661 kJ/mol
# Density = 2.104252 g / cm^3
# Si number density = 21.090521 Si / 1000 Ang^3
#
#
#
# Elastic Constant Matrix: (Units=GPa)
#
#
# Indices 1 2 3 4 5 6 
#
# 1 221.9818 25.1958 72.2612 0.0000 0.0000 0.0000
# 2 25.1958 33.0705 0.3957 0.0000 0.0000 0.0000
# 3 72.2612 0.3957 75.5308 0.0000 0.0000 0.0000
# 4 0.0000 0.0000 0.0000 7.1763 0.0000 0.0000
# 5 0.0000 0.0000 0.0000 0.0000 35.4889 0.0000
# 6 0.0000 0.0000 0.0000 0.0000 0.0000 312.8991
#
#
#
# Elastic Compliance Matrix: (Units=1/GPa)
#
#
# Indices 1 2 3 4 5 6 
#
# 1 0.007450 -0.005591 -0.007098 0.000000 0.000000 0.000000
# 2 -0.005591 0.034436 0.005169 0.000000 0.000000 0.000000
# 3 -0.007098 0.005169 0.020004 0.000000 0.000000 0.000000
# 4 0.000000 0.000000 0.000000 0.139348 0.000000 0.000000
# 5 0.000000 0.000000 0.000000 0.000000 0.028178 0.000000
# 6 0.000000 0.000000 0.000000 0.000000 0.000000 0.003196
#
#
# Mechanical properties :
#
#
# Convention : Reuss Voigt Hill
#
# Bulk Modulus (GPa) = 21.34534 58.47651 39.91093
# Shear Modulus (GPa) = 18.99190 86.62821 52.81006
#
# Velocity S-wave (km/s) = 3.00408 6.41589 5.00940
# Velocity P-wave (km/s) = 4.70908 9.09239 7.24041
#
# Compressibility (1/GPa) = 0.04684863
#
# Stress axis : x y z
#
# Youngs Moduli (GPa) = 134.22373 29.03901 49.99067
#
# Poissons Ratio (x) = 0.16236 0.35486
# Poissons Ratio (y) = 0.75048 -0.25839
# Poissons Ratio (z) = 0.95278 -0.15010
#
# Static dielectric constant tensor:
#      x y z
#    x 1.826230 0.000000 0.000000 
#    y 0.000000 1.817830 0.000000 
#    z 0.000000 0.000000 1.715030 
# 
# From -- ./inp_files/11019.got.cif
#   From: 2010.05.17/outbox.cif.g08.bks.cpg/sg54_6_cif.got.tgz:11019.got - 2010.06.03 13:09:01.
