data_PCOD9420396
_publ_section_title
;
Structure prediction by ZEFSAII (Michael W. Deem and Ramdas Pophale) SiO2 
 PCOD9420396
Probable space group: P C C A
;
_chemical_formula_sum "Si O2"
_cell_formula_units_Z 56
_cell_length_a 14.172926
_cell_length_b 32.938985
_cell_length_c 5.301293
_cell_angle_alpha 90.000000
_cell_angle_beta 90.000000
_cell_angle_gamma 90.000000
_cell_volume 2474.865150
_symmetry_space_group_name_H-M "P C C A"
_symmetry_group_IT_number 54
_symmetry_cell_setting 'orthorhombic'
loop_
_space_group_symop_operation_xyz
x,y,z
1/2-x,-y,z
1/2+x,-y,1/2-z
-x,y,1/2-z
-x,-y,-z
1/2+x,y,-z
1/2-x,y,1/2+z
x,-y,1/2+z
loop_
_atom_site_type_symbol
_atom_site_label
_atom_site_fract_x
_atom_site_fract_y
_atom_site_fract_z
Si Si1 0.141227 0.015760 0.455212
Si Si2 0.106804 0.811071 0.023098
Si Si3 0.187274 0.895653 0.119347
Si Si4 0.393974 0.777300 0.024700
Si Si5 0.888623 0.519690 0.774219
Si Si6 0.686726 0.305918 0.847434
Si Si7 0.189488 0.395223 0.077312
O O1 0.140608 0.060750 0.568575
O O2 0.250000 0.000000 0.418099
O O3 0.100711 0.987181 0.674257
O O4 0.150494 0.803412 0.749574
O O5 0.116763 0.858007 0.089667
O O6 0.149250 0.784857 0.250680
O O7 0.000197 0.794371 0.999335
O O8 0.235221 0.893253 0.394064
O O9 0.384839 0.730773 0.104830
O O10 0.850773 0.509812 0.495062
O O11 0.871715 0.565411 0.863856
O O12 0.000000 0.512641 0.750000
O O13 0.734950 0.302808 0.571964
O O14 0.643908 0.350976 0.879210
O O15 0.271569 0.396703 0.291842
#
# Coordination Sequence:
#
# PCOD9420396 Si02
#       7
#     8   8   8   8   8   8   8
#     4  10  16  30  48  73 114 144 176 229 271 322
#     4  10  23  37  56  81 111 154 186 232 277 342
#     4  12  21  32  53  86 118 144 189 234 276 323
#     4  10  21  42  57  76 115 150 188 228 287 355
#     4  10  21  37  57  83 123 164 200 240 286 348
#     4  10  21  37  63  87 112 147 184 248 296 342
#     4  10  21  37  58  90 120 145 198 248 298 348
#
# _framework density 22.627496000000001
#
# number of rings (size 3 to 8) (size 9 to 14) (size 15 to 20)
#    0.000    1.714    2.857    2.571    0.000    5.143 
#    2.571    0.000    6.286    0.000    0.000   12.000 
#    0.000    0.000    0.000    0.000    0.000    0.000 
#
# Total GULP energy -312669.386700 kJ/mol
# GULP energy per Si atom -5583.381905 kJ/mol
# Density = 2.257599 g / cm^3
# Si number density = 22.627496 Si / 1000 Ang^3
#
#
#
# Elastic Constant Matrix: (Units=GPa)
#
#
# Indices 1 2 3 4 5 6 
#
# 1 45.8015 -4.1679 -7.5411 0.0000 0.0000 0.0000
# 2 -4.1679 137.4335 7.9031 0.0000 0.0000 0.0000
# 3 -7.5411 7.9031 122.2260 0.0000 0.0000 0.0000
# 4 0.0000 0.0000 0.0000 35.0461 0.0000 0.0000
# 5 0.0000 0.0000 0.0000 0.0000 2.5122 0.0000
# 6 0.0000 0.0000 0.0000 0.0000 0.0000 -8.8492
#
#
#
# Elastic Compliance Matrix: (Units=1/GPa)
#
#
# Indices 1 2 3 4 5 6 
#
# 1 0.022106 0.000594 0.001325 0.000000 0.000000 0.000000
# 2 0.000594 0.007319 -0.000437 0.000000 0.000000 0.000000
# 3 0.001325 -0.000437 0.008292 0.000000 0.000000 0.000000
# 4 0.000000 0.000000 0.000000 0.028534 0.000000 0.000000
# 5 0.000000 0.000000 0.000000 0.000000 0.398063 0.000000
# 6 0.000000 0.000000 0.000000 0.000000 0.000000 -0.113004
#
#
# Mechanical properties :
#
#
# Convention : Reuss Voigt Hill
#
# Bulk Modulus (GPa) = 24.58050 33.09435 28.83743
# Shear Modulus (GPa) = 13.81582 26.35961 20.08771
#
# Velocity S-wave (km/s) = 2.47367 3.41682 2.98276
# Velocity P-wave (km/s) = 4.36410 5.49761 4.96332
#
# Compressibility (1/GPa) = 0.04068265
#
# Stress axis : x y z
#
# Youngs Moduli (GPa) = 45.23728 136.62372 120.60436
#
# Poissons Ratio (x) = -0.08118 -0.15986
# Poissons Ratio (y) = -0.02688 0.05266
# Poissons Ratio (z) = -0.05996 0.05965
#
# Static dielectric constant tensor:
#      x y z
#    x 1.827820 0.000000 0.000000 
#    y 0.000000 1.826500 0.000000 
#    z 0.000000 0.000000 1.939110 
# 
# From -- ./inp_files/705.got.cif
#   From: 2010.05.17/outbox.cif.g08.bks.cpg/sg54_1_cif.got.tgz:705.got - 2010.06.03 13:09:01.
