data_PCOD9420079
_publ_section_title
;
Structure prediction by ZEFSAII (Michael W. Deem and Ramdas Pophale) SiO2 
 PCOD9420079
Probable space group: P M N A
;
_chemical_formula_sum "Si O2"
_cell_formula_units_Z 56
_cell_length_a 9.000000
_cell_length_b 18.000000
_cell_length_c 21.000000
_cell_angle_alpha 90.000000
_cell_angle_beta 90.000000
_cell_angle_gamma 90.000000
_cell_volume 3402.000000
_symmetry_space_group_name_H-M "P M N A"
_symmetry_group_IT_number 53
_symmetry_cell_setting 'orthorhombic'
loop_
_space_group_symop_operation_xyz
x,y,z
1/2-x,-y,1/2+z
x,-y,-z
1/2-x,y,1/2-z
-x,-y,-z
1/2+x,y,1/2-z
-x,y,z
1/2+x,-y,1/2+z
loop_
_atom_site_type_symbol
_atom_site_label
_atom_site_fract_x
_atom_site_fract_y
_atom_site_fract_z
Si Si1 0.829346 0.331779 0.947886
Si Si2 0.175840 0.742363 0.683970
Si Si3 0.331792 0.373793 0.402499
Si Si4 0.328880 0.028286 0.573563
Si Si5 0.669718 0.479870 0.924301
Si Si6 0.177034 0.824805 0.462630
Si Si7 0.321970 0.118668 0.105715
O O1 0.735916 0.397930 0.916203
O O2 0.755225 0.251314 0.942769
O O3 0.000000 0.330902 0.925975
O O4 0.830986 0.353096 0.022888
O O5 0.250000 0.723422 0.750000
O O6 0.223281 0.682211 0.632373
O O7 0.225873 0.822887 0.658799
O O8 0.000000 0.744107 0.689945
O O9 0.500000 0.365278 0.378885
O O10 0.273709 0.457308 0.394438
O O11 0.500000 0.040556 0.590528
O O12 0.237600 0.104340 0.575833
O O13 0.323937 0.000000 0.500000
O O14 0.256825 0.960240 0.611201
O O15 0.500000 0.484807 0.901995
O O16 0.668342 0.500000 0.000000
O O17 0.211884 0.843841 0.536888
O O18 0.000000 0.818161 0.457116
O O19 0.500000 0.108495 0.107403
#
# Coordination Sequence:
#
# PCOD9420079 Si02
#       7
#     8   8   8   8   8   8   8
#     4  10  18  27  42  65  92 119 151 186 223 268
#     4  11  22  35  49  67  89 118 158 197 233 271
#     4  10  19  31  46  63  87 118 151 190 232 269
#     4   9  17  27  41  62  86 113 147 183 222 268
#     4   9  17  28  43  62  86 117 151 183 221 271
#     4  10  17  27  43  63  89 120 152 182 221 270
#     4   9  18  31  45  60  84 117 151 187 227 270
#
# _framework density 16.460905
#
# number of rings (size 3 to 8) (size 9 to 14) (size 15 to 20)
#    0.000    2.286    1.429    2.571    0.000    6.286 
#    0.000    0.000    0.000    0.000    0.000    0.000 
#    0.000    1.143    0.000    9.714    0.000    6.571 
#
# Total GULP energy -312128.793102 kJ/mol
# GULP energy per Si atom -5573.728448 kJ/mol
# Density = 1.642344 g / cm^3
# Si number density = 16.460905 Si / 1000 Ang^3
#
#
#
# Elastic Constant Matrix: (Units=GPa)
#
#
# Indices 1 2 3 4 5 6 
#
# 1 46.1379 32.7859 -2.6829 0.0000 0.0000 0.0000
# 2 32.7859 108.7150 -7.2253 0.0000 0.0000 0.0000
# 3 -2.6829 -7.2253 5.4769 0.0000 0.0000 0.0000
# 4 0.0000 0.0000 0.0000 0.3912 0.0000 0.0000
# 5 0.0000 0.0000 0.0000 0.0000 2.8869 0.0000
# 6 0.0000 0.0000 0.0000 0.0000 0.0000 31.2806
#
#
#
# Elastic Compliance Matrix: (Units=1/GPa)
#
#
# Indices 1 2 3 4 5 6 
#
# 1 0.027625 -0.008146 0.002786 0.000000 0.000000 0.000000
# 2 -0.008146 0.012484 0.012480 0.000000 0.000000 0.000000
# 3 0.002786 0.012480 0.200415 0.000000 0.000000 0.000000
# 4 0.000000 0.000000 0.000000 2.555958 0.000000 0.000000
# 5 0.000000 0.000000 0.000000 0.000000 0.346386 0.000000
# 6 0.000000 0.000000 0.000000 0.000000 0.000000 0.031969
#
#
# Mechanical properties :
#
#
# Convention : Reuss Voigt Hill
#
# Bulk Modulus (GPa) = 3.92521 22.89834 13.41178
# Shear Modulus (GPa) = 1.54059 16.07523 8.80791
#
# Velocity S-wave (km/s) = 0.96847 3.12840 2.31569
# Velocity P-wave (km/s) = 1.90796 5.19520 3.91347
#
# Compressibility (1/GPa) = 0.25476325
#
# Stress axis : x y z
#
# Youngs Moduli (GPa) = 36.19961 80.10017 4.98965
#
# Poissons Ratio (x) = 0.65248 -0.01390
# Poissons Ratio (y) = 0.29487 -0.06227
# Poissons Ratio (z) = -0.10084 -0.99963
#
# Static dielectric constant tensor:
#      x y z
#    x 1.551230 0.000000 0.000000 
#    y 0.000000 1.546380 0.000000 
#    z 0.000000 0.000000 1.507680 
# 
# From -- ./inp_files/31064.got.cif
#   From: 2010.05.17/outbox.ucp.g08.bks.cvg/sg53_16_cif.got.tgz:31064.got - 2010.06.11 16:32:34.
