data_PCOD9420837
_publ_section_title
;
Structure prediction by ZEFSAII (Michael W. Deem and Ramdas Pophale) SiO2 
 PCOD9420837
Probable space group: P C C A
;
_chemical_formula_sum "Si O2"
_cell_formula_units_Z 36
_cell_length_a 5.269857
_cell_length_b 12.666264
_cell_length_c 31.997607
_cell_angle_alpha 90.000000
_cell_angle_beta 90.000000
_cell_angle_gamma 90.000000
_cell_volume 2135.821069
_symmetry_space_group_name_H-M "P C C A"
_symmetry_group_IT_number 54
_symmetry_cell_setting 'orthorhombic'
loop_
_space_group_symop_operation_xyz
x,y,z
1/2-x,-y,z
1/2+x,-y,1/2-z
-x,y,1/2-z
-x,-y,-z
1/2+x,y,-z
1/2-x,y,1/2+z
x,-y,1/2+z
loop_
_atom_site_type_symbol
_atom_site_label
_atom_site_fract_x
_atom_site_fract_y
_atom_site_fract_z
Si Si1 0.750000 0.000000 0.277906
Si Si2 0.728672 0.876991 0.612064
Si Si3 0.249065 0.624910 0.722578
Si Si4 0.944705 0.120096 0.516355
Si Si5 0.276651 0.807317 0.157921
O O1 0.801177 0.101156 0.307063
O O2 0.500000 0.018933 0.250000
O O3 0.666113 0.876866 0.562800
O O4 0.488236 0.827328 0.634936
O O5 0.988073 0.821505 0.626275
O O6 0.750000 0.000000 0.624567
O O7 0.250000 0.500000 0.712992
O O8 0.500000 0.649179 0.750000
O O9 0.233032 0.696634 0.681758
O O10 0.000000 0.647520 0.750000
O O11 0.724833 0.168674 0.487394
O O12 0.000000 0.000000 0.500000
#
# Coordination Sequence:
#
# PCOD9420837 Si02
#       5
#     4   8   8   8   8
#     4  12  22  32  46  66 100 140 168 196 244 314
#     4  12  21  34  49  76 111 148 168 206 267 309
#     4  10  21  40  62  78  98 136 186 235 272 305
#     4  10  19  30  50  69 100 147 178 211 236 302
#     4  12  23  35  51  76 110 137 175 216 267 321
#
# _framework density 16.855343999999999
#
# number of rings (size 3 to 8) (size 9 to 14) (size 15 to 20)
#    0.000    0.889    4.444    5.333    3.111    0.000 
#    0.000    0.000    0.000    0.000    0.000    0.000 
#    0.000   17.778    0.000    0.000    0.000    0.000 
#
# Total GULP energy -200955.528635 kJ/mol
# GULP energy per Si atom -5582.098018 kJ/mol
# Density = 1.681698 g / cm^3
# Si number density = 16.855344 Si / 1000 Ang^3
#
#
#
# Elastic Constant Matrix: (Units=GPa)
#
#
# Indices 1 2 3 4 5 6 
#
# 1 162.3468 28.2458 43.4515 0.0000 0.0000 0.0000
# 2 28.2458 45.7571 34.2518 0.0000 0.0000 0.0000
# 3 43.4515 34.2518 86.8499 0.0000 0.0000 0.0000
# 4 0.0000 0.0000 0.0000 16.4648 0.0000 0.0000
# 5 0.0000 0.0000 0.0000 0.0000 26.4309 0.0000
# 6 0.0000 0.0000 0.0000 0.0000 0.0000 0.5582
#
#
#
# Elastic Compliance Matrix: (Units=1/GPa)
#
#
# Indices 1 2 3 4 5 6 
#
# 1 0.007311 -0.002519 -0.002664 0.000000 0.000000 0.000000
# 2 -0.002519 0.031876 -0.011311 0.000000 0.000000 0.000000
# 3 -0.002664 -0.011311 0.017308 0.000000 0.000000 0.000000
# 4 0.000000 0.000000 0.000000 0.060735 0.000000 0.000000
# 5 0.000000 0.000000 0.000000 0.000000 0.037834 0.000000
# 6 0.000000 0.000000 0.000000 0.000000 0.000000 1.791509
#
#
# Mechanical properties :
#
#
# Convention : Reuss Voigt Hill
#
# Bulk Modulus (GPa) = 42.54087 56.31689 49.42888
# Shear Modulus (GPa) = 2.51585 21.29110 11.90348
#
# Velocity S-wave (km/s) = 1.22305 3.55796 2.66035
# Velocity P-wave (km/s) = 5.22380 7.09670 6.23102
#
# Compressibility (1/GPa) = 0.02350681
#
# Stress axis : x y z
#
# Youngs Moduli (GPa) = 136.78070 31.37107 57.77626
#
# Poissons Ratio (x) = 0.07901 0.15394
# Poissons Ratio (y) = 0.34449 0.65353
# Poissons Ratio (z) = 0.36445 0.35485
#
# Static dielectric constant tensor:
#      x y z
#    x 1.635070 0.000000 0.000000 
#    y 0.000000 1.565540 0.000000 
#    z 0.000000 0.000000 1.588710 
# 
# From -- ./inp_files/27026.got.cif
#   From: 2010.05.17/outbox.cif.g08.bks.cpg/sg54_14_cif.got.tgz:27026.got - 2010.06.03 13:09:01.
