data_PCOD9420852
_publ_section_title
;
Structure prediction by ZEFSAII (Michael W. Deem and Ramdas Pophale) SiO2 
 PCOD9420852
Probable space group: P C C A
;
_chemical_formula_sum "Si O2"
_cell_formula_units_Z 48
_cell_length_a 5.145045
_cell_length_b 32.830018
_cell_length_c 15.592962
_cell_angle_alpha 90.000000
_cell_angle_beta 90.000000
_cell_angle_gamma 90.000000
_cell_volume 2633.837149
_symmetry_space_group_name_H-M "P C C A"
_symmetry_group_IT_number 54
_symmetry_cell_setting 'orthorhombic'
loop_
_space_group_symop_operation_xyz
x,y,z
1/2-x,-y,z
1/2+x,-y,1/2-z
-x,y,1/2-z
-x,-y,-z
1/2+x,y,-z
1/2-x,y,1/2+z
x,-y,1/2+z
loop_
_atom_site_type_symbol
_atom_site_label
_atom_site_fract_x
_atom_site_fract_y
_atom_site_fract_z
Si Si1 0.696082 0.205998 0.057786
Si Si2 0.750175 0.954137 0.189478
Si Si3 0.698308 0.706524 0.058672
Si Si4 0.750091 0.543658 0.188093
Si Si5 0.804877 0.881164 0.558114
Si Si6 0.250225 0.367313 0.311407
O O1 0.402229 0.205973 0.021997
O O2 0.755299 0.249101 0.101946
O O3 0.755581 0.162948 0.102232
O O4 0.500000 0.950612 0.250000
O O5 0.742760 0.919028 0.119401
O O6 0.000000 0.950153 0.250000
O O7 0.750000 0.000000 0.151564
O O8 0.742616 0.669229 0.121838
O O9 0.412752 0.704760 0.017113
O O10 0.750000 0.500000 0.139940
O O11 0.500000 0.543621 0.250000
O O12 0.751539 0.587824 0.143824
O O13 0.000000 0.543545 0.250000
O O14 0.592771 0.882541 0.481600
O O15 0.500000 0.364425 0.250000
O O16 0.000000 0.365112 0.250000
#
# Coordination Sequence:
#
# PCOD9420852 Si02
#       6
#     8   8   8   8   8   8
#     4   8  16  30  48  69  93 123 157 193 232 278
#     4  10  21  36  51  71 103 135 157 187 241 296
#     4  10  19  33  51  69  95 131 161 185 233 297
#     4   8  14  25  42  63  87 117 151 187 230 277
#     4  10  19  33  54  76  95 121 165 208 232 265
#     4  10  19  31  48  72  97 119 155 204 238 267
#
# _framework density 18.224360999999998
#
# number of rings (size 3 to 8) (size 9 to 14) (size 15 to 20)
#    0.000    2.667    0.000    2.000    0.000    0.667 
#    0.000    1.667    0.000    1.000    0.000    0.000 
#    0.000    0.000    0.000    0.000    0.000    0.000 
#
# Total GULP energy -267266.618175 kJ/mol
# GULP energy per Si atom -5568.054545 kJ/mol
# Density = 1.818288 g / cm^3
# Si number density = 18.224361 Si / 1000 Ang^3
#
#
#
# Elastic Constant Matrix: (Units=GPa)
#
#
# Indices 1 2 3 4 5 6 
#
# 1 111.6069 0.1973 -0.6245 0.0000 0.0000 0.0000
# 2 0.1973 219.5621 45.3371 0.0000 0.0000 0.0000
# 3 -0.6245 45.3371 14.5346 0.0000 0.0000 0.0000
# 4 0.0000 0.0000 0.0000 55.2235 0.0000 0.0000
# 5 0.0000 0.0000 0.0000 0.0000 10.4905 0.0000
# 6 0.0000 0.0000 0.0000 0.0000 0.0000 25.5132
#
#
#
# Elastic Compliance Matrix: (Units=1/GPa)
#
#
# Indices 1 2 3 4 5 6 
#
# 1 0.008967 -0.000246 0.001153 0.000000 0.000000 0.000000
# 2 -0.000246 0.012804 -0.039948 0.000000 0.000000 0.000000
# 3 0.001153 -0.039948 0.193458 0.000000 0.000000 0.000000
# 4 0.000000 0.000000 0.000000 0.018108 0.000000 0.000000
# 5 0.000000 0.000000 0.000000 0.000000 0.095325 0.000000
# 6 0.000000 0.000000 0.000000 0.000000 0.000000 0.039195
#
#
# Mechanical properties :
#
#
# Convention : Reuss Voigt Hill
#
# Bulk Modulus (GPa) = 7.29146 48.39149 27.84148
# Shear Modulus (GPa) = 10.16973 38.29834 24.23404
#
# Velocity S-wave (km/s) = 2.36483 4.58918 3.65054
# Velocity P-wave (km/s) = 3.38617 7.39537 5.75142
#
# Compressibility (1/GPa) = 0.13714672
#
# Stress axis : x y z
#
# Youngs Moduli (GPa) = 111.52117 78.10333 5.16907
#
# Poissons Ratio (x) = 0.01923 -0.00596
# Poissons Ratio (y) = 0.02745 0.20649
# Poissons Ratio (z) = -0.12859 3.12007
#
# Static dielectric constant tensor:
#      x y z
#    x 1.401450 0.000000 0.000000 
#    y 0.000000 1.715040 0.000000 
#    z 0.000000 0.000000 1.573450 
# 
# From -- ./inp_files/10907.got.cif
#   From: 2010.05.17/outbox.cif.g08.bks.cpg/sg54_6_cif.got.tgz:10907.got - 2010.06.03 13:09:01.
