data_PCOD9420113
_publ_section_title
;
Structure prediction by ZEFSAII (Michael W. Deem and Ramdas Pophale) SiO2 
 PCOD9420113
Probable space group: P M N A
;
_chemical_formula_sum "Si O2"
_cell_formula_units_Z 64
_cell_length_a 9.000000
_cell_length_b 15.000000
_cell_length_c 24.000000
_cell_angle_alpha 90.000000
_cell_angle_beta 90.000000
_cell_angle_gamma 90.000000
_cell_volume 3240.000000
_symmetry_space_group_name_H-M "P M N A"
_symmetry_group_IT_number 53
_symmetry_cell_setting 'orthorhombic'
loop_
_space_group_symop_operation_xyz
x,y,z
1/2-x,-y,1/2+z
x,-y,-z
1/2-x,y,1/2-z
-x,-y,-z
1/2+x,y,1/2-z
-x,y,z
1/2+x,-y,1/2+z
loop_
_atom_site_type_symbol
_atom_site_label
_atom_site_fract_x
_atom_site_fract_y
_atom_site_fract_z
Si Si1 0.677052 0.176075 0.494475
Si Si2 0.675368 0.785931 0.629656
Si Si3 0.322709 0.425200 0.631669
Si Si4 0.679152 0.953440 0.692879
Si Si5 0.820507 0.094412 0.895270
Si Si6 0.323439 0.364389 0.982837
Si Si7 0.176153 0.599246 0.608546
Si Si8 0.178601 0.247318 0.808551
O O1 0.500000 0.195779 0.503022
O O2 0.694253 0.160698 0.428886
O O3 0.721076 0.102871 0.540140
O O4 0.773448 0.262677 0.508341
O O5 0.500000 0.764401 0.633351
O O6 0.717733 0.851680 0.679046
O O7 0.767125 0.695904 0.626422
O O8 0.500000 0.429092 0.630789
O O9 0.263549 0.398222 0.570685
O O10 0.254329 0.521468 0.642716
O O11 0.277189 0.347388 0.674170
O O12 0.750000 0.984295 0.750000
O O13 0.500000 0.959925 0.695921
O O14 0.734444 0.013222 0.641693
O O15 0.780510 0.182819 0.860000
O O16 0.000000 0.088057 0.895134
O O17 0.500000 0.372910 0.973754
O O18 0.287336 0.409802 0.042309
O O19 0.000000 0.592864 0.613565
O O20 0.250000 0.220883 0.750000
O O21 0.000000 0.243141 0.803347
#
# Coordination Sequence:
#
# PCOD9420113 Si02
#       8
#     8   8   8   8   8   8   8   8
#     4   9  16  31  54  79 112 146 177 220 275 328
#     4   9  19  35  56  82 109 142 184 226 274 329
#     4  11  21  34  53  77 107 144 185 224 265 319
#     4  10  21  37  58  83 109 141 185 230 272 325
#     4   9  17  33  56  82 112 140 176 222 270 327
#     4  10  19  31  49  78 113 144 178 218 264 322
#     4  10  21  35  53  79 110 142 178 223 274 322
#     4  10  21  36  53  76 107 144 182 222 269 322
#
# _framework density 19.753086
#
# number of rings (size 3 to 8) (size 9 to 14) (size 15 to 20)
#    0.000    2.250    1.250    1.875    0.000    5.000 
#    0.000    3.750    0.000    0.000    0.000    4.375 
#    0.000    0.000    0.000    0.000    0.000    0.000 
#
# Total GULP energy -356970.884872 kJ/mol
# GULP energy per Si atom -5577.670076 kJ/mol
# Density = 1.970813 g / cm^3
# Si number density = 19.753086 Si / 1000 Ang^3
#
#
#
# Elastic Constant Matrix: (Units=GPa)
#
#
# Indices 1 2 3 4 5 6 
#
# 1 11.4243 15.4574 9.1365 0.0000 0.0000 0.0000
# 2 15.4574 61.7094 24.5479 0.0000 0.0000 0.0000
# 3 9.1365 24.5479 20.5278 0.0000 0.0000 0.0000
# 4 0.0000 0.0000 0.0000 16.1627 0.0000 0.0000
# 5 0.0000 0.0000 0.0000 0.0000 21.7398 0.0000
# 6 0.0000 0.0000 0.0000 0.0000 0.0000 -2.0786
#
#
#
# Elastic Compliance Matrix: (Units=1/GPa)
#
#
# Indices 1 2 3 4 5 6 
#
# 1 0.148742 -0.020833 -0.041289 0.000000 0.000000 0.000000
# 2 -0.020833 0.033826 -0.031178 0.000000 0.000000 0.000000
# 3 -0.041289 -0.031178 0.104375 0.000000 0.000000 0.000000
# 4 0.000000 0.000000 0.000000 0.061871 0.000000 0.000000
# 5 0.000000 0.000000 0.000000 0.000000 0.045999 0.000000
# 6 0.000000 0.000000 0.000000 0.000000 0.000000 -0.481100
#
#
# Mechanical properties :
#
#
# Convention : Reuss Voigt Hill
#
# Bulk Modulus (GPa) = 9.96584 21.32723 15.64653
# Shear Modulus (GPa) = 37.37994 10.13274 23.75634
#
# Velocity S-wave (km/s) = 4.35484 2.26734 3.47171
# Velocity P-wave (km/s) = 5.50839 4.20414 4.89986
#
# Compressibility (1/GPa) = 0.10034281
#
# Stress axis : x y z
#
# Youngs Moduli (GPa) = 6.72305 29.56300 9.58080
#
# Poissons Ratio (x) = 0.61589 0.39558
# Poissons Ratio (y) = 0.14006 0.29871
# Poissons Ratio (z) = 0.27759 0.92172
#
# Static dielectric constant tensor:
#      x y z
#    x 1.655510 0.000000 0.000000 
#    y 0.000000 1.734310 0.000000 
#    z 0.000000 0.000000 1.682680 
# 
# From -- ./inp_files/34158.got.cif
#   From: 2010.05.17/outbox.ucp.g08.bks.cvg/sg53_18_cif.got.tgz:34158.got - 2010.06.11 16:32:34.
