data_PCOD9420652
_publ_section_title
;
Structure prediction by ZEFSAII (Michael W. Deem and Ramdas Pophale) SiO2 
 PCOD9420652
Probable space group: P C C A
;
_chemical_formula_sum "Si O2"
_cell_formula_units_Z 64
_cell_length_a 17.569649
_cell_length_b 7.309841
_cell_length_c 23.309717
_cell_angle_alpha 90.000000
_cell_angle_beta 90.000000
_cell_angle_gamma 90.000000
_cell_volume 2993.698204
_symmetry_space_group_name_H-M "P C C A"
_symmetry_group_IT_number 54
_symmetry_cell_setting 'orthorhombic'
loop_
_space_group_symop_operation_xyz
x,y,z
1/2-x,-y,z
1/2+x,-y,1/2-z
-x,y,1/2-z
-x,-y,-z
1/2+x,y,-z
1/2-x,y,1/2+z
x,-y,1/2+z
loop_
_atom_site_type_symbol
_atom_site_label
_atom_site_fract_x
_atom_site_fract_y
_atom_site_fract_z
Si Si1 0.933460 0.246028 0.783404
Si Si2 0.750172 0.721703 0.964573
Si Si3 0.304461 0.156095 0.411843
Si Si4 0.333107 0.437005 0.310672
Si Si5 0.486702 0.364341 0.813548
Si Si6 0.603744 0.734256 0.901699
Si Si7 0.400548 0.684756 0.088501
Si Si8 0.959197 0.170144 0.528772
O O1 0.870502 0.310999 0.738535
O O2 0.899218 0.163794 0.841020
O O3 0.000000 0.140841 0.750000
O O4 0.977341 0.429780 0.806582
O O5 0.750000 0.500000 0.966464
O O6 0.670068 0.799304 0.943382
O O7 0.818784 0.779992 0.921703
O O8 0.764455 0.782428 0.029356
O O9 0.318332 0.320230 0.367812
O O10 0.388317 0.101894 0.433623
O O11 0.250000 0.000000 0.386163
O O12 0.250000 0.500000 0.290899
O O13 0.396706 0.595198 0.322729
O O14 0.500000 0.282990 0.750000
O O15 0.534180 0.267386 0.864631
O O16 0.622058 0.520494 0.893849
O O17 0.521465 0.739844 0.930559
O O18 0.434117 0.698966 0.023790
O O19 0.000000 0.000000 0.500000
#
# Coordination Sequence:
#
# PCOD9420652 Si02
#       8
#     8   8   8   8   8   8   8   8
#     4   8  16  31  52  78 103 130 169 212 256 307
#     4   9  19  32  51  78 103 131 169 213 262 313
#     4  11  22  36  50  72 108 139 171 217 263 313
#     4  10  20  33  55  81 104 136 175 216 265 319
#     4   8  16  31  52  78 106 133 167 214 263 311
#     4  10  18  33  57  80 104 137 173 218 266 317
#     4   9  18  32  52  77 106 135 171 216 261 317
#     4  11  22  34  52  76 103 143 184 216 261 313
#
# _framework density 21.378240000000002
#
# number of rings (size 3 to 8) (size 9 to 14) (size 15 to 20)
#    0.000    2.750    0.000    3.750    0.000    7.500 
#    0.000    0.000    0.000   10.500    0.000    7.875 
#    0.000    0.000    0.000    0.000    0.000    0.000 
#
# Total GULP energy -356571.732591 kJ/mol
# GULP energy per Si atom -5571.433322 kJ/mol
# Density = 2.132958 g / cm^3
# Si number density = 21.378240 Si / 1000 Ang^3
#
#
#
# Elastic Constant Matrix: (Units=GPa)
#
#
# Indices 1 2 3 4 5 6 
#
# 1 150.8508 5.0383 48.3977 0.0000 0.0000 0.0000
# 2 5.0383 42.1525 -8.8357 0.0000 0.0000 0.0000
# 3 48.3977 -8.8357 90.0490 0.0000 0.0000 0.0000
# 4 0.0000 0.0000 0.0000 -809.7597 0.0000 0.0000
# 5 0.0000 0.0000 0.0000 0.0000 25.1276 0.0000
# 6 0.0000 0.0000 0.0000 0.0000 0.0000 -1.3579
#
#
#
# Elastic Compliance Matrix: (Units=1/GPa)
#
#
# Indices 1 2 3 4 5 6 
#
# 1 0.008162 -0.001935 -0.004577 0.000000 0.000000 0.000000
# 2 -0.001935 0.024680 0.003462 0.000000 0.000000 0.000000
# 3 -0.004577 0.003462 0.013904 0.000000 0.000000 0.000000
# 4 0.000000 0.000000 0.000000 -0.001235 0.000000 0.000000
# 5 0.000000 0.000000 0.000000 0.000000 0.039797 0.000000
# 6 0.000000 0.000000 0.000000 0.000000 0.000000 -0.736420
#
#
# Mechanical properties :
#
#
# Convention : Reuss Voigt Hill
#
# Bulk Modulus (GPa) = 24.60212 41.36142 32.98177
# Shear Modulus (GPa) = -7.91813 -141.30121 -74.60967
#
# Velocity S-wave (km/s) = -1.92662 -8.13875 -5.91402
# Velocity P-wave (km/s) = 2.56590 8.30239 5.58327
#
# Compressibility (1/GPa) = 0.04064690
#
# Stress axis : x y z
#
# Youngs Moduli (GPa) = 122.51877 40.51825 71.91931
#
# Poissons Ratio (x) = 0.07840 0.32915
# Poissons Ratio (y) = 0.23706 -0.24896
# Poissons Ratio (z) = 0.56072 -0.14026
#
# Static dielectric constant tensor:
#      x y z
#    x 1.819140 0.000000 0.000000 
#    y 0.000000 1.870200 0.000000 
#    z 0.000000 0.000000 1.833320 
# 
# From -- ./inp_files/24670.got.cif
#   From: 2010.05.17/outbox.cif.g08.bks.cpg/sg54_13_cif.got.tgz:24670.got - 2010.06.03 13:09:01.
