data_PCOD9420895
_publ_section_title
;
Structure prediction by ZEFSAII (Michael W. Deem and Ramdas Pophale) SiO2 
 PCOD9420895
Probable space group: P C C A
;
_chemical_formula_sum "Si O2"
_cell_formula_units_Z 64
_cell_length_a 5.352818
_cell_length_b 14.015600
_cell_length_c 35.716065
_cell_angle_alpha 90.000000
_cell_angle_beta 90.000000
_cell_angle_gamma 90.000000
_cell_volume 2679.524772
_symmetry_space_group_name_H-M "P C C A"
_symmetry_group_IT_number 54
_symmetry_cell_setting 'orthorhombic'
loop_
_space_group_symop_operation_xyz
x,y,z
1/2-x,-y,z
1/2+x,-y,1/2-z
-x,y,1/2-z
-x,-y,-z
1/2+x,y,-z
1/2-x,y,1/2+z
x,-y,1/2+z
loop_
_atom_site_type_symbol
_atom_site_label
_atom_site_fract_x
_atom_site_fract_y
_atom_site_fract_z
Si Si1 0.869684 0.362117 0.141793
Si Si2 0.142858 0.894912 0.788460
Si Si3 0.422662 0.135641 0.866846
Si Si4 0.079240 0.865691 0.099905
Si Si5 0.126951 0.634876 0.101809
Si Si6 0.946764 0.393503 0.984913
Si Si7 0.985277 0.892203 0.015373
Si Si8 0.756917 0.313000 0.725558
O O1 0.890860 0.249577 0.131079
O O2 0.630590 0.400672 0.119812
O O3 0.806892 0.365954 0.186268
O O4 0.134763 0.397903 0.126103
O O5 0.976265 0.882150 0.825257
O O6 0.308466 0.798175 0.786526
O O7 0.000000 0.893398 0.750000
O O8 0.250000 0.000000 0.791563
O O9 0.636772 0.099090 0.894531
O O10 0.138164 0.099984 0.871874
O O11 0.109166 0.750915 0.103048
O O12 0.969235 0.890090 0.059617
O O13 0.137927 0.608447 0.058121
O O14 0.723935 0.350917 0.010053
O O15 0.000000 0.500000 0.000000
O O16 0.246845 0.847400 0.004012
O O17 0.000000 0.000000 0.000000
O O18 0.500000 0.316474 0.750000
O O19 0.000000 0.344474 0.750000
#
# Coordination Sequence:
#
# PCOD9420895 Si02
#       8
#     8   8   8   8   8   8   8   8
#     4   9  18  32  51  76 108 136 186 226 267 327
#     4  10  21  35  51  72 101 133 179 227 281 347
#     4   9  20  36  52  75  97 131 169 225 274 321
#     4  10  20  37  56  74 101 127 178 221 270 332
#     4  10  19  33  55  78 104 147 180 224 268 314
#     4  10  21  36  54  82 118 152 184 222 264 317
#     4  10  21  37  53  70  93 123 154 216 278 325
#     4  10  19  32  52  75 104 144 179 230 293 337
#
# _framework density 23.884830999999998
#
# number of rings (size 3 to 8) (size 9 to 14) (size 15 to 20)
#    0.000    2.250    0.000    2.625    0.000    8.000 
#    6.750    0.000    0.000    0.000    0.000    0.000 
#    0.000    0.000    0.000  126.000    0.000   35.000 
#
# Total GULP energy -357280.443130 kJ/mol
# GULP energy per Si atom -5582.506924 kJ/mol
# Density = 2.383047 g / cm^3
# Si number density = 23.884831 Si / 1000 Ang^3
#
#
#
# Elastic Constant Matrix: (Units=GPa)
#
#
# Indices 1 2 3 4 5 6 
#
# 1 173.6696 14.8338 53.3883 0.0000 0.0000 0.0000
# 2 14.8338 75.2882 -2.8283 0.0000 0.0000 0.0000
# 3 53.3883 -2.8283 122.4596 0.0000 0.0000 0.0000
# 4 0.0000 0.0000 0.0000 34.9617 0.0000 0.0000
# 5 0.0000 0.0000 0.0000 0.0000 45.6345 0.0000
# 6 0.0000 0.0000 0.0000 0.0000 0.0000 5.6390
#
#
#
# Elastic Compliance Matrix: (Units=1/GPa)
#
#
# Indices 1 2 3 4 5 6 
#
# 1 0.006804 -0.001453 -0.003000 0.000000 0.000000 0.000000
# 2 -0.001453 0.013604 0.000948 0.000000 0.000000 0.000000
# 3 -0.003000 0.000948 0.009496 0.000000 0.000000 0.000000
# 4 0.000000 0.000000 0.000000 0.028603 0.000000 0.000000
# 5 0.000000 0.000000 0.000000 0.000000 0.021913 0.000000
# 6 0.000000 0.000000 0.000000 0.000000 0.000000 0.177337
#
#
# Mechanical properties :
#
#
# Convention : Reuss Voigt Hill
#
# Bulk Modulus (GPa) = 43.68102 55.80055 49.74079
# Shear Modulus (GPa) = 18.35534 37.64862 28.00198
#
# Velocity S-wave (km/s) = 2.77518 3.97452 3.42771
# Velocity P-wave (km/s) = 5.34759 6.66899 6.04451
#
# Compressibility (1/GPa) = 0.02289324
#
# Stress axis : x y z
#
# Youngs Moduli (GPa) = 146.96238 73.50646 105.30990
#
# Poissons Ratio (x) = 0.10683 0.31594
# Poissons Ratio (y) = 0.21359 -0.09982
# Poissons Ratio (z) = 0.44090 -0.06967
#
# Static dielectric constant tensor:
#      x y z
#    x 2.072230 0.000000 0.000000 
#    y 0.000000 2.052440 0.000000 
#    z 0.000000 0.000000 1.823800 
# 
# From -- ./inp_files/27293.got.cif
#   From: 2010.05.17/outbox.cif.g08.bks.cpg/sg54_14_cif.got.tgz:27293.got - 2010.06.03 13:09:01.
