data_PCOD9420182
_publ_section_title
;
Structure prediction by ZEFSAII (Michael W. Deem and Ramdas Pophale) SiO2 
 PCOD9420182
Probable space group: P M N A
;
_chemical_formula_sum "Si O2"
_cell_formula_units_Z 40
_cell_length_a 9.000000
_cell_length_b 12.000000
_cell_length_c 21.000000
_cell_angle_alpha 90.000000
_cell_angle_beta 90.000000
_cell_angle_gamma 90.000000
_cell_volume 2268.000000
_symmetry_space_group_name_H-M "P M N A"
_symmetry_group_IT_number 53
_symmetry_cell_setting 'orthorhombic'
loop_
_space_group_symop_operation_xyz
x,y,z
1/2-x,-y,1/2+z
x,-y,-z
1/2-x,y,1/2-z
-x,-y,-z
1/2+x,y,1/2-z
-x,y,z
1/2+x,-y,1/2+z
loop_
_atom_site_type_symbol
_atom_site_label
_atom_site_fract_x
_atom_site_fract_y
_atom_site_fract_z
Si Si1 0.676353 0.539019 0.916702
Si Si2 0.179820 0.087676 0.558170
Si Si3 0.319843 0.963476 0.678383
Si Si4 0.675182 0.733100 0.817354
Si Si5 0.820447 0.668606 0.036281
O O1 0.500000 0.521371 0.928975
O O2 0.688267 0.621217 0.857410
O O3 0.759522 0.420509 0.911590
O O4 0.754018 0.610349 0.972914
O O5 0.252734 0.044414 0.624272
O O6 0.250404 0.208775 0.543301
O O7 0.000000 0.095796 0.564252
O O8 0.209776 0.000000 0.500000
O O9 0.250000 0.980630 0.750000
O O10 0.500000 0.969267 0.681285
O O11 0.263726 0.840487 0.656715
O O12 0.750000 0.712691 0.750000
O O13 0.500000 0.762505 0.812315
O O14 0.000000 0.672320 0.035328
#
# Coordination Sequence:
#
# PCOD9420182 Si02
#       5
#     8   8   8   8   8
#     4  10  20  36  56  78 108 144 179 219 271 326
#     4  11  23  39  59  83 113 148 187 231 279 332
#     4  11  22  37  58  83 114 149 186 229 277 331
#     4  10  20  34  55  81 108 141 180 221 266 317
#     4  11  22  35  55  82 109 140 179 224 274 325
#
# _framework density 17.636683999999999
#
# number of rings (size 3 to 8) (size 9 to 14) (size 15 to 20)
#    0.000    1.400    0.000    9.000    0.000    9.600 
#    0.000    1.000    0.000    2.400    0.000    0.000 
#    0.000    0.000    0.000    0.000    0.000    0.000 
#
# Total GULP energy -223200.629812 kJ/mol
# GULP energy per Si atom -5580.015745 kJ/mol
# Density = 1.759654 g / cm^3
# Si number density = 17.636684 Si / 1000 Ang^3
#
#
#
# Elastic Constant Matrix: (Units=GPa)
#
#
# Indices 1 2 3 4 5 6 
#
# 1 185.0761 79.6890 41.2479 0.0000 0.0000 0.0000
# 2 79.6890 163.4031 53.5968 0.0000 0.0000 0.0000
# 3 41.2479 53.5968 52.2591 0.0000 0.0000 0.0000
# 4 0.0000 0.0000 0.0000 25.8701 0.0000 0.0000
# 5 0.0000 0.0000 0.0000 0.0000 23.5944 0.0000
# 6 0.0000 0.0000 0.0000 0.0000 0.0000 37.6130
#
#
#
# Elastic Compliance Matrix: (Units=1/GPa)
#
#
# Indices 1 2 3 4 5 6 
#
# 1 0.007162 -0.002469 -0.003120 0.000000 0.000000 0.000000
# 2 -0.002469 0.010073 -0.008382 0.000000 0.000000 0.000000
# 3 -0.003120 -0.008382 0.030195 0.000000 0.000000 0.000000
# 4 0.000000 0.000000 0.000000 0.038655 0.000000 0.000000
# 5 0.000000 0.000000 0.000000 0.000000 0.042383 0.000000
# 6 0.000000 0.000000 0.000000 0.000000 0.000000 0.026587
#
#
# Mechanical properties :
#
#
# Convention : Reuss Voigt Hill
#
# Bulk Modulus (GPa) = 51.31731 83.31176 67.31453
# Shear Modulus (GPa) = 26.38605 32.49582 29.44093
#
# Velocity S-wave (km/s) = 3.87213 4.29711 4.09014
# Velocity P-wave (km/s) = 7.01079 8.48295 7.78176
#
# Compressibility (1/GPa) = 0.01948660
#
# Stress axis : x y z
#
# Youngs Moduli (GPa) = 139.62979 99.27065 33.11778
#
# Poissons Ratio (x) = 0.24512 0.10334
# Poissons Ratio (y) = 0.34477 0.27761
# Poissons Ratio (z) = 0.43570 0.83212
#
# Static dielectric constant tensor:
#      x y z
#    x 1.589760 0.000000 0.000000 
#    y 0.000000 1.623180 0.000000 
#    z 0.000000 0.000000 1.723840 
# 
# From -- ./inp_files/30346.got.cif
#   From: 2010.05.17/outbox.ucp.g08.bks.cvg/sg53_16_cif.got.tgz:30346.got - 2010.06.11 16:32:34.
