data_PCOD9420356
_publ_section_title
;
Structure prediction by ZEFSAII (Michael W. Deem and Ramdas Pophale) SiO2 
 PCOD9420356
Probable space group: P C C A
;
_chemical_formula_sum "Si O2"
_cell_formula_units_Z 48
_cell_length_a 5.539354
_cell_length_b 21.796053
_cell_length_c 19.050260
_cell_angle_alpha 90.000000
_cell_angle_beta 90.000000
_cell_angle_gamma 90.000000
_cell_volume 2300.053208
_symmetry_space_group_name_H-M "P C C A"
_symmetry_group_IT_number 54
_symmetry_cell_setting 'orthorhombic'
loop_
_space_group_symop_operation_xyz
x,y,z
1/2-x,-y,z
1/2+x,-y,1/2-z
-x,y,1/2-z
-x,-y,-z
1/2+x,y,-z
1/2-x,y,1/2+z
x,-y,1/2+z
loop_
_atom_site_type_symbol
_atom_site_label
_atom_site_fract_x
_atom_site_fract_y
_atom_site_fract_z
Si Si1 0.250000 0.430775 0.375524
Si Si2 0.750000 0.667440 0.497218
Si Si3 0.750000 0.199731 0.662962
Si Si4 0.750000 0.931053 0.204943
Si Si5 0.250000 0.386099 0.659393
Si Si6 0.250000 0.752025 0.679109
O O1 0.250000 0.500000 0.403501
O O2 0.250000 0.381808 0.439267
O O3 0.495534 0.420062 0.331775
O O4 0.004466 0.420062 0.331775
O O5 0.500000 0.702751 0.500000
O O6 0.750000 0.631262 0.423775
O O7 0.750000 0.126872 0.653108
O O8 0.498944 0.230768 0.640628
O O9 0.750000 0.211245 0.747694
O O10 0.001056 0.230768 0.640628
O O11 0.500000 0.925957 0.250000
O O12 0.000000 0.925957 0.250000
O O13 0.750000 0.000000 0.174633
O O14 0.250000 0.320050 0.696453
#
# Coordination Sequence:
#
# PCOD9420356 Si02
#       6
#     8   8   8   8   8   8
#     4  10  19  31  46  64  85 103 125 162 214 272
#     4   8  16  27  41  59  84 104 124 150 199 257
#     4  10  17  30  43  62  81 116 149 170 203 227
#     4  10  16  25  41  63  88 110 142 173 201 243
#     4  10  19  29  42  65  82 105 136 166 206 245
#     4  10  18  28  43  59  84 108 145 179 193 236
#
# _framework density 20.869081999999999
#
# number of rings (size 3 to 8) (size 9 to 14) (size 15 to 20)
#    0.000    2.333    3.333    1.500    0.000    6.000 
#    0.000    0.000    0.000    0.000    0.000   46.667 
#    0.000    0.000    0.000    0.000    0.000  255.000 
#
# Total GULP energy -267449.924219 kJ/mol
# GULP energy per Si atom -5571.873421 kJ/mol
# Density = 2.082158 g / cm^3
# Si number density = 20.869082 Si / 1000 Ang^3
#
#
#
# Elastic Constant Matrix: (Units=GPa)
#
#
# Indices 1 2 3 4 5 6 
#
# 1 224.8907 10.6789 3.5117 0.0000 0.0000 0.0000
# 2 10.6789 82.1326 3.9742 0.0000 0.0000 0.0000
# 3 3.5117 3.9742 56.1074 0.0000 0.0000 0.0000
# 4 0.0000 0.0000 0.0000 9.8789 0.0000 0.0000
# 5 0.0000 0.0000 0.0000 0.0000 -10.9358 0.0000
# 6 0.0000 0.0000 0.0000 0.0000 0.0000 27.4695
#
#
#
# Elastic Compliance Matrix: (Units=1/GPa)
#
#
# Indices 1 2 3 4 5 6 
#
# 1 0.004477 -0.000571 -0.000240 0.000000 0.000000 0.000000
# 2 -0.000571 0.012290 -0.000835 0.000000 0.000000 0.000000
# 3 -0.000240 -0.000835 0.017897 0.000000 0.000000 0.000000
# 4 0.000000 0.000000 0.000000 0.101225 0.000000 0.000000
# 5 0.000000 0.000000 0.000000 0.000000 -0.091443 0.000000
# 6 0.000000 0.000000 0.000000 0.000000 0.000000 0.036404
#
#
# Mechanical properties :
#
#
# Convention : Reuss Voigt Hill
#
# Bulk Modulus (GPa) = 31.87338 44.38450 38.12894
# Shear Modulus (GPa) = 52.85434 28.28025 40.56730
#
# Velocity S-wave (km/s) = 5.03802 3.68520 4.41375
# Velocity P-wave (km/s) = 7.01059 6.27868 6.65470
#
# Compressibility (1/GPa) = 0.03137415
#
# Stress axis : x y z
#
# Youngs Moduli (GPa) = 223.34181 81.36690 55.87501
#
# Poissons Ratio (x) = 0.04642 0.01340
# Poissons Ratio (y) = 0.12743 0.04665
# Poissons Ratio (z) = 0.05356 0.06793
#
# Static dielectric constant tensor:
#      x y z
#    x 1.865900 0.000000 0.000000 
#    y 0.000000 1.731810 0.000000 
#    z 0.000000 0.000000 1.748350 
# 
# From -- ./inp_files/25510.got.cif
#   From: 2010.05.17/outbox.cif.g08.bks.cpg/sg54_13_cif.got.tgz:25510.got - 2010.06.03 13:09:01.
