data_PCOD9420528
_publ_section_title
;
Structure prediction by ZEFSAII (Michael W. Deem and Ramdas Pophale) SiO2 
 PCOD9420528
Probable space group: P C C A
;
_chemical_formula_sum "Si O2"
_cell_formula_units_Z 44
_cell_length_a 10.288236
_cell_length_b 15.014784
_cell_length_c 15.351835
_cell_angle_alpha 90.000000
_cell_angle_beta 90.000000
_cell_angle_gamma 90.000000
_cell_volume 2371.484556
_symmetry_space_group_name_H-M "P C C A"
_symmetry_group_IT_number 54
_symmetry_cell_setting 'orthorhombic'
loop_
_space_group_symop_operation_xyz
x,y,z
1/2-x,-y,z
1/2+x,-y,1/2-z
-x,y,1/2-z
-x,-y,-z
1/2+x,y,-z
1/2-x,y,1/2+z
x,-y,1/2+z
loop_
_atom_site_type_symbol
_atom_site_label
_atom_site_fract_x
_atom_site_fract_y
_atom_site_fract_z
Si Si1 0.998446 0.698913 0.931511
Si Si2 0.293755 0.327865 0.073424
Si Si3 0.000000 0.590905 0.750000
Si Si4 0.852331 0.183232 0.781009
Si Si5 0.891375 0.841738 0.675551
Si Si6 0.250000 0.500000 0.692028
Si Si7 0.250000 0.000000 0.763754
O O1 0.850546 0.691778 0.962932
O O2 0.001073 0.649588 0.837726
O O3 0.048829 0.798308 0.909759
O O4 0.099351 0.659612 0.999521
O O5 0.328561 0.244622 0.135800
O O6 0.287397 0.416296 0.131926
O O7 0.127643 0.530654 0.747904
O O8 0.740963 0.207536 0.708751
O O9 0.819063 0.077820 0.791733
O O10 0.000000 0.193496 0.750000
O O11 0.000000 0.832981 0.750000
O O12 0.849814 0.944872 0.676248
#
# Coordination Sequence:
#
# PCOD9420528 Si02
#       7
#     8   8   4   8   8   4   4
#     4  11  22  41  61  91 121 167 198 254 305 362
#     4  11  25  39  61  91 129 154 209 254 312 351
#     4  10  22  42  66  86 118 166 210 242 308 362
#     4  10  21  36  61  94 118 162 206 250 302 364
#     4  10  17  37  62  82 121 162 203 247 292 368
#     4  10  24  42  60  96 118 166 204 252 298 368
#     4   8  20  32  66  88 120 158 208 246 298 370
#
# _framework density 18.55378
#
# number of rings (size 3 to 8) (size 9 to 14) (size 15 to 20)
#    1.091    0.727    2.727    1.636    3.818    5.091 
#    0.000    0.909    0.000    4.364    0.000    0.000 
#    0.000    0.000    0.000    0.000    0.000    0.000 
#
# Total GULP energy -245054.267408 kJ/mol
# GULP energy per Si atom -5569.415168 kJ/mol
# Density = 1.851155 g / cm^3
# Si number density = 18.553780 Si / 1000 Ang^3
#
#
#
# Elastic Constant Matrix: (Units=GPa)
#
#
# Indices 1 2 3 4 5 6 
#
# 1 159.3479 33.7104 31.2861 0.0000 0.0000 0.0000
# 2 33.7104 83.4270 13.4464 0.0000 0.0000 0.0000
# 3 31.2861 13.4464 30.3038 0.0000 0.0000 0.0000
# 4 0.0000 0.0000 0.0000 2.4246 0.0000 0.0000
# 5 0.0000 0.0000 0.0000 0.0000 32.3845 0.0000
# 6 0.0000 0.0000 0.0000 0.0000 0.0000 17.4457
#
#
#
# Elastic Compliance Matrix: (Units=1/GPa)
#
#
# Indices 1 2 3 4 5 6 
#
# 1 0.008199 -0.002099 -0.007533 0.000000 0.000000 0.000000
# 2 -0.002099 0.013447 -0.003800 0.000000 0.000000 0.000000
# 3 -0.007533 -0.003800 0.042463 0.000000 0.000000 0.000000
# 4 0.000000 0.000000 0.000000 0.412433 0.000000 0.000000
# 5 0.000000 0.000000 0.000000 0.000000 0.030879 0.000000
# 6 0.000000 0.000000 0.000000 0.000000 0.000000 0.057321
#
#
# Mechanical properties :
#
#
# Convention : Reuss Voigt Hill
#
# Bulk Modulus (GPa) = 26.84956 47.77385 37.31170
# Shear Modulus (GPa) = 8.27788 23.42668 15.85228
#
# Velocity S-wave (km/s) = 2.11453 3.55721 2.92618
# Velocity P-wave (km/s) = 4.52375 6.53272 5.61875
#
# Compressibility (1/GPa) = 0.03724456
#
# Stress axis : x y z
#
# Youngs Moduli (GPa) = 121.97207 74.36593 23.55013
#
# Poissons Ratio (x) = 0.15607 0.17741
# Poissons Ratio (y) = 0.25598 0.08949
# Poissons Ratio (z) = 0.91883 0.28259
#
# Static dielectric constant tensor:
#      x y z
#    x 1.615950 0.000000 0.000000 
#    y 0.000000 1.691730 0.000000 
#    z 0.000000 0.000000 1.617610 
# 
# From -- ./inp_files/11674.got.cif
#   From: 2010.05.17/outbox.cif.g08.bks.cpg/sg54_6_cif.got.tgz:11674.got - 2010.06.03 13:09:01.
