data_PCOD9420760
_publ_section_title
;
Structure prediction by ZEFSAII (Michael W. Deem and Ramdas Pophale) SiO2 
 PCOD9420760
Probable space group: P C C A
;
_chemical_formula_sum "Si O2"
_cell_formula_units_Z 36
_cell_length_a 9.948367
_cell_length_b 8.807026
_cell_length_c 20.274768
_cell_angle_alpha 90.000000
_cell_angle_beta 90.000000
_cell_angle_gamma 90.000000
_cell_volume 1776.384480
_symmetry_space_group_name_H-M "P C C A"
_symmetry_group_IT_number 54
_symmetry_cell_setting 'orthorhombic'
loop_
_space_group_symop_operation_xyz
x,y,z
1/2-x,-y,z
1/2+x,-y,1/2-z
-x,y,1/2-z
-x,-y,-z
1/2+x,y,-z
1/2-x,y,1/2+z
x,-y,1/2+z
loop_
_atom_site_type_symbol
_atom_site_label
_atom_site_fract_x
_atom_site_fract_y
_atom_site_fract_z
Si Si1 0.000000 0.881977 0.250000
Si Si2 0.909990 0.365694 0.930595
Si Si3 0.611169 0.094967 0.855354
Si Si4 0.279883 0.667714 0.712574
Si Si5 0.124004 0.710165 0.523936
O O1 0.869995 0.775530 0.242729
O O2 0.985256 0.987577 0.314072
O O3 0.866785 0.347959 0.855110
O O4 0.786132 0.295194 0.973247
O O5 0.914360 0.545654 0.944895
O O6 0.047411 0.289377 0.954612
O O7 0.648512 0.240973 0.810437
O O8 0.574388 0.158773 0.926787
O O9 0.750000 0.000000 0.862188
O O10 0.250000 0.500000 0.738067
#
# Coordination Sequence:
#
# PCOD9420760 Si02
#       5
#     4   8   8   8   8
#     4  10  22  34  56  78 112 152 202 244 292 360
#     4   9  16  31  57  84 112 150 195 236 290 350
#     4   9  18  35  54  79 115 156 189 238 305 352
#     4  10  18  37  57  80 111 156 201 240 297 355
#     4   9  16  31  54  82 116 151 188 238 288 351
#
# _framework density 20.265881
#
# number of rings (size 3 to 8) (size 9 to 14) (size 15 to 20)
#    0.000    2.667    4.444    0.000    0.000    0.889 
#    0.000   16.667    4.889    0.000    0.000    0.000 
#    0.000    0.000    0.000    0.000    0.000    0.000 
#
# Total GULP energy -200668.038880 kJ/mol
# GULP energy per Si atom -5574.112191 kJ/mol
# Density = 2.021976 g / cm^3
# Si number density = 20.265881 Si / 1000 Ang^3
#
#
#
# Elastic Constant Matrix: (Units=GPa)
#
#
# Indices 1 2 3 4 5 6 
#
# 1 33.2585 15.2558 26.5628 0.0000 0.0000 0.0000
# 2 15.2558 106.2156 28.4502 0.0000 0.0000 0.0000
# 3 26.5628 28.4502 46.6430 0.0000 0.0000 0.0000
# 4 0.0000 0.0000 0.0000 31.0882 0.0000 0.0000
# 5 0.0000 0.0000 0.0000 0.0000 29.0920 0.0000
# 6 0.0000 0.0000 0.0000 0.0000 0.0000 22.4814
#
#
#
# Elastic Compliance Matrix: (Units=1/GPa)
#
#
# Indices 1 2 3 4 5 6 
#
# 1 0.055184 0.000588 -0.031785 0.000000 0.000000 0.000000
# 2 0.000588 0.011260 -0.007203 0.000000 0.000000 0.000000
# 3 -0.031785 -0.007203 0.043934 0.000000 0.000000 0.000000
# 4 0.000000 0.000000 0.000000 0.032167 0.000000 0.000000
# 5 0.000000 0.000000 0.000000 0.000000 0.034374 0.000000
# 6 0.000000 0.000000 0.000000 0.000000 0.000000 0.044481
#
#
# Mechanical properties :
#
#
# Convention : Reuss Voigt Hill
#
# Bulk Modulus (GPa) = 29.78187 36.29497 33.03842
# Shear Modulus (GPa) = 16.16073 24.25555 20.20814
#
# Velocity S-wave (km/s) = 2.82695 3.46333 3.16120
# Velocity P-wave (km/s) = 5.03816 5.82590 5.44629
#
# Compressibility (1/GPa) = 0.03357747
#
# Stress axis : x y z
#
# Youngs Moduli (GPa) = 18.12119 88.81282 22.76133
#
# Poissons Ratio (x) = -0.05219 0.72348
# Poissons Ratio (y) = -0.01065 0.16394
# Poissons Ratio (z) = 0.57599 0.63968
#
# Static dielectric constant tensor:
#      x y z
#    x 1.768620 0.000000 0.000000 
#    y 0.000000 1.766230 0.000000 
#    z 0.000000 0.000000 1.731650 
# 
# From -- ./inp_files/25678.got.cif
#   From: 2010.05.17/outbox.cif.g08.bks.cpg/sg54_13_cif.got.tgz:25678.got - 2010.06.03 13:09:01.
