data_PCOD9420053
_publ_section_title
;
Structure prediction by ZEFSAII (Michael W. Deem and Ramdas Pophale) SiO2 
 PCOD9420053
Probable space group: P M N A
;
_chemical_formula_sum "Si O2"
_cell_formula_units_Z 48
_cell_length_a 19.043254
_cell_length_b 7.339680
_cell_length_c 15.338698
_cell_angle_alpha 90.000000
_cell_angle_beta 90.000000
_cell_angle_gamma 90.000000
_cell_volume 2143.911148
_symmetry_space_group_name_H-M "P M N A"
_symmetry_group_IT_number 53
_symmetry_cell_setting 'orthorhombic'
loop_
_space_group_symop_operation_xyz
x,y,z
1/2-x,-y,1/2+z
x,-y,-z
1/2-x,y,1/2-z
-x,-y,-z
1/2+x,y,1/2-z
-x,y,z
1/2+x,-y,1/2+z
loop_
_atom_site_type_symbol
_atom_site_label
_atom_site_fract_x
_atom_site_fract_y
_atom_site_fract_z
Si Si1 0.640431 0.546862 0.401055
Si Si2 0.077313 0.998157 0.279654
Si Si3 0.577041 0.552520 0.223734
Si Si4 0.220661 0.966186 0.348871
Si Si5 0.633953 0.018758 0.595841
Si Si6 0.799360 0.552921 0.402348
O O1 0.620066 0.500000 0.500000
O O2 0.590360 0.489104 0.322743
O O3 0.642197 0.764980 0.393261
O O4 0.720365 0.483178 0.384646
O O5 0.078170 0.775234 0.279794
O O6 0.144876 0.057930 0.335798
O O7 0.091058 0.050311 0.178694
O O8 0.000000 0.056042 0.308552
O O9 0.500000 0.495406 0.193581
O O10 0.642171 0.491002 0.165625
O O11 0.250000 0.933692 0.250000
O O12 0.286103 0.057635 0.398525
O O13 0.205889 0.771935 0.393161
O O14 0.602847 0.000000 0.500000
O O15 0.818537 0.500000 0.500000
#
# Coordination Sequence:
#
# PCOD9420053 Si02
#       6
#     8   8   8   8   8   8
#     4   9  17  29  45  64  86 115 146 173 212 263
#     4   8  14  25  42  62  81 106 141 177 211 248
#     4   9  16  26  41  62  87 112 143 182 215 251
#     4   8  14  26  42  59  82 112 144 178 215 258
#     4   9  16  26  43  66  86 104 135 180 217 246
#     4   9  15  24  41  62  84 110 143 180 215 249
#
# _framework density 22.388988000000001
#
# number of rings (size 3 to 8) (size 9 to 14) (size 15 to 20)
#    0.000    3.333    0.000    3.500    0.000    1.000 
#    0.000    0.000    0.000   18.500    0.000    0.000 
#    0.000    0.000    0.000    0.000    0.000    0.333 
#
# Total GULP energy -267751.266703 kJ/mol
# GULP energy per Si atom -5578.151390 kJ/mol
# Density = 2.233803 g / cm^3
# Si number density = 22.388988 Si / 1000 Ang^3
#
#
#
# Elastic Constant Matrix: (Units=GPa)
#
#
# Indices 1 2 3 4 5 6 
#
# 1 74.7837 9.2118 7.1965 0.0000 0.0000 0.0000
# 2 9.2118 75.0644 -6.6876 0.0000 0.0000 0.0000
# 3 7.1965 -6.6876 40.0000 0.0000 0.0000 0.0000
# 4 0.0000 0.0000 0.0000 15.5248 0.0000 0.0000
# 5 0.0000 0.0000 0.0000 0.0000 2338.4444 0.0000
# 6 0.0000 0.0000 0.0000 0.0000 0.0000 -9.8777
#
#
#
# Elastic Compliance Matrix: (Units=1/GPa)
#
#
# Indices 1 2 3 4 5 6 
#
# 1 0.013885 -0.001956 -0.002825 0.000000 0.000000 0.000000
# 2 -0.001956 0.013799 0.002659 0.000000 0.000000 0.000000
# 3 -0.002825 0.002659 0.025953 0.000000 0.000000 0.000000
# 4 0.000000 0.000000 0.000000 0.064413 0.000000 0.000000
# 5 0.000000 0.000000 0.000000 0.000000 0.000428 0.000000
# 6 0.000000 0.000000 0.000000 0.000000 0.000000 -0.101239
#
#
# Mechanical properties :
#
#
# Convention : Reuss Voigt Hill
#
# Bulk Modulus (GPa) = 20.24591 23.25441 21.75016
# Shear Modulus (GPa) = 131.76698 480.82681 306.29689
#
# Velocity S-wave (km/s) = 7.67992 14.67060 11.70914
# Velocity P-wave (km/s) = 9.36505 17.24465 13.87591
#
# Compressibility (1/GPa) = 0.04939269
#
# Stress axis : x y z
#
# Youngs Moduli (GPa) = 72.02205 72.47029 38.53154
#
# Poissons Ratio (x) = 0.14172 0.10885
# Poissons Ratio (y) = 0.14085 -0.10245
# Poissons Ratio (z) = 0.20346 -0.19269
#
# Static dielectric constant tensor:
#      x y z
#    x 1.839830 0.000000 0.000000 
#    y 0.000000 1.874440 0.000000 
#    z 0.000000 0.000000 1.799710 
# 
# From -- ./inp_files/28891.got.cif
#   From: 2010.05.17/outbox.cif.g08.bks.cpg/sg53_15_cif.got.tgz:28891.got - 2010.06.03 12:45:16.
