data_PCOD9420334
_publ_section_title
;
Structure prediction by ZEFSAII (Michael W. Deem and Ramdas Pophale) SiO2 
 PCOD9420334
Probable space group: P C C A
;
_chemical_formula_sum "Si O2"
_cell_formula_units_Z 56
_cell_length_a 14.370072
_cell_length_b 34.058229
_cell_length_c 5.313587
_cell_angle_alpha 90.000000
_cell_angle_beta 90.000000
_cell_angle_gamma 90.000000
_cell_volume 2600.571514
_symmetry_space_group_name_H-M "P C C A"
_symmetry_group_IT_number 54
_symmetry_cell_setting 'orthorhombic'
loop_
_space_group_symop_operation_xyz
x,y,z
1/2-x,-y,z
1/2+x,-y,1/2-z
-x,y,1/2-z
-x,-y,-z
1/2+x,y,-z
1/2-x,y,1/2+z
x,-y,1/2+z
loop_
_atom_site_type_symbol
_atom_site_label
_atom_site_fract_x
_atom_site_fract_y
_atom_site_fract_z
Si Si1 0.809417 0.392669 0.328136
Si Si2 0.888515 0.478231 0.247948
Si Si3 0.358070 0.807203 0.662476
Si Si4 0.307207 0.891860 0.818941
Si Si5 0.388217 0.022394 0.245294
Si Si6 0.189208 0.310206 0.290325
Si Si7 0.641820 0.224141 0.838261
O O1 0.771843 0.392268 0.614313
O O2 0.862178 0.433081 0.284227
O O3 0.861016 0.351533 0.267317
O O4 0.854970 0.504364 0.482865
O O5 0.000000 0.480927 0.250000
O O6 0.361040 0.851949 0.753480
O O7 0.250015 0.791464 0.633883
O O8 0.398729 0.801455 0.387242
O O9 0.399102 0.781585 0.886811
O O10 0.225209 0.890651 0.608794
O O11 0.357850 0.932784 0.772090
O O12 0.500000 0.021297 0.250000
O O13 0.356243 0.996671 0.483508
O O14 0.229981 0.309959 0.573430
O O15 0.138554 0.269240 0.244377
#
# Coordination Sequence:
#
# PCOD9420334 Si02
#       7
#     8   8   8   8   8   8   8
#     4  10  21  32  48  78 106 125 165 216 256 288
#     4  10  21  37  55  72  96 135 174 203 249 314
#     4  10  16  25  41  69 101 127 153 198 244 287
#     4  12  21  32  53  83 108 123 166 216 260 283
#     4  10  23  42  57  71  99 141 175 199 246 313
#     4  10  16  25  41  64  96 127 162 192 237 286
#     4  10  14  25  41  61 101 135 153 186 244 294
#
# _framework density 21.533726000000001
#
# number of rings (size 3 to 8) (size 9 to 14) (size 15 to 20)
#    0.000    1.714    5.714    1.714    0.000    3.429 
#    0.000    0.000    0.000    0.000    0.000    2.000 
#    0.000    0.000    0.000    0.000    0.000    0.000 
#
# Total GULP energy -312525.451133 kJ/mol
# GULP energy per Si atom -5580.811627 kJ/mol
# Density = 2.148471 g / cm^3
# Si number density = 21.533726 Si / 1000 Ang^3
#
#
#
# Elastic Constant Matrix: (Units=GPa)
#
#
# Indices 1 2 3 4 5 6 
#
# 1 35.1606 -4.1784 -1.5098 0.0000 0.0000 0.0000
# 2 -4.1784 136.3925 -8.6223 0.0000 0.0000 0.0000
# 3 -1.5098 -8.6223 106.3185 0.0000 0.0000 0.0000
# 4 0.0000 0.0000 0.0000 37.8241 0.0000 0.0000
# 5 0.0000 0.0000 0.0000 0.0000 -4.9256 0.0000
# 6 0.0000 0.0000 0.0000 0.0000 0.0000 -44.4694
#
#
#
# Elastic Compliance Matrix: (Units=1/GPa)
#
#
# Indices 1 2 3 4 5 6 
#
# 1 0.028569 0.000906 0.000479 0.000000 0.000000 0.000000
# 2 0.000906 0.007398 0.000613 0.000000 0.000000 0.000000
# 3 0.000479 0.000613 0.009462 0.000000 0.000000 0.000000
# 4 0.000000 0.000000 0.000000 0.026438 0.000000 0.000000
# 5 0.000000 0.000000 0.000000 0.000000 -0.203022 0.000000
# 6 0.000000 0.000000 0.000000 0.000000 0.000000 -0.022487
#
#
# Mechanical properties :
#
#
# Convention : Reuss Voigt Hill
#
# Bulk Modulus (GPa) = 20.23286 27.69451 23.96368
# Shear Modulus (GPa) = -35.42039 17.16463 -9.12788
#
# Velocity S-wave (km/s) = -4.06011 2.82637 -2.06109
# Velocity P-wave (km/s) = 3.54444 4.85181 2.34275
#
# Compressibility (1/GPa) = 0.04942455
#
# Stress axis : x y z
#
# Youngs Moduli (GPa) = 35.00285 135.16685 105.68360
#
# Poissons Ratio (x) = -0.12239 -0.05064
# Poissons Ratio (y) = -0.03170 -0.06477
# Poissons Ratio (z) = -0.01677 -0.08284
#
# Static dielectric constant tensor:
#      x y z
#    x 1.850220 0.000000 0.000000 
#    y 0.000000 1.779030 0.000000 
#    z 0.000000 0.000000 1.809760 
# 
# From -- ./inp_files/714.got.cif
#   From: 2010.05.17/outbox.cif.g08.bks.cpg/sg54_1_cif.got.tgz:714.got - 2010.06.03 13:09:01.
