data_PCOD9420282
_publ_section_title
;
Structure prediction by ZEFSAII (Michael W. Deem and Ramdas Pophale) SiO2 
 PCOD9420282
Probable space group: P M N A
;
_chemical_formula_sum "Si O2"
_cell_formula_units_Z 40
_cell_length_a 9.000000
_cell_length_b 9.000000
_cell_length_c 24.000000
_cell_angle_alpha 90.000000
_cell_angle_beta 90.000000
_cell_angle_gamma 90.000000
_cell_volume 1944.000000
_symmetry_space_group_name_H-M "P M N A"
_symmetry_group_IT_number 53
_symmetry_cell_setting 'orthorhombic'
loop_
_space_group_symop_operation_xyz
x,y,z
1/2-x,-y,1/2+z
x,-y,-z
1/2-x,y,1/2-z
-x,-y,-z
1/2+x,y,1/2-z
-x,y,z
1/2+x,-y,1/2+z
loop_
_atom_site_type_symbol
_atom_site_label
_atom_site_fract_x
_atom_site_fract_y
_atom_site_fract_z
Si Si1 0.322106 0.641280 0.810718
Si Si2 0.328075 0.135261 0.899741
Si Si3 0.673008 0.834533 0.599839
Si Si4 0.321545 0.663314 0.311060
Si Si5 0.336814 0.326956 0.010355
O O1 0.250000 0.655991 0.750000
O O2 0.500000 0.630649 0.808255
O O3 0.264693 0.775923 0.847514
O O4 0.251285 0.488787 0.834333
O O5 0.500000 0.110439 0.883409
O O6 0.233834 0.204259 0.849643
O O7 0.327182 0.245857 0.951623
O O8 0.247438 0.986820 0.918746
O O9 0.500000 0.848760 0.612390
O O10 0.705544 0.720328 0.550521
O O11 0.250000 0.681570 0.250000
O O12 0.500000 0.651831 0.308071
O O13 0.500000 0.287730 0.035847
O O14 0.334468 0.500000 0.000000
#
# Coordination Sequence:
#
# PCOD9420282 Si02
#       5
#     8   8   8   8   8
#     4  11  22  40  64  90 121 158 202 248 299 357
#     4  11  23  40  62  89 123 162 203 247 300 359
#     4  12  25  40  60  89 124 160 201 250 304 358
#     4  11  22  39  63  92 124 159 202 248 298 354
#     4  10  22  41  65  90 118 156 201 248 301 361
#
# _framework density 20.576132000000001
#
# number of rings (size 3 to 8) (size 9 to 14) (size 15 to 20)
#    0.000    1.000    0.000    9.000    0.000    6.800 
#    0.000    4.000    0.000    0.000    0.000    0.000 
#    0.000    0.000    0.000    0.000    0.000    0.000 
#
# Total GULP energy -223595.871625 kJ/mol
# GULP energy per Si atom -5589.896791 kJ/mol
# Density = 2.052930 g / cm^3
# Si number density = 20.576132 Si / 1000 Ang^3
#
#
#
# Elastic Constant Matrix: (Units=GPa)
#
#
# Indices 1 2 3 4 5 6 
#
# 1 205.3967 41.5543 35.3782 0.0000 0.0000 0.0000
# 2 41.5543 77.9826 27.6544 0.0000 0.0000 0.0000
# 3 35.3782 27.6544 42.8526 0.0000 0.0000 0.0000
# 4 0.0000 0.0000 0.0000 34.7625 0.0000 0.0000
# 5 0.0000 0.0000 0.0000 0.0000 -9.8496 0.0000
# 6 0.0000 0.0000 0.0000 0.0000 0.0000 12.3767
#
#
#
# Elastic Compliance Matrix: (Units=1/GPa)
#
#
# Indices 1 2 3 4 5 6 
#
# 1 0.005870 -0.001828 -0.003667 0.000000 0.000000 0.000000
# 2 -0.001828 0.017198 -0.009590 0.000000 0.000000 0.000000
# 3 -0.003667 -0.009590 0.032552 0.000000 0.000000 0.000000
# 4 0.000000 0.000000 0.000000 0.028767 0.000000 0.000000
# 5 0.000000 0.000000 0.000000 0.000000 -0.101527 0.000000
# 6 0.000000 0.000000 0.000000 0.000000 0.000000 0.080797
#
#
# Mechanical properties :
#
#
# Convention : Reuss Voigt Hill
#
# Bulk Modulus (GPa) = 39.29038 59.48953 49.38995
# Shear Modulus (GPa) = 48.87216 22.23426 35.55321
#
# Velocity S-wave (km/s) = 4.87888 3.29079 4.16129
# Velocity P-wave (km/s) = 7.13264 6.58891 6.86616
#
# Compressibility (1/GPa) = 0.02545152
#
# Stress axis : x y z
#
# Youngs Moduli (GPa) = 170.35968 58.14645 30.72053
#
# Poissons Ratio (x) = 0.10627 0.11264
# Poissons Ratio (y) = 0.31135 0.29460
# Poissons Ratio (z) = 0.62465 0.55760
#
# Static dielectric constant tensor:
#      x y z
#    x 1.586700 0.000000 0.000000 
#    y 0.000000 1.890550 0.000000 
#    z 0.000000 0.000000 1.739240 
# 
# From -- ./inp_files/33621.got.cif
#   From: 2010.05.17/outbox.ucp.g08.bks.cvg/sg53_17_cif.got.tgz:33621.got - 2010.06.11 16:32:34.
