data_PCOD9420901
_publ_section_title
;
Structure prediction by ZEFSAII (Michael W. Deem and Ramdas Pophale) SiO2 
 PCOD9420901
Probable space group: P C C A
;
_chemical_formula_sum "Si O2"
_cell_formula_units_Z 48
_cell_length_a 15.499058
_cell_length_b 28.784113
_cell_length_c 5.136619
_cell_angle_alpha 90.000000
_cell_angle_beta 90.000000
_cell_angle_gamma 90.000000
_cell_volume 2291.582559
_symmetry_space_group_name_H-M "P C C A"
_symmetry_group_IT_number 54
_symmetry_cell_setting 'orthorhombic'
loop_
_space_group_symop_operation_xyz
x,y,z
1/2-x,-y,z
1/2+x,-y,1/2-z
-x,y,1/2-z
-x,-y,-z
1/2+x,y,-z
1/2-x,y,1/2+z
x,-y,1/2+z
loop_
_atom_site_type_symbol
_atom_site_label
_atom_site_fract_x
_atom_site_fract_y
_atom_site_fract_z
Si Si1 0.692042 0.220914 0.815757
Si Si2 0.056258 0.403814 0.002209
Si Si3 0.692053 0.878776 0.418462
Si Si4 0.785064 0.551739 0.212742
Si Si5 0.396064 0.026775 0.740813
Si Si6 0.811321 0.320971 0.424625
O O1 0.727124 0.221094 0.520371
O O2 0.647993 0.171482 0.870930
O O3 0.647488 0.269664 0.882563
O O4 0.120874 0.444391 0.906344
O O5 0.000000 0.391438 0.750000
O O6 0.116879 0.360632 0.079324
O O7 0.000000 0.417636 0.250000
O O8 0.729013 0.880203 0.710456
O O9 0.635118 0.923026 0.349636
O O10 0.750000 0.500000 0.261710
O O11 0.777354 0.574191 0.496145
O O12 0.500000 0.026526 0.750000
O O13 0.365852 0.989429 0.525010
O O14 0.760140 0.324134 0.696920
#
# Coordination Sequence:
#
# PCOD9420901 Si02
#       6
#     8   8   8   8   8   8
#     4   8  16  30  51  78 103 132 174 218 260 312
#     4  12  24  38  58  90 122 145 181 241 291 315
#     4  10  19  32  52  77 102 128 170 225 267 306
#     4  10  21  41  63  83 111 154 198 226 264 338
#     4  10  21  35  49  68  99 137 174 211 261 325
#     4  10  19  36  61  82 108 152 191 217 264 344
#
# _framework density 20.946223
#
# number of rings (size 3 to 8) (size 9 to 14) (size 15 to 20)
#    0.000    2.000    0.000    4.000    0.000    2.000 
#    0.000   10.833    0.000    3.000    0.000    0.000 
#    0.000    0.000    0.000    0.000    0.000    0.000 
#
# Total GULP energy -267867.069927 kJ/mol
# GULP energy per Si atom -5580.563957 kJ/mol
# Density = 2.089855 g / cm^3
# Si number density = 20.946223 Si / 1000 Ang^3
#
#
#
# Elastic Constant Matrix: (Units=GPa)
#
#
# Indices 1 2 3 4 5 6 
#
# 1 39.6298 22.7649 9.7063 0.0000 0.0000 0.0000
# 2 22.7649 128.6616 0.8221 0.0000 0.0000 0.0000
# 3 9.7063 0.8221 115.8387 0.0000 0.0000 0.0000
# 4 0.0000 0.0000 0.0000 28.2157 0.0000 0.0000
# 5 0.0000 0.0000 0.0000 0.0000 29.6293 0.0000
# 6 0.0000 0.0000 0.0000 0.0000 0.0000 5.3367
#
#
#
# Elastic Compliance Matrix: (Units=1/GPa)
#
#
# Indices 1 2 3 4 5 6 
#
# 1 0.028725 -0.005067 -0.002371 0.000000 0.000000 0.000000
# 2 -0.005067 0.008667 0.000363 0.000000 0.000000 0.000000
# 3 -0.002371 0.000363 0.008829 0.000000 0.000000 0.000000
# 4 0.000000 0.000000 0.000000 0.035441 0.000000 0.000000
# 5 0.000000 0.000000 0.000000 0.000000 0.033750 0.000000
# 6 0.000000 0.000000 0.000000 0.000000 0.000000 0.187380
#
#
# Mechanical properties :
#
#
# Convention : Reuss Voigt Hill
#
# Bulk Modulus (GPa) = 31.18173 38.96853 35.07513
# Shear Modulus (GPa) = 15.26099 29.35880 22.30990
#
# Velocity S-wave (km/s) = 2.70215 3.74789 3.26713
# Velocity P-wave (km/s) = 4.96532 6.11338 5.56901
#
# Compressibility (1/GPa) = 0.03207006
#
# Stress axis : x y z
#
# Youngs Moduli (GPa) = 34.81267 115.38540 113.26589
#
# Poissons Ratio (x) = 0.58470 0.26855
# Poissons Ratio (y) = 0.17641 -0.04113
# Poissons Ratio (z) = 0.08254 -0.04190
#
# Static dielectric constant tensor:
#      x y z
#    x 1.727590 0.000000 0.000000 
#    y 0.000000 1.886780 0.000000 
#    z 0.000000 0.000000 1.788580 
# 
# From -- ./inp_files/689.got.cif
#   From: 2010.05.17/outbox.cif.g08.bks.cpg/sg54_1_cif.got.tgz:689.got - 2010.06.03 13:09:01.
