data_PCOD9420506
_publ_section_title
;
Structure prediction by ZEFSAII (Michael W. Deem and Ramdas Pophale) SiO2 
 PCOD9420506
Probable space group: P C C A
;
_chemical_formula_sum "Si O2"
_cell_formula_units_Z 48
_cell_length_a 16.583935
_cell_length_b 9.401373
_cell_length_c 13.210216
_cell_angle_alpha 90.000000
_cell_angle_beta 90.000000
_cell_angle_gamma 90.000000
_cell_volume 2059.628010
_symmetry_space_group_name_H-M "P C C A"
_symmetry_group_IT_number 54
_symmetry_cell_setting 'orthorhombic'
loop_
_space_group_symop_operation_xyz
x,y,z
1/2-x,-y,z
1/2+x,-y,1/2-z
-x,y,1/2-z
-x,-y,-z
1/2+x,y,-z
1/2-x,y,1/2+z
x,-y,1/2+z
loop_
_atom_site_type_symbol
_atom_site_label
_atom_site_fract_x
_atom_site_fract_y
_atom_site_fract_z
Si Si1 0.894349 0.750610 0.266412
Si Si2 0.597387 0.746273 0.002169
Si Si3 0.276631 0.150010 0.525944
Si Si4 0.700209 0.750983 0.270625
Si Si5 0.616168 0.006983 0.638040
Si Si6 0.425872 0.548998 0.319811
O O1 0.920925 0.739392 0.383650
O O2 0.796570 0.748021 0.268296
O O3 0.920857 0.618235 0.198035
O O4 0.921442 0.895970 0.214574
O O5 0.695611 0.767520 0.006091
O O6 0.567677 0.887449 0.062839
O O7 0.569605 0.610994 0.067057
O O8 0.322980 0.235951 0.611195
O O9 0.250000 0.000000 0.577566
O O10 0.329254 0.093438 0.433792
O O11 0.667011 0.885021 0.208046
O O12 0.656455 0.615274 0.224406
O O13 0.500000 0.602619 0.250000
#
# Coordination Sequence:
#
# PCOD9420506 Si02
#       6
#     8   8   8   8   8   8
#     4  11  21  37  63  91 119 151 196 250 301 355
#     4   9  20  37  58  87 119 151 195 240 292 359
#     4   9  16  29  58  95 119 143 189 253 311 354
#     4  10  19  35  60  89 117 152 197 247 300 355
#     4  10  17  32  61  93 121 145 185 251 311 356
#     4  11  25  42  58  81 124 171 205 243 293 352
#
# _framework density 23.305178999999999
#
# number of rings (size 3 to 8) (size 9 to 14) (size 15 to 20)
#    0.000    2.000    0.000    8.000    0.000    2.000 
#    0.000   10.000    0.000   18.000    0.000    0.000 
#    0.000    0.000    0.000    0.000    0.000    0.000 
#
# Total GULP energy -268204.429715 kJ/mol
# GULP energy per Si atom -5587.592286 kJ/mol
# Density = 2.325214 g / cm^3
# Si number density = 23.305179 Si / 1000 Ang^3
#
#
#
# Elastic Constant Matrix: (Units=GPa)
#
#
# Indices 1 2 3 4 5 6 
#
# 1 78.4339 33.2390 21.3523 0.0000 0.0000 0.0000
# 2 33.2390 133.3468 92.4982 0.0000 0.0000 0.0000
# 3 21.3523 92.4982 145.6733 0.0000 0.0000 0.0000
# 4 0.0000 0.0000 0.0000 35.2129 0.0000 0.0000
# 5 0.0000 0.0000 0.0000 0.0000 13.7151 0.0000
# 6 0.0000 0.0000 0.0000 0.0000 0.0000 -45.5188
#
#
#
# Elastic Compliance Matrix: (Units=1/GPa)
#
#
# Indices 1 2 3 4 5 6 
#
# 1 0.014263 -0.003762 0.000298 0.000000 0.000000 0.000000
# 2 -0.003762 0.014395 -0.008589 0.000000 0.000000 0.000000
# 3 0.000298 -0.008589 0.012275 0.000000 0.000000 0.000000
# 4 0.000000 0.000000 0.000000 0.028399 0.000000 0.000000
# 5 0.000000 0.000000 0.000000 0.000000 0.072912 0.000000
# 6 0.000000 0.000000 0.000000 0.000000 0.000000 -0.021969
#
#
# Mechanical properties :
#
#
# Convention : Reuss Voigt Hill
#
# Bulk Modulus (GPa) = 59.42921 72.40367 65.91644
# Shear Modulus (GPa) = 33.33586 14.70613 24.02099
#
# Velocity S-wave (km/s) = 3.78617 2.51474 3.21396
# Velocity P-wave (km/s) = 6.68351 6.29023 6.48985
#
# Compressibility (1/GPa) = 0.01682674
#
# Stress axis : x y z
#
# Youngs Moduli (GPa) = 70.11283 69.46955 81.46898
#
# Poissons Ratio (x) = 0.26135 -0.02430
# Poissons Ratio (y) = 0.26377 0.69972
# Poissons Ratio (z) = -0.02091 0.59666
#
# Static dielectric constant tensor:
#      x y z
#    x 1.898540 0.000000 0.000000 
#    y 0.000000 1.871140 0.000000 
#    z 0.000000 0.000000 1.893710 
# 
# From -- ./inp_files/14156.got.cif
#   From: 2010.05.17/outbox.cif.g08.bks.cpg/sg54_8_cif.got.tgz:14156.got - 2010.06.03 13:09:01.
