data_PCOD9420543
_publ_section_title
;
Structure prediction by ZEFSAII (Michael W. Deem and Ramdas Pophale) SiO2 
 PCOD9420543
Probable space group: P C C A
;
_chemical_formula_sum "Si O2"
_cell_formula_units_Z 44
_cell_length_a 8.316474
_cell_length_b 11.818645
_cell_length_c 23.764984
_cell_angle_alpha 90.000000
_cell_angle_beta 90.000000
_cell_angle_gamma 90.000000
_cell_volume 2335.847298
_symmetry_space_group_name_H-M "P C C A"
_symmetry_group_IT_number 54
_symmetry_cell_setting 'orthorhombic'
loop_
_space_group_symop_operation_xyz
x,y,z
1/2-x,-y,z
1/2+x,-y,1/2-z
-x,y,1/2-z
-x,-y,-z
1/2+x,y,-z
1/2-x,y,1/2+z
x,-y,1/2+z
loop_
_atom_site_type_symbol
_atom_site_label
_atom_site_fract_x
_atom_site_fract_y
_atom_site_fract_z
Si Si1 0.159197 0.120649 0.425709
Si Si2 0.750000 0.000000 0.772393
Si Si3 0.901072 0.178350 0.851507
Si Si4 0.769915 0.203382 0.186684
Si Si5 0.794889 0.870824 0.964308
Si Si6 0.183335 0.378593 0.728405
O O1 0.125471 0.185555 0.367768
O O2 0.262978 0.183029 0.474299
O O3 0.981584 0.117927 0.450978
O O4 0.250000 0.000000 0.411938
O O5 0.630991 0.935912 0.815237
O O6 0.800446 0.898545 0.730659
O O7 0.820530 0.168243 0.912980
O O8 0.819065 0.284847 0.820471
O O9 0.090972 0.195543 0.841331
O O10 0.780869 0.319637 0.220602
O O11 0.750000 0.000000 0.974652
O O12 0.250000 0.500000 0.712447
O O13 0.000000 0.389300 0.750000
#
# Coordination Sequence:
#
# PCOD9420543 Si02
#       6
#     8   4   8   8   8   8
#     4  11  21  33  51  75 107 143 177 213 258 313
#     4  10  18  28  52  74 106 136 172 206 262 310
#     4  10  20  34  52  77 109 140 174 218 264 309
#     4  10  20  34  52  77 109 140 174 218 264 309
#     4  11  21  33  51  75 107 143 177 213 258 313
#     4   9  20  37  56  78 106 140 176 220 264 312
#
# _framework density 18.836848
#
# number of rings (size 3 to 8) (size 9 to 14) (size 15 to 20)
#    0.000    1.818    1.818    6.000    0.000    2.909 
#    0.000    5.455    0.000    1.091    0.000    7.636 
#    0.000    0.000    0.000    0.000    0.000    0.000 
#
# Total GULP energy -245071.165734 kJ/mol
# GULP energy per Si atom -5569.799221 kJ/mol
# Density = 1.879397 g / cm^3
# Si number density = 18.836848 Si / 1000 Ang^3
#
#
#
# Elastic Constant Matrix: (Units=GPa)
#
#
# Indices 1 2 3 4 5 6 
#
# 1 18.6870 -2.8369 -22.1179 0.0000 0.0000 0.0000
# 2 -2.8369 72.3953 11.5456 0.0000 0.0000 0.0000
# 3 -22.1179 11.5456 71.5911 0.0000 0.0000 0.0000
# 4 0.0000 0.0000 0.0000 17.8716 0.0000 0.0000
# 5 0.0000 0.0000 0.0000 0.0000 75.8321 0.0000
# 6 0.0000 0.0000 0.0000 0.0000 0.0000 19.9764
#
#
#
# Elastic Compliance Matrix: (Units=1/GPa)
#
#
# Indices 1 2 3 4 5 6 
#
# 1 0.084415 -0.000874 0.026221 0.000000 0.000000 0.000000
# 2 -0.000874 0.014187 -0.002558 0.000000 0.000000 0.000000
# 3 0.026221 -0.002558 0.022482 0.000000 0.000000 0.000000
# 4 0.000000 0.000000 0.000000 0.055955 0.000000 0.000000
# 5 0.000000 0.000000 0.000000 0.000000 0.013187 0.000000
# 6 0.000000 0.000000 0.000000 0.000000 0.000000 0.050059
#
#
# Mechanical properties :
#
#
# Convention : Reuss Voigt Hill
#
# Bulk Modulus (GPa) = 6.00017 15.09499 10.54758
# Shear Modulus (GPa) = 19.97921 34.47485 27.22703
#
# Velocity S-wave (km/s) = 3.26029 4.28270 3.80598
# Velocity P-wave (km/s) = 4.16712 5.69968 4.99256
#
# Compressibility (1/GPa) = 0.16666190
#
# Stress axis : x y z
#
# Youngs Moduli (GPa) = 11.84621 70.48836 44.48082
#
# Poissons Ratio (x) = 0.06159 -1.16632
# Poissons Ratio (y) = 0.01035 0.11378
# Poissons Ratio (z) = -0.31062 0.18030
#
# Static dielectric constant tensor:
#      x y z
#    x 1.368910 0.000000 0.000000 
#    y 0.000000 1.619030 0.000000 
#    z 0.000000 0.000000 1.742300 
# 
# From -- ./inp_files/23404.got.cif
#   From: 2010.05.17/outbox.cif.g08.bks.cpg/sg54_12_cif.got.tgz:23404.got - 2010.06.03 13:09:01.
