data_PCOD9420932
_publ_section_title
;
Structure prediction by ZEFSAII (Michael W. Deem and Ramdas Pophale) SiO2 
 PCOD9420932
Probable space group: P C C A
;
_chemical_formula_sum "Si O2"
_cell_formula_units_Z 56
_cell_length_a 5.073729
_cell_length_b 23.430592
_cell_length_c 26.630309
_cell_angle_alpha 90.000000
_cell_angle_beta 90.000000
_cell_angle_gamma 90.000000
_cell_volume 3165.823760
_symmetry_space_group_name_H-M "P C C A"
_symmetry_group_IT_number 54
_symmetry_cell_setting 'orthorhombic'
loop_
_space_group_symop_operation_xyz
x,y,z
1/2-x,-y,z
1/2+x,-y,1/2-z
-x,y,1/2-z
-x,-y,-z
1/2+x,y,-z
1/2-x,y,1/2+z
x,-y,1/2+z
loop_
_atom_site_type_symbol
_atom_site_label
_atom_site_fract_x
_atom_site_fract_y
_atom_site_fract_z
Si Si1 0.382768 0.363629 0.829845
Si Si2 0.724103 0.207455 0.334085
Si Si3 0.500000 0.264452 0.750000
Si Si4 0.262276 0.067589 0.466097
Si Si5 0.256342 0.164669 0.388502
Si Si6 0.613944 0.669597 0.881855
Si Si7 0.152036 0.264894 0.966917
Si Si8 0.000000 0.540188 0.750000
O O1 0.396688 0.307552 0.793407
O O2 0.591964 0.354437 0.875068
O O3 0.461519 0.417665 0.797047
O O4 0.087196 0.367913 0.849551
O O5 0.486918 0.165093 0.347027
O O6 0.635256 0.268336 0.356428
O O7 0.792916 0.223109 0.277034
O O8 0.988709 0.187550 0.363070
O O9 0.539972 0.080815 0.492420
O O10 0.218937 0.105172 0.416858
O O11 0.250000 0.000000 0.455393
O O12 0.354394 0.208412 0.432244
O O13 0.465303 0.683233 0.933740
O O14 0.452280 0.264939 0.986122
O O15 0.250000 0.500000 0.743402
#
# Coordination Sequence:
#
# PCOD9420932 Si02
#       8
#     8   8   4   8   8   8   8   4
#     4  10  20  33  53  70 104 140 158 203 240 279
#     4  10  20  30  48  69  99 129 164 206 235 297
#     4   9  18  32  48  72  96 130 168 187 232 286
#     4  10  20  34  52  71  94 127 169 209 247 304
#     4  11  20  32  45  70 100 131 161 201 258 294
#     4  10  19  33  46  71 100 135 172 191 240 296
#     4  11  19  28  45  68 100 133 161 198 237 292
#     4  11  22  36  54  82 108 132 170 203 246 298
#
# _framework density 17.688918000000001
#
# number of rings (size 3 to 8) (size 9 to 14) (size 15 to 20)
#    0.000    1.714    0.000    8.571    0.000    7.429 
#    0.000    0.000    0.000    0.000    0.000    2.000 
#    0.000   40.000    0.000    0.000    0.000    0.000 
#
# Total GULP energy -312249.477006 kJ/mol
# GULP energy per Si atom -5575.883518 kJ/mol
# Density = 1.764866 g / cm^3
# Si number density = 17.688918 Si / 1000 Ang^3
#
#
#
# Elastic Constant Matrix: (Units=GPa)
#
#
# Indices 1 2 3 4 5 6 
#
# 1 92.9187 25.7162 16.9515 0.0000 0.0000 0.0000
# 2 25.7162 55.1634 16.8191 0.0000 0.0000 0.0000
# 3 16.9515 16.8191 30.5416 0.0000 0.0000 0.0000
# 4 0.0000 0.0000 0.0000 19.7605 0.0000 0.0000
# 5 0.0000 0.0000 0.0000 0.0000 29.2843 0.0000
# 6 0.0000 0.0000 0.0000 0.0000 0.0000 16.2231
#
#
#
# Elastic Compliance Matrix: (Units=1/GPa)
#
#
# Indices 1 2 3 4 5 6 
#
# 1 0.012876 -0.004595 -0.004616 0.000000 0.000000 0.000000
# 2 -0.004595 0.023426 -0.010350 0.000000 0.000000 0.000000
# 3 -0.004616 -0.010350 0.041004 0.000000 0.000000 0.000000
# 4 0.000000 0.000000 0.000000 0.050606 0.000000 0.000000
# 5 0.000000 0.000000 0.000000 0.000000 0.034148 0.000000
# 6 0.000000 0.000000 0.000000 0.000000 0.000000 0.061640
#
#
# Mechanical properties :
#
#
# Convention : Reuss Voigt Hill
#
# Bulk Modulus (GPa) = 26.18942 33.06635 29.62789
# Shear Modulus (GPa) = 18.14550 20.99604 19.57077
#
# Velocity S-wave (km/s) = 3.20630 3.44897 3.32985
# Velocity P-wave (km/s) = 5.34274 5.88169 5.61868
#
# Compressibility (1/GPa) = 0.03818336
#
# Stress axis : x y z
#
# Youngs Moduli (GPa) = 77.66407 42.68793 24.38791
#
# Poissons Ratio (x) = 0.19616 0.11257
# Poissons Ratio (y) = 0.35688 0.25242
# Poissons Ratio (z) = 0.35850 0.44182
#
# Static dielectric constant tensor:
#      x y z
#    x 1.641020 0.000000 0.000000 
#    y 0.000000 1.584100 0.000000 
#    z 0.000000 0.000000 1.650770 
# 
# From -- ./inp_files/23012.got.cif
#   From: 2010.05.17/outbox.cif.g08.bks.cpg/sg54_12_cif.got.tgz:23012.got - 2010.06.03 13:09:01.
