data_PCOD9420409
_publ_section_title
;
Structure prediction by ZEFSAII (Michael W. Deem and Ramdas Pophale) SiO2 
 PCOD9420409
Probable space group: P C C A
;
_chemical_formula_sum "Si O2"
_cell_formula_units_Z 56
_cell_length_a 17.213537
_cell_length_b 33.647289
_cell_length_c 5.239075
_cell_angle_alpha 90.000000
_cell_angle_beta 90.000000
_cell_angle_gamma 90.000000
_cell_volume 3034.413846
_symmetry_space_group_name_H-M "P C C A"
_symmetry_group_IT_number 54
_symmetry_cell_setting 'orthorhombic'
loop_
_space_group_symop_operation_xyz
x,y,z
1/2-x,-y,z
1/2+x,-y,1/2-z
-x,y,1/2-z
-x,-y,-z
1/2+x,y,-z
1/2-x,y,1/2+z
x,-y,1/2+z
loop_
_atom_site_type_symbol
_atom_site_label
_atom_site_fract_x
_atom_site_fract_y
_atom_site_fract_z
Si Si1 0.448329 0.165697 0.503852
Si Si2 0.448438 0.258874 0.503457
Si Si3 0.593339 0.476327 0.242677
Si Si4 0.802297 0.891997 0.987986
Si Si5 0.700705 0.593972 0.580562
Si Si6 0.700287 0.312572 0.099005
Si Si7 0.338546 0.016843 0.421665
O O1 0.500000 0.161158 0.250000
O O2 0.426653 0.212304 0.529447
O O3 0.372620 0.138604 0.490866
O O4 0.500000 0.155063 0.750000
O O5 0.500000 0.262760 0.250000
O O6 0.373234 0.285876 0.468319
O O7 0.500000 0.269796 0.750000
O O8 0.500000 0.472970 0.250000
O O9 0.616649 0.492198 0.521812
O O10 0.631634 0.435128 0.159270
O O11 0.742754 0.886911 0.222162
O O12 0.833271 0.937201 0.008077
O O13 0.733499 0.586713 0.296921
O O14 0.679602 0.640571 0.591641
O O15 0.735314 0.304969 0.379621
O O16 0.250000 0.000000 0.389476
O O17 0.375835 0.991739 0.649022
#
# Coordination Sequence:
#
# PCOD9420409 Si02
#       7
#     8   8   8   8   8   8   8
#     4  10  23  41  56  79 120 153 174 224 287 335
#     4  10  21  39  61  82 109 151 191 217 270 345
#     4  10  21  36  53  76 107 143 184 231 272 310
#     4  12  21  33  59  89 104 141 195 232 265 323
#     4  10  21  36  54  80 110 142 179 219 278 333
#     4  10  21  37  58  85 117 144 177 239 287 322
#     4  10  16  30  49  78 106 136 171 233 273 304
#
# _framework density 18.454965999999999
#
# number of rings (size 3 to 8) (size 9 to 14) (size 15 to 20)
#    0.000    1.714    2.857    2.571    0.000    3.429 
#    0.000    2.143    0.000    2.571    0.000    0.000 
#    0.000    0.000    0.000    0.000    0.000    0.000 
#
# Total GULP energy -312613.697913 kJ/mol
# GULP energy per Si atom -5582.387463 kJ/mol
# Density = 1.841296 g / cm^3
# Si number density = 18.454966 Si / 1000 Ang^3
#
#
#
# Elastic Constant Matrix: (Units=GPa)
#
#
# Indices 1 2 3 4 5 6 
#
# 1 46.0125 56.5460 4.4529 0.0000 0.0000 0.0000
# 2 56.5460 82.9496 14.4630 0.0000 0.0000 0.0000
# 3 4.4529 14.4630 92.6276 0.0000 0.0000 0.0000
# 4 0.0000 0.0000 0.0000 -40.2603 0.0000 0.0000
# 5 0.0000 0.0000 0.0000 0.0000 18.6771 0.0000
# 6 0.0000 0.0000 0.0000 0.0000 0.0000 88.5821
#
#
#
# Elastic Compliance Matrix: (Units=1/GPa)
#
#
# Indices 1 2 3 4 5 6 
#
# 1 0.140032 -0.096923 0.008402 0.000000 0.000000 0.000000
# 2 -0.096923 0.079479 -0.007751 0.000000 0.000000 0.000000
# 3 0.008402 -0.007751 0.011602 0.000000 0.000000 0.000000
# 4 0.000000 0.000000 0.000000 -0.024838 0.000000 0.000000
# 5 0.000000 0.000000 0.000000 0.000000 0.053542 0.000000
# 6 0.000000 0.000000 0.000000 0.000000 0.000000 0.011289
#
#
# Mechanical properties :
#
#
# Convention : Reuss Voigt Hill
#
# Bulk Modulus (GPa) = 25.92763 41.39040 33.65901
# Shear Modulus (GPa) = 10.49308 23.14162 16.81735
#
# Velocity S-wave (km/s) = 2.38707 3.54496 3.02199
# Velocity P-wave (km/s) = 4.65587 6.26355 5.51857
#
# Compressibility (1/GPa) = 0.03856890
#
# Stress axis : x y z
#
# Youngs Moduli (GPa) = 7.14124 12.58199 86.19063
#
# Poissons Ratio (x) = 1.21949 -0.72418
# Poissons Ratio (y) = 0.69215 0.66803
# Poissons Ratio (z) = -0.06000 0.09752
#
# Static dielectric constant tensor:
#      x y z
#    x 1.444230 0.000000 0.000000 
#    y 0.000000 1.616190 0.000000 
#    z 0.000000 0.000000 1.664690 
# 
# From -- ./inp_files/758.got.cif
#   From: 2010.05.17/outbox.cif.g08.bks.cpg/sg54_1_cif.got.tgz:758.got - 2010.06.03 13:09:01.
