data_PCOD9420193
_publ_section_title
;
Structure prediction by ZEFSAII (Michael W. Deem and Ramdas Pophale) SiO2 
 PCOD9420193
Probable space group: P M N A
;
_chemical_formula_sum "Si O2"
_cell_formula_units_Z 48
_cell_length_a 24.000000
_cell_length_b 9.000000
_cell_length_c 12.000000
_cell_angle_alpha 90.000000
_cell_angle_beta 90.000000
_cell_angle_gamma 90.000000
_cell_volume 2592.000000
_symmetry_space_group_name_H-M "P M N A"
_symmetry_group_IT_number 53
_symmetry_cell_setting 'orthorhombic'
loop_
_space_group_symop_operation_xyz
x,y,z
1/2-x,-y,1/2+z
x,-y,-z
1/2-x,y,1/2-z
-x,-y,-z
1/2+x,y,1/2-z
-x,y,z
1/2+x,-y,1/2+z
loop_
_atom_site_type_symbol
_atom_site_label
_atom_site_fract_x
_atom_site_fract_y
_atom_site_fract_z
Si Si1 0.307233 0.161107 0.902760
Si Si2 0.359274 0.149516 0.138562
Si Si3 0.817547 0.849580 0.056199
Si Si4 0.302876 0.316898 0.330440
Si Si5 0.853669 0.378556 0.770536
Si Si6 0.434304 0.572321 0.879864
O O1 0.242878 0.111428 0.888473
O O2 0.318725 0.306036 0.830329
O O3 0.350739 0.029542 0.866658
O O4 0.319928 0.191207 0.032883
O O5 0.342234 0.205482 0.260348
O O6 0.412576 0.256458 0.118247
O O7 0.856567 0.757735 0.141152
O O8 0.801125 0.741806 0.954717
O O9 0.840447 0.000000 0.000000
O O10 0.250000 0.312620 0.250000
O O11 0.322327 0.486642 0.330126
O O12 0.905046 0.465426 0.712100
O O13 0.500000 0.571261 0.862360
O O14 0.421425 0.500000 0.000000
#
# Coordination Sequence:
#
# PCOD9420193 Si02
#       6
#     8   8   8   8   8   8
#     4  11  19  36  52  86 122 158 188 237 300 362
#     4  10  20  35  57  81 119 152 193 242 293 360
#     4  12  22  35  54  82 126 168 199 228 291 369
#     4  11  20  34  51  80 116 160 198 234 279 354
#     4  11  24  35  57  85 118 155 200 251 294 365
#     4  10  21  41  64  86 113 152 203 266 319 351
#
# _framework density 18.518519000000001
#
# number of rings (size 3 to 8) (size 9 to 14) (size 15 to 20)
#    0.000    1.167    5.000    3.000    0.000    0.000 
#    0.000    2.500    0.000    8.500    0.000    0.000 
#    0.000    0.000    0.000    0.000    0.000    0.000 
#
# Total GULP energy -267222.218979 kJ/mol
# GULP energy per Si atom -5567.129562 kJ/mol
# Density = 1.847637 g / cm^3
# Si number density = 18.518519 Si / 1000 Ang^3
#
#
#
# Elastic Constant Matrix: (Units=GPa)
#
#
# Indices 1 2 3 4 5 6 
#
# 1 52.4510 28.6652 20.9308 0.0000 0.0000 0.0000
# 2 28.6652 104.8135 34.6023 0.0000 0.0000 0.0000
# 3 20.9308 34.6023 81.5547 0.0000 0.0000 0.0000
# 4 0.0000 0.0000 0.0000 46.5663 0.0000 0.0000
# 5 0.0000 0.0000 0.0000 0.0000 28.0010 0.0000
# 6 0.0000 0.0000 0.0000 0.0000 0.0000 16.4222
#
#
#
# Elastic Compliance Matrix: (Units=1/GPa)
#
#
# Indices 1 2 3 4 5 6 
#
# 1 0.023399 -0.005136 -0.003826 0.000000 0.000000 0.000000
# 2 -0.005136 0.012222 -0.003867 0.000000 0.000000 0.000000
# 3 -0.003826 -0.003867 0.014885 0.000000 0.000000 0.000000
# 4 0.000000 0.000000 0.000000 0.021475 0.000000 0.000000
# 5 0.000000 0.000000 0.000000 0.000000 0.035713 0.000000
# 6 0.000000 0.000000 0.000000 0.000000 0.000000 0.060893
#
#
# Mechanical properties :
#
#
# Convention : Reuss Voigt Hill
#
# Bulk Modulus (GPa) = 40.24741 45.24622 42.74681
# Shear Modulus (GPa) = 24.68783 28.50597 26.59690
#
# Velocity S-wave (km/s) = 3.65518 3.92768 3.79388
# Velocity P-wave (km/s) = 6.29242 6.71229 6.50575
#
# Compressibility (1/GPa) = 0.02484632
#
# Stress axis : x y z
#
# Youngs Moduli (GPa) = 42.73633 81.81795 67.18360
#
# Poissons Ratio (x) = 0.42024 0.25705
# Poissons Ratio (y) = 0.21951 0.25983
# Poissons Ratio (z) = 0.16351 0.31643
#
# Static dielectric constant tensor:
#      x y z
#    x 1.646860 0.000000 0.000000 
#    y 0.000000 1.862580 0.000000 
#    z 0.000000 0.000000 1.665900 
# 
# From -- ./inp_files/18285.got.cif
#   From: 2010.05.17/outbox.ucp.g08.bks.cvg/sg53_10_cif.got.tgz:18285.got - 2010.06.11 16:32:34.
