data_PCOD9420371
_publ_section_title
;
Structure prediction by ZEFSAII (Michael W. Deem and Ramdas Pophale) SiO2 
 PCOD9420371
Probable space group: P C C A
;
_chemical_formula_sum "Si O2"
_cell_formula_units_Z 24
_cell_length_a 5.123806
_cell_length_b 13.568625
_cell_length_c 14.089581
_cell_angle_alpha 90.000000
_cell_angle_beta 90.000000
_cell_angle_gamma 90.000000
_cell_volume 979.549971
_symmetry_space_group_name_H-M "P C C A"
_symmetry_group_IT_number 54
_symmetry_cell_setting 'orthorhombic'
loop_
_space_group_symop_operation_xyz
x,y,z
1/2-x,-y,z
1/2+x,-y,1/2-z
-x,y,1/2-z
-x,-y,-z
1/2+x,y,-z
1/2-x,y,1/2+z
x,-y,1/2+z
loop_
_atom_site_type_symbol
_atom_site_label
_atom_site_fract_x
_atom_site_fract_y
_atom_site_fract_z
Si Si1 0.547445 0.201087 0.639099
Si Si2 0.250000 0.500000 0.682758
Si Si3 0.955838 0.702485 0.364902
Si Si4 0.250000 0.000000 0.932601
O O1 0.500000 0.218500 0.750000
O O2 0.254093 0.215979 0.600928
O O3 0.693727 0.097192 0.628630
O O4 0.753112 0.279794 0.598338
O O5 0.500000 0.475770 0.750000
O O6 0.167273 0.404835 0.622949
O O7 0.000000 0.710411 0.250000
O O8 0.500000 0.000000 0.000000
#
# Coordination Sequence:
#
# PCOD9420371 Si02
#       4
#     8   4   8   4
#     4  10  21  37  57  82 112 149 191 235 282 339
#     4  10  16  26  46  80 120 148 174 226 288 338
#     4   9  17  30  51  81 114 146 181 227 283 335
#     4  12  26  42  60  86 116 154 198 246 300 350
#
# _framework density 24.501047
#
# number of rings (size 3 to 8) (size 9 to 14) (size 15 to 20)
#    0.000    2.000    0.000    7.000    0.000    5.333 
#    0.000    0.000    0.000    0.000    0.000   23.333 
#    0.000    0.000    0.000    0.000    0.000    0.000 
#
# Total GULP energy -134028.714471 kJ/mol
# GULP energy per Si atom -5584.529770 kJ/mol
# Density = 2.444528 g / cm^3
# Si number density = 24.501047 Si / 1000 Ang^3
#
#
#
# Elastic Constant Matrix: (Units=GPa)
#
#
# Indices 1 2 3 4 5 6 
#
# 1 213.3358 74.8441 12.6513 0.0000 0.0000 0.0000
# 2 74.8441 147.1797 -7.3145 0.0000 0.0000 0.0000
# 3 12.6513 -7.3145 62.1710 0.0000 0.0000 0.0000
# 4 0.0000 0.0000 0.0000 14.6220 0.0000 0.0000
# 5 0.0000 0.0000 0.0000 0.0000 7.7427 0.0000
# 6 0.0000 0.0000 0.0000 0.0000 0.0000 40.7793
#
#
#
# Elastic Compliance Matrix: (Units=1/GPa)
#
#
# Indices 1 2 3 4 5 6 
#
# 1 0.005850 -0.003052 -0.001549 0.000000 0.000000 0.000000
# 2 -0.003052 0.008426 0.001612 0.000000 0.000000 0.000000
# 3 -0.001549 0.001612 0.016590 0.000000 0.000000 0.000000
# 4 0.000000 0.000000 0.000000 0.068390 0.000000 0.000000
# 5 0.000000 0.000000 0.000000 0.000000 0.129155 0.000000
# 6 0.000000 0.000000 0.000000 0.000000 0.000000 0.024522
#
#
# Mechanical properties :
#
#
# Convention : Reuss Voigt Hill
#
# Bulk Modulus (GPa) = 40.17949 64.78314 52.48131
# Shear Modulus (GPa) = 18.71209 35.46251 27.08730
#
# Velocity S-wave (km/s) = 2.76656 3.80858 3.32860
# Velocity P-wave (km/s) = 5.16138 6.77043 6.01991
#
# Compressibility (1/GPa) = 0.02488832
#
# Stress axis : x y z
#
# Youngs Moduli (GPa) = 170.93980 118.67336 60.27845
#
# Poissons Ratio (x) = 0.36218 0.09340
# Poissons Ratio (y) = 0.52169 -0.09719
# Poissons Ratio (z) = 0.26487 -0.19135
#
# Static dielectric constant tensor:
#      x y z
#    x 1.940180 0.000000 0.000000 
#    y 0.000000 2.031580 0.000000 
#    z 0.000000 0.000000 1.969030 
# 
# From -- ./inp_files/19419.got.cif
#   From: 2010.05.17/outbox.cif.g08.bks.cpg/sg54_10_cif.got.tgz:19419.got - 2010.06.03 13:09:01.
