data_PCOD9420508
_publ_section_title
;
Structure prediction by ZEFSAII (Michael W. Deem and Ramdas Pophale) SiO2 
 PCOD9420508
Probable space group: P C C A
;
_chemical_formula_sum "Si O2"
_cell_formula_units_Z 48
_cell_length_a 5.644554
_cell_length_b 14.499568
_cell_length_c 31.490306
_cell_angle_alpha 90.000000
_cell_angle_beta 90.000000
_cell_angle_gamma 90.000000
_cell_volume 2577.279837
_symmetry_space_group_name_H-M "P C C A"
_symmetry_group_IT_number 54
_symmetry_cell_setting 'orthorhombic'
loop_
_space_group_symop_operation_xyz
x,y,z
1/2-x,-y,z
1/2+x,-y,1/2-z
-x,y,1/2-z
-x,-y,-z
1/2+x,y,-z
1/2-x,y,1/2+z
x,-y,1/2+z
loop_
_atom_site_type_symbol
_atom_site_label
_atom_site_fract_x
_atom_site_fract_y
_atom_site_fract_z
Si Si1 0.008269 0.829010 0.168408
Si Si2 0.374531 0.301758 0.873106
Si Si3 0.324085 0.299971 0.713972
Si Si4 0.250000 0.000000 0.025303
Si Si5 0.750000 0.500000 0.143468
Si Si6 0.109267 0.868156 0.596907
Si Si7 0.250000 0.000000 0.853937
Si Si8 0.750000 0.500000 0.303166
O O1 0.118072 0.772975 0.206957
O O2 0.208248 0.860125 0.135438
O O3 0.847655 0.755428 0.143864
O O4 0.865784 0.922334 0.175698
O O5 0.548336 0.306822 0.832103
O O6 0.293753 0.405639 0.882594
O O7 0.495892 0.233959 0.907282
O O8 0.500000 0.266891 0.750000
O O9 0.256608 0.405635 0.723489
O O10 0.267872 0.910625 0.055842
O O11 0.500000 0.000000 0.000000
O O12 0.500841 0.490675 0.170326
O O13 0.918362 0.941799 0.614428
#
# Coordination Sequence:
#
# PCOD9420508 Si02
#       8
#     8   8   8   4   4   8   4   4
#     4  10  18  34  55  83 106 157 197 245 291 357
#     4   9  20  33  57  79 115 155 198 246 294 350
#     4  10  21  34  50  81 114 154 202 250 308 360
#     4  12  25  38  60  98 131 150 180 240 305 372
#     4  10  18  37  54  86 116 149 206 248 288 353
#     4  10  20  36  56  88 115 155 188 230 295 363
#     4  10  17  32  62  82 107 152 208 232 299 356
#     4  10  20  35  50  76 122 157 186 248 320 363
#
# _framework density 18.624286999999999
#
# number of rings (size 3 to 8) (size 9 to 14) (size 15 to 20)
#    0.000    2.000    3.333    0.500    2.333    3.333 
#    0.000    0.000    0.000    0.000  156.000    1.167 
#    0.000    0.000    0.000    0.000    0.000    0.000 
#
# Total GULP energy -267404.502716 kJ/mol
# GULP energy per Si atom -5570.927140 kJ/mol
# Density = 1.858190 g / cm^3
# Si number density = 18.624287 Si / 1000 Ang^3
#
#
#
# Elastic Constant Matrix: (Units=GPa)
#
#
# Indices 1 2 3 4 5 6 
#
# 1 95.1491 49.9150 26.1336 0.0000 0.0000 0.0000
# 2 49.9150 175.9706 36.9731 0.0000 0.0000 0.0000
# 3 26.1336 36.9731 52.0897 0.0000 0.0000 0.0000
# 4 0.0000 0.0000 0.0000 -58.2268 0.0000 0.0000
# 5 0.0000 0.0000 0.0000 0.0000 10.1380 0.0000
# 6 0.0000 0.0000 0.0000 0.0000 0.0000 13.3096
#
#
#
# Elastic Compliance Matrix: (Units=1/GPa)
#
#
# Indices 1 2 3 4 5 6 
#
# 1 0.013251 -0.002776 -0.004678 0.000000 0.000000 0.000000
# 2 -0.002776 0.007260 -0.003761 0.000000 0.000000 0.000000
# 3 -0.004678 -0.003761 0.024214 0.000000 0.000000 0.000000
# 4 0.000000 0.000000 0.000000 -0.017174 0.000000 0.000000
# 5 0.000000 0.000000 0.000000 0.000000 0.098639 0.000000
# 6 0.000000 0.000000 0.000000 0.000000 0.000000 0.075134
#
#
# Mechanical properties :
#
#
# Convention : Reuss Voigt Hill
#
# Bulk Modulus (GPa) = 44.85018 61.02809 52.93914
# Shear Modulus (GPa) = 21.62783 7.05668 14.34225
#
# Velocity S-wave (km/s) = 3.41144 1.94864 2.77805
# Velocity P-wave (km/s) = 6.29691 6.15647 6.22708
#
# Compressibility (1/GPa) = 0.02229645
#
# Stress axis : x y z
#
# Youngs Moduli (GPa) = 75.46726 137.73522 41.29877
#
# Poissons Ratio (x) = 0.38233 0.19318
# Poissons Ratio (y) = 0.20948 0.15531
# Poissons Ratio (z) = 0.35301 0.51798
#
# Static dielectric constant tensor:
#      x y z
#    x 1.723500 0.000000 0.000000 
#    y 0.000000 1.721510 0.000000 
#    z 0.000000 0.000000 1.625550 
# 
# From -- ./inp_files/25404.got.cif
#   From: 2010.05.17/outbox.cif.g08.bks.cpg/sg54_13_cif.got.tgz:25404.got - 2010.06.03 13:09:01.
