data_PCOD9420592
_publ_section_title
;
Structure prediction by ZEFSAII (Michael W. Deem and Ramdas Pophale) SiO2 
 PCOD9420592
Probable space group: P C C A
;
_chemical_formula_sum "Si O2"
_cell_formula_units_Z 64
_cell_length_a 17.871309
_cell_length_b 8.829675
_cell_length_c 21.108100
_cell_angle_alpha 90.000000
_cell_angle_beta 90.000000
_cell_angle_gamma 90.000000
_cell_volume 3330.812804
_symmetry_space_group_name_H-M "P C C A"
_symmetry_group_IT_number 54
_symmetry_cell_setting 'orthorhombic'
loop_
_space_group_symop_operation_xyz
x,y,z
1/2-x,-y,z
1/2+x,-y,1/2-z
-x,y,1/2-z
-x,-y,-z
1/2+x,y,-z
1/2-x,y,1/2+z
x,-y,1/2+z
loop_
_atom_site_type_symbol
_atom_site_label
_atom_site_fract_x
_atom_site_fract_y
_atom_site_fract_z
Si Si1 0.572262 0.793235 0.092719
Si Si2 0.451593 0.558837 0.143928
Si Si3 0.181518 0.420757 0.240059
Si Si4 0.074147 0.079314 0.716179
Si Si5 0.059151 0.377983 0.524038
Si Si6 0.814640 0.889541 0.703544
Si Si7 0.978944 0.121383 0.596146
Si Si8 0.412248 0.651807 0.809214
O O1 0.498965 0.702479 0.118129
O O2 0.628618 0.830059 0.149937
O O3 0.550336 0.962371 0.071397
O O4 0.604479 0.686447 0.036284
O O5 0.390850 0.603030 0.196202
O O6 0.411837 0.461410 0.087548
O O7 0.515601 0.450168 0.173694
O O8 0.250000 0.500000 0.204784
O O9 0.213646 0.263756 0.265192
O O10 0.153382 0.531163 0.297133
O O11 0.048453 0.089473 0.644139
O O12 0.083949 0.247230 0.745514
O O13 0.000000 0.012654 0.750000
O O14 0.142249 0.981240 0.741144
O O15 0.010438 0.234288 0.544809
O O16 0.000000 0.500000 0.500000
O O17 0.750000 0.000000 0.678736
O O18 0.916603 0.216202 0.636984
#
# Coordination Sequence:
#
# PCOD9420592 Si02
#       8
#     8   8   8   8   8   8   8   8
#     4  11  20  36  60  83 121 160 202 257 304 364
#     4  10  20  37  60  88 115 156 213 254 297 363
#     4  12  24  35  57  87 126 161 197 247 316 365
#     4  10  18  33  56  85 117 157 191 248 294 361
#     4   9  20  35  57  89 112 149 208 267 296 346
#     4  12  25  37  55  89 131 161 201 241 312 385
#     4  10  18  31  58  85 117 146 200 253 312 345
#     4  10  18  31  54  84 119 156 192 243 298 361
#
# _framework density 19.214531000000001
#
# number of rings (size 3 to 8) (size 9 to 14) (size 15 to 20)
#    0.000    1.500    3.750    5.250    0.000    0.000 
#    0.000    0.000    0.000    7.500    0.000    0.000 
#    0.000    0.000    0.000    0.000    0.000    0.000 
#
# Total GULP energy -356471.775635 kJ/mol
# GULP energy per Si atom -5569.871494 kJ/mol
# Density = 1.917080 g / cm^3
# Si number density = 19.214531 Si / 1000 Ang^3
#
#
#
# Elastic Constant Matrix: (Units=GPa)
#
#
# Indices 1 2 3 4 5 6 
#
# 1 51.1337 24.7175 7.6913 0.0000 0.0000 0.0000
# 2 24.7175 117.3574 29.3944 0.0000 0.0000 0.0000
# 3 7.6913 29.3944 59.2063 0.0000 0.0000 0.0000
# 4 0.0000 0.0000 0.0000 18.3686 0.0000 0.0000
# 5 0.0000 0.0000 0.0000 0.0000 4.0825 0.0000
# 6 0.0000 0.0000 0.0000 0.0000 0.0000 29.7173
#
#
#
# Elastic Compliance Matrix: (Units=1/GPa)
#
#
# Indices 1 2 3 4 5 6 
#
# 1 0.021794 -0.004432 -0.000631 0.000000 0.000000 0.000000
# 2 -0.004432 0.010632 -0.004703 0.000000 0.000000 0.000000
# 3 -0.000631 -0.004703 0.019307 0.000000 0.000000 0.000000
# 4 0.000000 0.000000 0.000000 0.054441 0.000000 0.000000
# 5 0.000000 0.000000 0.000000 0.000000 0.244947 0.000000
# 6 0.000000 0.000000 0.000000 0.000000 0.000000 0.033650
#
#
# Mechanical properties :
#
#
# Convention : Reuss Voigt Hill
#
# Bulk Modulus (GPa) = 31.05443 39.03376 35.04410
# Shear Modulus (GPa) = 12.04711 21.49330 16.77021
#
# Velocity S-wave (km/s) = 2.50667 3.34817 2.95750
# Velocity P-wave (km/s) = 4.95731 5.94187 5.47178
#
# Compressibility (1/GPa) = 0.03220152
#
# Stress axis : x y z
#
# Youngs Moduli (GPa) = 45.88436 94.05192 51.79494
#
# Poissons Ratio (x) = 0.41686 0.03267
# Poissons Ratio (y) = 0.20337 0.24359
# Poissons Ratio (z) = 0.02894 0.44232
#
# Static dielectric constant tensor:
#      x y z
#    x 1.739290 0.000000 0.000000 
#    y 0.000000 1.742190 0.000000 
#    z 0.000000 0.000000 1.769380 
# 
# From -- ./inp_files/21977.got.cif
#   From: 2010.05.17/outbox.cif.g08.bks.cpg/sg54_11_cif.got.tgz:21977.got - 2010.06.03 13:09:01.
