data_PCOD9420292
_publ_section_title
;
Structure prediction by ZEFSAII (Michael W. Deem and Ramdas Pophale) SiO2 
 PCOD9420292
Probable space group: P M N A
;
_chemical_formula_sum "Si O2"
_cell_formula_units_Z 56
_cell_length_a 9.000000
_cell_length_b 15.000000
_cell_length_c 21.000000
_cell_angle_alpha 90.000000
_cell_angle_beta 90.000000
_cell_angle_gamma 90.000000
_cell_volume 2835.000000
_symmetry_space_group_name_H-M "P M N A"
_symmetry_group_IT_number 53
_symmetry_cell_setting 'orthorhombic'
loop_
_space_group_symop_operation_xyz
x,y,z
1/2-x,-y,1/2+z
x,-y,-z
1/2-x,y,1/2-z
-x,-y,-z
1/2+x,y,1/2-z
-x,y,z
1/2+x,-y,1/2+z
loop_
_atom_site_type_symbol
_atom_site_label
_atom_site_fract_x
_atom_site_fract_y
_atom_site_fract_z
Si Si1 0.672818 0.104491 0.482261
Si Si2 0.674834 0.794440 0.088861
Si Si3 0.823221 0.080058 0.810624
Si Si4 0.669474 0.699801 0.812836
Si Si5 0.327633 0.900134 0.850903
Si Si6 0.176236 0.590083 0.919788
Si Si7 0.177509 0.611378 0.070515
O O1 0.500000 0.127461 0.494341
O O2 0.783672 0.170070 0.518828
O O3 0.716295 0.111857 0.409343
O O4 0.693759 0.000000 0.500000
O O5 0.500000 0.804937 0.101912
O O6 0.777267 0.859906 0.130203
O O7 0.728951 0.693365 0.097157
O O8 0.750000 0.127039 0.750000
O O9 0.000000 0.067758 0.806180
O O10 0.735791 0.986959 0.816691
O O11 0.750000 0.666520 0.750000
O O12 0.500000 0.671736 0.811536
O O13 0.674146 0.807263 0.813941
O O14 0.743280 0.660046 0.875466
O O15 0.500000 0.916777 0.870240
O O16 0.218297 0.487336 0.905207
O O17 0.000000 0.597204 0.910010
O O18 0.202929 0.607883 0.994317
O O19 0.000000 0.625048 0.080479
#
# Coordination Sequence:
#
# PCOD9420292 Si02
#       7
#     8   8   8   8   8   8   8
#     4  11  22  36  57  86 118 157 197 239 293 346
#     4  12  24  38  59  88 121 156 194 242 292 345
#     4  12  25  42  61  82 112 154 199 244 290 344
#     4  11  24  39  58  86 120 158 200 244 294 351
#     4  11  23  39  60  88 119 155 198 245 296 351
#     4   9  19  38  64  91 120 153 191 239 294 352
#     4   9  19  38  64  92 120 153 192 237 295 357
#
# _framework density 19.753086
#
# number of rings (size 3 to 8) (size 9 to 14) (size 15 to 20)
#    0.000    1.286    1.429    6.000    0.000    7.429 
#    0.000    2.143    0.000    3.429    0.000    0.000 
#    0.000    0.000    0.000    0.000    0.000    0.000 
#
# Total GULP energy -312690.184143 kJ/mol
# GULP energy per Si atom -5583.753288 kJ/mol
# Density = 1.970813 g / cm^3
# Si number density = 19.753086 Si / 1000 Ang^3
#
#
#
# Elastic Constant Matrix: (Units=GPa)
#
#
# Indices 1 2 3 4 5 6 
#
# 1 84.0730 41.2448 3.7586 0.0000 0.0000 0.0000
# 2 41.2448 76.1997 -1.7698 0.0000 0.0000 0.0000
# 3 3.7586 -1.7698 29.8719 0.0000 0.0000 0.0000
# 4 0.0000 0.0000 0.0000 -19.2720 0.0000 0.0000
# 5 0.0000 0.0000 0.0000 0.0000 8.0846 0.0000
# 6 0.0000 0.0000 0.0000 0.0000 0.0000 4.6199
#
#
#
# Elastic Compliance Matrix: (Units=1/GPa)
#
#
# Indices 1 2 3 4 5 6 
#
# 1 0.016393 -0.008933 -0.002592 0.000000 0.000000 0.000000
# 2 -0.008933 0.018010 0.002191 0.000000 0.000000 0.000000
# 3 -0.002592 0.002191 0.033932 0.000000 0.000000 0.000000
# 4 0.000000 0.000000 0.000000 -0.051889 0.000000 0.000000
# 5 0.000000 0.000000 0.000000 0.000000 0.123692 0.000000
# 6 0.000000 0.000000 0.000000 0.000000 0.000000 0.216453
#
#
# Mechanical properties :
#
#
# Convention : Reuss Voigt Hill
#
# Bulk Modulus (GPa) = 20.13429 30.73467 25.43448
# Shear Modulus (GPa) = 12.76115 8.48057 10.62086
#
# Velocity S-wave (km/s) = 2.54448 2.07427 2.32131
# Velocity P-wave (km/s) = 4.34138 4.61844 4.48205
#
# Compressibility (1/GPa) = 0.04966652
#
# Stress axis : x y z
#
# Youngs Moduli (GPa) = 61.00259 55.52609 29.47049
#
# Poissons Ratio (x) = 0.49602 0.07638
# Poissons Ratio (y) = 0.54494 -0.06457
# Poissons Ratio (z) = 0.15811 -0.12166
#
# Static dielectric constant tensor:
#      x y z
#    x 1.642560 0.000000 0.000000 
#    y 0.000000 1.720520 0.000000 
#    z 0.000000 0.000000 1.583440 
# 
# From -- ./inp_files/30776.got.cif
#   From: 2010.05.17/outbox.ucp.g08.bks.cvg/sg53_16_cif.got.tgz:30776.got - 2010.06.11 16:32:34.
