data_PCOD9420809
_publ_section_title
;
Structure prediction by ZEFSAII (Michael W. Deem and Ramdas Pophale) SiO2 
 PCOD9420809
Probable space group: P C C A
;
_chemical_formula_sum "Si O2"
_cell_formula_units_Z 56
_cell_length_a 21.455581
_cell_length_b 8.207960
_cell_length_c 13.913468
_cell_angle_alpha 90.000000
_cell_angle_beta 90.000000
_cell_angle_gamma 90.000000
_cell_volume 2450.252857
_symmetry_space_group_name_H-M "P C C A"
_symmetry_group_IT_number 54
_symmetry_cell_setting 'orthorhombic'
loop_
_space_group_symop_operation_xyz
x,y,z
1/2-x,-y,z
1/2+x,-y,1/2-z
-x,y,1/2-z
-x,-y,-z
1/2+x,y,-z
1/2-x,y,1/2+z
x,-y,1/2+z
loop_
_atom_site_type_symbol
_atom_site_label
_atom_site_fract_x
_atom_site_fract_y
_atom_site_fract_z
Si Si1 0.157640 0.735590 0.345103
Si Si2 0.479748 0.231565 0.951846
Si Si3 0.750000 0.000000 0.396988
Si Si4 0.646410 0.080716 0.551400
Si Si5 0.204588 0.752291 0.763263
Si Si6 0.085825 0.554742 0.484251
Si Si7 0.111838 0.507857 0.200033
Si Si8 0.000000 0.264700 0.250000
O O1 0.226126 0.739100 0.303181
O O2 0.146733 0.598833 0.425584
O O3 0.112419 0.675788 0.258934
O O4 0.145809 0.904291 0.398654
O O5 0.421391 0.129811 0.990396
O O6 0.453412 0.414571 0.933266
O O7 0.494221 0.161134 0.846831
O O8 0.542650 0.282616 0.006951
O O9 0.699666 0.083825 0.468994
O O10 0.788705 0.119430 0.325381
O O11 0.664176 0.192051 0.643901
O O12 0.175560 0.587077 0.723005
O O13 0.102701 0.480495 0.586829
O O14 0.058478 0.382123 0.231681
#
# Coordination Sequence:
#
# PCOD9420809 Si02
#       8
#     8   8   4   8   8   8   8   4
#     4  12  23  45  64 104 138 176 234 294 346 426
#     4  10  22  42  70  98 131 185 228 280 363 415
#     4  12  24  44  70  96 146 190 232 292 358 416
#     4  12  24  44  70  95 140 186 232 293 353 428
#     4  12  24  45  64 101 137 185 231 288 360 423
#     4  10  23  44  71 101 136 179 234 291 352 430
#     4  11  24  40  71  98 134 178 233 285 353 412
#     4  10  18  42  68  90 136 176 214 292 346 402
#
# _framework density 22.854783999999999
#
# number of rings (size 3 to 8) (size 9 to 14) (size 15 to 20)
#    0.000    0.857    5.714    1.286    2.000    0.571 
#    0.000    2.143    0.000    0.000    0.000    0.000 
#    0.000    0.000    0.000    0.000    0.000    0.000 
#
# Total GULP energy -312687.523480 kJ/mol
# GULP energy per Si atom -5583.705776 kJ/mol
# Density = 2.280276 g / cm^3
# Si number density = 22.854784 Si / 1000 Ang^3
#
#
#
# Elastic Constant Matrix: (Units=GPa)
#
#
# Indices 1 2 3 4 5 6 
#
# 1 67.3123 13.5690 12.2147 0.0000 0.0000 0.0000
# 2 13.5690 45.7235 7.3052 0.0000 0.0000 0.0000
# 3 12.2147 7.3052 123.5800 0.0000 0.0000 0.0000
# 4 0.0000 0.0000 0.0000 21.1952 0.0000 0.0000
# 5 0.0000 0.0000 0.0000 0.0000 22.9468 0.0000
# 6 0.0000 0.0000 0.0000 0.0000 0.0000 28.9396
#
#
#
# Elastic Compliance Matrix: (Units=1/GPa)
#
#
# Indices 1 2 3 4 5 6 
#
# 1 0.016010 -0.004541 -0.001314 0.000000 0.000000 0.000000
# 2 -0.004541 0.023367 -0.000932 0.000000 0.000000 0.000000
# 3 -0.001314 -0.000932 0.008277 0.000000 0.000000 0.000000
# 4 0.000000 0.000000 0.000000 0.047181 0.000000 0.000000
# 5 0.000000 0.000000 0.000000 0.000000 0.043579 0.000000
# 6 0.000000 0.000000 0.000000 0.000000 0.000000 0.034555
#
#
# Mechanical properties :
#
#
# Convention : Reuss Voigt Hill
#
# Bulk Modulus (GPa) = 29.34373 33.64372 31.49372
# Shear Modulus (GPa) = 25.26483 28.18476 26.72480
#
# Velocity S-wave (km/s) = 3.32844 3.51552 3.42326
# Velocity P-wave (km/s) = 5.25723 5.58848 5.42538
#
# Compressibility (1/GPa) = 0.03407883
#
# Stress axis : x y z
#
# Youngs Moduli (GPa) = 62.46100 42.79498 120.81790
#
# Poissons Ratio (x) = 0.19434 0.15875
# Poissons Ratio (y) = 0.28365 0.11266
# Poissons Ratio (z) = 0.08207 0.03990
#
# Static dielectric constant tensor:
#      x y z
#    x 1.881390 0.000000 0.000000 
#    y 0.000000 1.867480 0.000000 
#    z 0.000000 0.000000 1.872880 
# 
# From -- ./inp_files/14711.got.cif
#   From: 2010.05.17/outbox.cif.g08.bks.cpg/sg54_8_cif.got.tgz:14711.got - 2010.06.03 13:09:01.
