data_PCOD9420269
_publ_section_title
;
Structure prediction by ZEFSAII (Michael W. Deem and Ramdas Pophale) SiO2 
 PCOD9420269
Probable space group: P M N A
;
_chemical_formula_sum "Si O2"
_cell_formula_units_Z 48
_cell_length_a 9.000000
_cell_length_b 9.000000
_cell_length_c 30.000000
_cell_angle_alpha 90.000000
_cell_angle_beta 90.000000
_cell_angle_gamma 90.000000
_cell_volume 2430.000000
_symmetry_space_group_name_H-M "P M N A"
_symmetry_group_IT_number 53
_symmetry_cell_setting 'orthorhombic'
loop_
_space_group_symop_operation_xyz
x,y,z
1/2-x,-y,1/2+z
x,-y,-z
1/2-x,y,1/2-z
-x,-y,-z
1/2+x,y,1/2-z
-x,y,z
1/2+x,-y,1/2+z
loop_
_atom_site_type_symbol
_atom_site_label
_atom_site_fract_x
_atom_site_fract_y
_atom_site_fract_z
Si Si1 0.179863 0.909113 0.545485
Si Si2 0.678906 0.029778 0.856289
Si Si3 0.328959 0.433455 0.138547
Si Si4 0.678585 0.582024 0.547035
Si Si5 0.831627 0.708191 0.297366
Si Si6 0.176163 0.787009 0.797454
O O1 0.222361 0.987355 0.592917
O O2 0.261284 0.750684 0.544029
O O3 0.000000 0.889271 0.545972
O O4 0.215067 0.000000 0.500000
O O5 0.500000 0.012825 0.855601
O O6 0.749725 0.936122 0.815960
O O7 0.722243 0.192238 0.839010
O O8 0.500000 0.378759 0.131719
O O9 0.263388 0.482849 0.090763
O O10 0.335572 0.549974 0.178850
O O11 0.217919 0.315556 0.160327
O O12 0.711510 0.500000 0.500000
O O13 0.500000 0.578246 0.553627
O O14 0.750000 0.710711 0.250000
O O15 0.000000 0.756405 0.287342
O O16 0.250000 0.744147 0.750000
O O17 0.000000 0.796345 0.791471
#
# Coordination Sequence:
#
# PCOD9420269 Si02
#       6
#     8   8   8   8   8   8
#     4  10  22  40  67  96 124 163 209 256 309 371
#     4  10  21  40  62  91 127 160 205 257 306 369
#     4  11  23  41  65  92 122 161 208 259 310 369
#     4  11  25  43  63  93 129 164 205 256 312 374
#     4  10  23  40  61  90 125 162 206 255 306 365
#     4  12  24  39  62  91 124 163 206 254 309 369
#
# _framework density 19.753086
#
# number of rings (size 3 to 8) (size 9 to 14) (size 15 to 20)
#    0.000    1.333    1.667    3.500    2.333    6.333 
#    0.000    0.000    0.000    0.000    0.000    0.000 
#    0.000    0.000    0.000    0.000    0.000    0.000 
#
# Total GULP energy -267491.706251 kJ/mol
# GULP energy per Si atom -5572.743880 kJ/mol
# Density = 1.970813 g / cm^3
# Si number density = 19.753086 Si / 1000 Ang^3
#
#
#
# Elastic Constant Matrix: (Units=GPa)
#
#
# Indices 1 2 3 4 5 6 
#
# 1 20.8918 8.9444 60.6258 0.0000 0.0000 0.0000
# 2 8.9444 40.7645 20.5051 0.0000 0.0000 0.0000
# 3 60.6258 20.5051 173.5119 0.0000 0.0000 0.0000
# 4 0.0000 0.0000 0.0000 38.6369 0.0000 0.0000
# 5 0.0000 0.0000 0.0000 0.0000 41.5417 0.0000
# 6 0.0000 0.0000 0.0000 0.0000 0.0000 22.9066
#
#
#
# Elastic Compliance Matrix: (Units=1/GPa)
#
#
# Indices 1 2 3 4 5 6 
#
# 1 -2.675533 0.124202 0.920166 0.000000 0.000000 0.000000
# 2 0.124202 0.020316 -0.045798 0.000000 0.000000 0.000000
# 3 0.920166 -0.045798 -0.310334 0.000000 0.000000 0.000000
# 4 0.000000 0.000000 0.000000 0.025882 0.000000 0.000000
# 5 0.000000 0.000000 0.000000 0.000000 0.024072 0.000000
# 6 0.000000 0.000000 0.000000 0.000000 0.000000 0.043656
#
#
# Mechanical properties :
#
#
# Convention : Reuss Voigt Hill
#
# Bulk Modulus (GPa) = -1.03262 46.14656 22.55697
# Shear Modulus (GPa) = -0.96304 30.28989 14.66342
#
# Velocity S-wave (km/s) = -0.69900 3.92015 2.72754
# Velocity P-wave (km/s) = 1.08414 6.62589 4.62207
#
# Compressibility (1/GPa) = -0.96841192
#
# Stress axis : x y z
#
# Youngs Moduli (GPa) = -0.37376 49.22248 -3.22233
#
# Poissons Ratio (x) = -6.11353 2.96508
# Poissons Ratio (y) = 0.04642 -0.14758
# Poissons Ratio (z) = 0.34392 2.25427
#
# Static dielectric constant tensor:
#      x y z
#    x 1.677610 0.000000 0.000000 
#    y 0.000000 1.954770 0.000000 
#    z 0.000000 0.000000 1.676390 
# 
# From -- ./inp_files/37722.got.cif
#   From: 2010.05.17/outbox.ucp.g08.bks.cvg/sg53_19_cif.got.tgz:37722.got - 2010.06.11 16:32:34.
