data_PCOD9420066
_publ_section_title
;
Structure prediction by ZEFSAII (Michael W. Deem and Ramdas Pophale) SiO2 
 PCOD9420066
Probable space group: P M N A
;
_chemical_formula_sum "Si O2"
_cell_formula_units_Z 48
_cell_length_a 8.140445
_cell_length_b 10.572567
_cell_length_c 31.502298
_cell_angle_alpha 90.000000
_cell_angle_beta 90.000000
_cell_angle_gamma 90.000000
_cell_volume 2711.257884
_symmetry_space_group_name_H-M "P M N A"
_symmetry_group_IT_number 53
_symmetry_cell_setting 'orthorhombic'
loop_
_space_group_symop_operation_xyz
x,y,z
1/2-x,-y,1/2+z
x,-y,-z
1/2-x,y,1/2-z
-x,-y,-z
1/2+x,y,1/2-z
-x,y,z
1/2+x,-y,1/2+z
loop_
_atom_site_type_symbol
_atom_site_label
_atom_site_fract_x
_atom_site_fract_y
_atom_site_fract_z
Si Si1 0.798819 0.628333 0.522725
Si Si2 0.200567 0.122256 0.527293
Si Si3 0.697398 0.015354 0.884920
Si Si4 0.304709 0.009775 0.705508
Si Si5 0.695622 0.719046 0.705009
Si Si6 0.697840 0.722105 0.886353
O O1 0.744741 0.500000 0.500000
O O2 0.745374 0.749802 0.495400
O O3 0.746600 0.648100 0.571611
O O4 0.000000 0.627759 0.523002
O O5 0.000000 0.125065 0.527279
O O6 0.249005 0.000000 0.500000
O O7 0.255545 0.098114 0.575429
O O8 0.500000 0.010219 0.886962
O O9 0.746177 0.066407 0.838825
O O10 0.756576 0.869065 0.889158
O O11 0.250000 0.068964 0.750000
O O12 0.500000 0.004144 0.705114
O O13 0.237700 0.864512 0.705289
O O14 0.750000 0.660594 0.750000
O O15 0.500000 0.723232 0.705062
O O16 0.751193 0.667127 0.659400
O O17 0.500000 0.725739 0.887244
#
# Coordination Sequence:
#
# PCOD9420066 Si02
#       6
#     8   8   8   8   8   8
#     4   9  16  25  39  62  89 115 146 184 219 251
#     4   9  14  23  39  60  84 113 147 178 210 251
#     4   9  15  23  39  60  82 111 146 178 211 253
#     4   9  16  25  37  56  85 114 140 172 215 262
#     4   9  16  25  38  58  84 112 141 174 214 260
#     4   9  15  24  39  59  84 113 143 176 214 253
#
# _framework density 17.703961
#
# number of rings (size 3 to 8) (size 9 to 14) (size 15 to 20)
#    0.000    3.000    1.667    1.000    0.000    4.000 
#    0.000    0.000    0.000    2.000    0.000    1.167 
#    0.000    0.000    0.000    0.000    0.000    0.000 
#
# Total GULP energy -267202.505012 kJ/mol
# GULP energy per Si atom -5566.718854 kJ/mol
# Density = 1.766367 g / cm^3
# Si number density = 17.703961 Si / 1000 Ang^3
#
#
#
# Elastic Constant Matrix: (Units=GPa)
#
#
# Indices 1 2 3 4 5 6 
#
# 1 10.6196 6.3442 18.7165 0.0000 0.0000 0.0000
# 2 6.3442 67.9329 62.5297 0.0000 0.0000 0.0000
# 3 18.7165 62.5297 229.2258 0.0000 0.0000 0.0000
# 4 0.0000 0.0000 0.0000 14.0095 0.0000 0.0000
# 5 0.0000 0.0000 0.0000 0.0000 21.3457 0.0000
# 6 0.0000 0.0000 0.0000 0.0000 0.0000 2.5198
#
#
#
# Elastic Compliance Matrix: (Units=1/GPa)
#
#
# Indices 1 2 3 4 5 6 
#
# 1 0.110361 -0.002687 -0.008278 0.000000 0.000000 0.000000
# 2 -0.002687 0.019721 -0.005160 0.000000 0.000000 0.000000
# 3 -0.008278 -0.005160 0.006446 0.000000 0.000000 0.000000
# 4 0.000000 0.000000 0.000000 0.071380 0.000000 0.000000
# 5 0.000000 0.000000 0.000000 0.000000 0.046848 0.000000
# 6 0.000000 0.000000 0.000000 0.000000 0.000000 0.396863
#
#
# Mechanical properties :
#
#
# Convention : Reuss Voigt Hill
#
# Bulk Modulus (GPa) = 9.58981 53.66214 31.62597
# Shear Modulus (GPa) = 6.95770 22.25418 14.60594
#
# Velocity S-wave (km/s) = 1.98458 3.54929 2.87541
# Velocity P-wave (km/s) = 3.26802 6.86828 5.37834
#
# Compressibility (1/GPa) = 0.10427740
#
# Stress axis : x y z
#
# Youngs Moduli (GPa) = 9.06120 50.70688 155.13285
#
# Poissons Ratio (x) = 0.13624 1.28421
# Poissons Ratio (y) = 0.02435 0.80053
# Poissons Ratio (z) = 0.07501 0.26166
#
# Static dielectric constant tensor:
#      x y z
#    x 1.620950 0.000000 0.000000 
#    y 0.000000 1.578030 0.000000 
#    z 0.000000 0.000000 1.657630 
# 
# From -- ./inp_files/37898.got.cif
#   From: 2010.05.17/outbox.cif.g08.bks.cpg/sg53_19_cif.got.tgz:37898.got - 2010.06.03 12:45:16.
