data_PCOD9420714
_publ_section_title
;
Structure prediction by ZEFSAII (Michael W. Deem and Ramdas Pophale) SiO2 
 PCOD9420714
Probable space group: P C C A
;
_chemical_formula_sum "Si O2"
_cell_formula_units_Z 56
_cell_length_a 23.185044
_cell_length_b 6.781382
_cell_length_c 22.141620
_cell_angle_alpha 90.000000
_cell_angle_beta 90.000000
_cell_angle_gamma 90.000000
_cell_volume 3481.252518
_symmetry_space_group_name_H-M "P C C A"
_symmetry_group_IT_number 54
_symmetry_cell_setting 'orthorhombic'
loop_
_space_group_symop_operation_xyz
x,y,z
1/2-x,-y,z
1/2+x,-y,1/2-z
-x,y,1/2-z
-x,-y,-z
1/2+x,y,-z
1/2-x,y,1/2+z
x,-y,1/2+z
loop_
_atom_site_type_symbol
_atom_site_label
_atom_site_fract_x
_atom_site_fract_y
_atom_site_fract_z
Si Si1 0.305964 0.114148 0.893554
Si Si2 0.441351 0.939002 0.716166
Si Si3 0.250000 0.500000 0.336461
Si Si4 0.500000 0.320190 0.750000
Si Si5 0.349929 0.218698 0.305804
Si Si6 0.576836 0.151304 0.547219
Si Si7 0.475660 0.151982 0.082845
Si Si8 0.052806 0.521227 0.367900
O O1 0.286150 0.335442 0.874835
O O2 0.357493 0.093256 0.940822
O O3 0.250000 0.000000 0.916453
O O4 0.327945 0.984808 0.836085
O O5 0.500000 0.860595 0.750000
O O6 0.386641 0.839399 0.747124
O O7 0.444748 0.906489 0.645045
O O8 0.448554 0.171799 0.729698
O O9 0.295975 0.367240 0.299667
O O10 0.524244 0.438626 0.693363
O O11 0.395134 0.332895 0.349477
O O12 0.562942 0.167295 0.476588
O O13 0.571547 0.344946 0.588706
O O14 0.528190 0.001138 0.571902
O O15 0.505207 0.359180 0.095764
#
# Coordination Sequence:
#
# PCOD9420714 Si02
#       8
#     8   8   4   4   8   8   8   8
#     4  10  20  37  55  82 104 143 190 234 281 320
#     4  10  18  35  52  80 113 148 177 225 284 335
#     4  10  22  34  58  82 106 148 190 240 284 318
#     4  10  20  30  56  82 116 148 186 214 280 350
#     4  11  20  33  58  80 116 138 187 236 281 329
#     4  11  21  36  54  79 120 141 187 227 273 343
#     4  11  22  35  53  84 116 150 176 224 286 346
#     4  12  18  33  53  83 112 150 174 224 280 336
#
# _framework density 16.086162999999999
#
# number of rings (size 3 to 8) (size 9 to 14) (size 15 to 20)
#    0.429    0.857    5.714    2.143    0.000    0.000 
#    0.000    0.000    0.000    3.429    0.000    0.000 
#    0.000    0.000    0.000    0.000    0.000    0.000 
#
# Total GULP energy -311985.687734 kJ/mol
# GULP energy per Si atom -5571.172995 kJ/mol
# Density = 1.604955 g / cm^3
# Si number density = 16.086163 Si / 1000 Ang^3
#
#
#
# Elastic Constant Matrix: (Units=GPa)
#
#
# Indices 1 2 3 4 5 6 
#
# 1 114.5731 37.3847 65.0515 0.0000 0.0000 0.0000
# 2 37.3847 66.6431 37.2804 0.0000 0.0000 0.0000
# 3 65.0515 37.2804 118.8201 0.0000 0.0000 0.0000
# 4 0.0000 0.0000 0.0000 -13.7176 0.0000 0.0000
# 5 0.0000 0.0000 0.0000 0.0000 22.6372 0.0000
# 6 0.0000 0.0000 0.0000 0.0000 0.0000 34.5836
#
#
#
# Elastic Compliance Matrix: (Units=1/GPa)
#
#
# Indices 1 2 3 4 5 6 
#
# 1 0.013566 -0.004191 -0.006112 0.000000 0.000000 0.000000
# 2 -0.004191 0.019494 -0.003822 0.000000 0.000000 0.000000
# 3 -0.006112 -0.003822 0.012962 0.000000 0.000000 0.000000
# 4 0.000000 0.000000 0.000000 -0.072899 0.000000 0.000000
# 5 0.000000 0.000000 0.000000 0.000000 0.044175 0.000000
# 6 0.000000 0.000000 0.000000 0.000000 0.000000 0.028915
#
#
# Mechanical properties :
#
#
# Convention : Reuss Voigt Hill
#
# Bulk Modulus (GPa) = 56.26937 64.38550 60.32744
# Shear Modulus (GPa) = 62.19902 19.38861 40.79382
#
# Velocity S-wave (km/s) = 6.22496 3.47551 5.04129
# Velocity P-wave (km/s) = 9.31250 7.49785 8.45401
#
# Compressibility (1/GPa) = 0.01777166
#
# Stress axis : x y z
#
# Youngs Moduli (GPa) = 73.71490 51.29704 77.15154
#
# Poissons Ratio (x) = 0.21498 0.47156
# Poissons Ratio (y) = 0.30893 0.29488
# Poissons Ratio (z) = 0.45055 0.19606
#
# Static dielectric constant tensor:
#      x y z
#    x 1.545440 0.000000 0.000000 
#    y 0.000000 1.584260 0.000000 
#    z 0.000000 0.000000 1.403820 
# 
# From -- ./inp_files/22320.got.cif
#   From: 2010.05.17/outbox.cif.g08.bks.cpg/sg54_12_cif.got.tgz:22320.got - 2010.06.03 13:09:01.
