data_PCOD9420311
_publ_section_title
;
Structure prediction by ZEFSAII (Michael W. Deem and Ramdas Pophale) SiO2 
 PCOD9420311
Probable space group: P C C A
;
_chemical_formula_sum "Si O2"
_cell_formula_units_Z 64
_cell_length_a 24.139050
_cell_length_b 29.364275
_cell_length_c 5.124088
_cell_angle_alpha 90.000000
_cell_angle_beta 90.000000
_cell_angle_gamma 90.000000
_cell_volume 3632.085276
_symmetry_space_group_name_H-M "P C C A"
_symmetry_group_IT_number 54
_symmetry_cell_setting 'orthorhombic'
loop_
_space_group_symop_operation_xyz
x,y,z
1/2-x,-y,z
1/2+x,-y,1/2-z
-x,y,1/2-z
-x,-y,-z
1/2+x,y,-z
1/2-x,y,1/2+z
x,-y,1/2+z
loop_
_atom_site_type_symbol
_atom_site_label
_atom_site_fract_x
_atom_site_fract_y
_atom_site_fract_z
Si Si1 0.214349 0.878977 0.690496
Si Si2 0.062722 0.329664 0.675572
Si Si3 0.628922 0.696456 0.306047
Si Si4 0.285477 0.617844 0.256208
Si Si5 0.344839 0.473569 0.937862
Si Si6 0.313622 0.019782 0.715191
Si Si7 0.789456 0.221127 0.402323
Si Si8 0.037357 0.432712 0.507017
O O1 0.266516 0.879360 0.491267
O O2 0.186212 0.927448 0.641819
O O3 0.187446 0.830449 0.626738
O O4 0.084840 0.301449 0.428442
O O5 0.060675 0.383101 0.593557
O O6 0.000000 0.317411 0.750000
O O7 0.100446 0.321969 0.929997
O O8 0.673539 0.659794 0.204609
O O9 0.662536 0.742229 0.365770
O O10 0.235003 0.620334 0.459305
O O11 0.316381 0.571506 0.329586
O O12 0.329515 0.513037 0.732370
O O13 0.410627 0.464407 0.943061
O O14 0.250000 0.000000 0.747570
O O15 0.339959 0.989346 0.492733
O O16 0.757011 0.226472 0.675412
O O17 0.000000 0.426973 0.250000
O O18 0.000000 0.449408 0.750000
#
# Coordination Sequence:
#
# PCOD9420311 Si02
#       8
#     8   8   8   8   8   8   8   8
#     4  10  16  25  38  59  91 129 175 229 250 295
#     4  11  23  38  65  89 108 131 166 212 267 325
#     4  12  22  40  62  83 111 136 175 218 266 312
#     4  12  26  42  63  82 106 144 183 217 251 292
#     4  12  27  42  62  86 114 142 175 209 257 313
#     4  10  14  20  34  54  81 122 178 222 256 287
#     4  10  21  34  50  75 107 144 184 223 259 298
#     4  11  23  41  65  90 117 138 165 206 265 325
#
# _framework density 17.620729999999998
#
# number of rings (size 3 to 8) (size 9 to 14) (size 15 to 20)
#    0.000    1.000    3.750    5.625    1.750    3.000 
#    0.000    0.000    0.000    0.000    0.000    0.000 
#    0.000    0.000    0.000    0.000    0.000   12.500 
#
# Total GULP energy -357383.580902 kJ/mol
# GULP energy per Si atom -5584.118452 kJ/mol
# Density = 1.758062 g / cm^3
# Si number density = 17.620730 Si / 1000 Ang^3
#
#
#
# Elastic Constant Matrix: (Units=GPa)
#
#
# Indices 1 2 3 4 5 6 
#
# 1 28.9796 23.0495 6.9348 0.0000 0.0000 0.0000
# 2 23.0495 82.5998 2.9704 0.0000 0.0000 0.0000
# 3 6.9348 2.9704 92.1914 0.0000 0.0000 0.0000
# 4 0.0000 0.0000 0.0000 19.0095 0.0000 0.0000
# 5 0.0000 0.0000 0.0000 0.0000 31.0245 0.0000
# 6 0.0000 0.0000 0.0000 0.0000 0.0000 -9.0154
#
#
#
# Elastic Compliance Matrix: (Units=1/GPa)
#
#
# Indices 1 2 3 4 5 6 
#
# 1 0.045162 -0.012495 -0.002995 0.000000 0.000000 0.000000
# 2 -0.012495 0.015577 0.000438 0.000000 0.000000 0.000000
# 3 -0.002995 0.000438 0.011058 0.000000 0.000000 0.000000
# 4 0.000000 0.000000 0.000000 0.052605 0.000000 0.000000
# 5 0.000000 0.000000 0.000000 0.000000 0.032233 0.000000
# 6 0.000000 0.000000 0.000000 0.000000 0.000000 -0.110921
#
#
# Mechanical properties :
#
#
# Convention : Reuss Voigt Hill
#
# Bulk Modulus (GPa) = 23.98388 29.96447 26.97417
# Shear Modulus (GPa) = 55.73237 19.59146 37.66192
#
# Velocity S-wave (km/s) = 5.63006 3.33805 4.62818
# Velocity P-wave (km/s) = 7.47690 5.64791 6.62582
#
# Compressibility (1/GPa) = 0.04169467
#
# Stress axis : x y z
#
# Youngs Moduli (GPa) = 22.14272 64.19537 90.43106
#
# Poissons Ratio (x) = 0.80210 0.27080
# Poissons Ratio (y) = 0.27667 -0.03961
# Poissons Ratio (z) = 0.06631 -0.02812
#
# Static dielectric constant tensor:
#      x y z
#    x 1.368190 0.000000 0.000000 
#    y 0.000000 1.628230 0.000000 
#    z 0.000000 0.000000 1.648850 
# 
# From -- ./inp_files/1489.got.cif
#   From: 2010.05.17/outbox.cif.g08.bks.cpg/sg54_1_cif.got.tgz:1489.got - 2010.06.03 13:09:01.
