data_PCOD9420202
_publ_section_title
;
Structure prediction by ZEFSAII (Michael W. Deem and Ramdas Pophale) SiO2 
 PCOD9420202
Probable space group: P M N A
;
_chemical_formula_sum "Si O2"
_cell_formula_units_Z 48
_cell_length_a 18.000000
_cell_length_b 15.000000
_cell_length_c 9.000000
_cell_angle_alpha 90.000000
_cell_angle_beta 90.000000
_cell_angle_gamma 90.000000
_cell_volume 2430.000000
_symmetry_space_group_name_H-M "P M N A"
_symmetry_group_IT_number 53
_symmetry_cell_setting 'orthorhombic'
loop_
_space_group_symop_operation_xyz
x,y,z
1/2-x,-y,1/2+z
x,-y,-z
1/2-x,y,1/2-z
-x,-y,-z
1/2+x,y,1/2-z
-x,y,z
1/2+x,-y,1/2+z
loop_
_atom_site_type_symbol
_atom_site_label
_atom_site_fract_x
_atom_site_fract_y
_atom_site_fract_z
Si Si1 0.916333 0.746348 0.916424
Si Si2 0.090244 0.866388 0.169863
Si Si3 0.414365 0.426160 0.623157
Si Si4 0.824915 0.770640 0.658016
Si Si5 0.413079 0.956694 0.836919
Si Si6 0.169842 0.701858 0.327616
O O1 0.874931 0.715058 0.771377
O O2 0.000000 0.767360 0.875733
O O3 0.886015 0.833180 0.005167
O O4 0.916056 0.665841 0.031257
O O5 0.122283 0.788863 0.275983
O O6 0.000000 0.862988 0.175245
O O7 0.112480 0.965143 0.222912
O O8 0.387805 0.500000 0.500000
O O9 0.500000 0.450540 0.662773
O O10 0.368545 0.390451 0.768016
O O11 0.750000 0.783447 0.750000
O O12 0.865972 0.866513 0.652279
O O13 0.818519 0.719508 0.502723
O O14 0.500000 0.937834 0.803828
O O15 0.410604 0.000000 0.000000
O O16 0.250000 0.706283 0.250000
#
# Coordination Sequence:
#
# PCOD9420202 Si02
#       6
#     8   8   8   8   8   8
#     4   9  19  36  59  86 114 150 191 244 310 373
#     4   9  18  36  59  82 114 158 210 260 310 360
#     4   9  19  40  68  93 116 146 194 250 306 372
#     4  12  24  37  53  84 125 163 206 257 309 371
#     4  10  20  36  57  83 114 157 219 274 309 351
#     4  11  22  38  60  85 118 162 201 242 310 377
#
# _framework density 19.753086
#
# number of rings (size 3 to 8) (size 9 to 14) (size 15 to 20)
#    0.000    2.000    1.667    4.000    0.000    3.333 
#    3.000    5.833    0.000    3.000    0.000    0.000 
#    0.000    0.000    0.000    0.000    0.000    0.000 
#
# Total GULP energy -267343.137892 kJ/mol
# GULP energy per Si atom -5569.648706 kJ/mol
# Density = 1.970813 g / cm^3
# Si number density = 19.753086 Si / 1000 Ang^3
#
#
#
# Elastic Constant Matrix: (Units=GPa)
#
#
# Indices 1 2 3 4 5 6 
#
# 1 49.6509 20.7718 54.0848 0.0000 0.0000 0.0000
# 2 20.7718 69.2172 25.8578 0.0000 0.0000 0.0000
# 3 54.0848 25.8578 128.6367 0.0000 0.0000 0.0000
# 4 0.0000 0.0000 0.0000 34.6524 0.0000 0.0000
# 5 0.0000 0.0000 0.0000 0.0000 31.5533 0.0000
# 6 0.0000 0.0000 0.0000 0.0000 0.0000 31.6899
#
#
#
# Elastic Compliance Matrix: (Units=1/GPa)
#
#
# Indices 1 2 3 4 5 6 
#
# 1 0.039401 -0.006093 -0.015341 0.000000 0.000000 0.000000
# 2 -0.006093 0.016562 -0.000768 0.000000 0.000000 0.000000
# 3 -0.015341 -0.000768 0.014378 0.000000 0.000000 0.000000
# 4 0.000000 0.000000 0.000000 0.028858 0.000000 0.000000
# 5 0.000000 0.000000 0.000000 0.000000 0.031692 0.000000
# 6 0.000000 0.000000 0.000000 0.000000 0.000000 0.031556
#
#
# Mechanical properties :
#
#
# Convention : Reuss Voigt Hill
#
# Bulk Modulus (GPa) = 38.55308 49.88151 44.21729
# Shear Modulus (GPa) = 23.20216 29.36516 26.28366
#
# Velocity S-wave (km/s) = 3.43098 3.85984 3.65171
# Velocity P-wave (km/s) = 5.93762 6.72100 6.34142
#
# Compressibility (1/GPa) = 0.02593826
#
# Stress axis : x y z
#
# Youngs Moduli (GPa) = 25.38016 60.37740 69.54950
#
# Poissons Ratio (x) = 0.36788 1.06697
# Poissons Ratio (y) = 0.15464 0.05338
# Poissons Ratio (z) = 0.38936 0.04634
#
# Static dielectric constant tensor:
#      x y z
#    x 1.782480 0.000000 0.000000 
#    y 0.000000 1.695950 0.000000 
#    z 0.000000 0.000000 1.763450 
# 
# From -- ./inp_files/9924.got.cif
#   From: 2010.05.17/outbox.ucp.g08.bks.cvg/sg53_5_cif.got.tgz:9924.got - 2010.06.11 16:32:34.
