data_PCOD9420644
_publ_section_title
;
Structure prediction by ZEFSAII (Michael W. Deem and Ramdas Pophale) SiO2 
 PCOD9420644
Probable space group: P C C A
;
_chemical_formula_sum "Si O2"
_cell_formula_units_Z 48
_cell_length_a 17.383445
_cell_length_b 5.060103
_cell_length_c 29.979317
_cell_angle_alpha 90.000000
_cell_angle_beta 90.000000
_cell_angle_gamma 90.000000
_cell_volume 2637.041347
_symmetry_space_group_name_H-M "P C C A"
_symmetry_group_IT_number 54
_symmetry_cell_setting 'orthorhombic'
loop_
_space_group_symop_operation_xyz
x,y,z
1/2-x,-y,z
1/2+x,-y,1/2-z
-x,y,1/2-z
-x,-y,-z
1/2+x,y,-z
1/2-x,y,1/2+z
x,-y,1/2+z
loop_
_atom_site_type_symbol
_atom_site_label
_atom_site_fract_x
_atom_site_fract_y
_atom_site_fract_z
Si Si1 0.336742 0.947858 0.947615
Si Si2 0.020344 0.512283 0.360299
Si Si3 0.618354 0.988198 0.152879
Si Si4 0.923378 0.404429 0.279282
Si Si5 0.166718 0.903319 0.249426
Si Si6 0.560312 0.446217 0.538896
O O1 0.337933 0.974872 0.893672
O O2 0.372075 0.664836 0.959640
O O3 0.250000 0.000000 0.963306
O O4 0.397303 0.165734 0.964663
O O5 0.046300 0.811276 0.350914
O O6 0.017302 0.465913 0.413213
O O7 0.947051 0.444665 0.330571
O O8 0.087493 0.310631 0.344088
O O9 0.662936 0.069534 0.197029
O O10 0.858062 0.611202 0.264781
O O11 0.000000 0.461175 0.250000
O O12 0.895997 0.109045 0.269349
O O13 0.250000 0.000000 0.233890
O O14 0.500000 0.500000 0.500000
#
# Coordination Sequence:
#
# PCOD9420644 Si02
#       6
#     8   8   8   8   8   8
#     4  10  20  34  56  83 114 139 170 220 278 335
#     4  10  20  33  56  79 101 140 182 221 258 312
#     4  10  18  33  51  81 109 138 170 213 273 326
#     4  12  21  36  56  76 107 146 190 213 257 325
#     4  12  23  34  52  79 114 146 180 227 269 311
#     4  10  21  37  58  81 110 140 181 223 274 317
#
# _framework density 18.202218999999999
#
# number of rings (size 3 to 8) (size 9 to 14) (size 15 to 20)
#    0.000    1.333    3.333    3.500    0.000    0.000 
#    0.000    5.000    0.000    6.000    0.000    0.000 
#    0.000    0.000    0.000    0.000    0.000    0.000 
#
# Total GULP energy -268081.115392 kJ/mol
# GULP energy per Si atom -5585.023237 kJ/mol
# Density = 1.816079 g / cm^3
# Si number density = 18.202219 Si / 1000 Ang^3
#
#
#
# Elastic Constant Matrix: (Units=GPa)
#
#
# Indices 1 2 3 4 5 6 
#
# 1 40.0073 -21.1419 15.4049 0.0000 0.0000 0.0000
# 2 -21.1419 49.8531 -8.5019 0.0000 0.0000 0.0000
# 3 15.4049 -8.5019 61.5012 0.0000 0.0000 0.0000
# 4 0.0000 0.0000 0.0000 12.1633 0.0000 0.0000
# 5 0.0000 0.0000 0.0000 0.0000 11.3327 0.0000
# 6 0.0000 0.0000 0.0000 0.0000 0.0000 15.9943
#
#
#
# Elastic Compliance Matrix: (Units=1/GPa)
#
#
# Indices 1 2 3 4 5 6 
#
# 1 0.034815 0.013598 -0.006841 0.000000 0.000000 0.000000
# 2 0.013598 0.025854 0.000168 0.000000 0.000000 0.000000
# 3 -0.006841 0.000168 0.017997 0.000000 0.000000 0.000000
# 4 0.000000 0.000000 0.000000 0.082215 0.000000 0.000000
# 5 0.000000 0.000000 0.000000 0.000000 0.088240 0.000000
# 6 0.000000 0.000000 0.000000 0.000000 0.000000 0.062522
#
#
# Mechanical properties :
#
#
# Convention : Reuss Voigt Hill
#
# Bulk Modulus (GPa) = 10.80887 13.65376 12.23132
# Shear Modulus (GPa) = 15.21459 18.93808 17.07633
#
# Velocity S-wave (km/s) = 2.89427 3.22906 3.06624
# Velocity P-wave (km/s) = 4.13765 4.62817 4.38977
#
# Compressibility (1/GPa) = 0.09251660
#
# Stress axis : x y z
#
# Youngs Moduli (GPa) = 28.72295 38.67838 55.56615
#
# Poissons Ratio (x) = -0.52595 0.38012
# Poissons Ratio (y) = -0.39057 -0.00934
# Poissons Ratio (z) = 0.19649 -0.00650
#
# Static dielectric constant tensor:
#      x y z
#    x 1.612750 0.000000 0.000000 
#    y 0.000000 1.614530 0.000000 
#    z 0.000000 0.000000 1.622840 
# 
# From -- ./inp_files/28178.got.cif
#   From: 2010.05.17/outbox.cif.g08.bks.cpg/sg54_15_cif.got.tgz:28178.got - 2010.06.03 13:09:01.
