data_PCOD9420106
_publ_section_title
;
Structure prediction by ZEFSAII (Michael W. Deem and Ramdas Pophale) SiO2 
 PCOD9420106
Probable space group: P M N A
;
_chemical_formula_sum "Si O2"
_cell_formula_units_Z 64
_cell_length_a 9.000000
_cell_length_b 21.000000
_cell_length_c 21.000000
_cell_angle_alpha 90.000000
_cell_angle_beta 90.000000
_cell_angle_gamma 90.000000
_cell_volume 3969.000000
_symmetry_space_group_name_H-M "P M N A"
_symmetry_group_IT_number 53
_symmetry_cell_setting 'orthorhombic'
loop_
_space_group_symop_operation_xyz
x,y,z
1/2-x,-y,1/2+z
x,-y,-z
1/2-x,y,1/2-z
-x,-y,-z
1/2+x,y,1/2-z
-x,y,z
1/2+x,-y,1/2+z
loop_
_atom_site_type_symbol
_atom_site_label
_atom_site_fract_x
_atom_site_fract_y
_atom_site_fract_z
Si Si1 0.675067 0.014514 0.606052
Si Si2 0.326639 0.902399 0.524092
Si Si3 0.322980 0.347015 0.950450
Si Si4 0.669090 0.389508 0.813334
Si Si5 0.325654 0.196872 0.943820
Si Si6 0.678057 0.559472 0.546625
Si Si7 0.177998 0.877782 0.317799
Si Si8 0.329220 0.542982 0.815609
O O1 0.500000 0.011732 0.623420
O O2 0.684248 0.055453 0.540616
O O3 0.766929 0.052707 0.658408
O O4 0.728982 0.944978 0.583104
O O5 0.500000 0.890969 0.535500
O O6 0.246831 0.838536 0.503504
O O7 0.500000 0.362643 0.955084
O O8 0.265759 0.371438 0.881812
O O9 0.305317 0.271623 0.949324
O O10 0.237693 0.379948 0.007970
O O11 0.750000 0.365901 0.750000
O O12 0.500000 0.365368 0.812319
O O13 0.667121 0.466027 0.811020
O O14 0.500000 0.181890 0.945390
O O15 0.272862 0.169614 0.875243
O O16 0.720614 0.500000 0.500000
O O17 0.500000 0.559300 0.552331
O O18 0.748121 0.556897 0.617312
O O19 0.250000 0.862200 0.250000
O O20 0.000000 0.876088 0.312456
O O21 0.250000 0.565389 0.750000
O O22 0.500000 0.565461 0.817822
#
# Coordination Sequence:
#
# PCOD9420106 Si02
#       8
#     8   8   8   8   8   8   8   8
#     4   8  14  26  44  66  89 117 151 190 232 274
#     4   8  14  26  45  66  89 115 148 189 235 278
#     4  10  20  35  50  68  96 133 172 208 253 307
#     4   9  18  30  46  66  91 124 162 200 242 293
#     4   9  19  32  46  65  93 127 165 202 237 285
#     4  11  22  34  51  76 102 127 163 212 261 308
#     4  10  19  30  44  66  96 131 167 202 236 275
#     4  10  19  33  53  75  99 127 158 197 248 305
#
# _framework density 16.124969
#
# number of rings (size 3 to 8) (size 9 to 14) (size 15 to 20)
#    0.000    2.625    1.250    1.875    0.000    3.500 
#    0.000    2.500    0.000    0.000    0.000    0.875 
#    0.000    2.000    0.000    0.000    0.000    0.000 
#
# Total GULP energy -356303.542531 kJ/mol
# GULP energy per Si atom -5567.242852 kJ/mol
# Density = 1.608827 g / cm^3
# Si number density = 16.124969 Si / 1000 Ang^3
#
#
#
# Elastic Constant Matrix: (Units=GPa)
#
#
# Indices 1 2 3 4 5 6 
#
# 1 51.7180 22.2831 47.8207 0.0000 0.0000 0.0000
# 2 22.2831 3.6689 12.1042 0.0000 0.0000 0.0000
# 3 47.8207 12.1042 92.8245 0.0000 0.0000 0.0000
# 4 0.0000 0.0000 0.0000 14.7976 0.0000 0.0000
# 5 0.0000 0.0000 0.0000 0.0000 27.9493 0.0000
# 6 0.0000 0.0000 0.0000 0.0000 0.0000 17.6957
#
#
#
# Elastic Compliance Matrix: (Units=1/GPa)
#
#
# Indices 1 2 3 4 5 6 
#
# 1 -0.010406 0.079877 -0.005055 0.000000 0.000000 0.000000
# 2 0.079877 -0.134803 -0.023572 0.000000 0.000000 0.000000
# 3 -0.005055 -0.023572 0.016451 0.000000 0.000000 0.000000
# 4 0.000000 0.000000 0.000000 0.067578 0.000000 0.000000
# 5 0.000000 0.000000 0.000000 0.000000 0.035779 0.000000
# 6 0.000000 0.000000 0.000000 0.000000 0.000000 0.056511
#
#
# Mechanical properties :
#
#
# Convention : Reuss Voigt Hill
#
# Bulk Modulus (GPa) = -38.08227 34.73636 -1.67295
# Shear Modulus (GPa) = -62.38932 16.48876 -22.95028
#
# Velocity S-wave (km/s) = -6.22697 3.20122 -3.77673
# Velocity P-wave (km/s) = 8.68150 5.93738 4.47861
#
# Compressibility (1/GPa) = -0.02625894
#
# Stress axis : x y z
#
# Youngs Moduli (GPa) = -96.09983 -7.41821 60.78660
#
# Poissons Ratio (x) = 0.59254 0.30728
# Poissons Ratio (y) = 7.67615 1.43288
# Poissons Ratio (z) = -0.48578 -0.17486
#
# Static dielectric constant tensor:
#      x y z
#    x 1.558360 0.000000 0.000000 
#    y 0.000000 1.555520 0.000000 
#    z 0.000000 0.000000 1.541570 
# 
# From -- ./inp_files/31341.got.cif
#   From: 2010.05.17/outbox.ucp.g08.bks.cvg/sg53_16_cif.got.tgz:31341.got - 2010.06.11 16:32:34.
