data_PCOD9420707
_publ_section_title
;
Structure prediction by ZEFSAII (Michael W. Deem and Ramdas Pophale) SiO2 
 PCOD9420707
Probable space group: P C C A
;
_chemical_formula_sum "Si O2"
_cell_formula_units_Z 60
_cell_length_a 18.811992
_cell_length_b 8.532669
_cell_length_c 19.058184
_cell_angle_alpha 90.000000
_cell_angle_beta 90.000000
_cell_angle_gamma 90.000000
_cell_volume 3059.153010
_symmetry_space_group_name_H-M "P C C A"
_symmetry_group_IT_number 54
_symmetry_cell_setting 'orthorhombic'
loop_
_space_group_symop_operation_xyz
x,y,z
1/2-x,-y,z
1/2+x,-y,1/2-z
-x,y,1/2-z
-x,-y,-z
1/2+x,y,-z
1/2-x,y,1/2+z
x,-y,1/2+z
loop_
_atom_site_type_symbol
_atom_site_label
_atom_site_fract_x
_atom_site_fract_y
_atom_site_fract_z
Si Si1 0.417878 0.036295 0.985581
Si Si2 0.821753 0.894060 0.274114
Si Si3 0.341776 0.285556 0.080010
Si Si4 0.135723 0.402479 0.165485
Si Si5 0.893500 0.880162 0.671197
Si Si6 0.301558 0.847099 0.065701
Si Si7 0.500000 0.337410 0.750000
Si Si8 0.731180 0.656283 0.198621
O O1 0.393288 0.197830 0.024947
O O2 0.362350 0.905546 0.013452
O O3 0.409294 0.044738 0.902587
O O4 0.500000 0.000000 0.000000
O O5 0.843695 0.819967 0.348134
O O6 0.799361 0.752483 0.223290
O O7 0.750000 0.000000 0.280384
O O8 0.878673 0.999190 0.234247
O O9 0.356292 0.460055 0.108413
O O10 0.261052 0.277380 0.050175
O O11 0.154339 0.234730 0.129091
O O12 0.190655 0.401654 0.230486
O O13 0.059348 0.421372 0.202705
O O14 0.822561 0.775490 0.662581
O O15 0.955996 0.768415 0.696157
O O16 0.250000 0.000000 0.074406
O O17 0.750000 0.500000 0.157103
#
# Coordination Sequence:
#
# PCOD9420707 Si02
#       8
#     8   8   8   8   8   8   4   8
#     4  11  25  44  60  90 131 173 216 269 331 400
#     4  10  19  34  63  97 119 153 210 267 315 371
#     4  11  22  38  67  95 125 167 228 266 323 390
#     4  11  20  39  63  97 124 166 216 268 319 393
#     4  10  24  39  60  89 126 167 207 260 322 385
#     4  10  21  36  70  91 124 163 223 266 316 388
#     4  10  24  38  64  86 134 170 212 264 336 384
#     4  10  18  34  63  91 128 151 199 267 324 366
#
# _framework density 19.613271999999998
#
# number of rings (size 3 to 8) (size 9 to 14) (size 15 to 20)
#    0.000    1.600    2.667    2.400    9.333    4.800 
#    2.400    6.667    0.000    0.000    0.000    0.000 
#    0.000    0.000    0.000    0.000    0.000    0.000 
#
# Total GULP energy -334354.480902 kJ/mol
# GULP energy per Si atom -5572.574682 kJ/mol
# Density = 1.956863 g / cm^3
# Si number density = 19.613272 Si / 1000 Ang^3
#
#
#
# Elastic Constant Matrix: (Units=GPa)
#
#
# Indices 1 2 3 4 5 6 
#
# 1 76.7780 7.2646 22.4387 0.0000 0.0000 0.0000
# 2 7.2646 61.1685 10.8373 0.0000 0.0000 0.0000
# 3 22.4387 10.8373 67.3073 0.0000 0.0000 0.0000
# 4 0.0000 0.0000 0.0000 50.6842 0.0000 0.0000
# 5 0.0000 0.0000 0.0000 0.0000 13.9231 0.0000
# 6 0.0000 0.0000 0.0000 0.0000 0.0000 19.9943
#
#
#
# Elastic Compliance Matrix: (Units=1/GPa)
#
#
# Indices 1 2 3 4 5 6 
#
# 1 0.014477 -0.000890 -0.004683 0.000000 0.000000 0.000000
# 2 -0.000890 0.016883 -0.002422 0.000000 0.000000 0.000000
# 3 -0.004683 -0.002422 0.016808 0.000000 0.000000 0.000000
# 4 0.000000 0.000000 0.000000 0.019730 0.000000 0.000000
# 5 0.000000 0.000000 0.000000 0.000000 0.071823 0.000000
# 6 0.000000 0.000000 0.000000 0.000000 0.000000 0.050014
#
#
# Mechanical properties :
#
#
# Convention : Reuss Voigt Hill
#
# Bulk Modulus (GPa) = 31.07558 31.81499 31.44529
# Shear Modulus (GPa) = 23.09983 27.90121 25.50052
#
# Velocity S-wave (km/s) = 3.43558 3.77579 3.60969
# Velocity P-wave (km/s) = 5.62283 5.93844 5.78279
#
# Compressibility (1/GPa) = 0.03217961
#
# Stress axis : x y z
#
# Youngs Moduli (GPa) = 69.07303 59.23114 59.49392
#
# Poissons Ratio (x) = 0.05270 0.27862
# Poissons Ratio (y) = 0.06145 0.14408
# Poissons Ratio (z) = 0.32348 0.14344
#
# Static dielectric constant tensor:
#      x y z
#    x 1.735980 0.000000 0.000000 
#    y 0.000000 1.783260 0.000000 
#    z 0.000000 0.000000 1.686500 
# 
# From -- ./inp_files/18658.got.cif
#   From: 2010.05.17/outbox.cif.g08.bks.cpg/sg54_10_cif.got.tgz:18658.got - 2010.06.03 13:09:01.
