data_PCOD9420254
_publ_section_title
;
Structure prediction by ZEFSAII (Michael W. Deem and Ramdas Pophale) SiO2 
 PCOD9420254
Probable space group: P M N A
;
_chemical_formula_sum "Si O2"
_cell_formula_units_Z 56
_cell_length_a 21.000000
_cell_length_b 15.000000
_cell_length_c 9.000000
_cell_angle_alpha 90.000000
_cell_angle_beta 90.000000
_cell_angle_gamma 90.000000
_cell_volume 2835.000000
_symmetry_space_group_name_H-M "P M N A"
_symmetry_group_IT_number 53
_symmetry_cell_setting 'orthorhombic'
loop_
_space_group_symop_operation_xyz
x,y,z
1/2-x,-y,1/2+z
x,-y,-z
1/2-x,y,1/2-z
-x,-y,-z
1/2+x,y,1/2-z
-x,y,z
1/2+x,-y,1/2+z
loop_
_atom_site_type_symbol
_atom_site_label
_atom_site_fract_x
_atom_site_fract_y
_atom_site_fract_z
Si Si1 0.572065 0.785753 0.292726
Si Si2 0.274731 0.590689 0.081712
Si Si3 0.756031 0.078816 0.084966
Si Si4 0.675499 0.261826 0.457172
Si Si5 0.571399 0.261157 0.209633
Si Si6 0.110963 0.101644 0.509933
Si Si7 0.071285 0.618350 0.422822
O O1 0.500000 0.805058 0.350035
O O2 0.627915 0.766973 0.409799
O O3 0.568473 0.695004 0.199506
O O4 0.591937 0.858643 0.169509
O O5 0.250000 0.591978 0.250000
O O6 0.232870 0.670039 0.001990
O O7 0.353237 0.589031 0.085681
O O8 0.255599 0.500000 0.000000
O O9 0.750000 0.043416 0.250000
O O10 0.687442 0.096591 0.010288
O O11 0.791430 0.171209 0.092584
O O12 0.791443 0.000000 0.000000
O O13 0.626865 0.287303 0.324708
O O14 0.500000 0.253884 0.276053
O O15 0.586453 0.169447 0.118520
O O16 0.569084 0.337121 0.084600
O O17 0.087085 0.000000 0.500000
O O18 0.000000 0.571852 0.402252
#
# Coordination Sequence:
#
# PCOD9420254 Si02
#       7
#     8   8   8   8   8   8   8
#     4  10  21  38  62  90 122 170 217 258 320 392
#     4  12  28  45  70 101 131 166 216 271 329 392
#     4  11  25  39  61  93 127 168 218 271 327 390
#     4  12  24  40  67  93 132 169 211 275 332 377
#     4  10  21  38  63  94 125 172 220 263 324 390
#     4  10  21  37  59  88 127 169 222 275 323 382
#     4   9  20  42  68  92 127 169 212 254 313 389
#
# _framework density 19.753086
#
# number of rings (size 3 to 8) (size 9 to 14) (size 15 to 20)
#    0.000    1.429    2.857    3.429    6.000    1.429 
#    0.000    0.000    0.000    4.714    0.000    0.000 
#    0.000    0.000    0.000    0.000    0.000    0.000 
#
# Total GULP energy -311805.489742 kJ/mol
# GULP energy per Si atom -5567.955174 kJ/mol
# Density = 1.970813 g / cm^3
# Si number density = 19.753086 Si / 1000 Ang^3
#
#
#
# Elastic Constant Matrix: (Units=GPa)
#
#
# Indices 1 2 3 4 5 6 
#
# 1 128.7285 1.1968 16.9614 0.0000 0.0000 0.0000
# 2 1.1968 27.1397 7.9079 0.0000 0.0000 0.0000
# 3 16.9614 7.9079 82.3292 0.0000 0.0000 0.0000
# 4 0.0000 0.0000 0.0000 12.8920 0.0000 0.0000
# 5 0.0000 0.0000 0.0000 0.0000 22.6834 0.0000
# 6 0.0000 0.0000 0.0000 0.0000 0.0000 0.6702
#
#
#
# Elastic Compliance Matrix: (Units=1/GPa)
#
#
# Indices 1 2 3 4 5 6 
#
# 1 0.007985 0.000131 -0.001658 0.000000 0.000000 0.000000
# 2 0.000131 0.037910 -0.003668 0.000000 0.000000 0.000000
# 3 -0.001658 -0.003668 0.012840 0.000000 0.000000 0.000000
# 4 0.000000 0.000000 0.000000 0.077568 0.000000 0.000000
# 5 0.000000 0.000000 0.000000 0.000000 0.044085 0.000000
# 6 0.000000 0.000000 0.000000 0.000000 0.000000 1.492024
#
#
# Mechanical properties :
#
#
# Convention : Reuss Voigt Hill
#
# Bulk Modulus (GPa) = 20.68465 32.25884 26.47174
# Shear Modulus (GPa) = 2.94305 21.39121 12.16713
#
# Velocity S-wave (km/s) = 1.22195 3.29436 2.48455
# Velocity P-wave (km/s) = 3.53344 5.55310 4.65414
#
# Compressibility (1/GPa) = 0.04834504
#
# Stress axis : x y z
#
# Youngs Moduli (GPa) = 125.22708 26.37860 77.88022
#
# Poissons Ratio (x) = -0.00345 0.12911
# Poissons Ratio (y) = -0.01639 0.28568
# Poissons Ratio (z) = 0.20759 0.09676
#
# Static dielectric constant tensor:
#      x y z
#    x 1.790280 0.000000 0.000000 
#    y 0.000000 1.697790 0.000000 
#    z 0.000000 0.000000 1.656710 
# 
# From -- ./inp_files/11052.got.cif
#   From: 2010.05.17/outbox.ucp.g08.bks.cvg/sg53_6_cif.got.tgz:11052.got - 2010.06.11 16:32:34.
