data_PCOD9420414
_publ_section_title
;
Structure prediction by ZEFSAII (Michael W. Deem and Ramdas Pophale) SiO2 
 PCOD9420414
Probable space group: P C C A
;
_chemical_formula_sum "Si O2"
_cell_formula_units_Z 48
_cell_length_a 5.410320
_cell_length_b 13.592699
_cell_length_c 28.460236
_cell_angle_alpha 90.000000
_cell_angle_beta 90.000000
_cell_angle_gamma 90.000000
_cell_volume 2092.989982
_symmetry_space_group_name_H-M "P C C A"
_symmetry_group_IT_number 54
_symmetry_cell_setting 'orthorhombic'
loop_
_space_group_symop_operation_xyz
x,y,z
1/2-x,-y,z
1/2+x,-y,1/2-z
-x,y,1/2-z
-x,-y,-z
1/2+x,y,-z
1/2-x,y,1/2+z
x,-y,1/2+z
loop_
_atom_site_type_symbol
_atom_site_label
_atom_site_fract_x
_atom_site_fract_y
_atom_site_fract_z
Si Si1 0.857745 0.341231 0.625097
Si Si2 0.140647 0.846806 0.514557
Si Si3 0.000943 0.937043 0.695349
Si Si4 0.108547 0.621686 0.476339
Si Si5 0.361940 0.222590 0.619339
Si Si6 0.246161 0.387069 0.769484
O O1 0.934687 0.400181 0.578429
O O2 0.594384 0.294409 0.610217
O O3 0.789681 0.389228 0.674740
O O4 0.099721 0.272126 0.633133
O O5 0.379193 0.896516 0.493101
O O6 0.114373 0.741301 0.486425
O O7 0.181533 0.830058 0.569675
O O8 0.032616 0.847419 0.659844
O O9 0.000000 0.906176 0.750000
O O10 0.250000 0.000000 0.688621
O O11 0.750000 0.000000 0.686700
O O12 0.375734 0.588777 0.493355
O O13 0.250000 0.500000 0.751130
O O14 0.500000 0.342294 0.750000
O O15 0.000000 0.336449 0.750000
#
# Coordination Sequence:
#
# PCOD9420414 Si02
#       6
#     8   8   8   8   8   8
#     4  12  21  33  60  93 111 145 197 245 278 331
#     4  10  16  30  49  80 113 149 172 220 284 352
#     4  10  23  43  59  75 110 156 188 227 296 356
#     4  10  16  30  49  80 115 150 174 221 284 352
#     4  12  21  33  61  92 110 143 196 245 278 331
#     4  10  23  43  60  79 119 165 193 232 300 359
#
# _framework density 22.933698
#
# number of rings (size 3 to 8) (size 9 to 14) (size 15 to 20)
#    0.000    1.333    6.667    2.000    0.000    2.000 
#    0.000    0.000    0.000    4.000    0.000    0.000 
#    0.000    0.000    0.000    0.000    0.000    0.000 
#
# Total GULP energy -268020.016543 kJ/mol
# GULP energy per Si atom -5583.750345 kJ/mol
# Density = 2.288150 g / cm^3
# Si number density = 22.933698 Si / 1000 Ang^3
#
#
#
# Elastic Constant Matrix: (Units=GPa)
#
#
# Indices 1 2 3 4 5 6 
#
# 1 217.9280 29.2338 43.1205 0.0000 0.0000 0.0000
# 2 29.2338 37.0359 8.9862 0.0000 0.0000 0.0000
# 3 43.1205 8.9862 125.6698 0.0000 0.0000 0.0000
# 4 0.0000 0.0000 0.0000 78.5249 0.0000 0.0000
# 5 0.0000 0.0000 0.0000 0.0000 82.0087 0.0000
# 6 0.0000 0.0000 0.0000 0.0000 0.0000 12.8179
#
#
#
# Elastic Compliance Matrix: (Units=1/GPa)
#
#
# Indices 1 2 3 4 5 6 
#
# 1 0.005425 -0.003898 -0.001583 0.000000 0.000000 0.000000
# 2 -0.003898 0.030278 -0.000828 0.000000 0.000000 0.000000
# 3 -0.001583 -0.000828 0.008560 0.000000 0.000000 0.000000
# 4 0.000000 0.000000 0.000000 0.012735 0.000000 0.000000
# 5 0.000000 0.000000 0.000000 0.000000 0.012194 0.000000
# 6 0.000000 0.000000 0.000000 0.000000 0.000000 0.078016
#
#
# Mechanical properties :
#
#
# Convention : Reuss Voigt Hill
#
# Bulk Modulus (GPa) = 31.59922 60.36830 45.98376
# Shear Modulus (GPa) = 29.34743 54.62318 41.98530
#
# Velocity S-wave (km/s) = 3.58112 4.88565 4.28334
# Velocity P-wave (km/s) = 5.55947 7.62930 6.67510
#
# Compressibility (1/GPa) = 0.03164635
#
# Stress axis : x y z
#
# Youngs Moduli (GPa) = 184.34186 33.02682 116.82811
#
# Poissons Ratio (x) = 0.12874 0.18490
# Poissons Ratio (y) = 0.71855 0.09669
# Poissons Ratio (z) = 0.29174 0.02733
#
# Static dielectric constant tensor:
#      x y z
#    x 2.016720 0.000000 0.000000 
#    y 0.000000 2.017120 0.000000 
#    z 0.000000 0.000000 1.833860 
# 
# From -- ./inp_files/22916.got.cif
#   From: 2010.05.17/outbox.cif.g08.bks.cpg/sg54_12_cif.got.tgz:22916.got - 2010.06.03 13:09:01.
