data_PCOD9420316
_publ_section_title
;
Structure prediction by ZEFSAII (Michael W. Deem and Ramdas Pophale) SiO2 
 PCOD9420316
Probable space group: P C C A
;
_chemical_formula_sum "Si O2"
_cell_formula_units_Z 56
_cell_length_a 16.305181
_cell_length_b 29.619772
_cell_length_c 5.415335
_cell_angle_alpha 90.000000
_cell_angle_beta 90.000000
_cell_angle_gamma 90.000000
_cell_volume 2615.367142
_symmetry_space_group_name_H-M "P C C A"
_symmetry_group_IT_number 54
_symmetry_cell_setting 'orthorhombic'
loop_
_space_group_symop_operation_xyz
x,y,z
1/2-x,-y,z
1/2+x,-y,1/2-z
-x,y,1/2-z
-x,-y,-z
1/2+x,y,-z
1/2-x,y,1/2+z
x,-y,1/2+z
loop_
_atom_site_type_symbol
_atom_site_label
_atom_site_fract_x
_atom_site_fract_y
_atom_site_fract_z
Si Si1 0.345677 0.981788 0.573751
Si Si2 0.480005 0.627583 0.000094
Si Si3 0.698292 0.117821 0.531315
Si Si4 0.156559 0.480994 0.000919
Si Si5 0.801244 0.215987 0.951500
Si Si6 0.454711 0.725047 0.499866
Si Si7 0.199288 0.625005 0.499243
O O1 0.347782 0.928913 0.513485
O O2 0.250000 0.000000 0.592205
O O3 0.382186 0.992106 0.840624
O O4 0.500000 0.601726 0.750000
O O5 0.500000 0.601664 0.250000
O O6 0.540463 0.670634 0.000471
O O7 0.388978 0.648543 0.999832
O O8 0.766807 0.116924 0.311041
O O9 0.657279 0.166506 0.487771
O O10 0.250000 0.500000 0.001628
O O11 0.117909 0.499832 0.251301
O O12 0.169368 0.427375 0.999570
O O13 0.735621 0.218197 0.175551
O O14 0.864128 0.256011 0.992909
O O15 0.500000 0.740252 0.250000
O O16 0.500000 0.740264 0.750000
O O17 0.249872 0.633370 0.249023
#
# Coordination Sequence:
#
# PCOD9420316 Si02
#       7
#     8   8   8   8   8   8   8
#     4  10  14  20  34  55  93 145 163 189 265 350
#     4  10  23  43  59  82 120 159 181 231 291 347
#     4  10  16  25  39  66 103 135 167 220 268 319
#     4  10  16  30  51  87 115 147 175 235 275 324
#     4  10  21  35  57  87 111 140 187 246 279 325
#     4  10  21  42  63  79 112 155 185 226 294 355
#     4  12  21  35  63  93 115 148 199 241 274 324
#
# _framework density 21.411909000000001
#
# number of rings (size 3 to 8) (size 9 to 14) (size 15 to 20)
#    0.000    1.714    5.714    1.714    0.000    0.000 
#    0.000   17.143    0.000    2.571    0.000    0.000 
#    0.000    3.429    0.000    0.000    0.000    0.000 
#
# Total GULP energy -312368.744068 kJ/mol
# GULP energy per Si atom -5578.013287 kJ/mol
# Density = 2.136317 g / cm^3
# Si number density = 21.411909 Si / 1000 Ang^3
#
#
#
# Elastic Constant Matrix: (Units=GPa)
#
#
# Indices 1 2 3 4 5 6 
#
# 1 29.8829 4.9626 22.4217 0.0000 0.0000 0.0000
# 2 4.9626 67.6554 -16.3070 0.0000 0.0000 0.0000
# 3 22.4217 -16.3070 197.1063 0.0000 0.0000 0.0000
# 4 0.0000 0.0000 0.0000 7.9685 0.0000 0.0000
# 5 0.0000 0.0000 0.0000 0.0000 32.1445 0.0000
# 6 0.0000 0.0000 0.0000 0.0000 0.0000 -16.9732
#
#
#
# Elastic Compliance Matrix: (Units=1/GPa)
#
#
# Indices 1 2 3 4 5 6 
#
# 1 0.037550 -0.003861 -0.004591 0.000000 0.000000 0.000000
# 2 -0.003861 0.015478 0.001720 0.000000 0.000000 0.000000
# 3 -0.004591 0.001720 0.005738 0.000000 0.000000 0.000000
# 4 0.000000 0.000000 0.000000 0.125494 0.000000 0.000000
# 5 0.000000 0.000000 0.000000 0.000000 0.031110 0.000000
# 6 0.000000 0.000000 0.000000 0.000000 0.000000 -0.058916
#
#
# Mechanical properties :
#
#
# Convention : Reuss Voigt Hill
#
# Bulk Modulus (GPa) = 22.07397 35.19991 28.63694
# Shear Modulus (GPa) = 27.02437 23.53244 25.27841
#
# Velocity S-wave (km/s) = 3.55649 3.31877 3.43968
# Velocity P-wave (km/s) = 5.21501 5.58218 5.40172
#
# Compressibility (1/GPa) = 0.04530223
#
# Stress axis : x y z
#
# Youngs Moduli (GPa) = 26.63133 64.60577 174.27933
#
# Poissons Ratio (x) = 0.24943 0.80009
# Poissons Ratio (y) = 0.10282 -0.29972
# Poissons Ratio (z) = 0.12226 -0.11111
#
# Static dielectric constant tensor:
#      x y z
#    x 1.890890 0.000000 0.000000 
#    y 0.000000 1.809280 0.000000 
#    z 0.000000 0.000000 1.855180 
# 
# From -- ./inp_files/745.got.cif
#   From: 2010.05.17/outbox.cif.g08.bks.cpg/sg54_1_cif.got.tgz:745.got - 2010.06.03 13:09:01.
