data_PCOD9420185
_publ_section_title
;
Structure prediction by ZEFSAII (Michael W. Deem and Ramdas Pophale) SiO2 
 PCOD9420185
Probable space group: P M N A
;
_chemical_formula_sum "Si O2"
_cell_formula_units_Z 64
_cell_length_a 21.000000
_cell_length_b 18.000000
_cell_length_c 9.000000
_cell_angle_alpha 90.000000
_cell_angle_beta 90.000000
_cell_angle_gamma 90.000000
_cell_volume 3402.000000
_symmetry_space_group_name_H-M "P M N A"
_symmetry_group_IT_number 53
_symmetry_cell_setting 'orthorhombic'
loop_
_space_group_symop_operation_xyz
x,y,z
1/2-x,-y,1/2+z
x,-y,-z
1/2-x,y,1/2-z
-x,-y,-z
1/2+x,y,1/2-z
-x,y,z
1/2+x,-y,1/2+z
loop_
_atom_site_type_symbol
_atom_site_label
_atom_site_fract_x
_atom_site_fract_y
_atom_site_fract_z
Si Si1 0.321945 0.875381 0.741113
Si Si2 0.150003 0.226264 0.967546
Si Si3 0.426821 0.009344 0.321209
Si Si4 0.070621 0.842978 0.288852
Si Si5 0.075902 0.659068 0.822798
Si Si6 0.622561 0.245867 0.051438
Si Si7 0.734941 0.672470 0.087167
Si Si8 0.801945 0.558676 0.871134
O O1 0.250000 0.904263 0.750000
O O2 0.337843 0.839021 0.583088
O O3 0.376016 0.937164 0.755761
O O4 0.329861 0.807207 0.855735
O O5 0.104209 0.287497 0.046630
O O6 0.118624 0.196314 0.820635
O O7 0.218033 0.258218 0.924117
O O8 0.500000 0.037299 0.310342
O O9 0.414242 0.000000 0.500000
O O10 0.423139 0.930646 0.237399
O O11 0.082057 0.810124 0.451333
O O12 0.000000 0.822744 0.238784
O O13 0.083342 0.706552 0.671154
O O14 0.130509 0.593766 0.815139
O O15 0.000000 0.640395 0.844051
O O16 0.663757 0.301480 0.948540
O O17 0.750000 0.640071 0.250000
O O18 0.760466 0.621273 0.955036
O O19 0.750000 0.530823 0.750000
O O20 0.817392 0.500000 0.000000
#
# Coordination Sequence:
#
# PCOD9420185 Si02
#       8
#     8   8   8   8   8   8   8   8
#     4  11  22  38  58  84 115 154 205 259 319 371
#     4  10  20  34  61  85 115 156 204 255 304 367
#     4  10  22  40  58  78 111 160 211 257 310 385
#     4  11  22  38  57  83 116 157 207 258 313 377
#     4  10  22  39  63  93 126 164 203 250 301 353
#     4  11  22  37  61  89 121 156 197 262 315 365
#     4  11  20  37  62  92 122 155 198 251 302 355
#     4  11  23  41  67  97 129 167 206 238 289 361
#
# _framework density 18.812463000000001
#
# number of rings (size 3 to 8) (size 9 to 14) (size 15 to 20)
#    0.000    1.375    5.000    1.125    0.000    3.250 
#    4.500    1.250    0.000    0.375    0.000    0.000 
#    0.000    0.000    0.000    0.000    0.000    0.000 
#
# Total GULP energy -356729.278341 kJ/mol
# GULP energy per Si atom -5573.894974 kJ/mol
# Density = 1.876965 g / cm^3
# Si number density = 18.812463 Si / 1000 Ang^3
#
#
#
# Elastic Constant Matrix: (Units=GPa)
#
#
# Indices 1 2 3 4 5 6 
#
# 1 91.2737 33.0700 7.4518 0.0000 0.0000 0.0000
# 2 33.0700 53.1513 15.9415 0.0000 0.0000 0.0000
# 3 7.4518 15.9415 60.9135 0.0000 0.0000 0.0000
# 4 0.0000 0.0000 0.0000 24.2074 0.0000 0.0000
# 5 0.0000 0.0000 0.0000 0.0000 15.6907 0.0000
# 6 0.0000 0.0000 0.0000 0.0000 0.0000 4.9880
#
#
#
# Elastic Compliance Matrix: (Units=1/GPa)
#
#
# Indices 1 2 3 4 5 6 
#
# 1 0.014166 -0.009001 0.000623 0.000000 0.000000 0.000000
# 2 -0.009001 0.026136 -0.005739 0.000000 0.000000 0.000000
# 3 0.000623 -0.005739 0.017842 0.000000 0.000000 0.000000
# 4 0.000000 0.000000 0.000000 0.041310 0.000000 0.000000
# 5 0.000000 0.000000 0.000000 0.000000 0.063732 0.000000
# 6 0.000000 0.000000 0.000000 0.000000 0.000000 0.200482
#
#
# Mechanical properties :
#
#
# Convention : Reuss Voigt Hill
#
# Bulk Modulus (GPa) = 33.43326 35.36278 34.39802
# Shear Modulus (GPa) = 12.44176 18.90223 15.67199
#
# Velocity S-wave (km/s) = 2.57448 3.17325 2.88942
# Velocity P-wave (km/s) = 5.16214 5.68017 5.42734
#
# Compressibility (1/GPa) = 0.02991033
#
# Stress axis : x y z
#
# Youngs Moduli (GPa) = 70.58955 38.26196 56.04620
#
# Poissons Ratio (x) = 0.34439 -0.03489
# Poissons Ratio (y) = 0.63537 0.32164
# Poissons Ratio (z) = -0.04395 0.21958
#
# Static dielectric constant tensor:
#      x y z
#    x 1.656040 0.000000 0.000000 
#    y 0.000000 1.667610 0.000000 
#    z 0.000000 0.000000 1.683630 
# 
# From -- ./inp_files/11182.got.cif
#   From: 2010.05.17/outbox.ucp.g08.bks.cvg/sg53_6_cif.got.tgz:11182.got - 2010.06.11 16:32:34.
