data_PCOD9420270
_publ_section_title
;
Structure prediction by ZEFSAII (Michael W. Deem and Ramdas Pophale) SiO2 
 PCOD9420270
Probable space group: P M N A
;
_chemical_formula_sum "Si O2"
_cell_formula_units_Z 64
_cell_length_a 18.000000
_cell_length_b 15.000000
_cell_length_c 12.000000
_cell_angle_alpha 90.000000
_cell_angle_beta 90.000000
_cell_angle_gamma 90.000000
_cell_volume 3240.000000
_symmetry_space_group_name_H-M "P M N A"
_symmetry_group_IT_number 53
_symmetry_cell_setting 'orthorhombic'
loop_
_space_group_symop_operation_xyz
x,y,z
1/2-x,-y,1/2+z
x,-y,-z
1/2-x,y,1/2-z
-x,-y,-z
1/2+x,y,1/2-z
-x,y,z
1/2+x,-y,1/2+z
loop_
_atom_site_type_symbol
_atom_site_label
_atom_site_fract_x
_atom_site_fract_y
_atom_site_fract_z
Si Si1 0.163960 0.520307 0.872037
Si Si2 0.336634 0.462644 0.878714
Si Si3 0.913484 0.281331 0.622097
Si Si4 0.662717 0.964764 0.755425
Si Si5 0.912216 0.136129 0.796579
Si Si6 0.414428 0.126679 0.448497
Si Si7 0.084890 0.308882 0.187919
Si Si8 0.586545 0.813101 0.891634
O O1 0.250132 0.491148 0.875214
O O2 0.134196 0.485409 0.748790
O O3 0.146429 0.623901 0.855075
O O4 0.134893 0.500000 0.000000
O O5 0.354390 0.358960 0.889156
O O6 0.365938 0.500000 0.000000
O O7 0.902828 0.230839 0.738272
O O8 0.904133 0.213628 0.519061
O O9 0.000000 0.313417 0.616076
O O10 0.750000 0.965875 0.750000
O O11 0.631282 0.934396 0.635069
O O12 0.634779 0.894022 0.846101
O O13 0.630047 0.062151 0.774047
O O14 0.000000 0.115821 0.793622
O O15 0.887814 0.133518 0.924987
O O16 0.500000 0.095565 0.448532
O O17 0.414386 0.223399 0.391814
O O18 0.101081 0.272374 0.312009
O O19 0.000000 0.345971 0.186229
O O20 0.500000 0.836514 0.871385
#
# Coordination Sequence:
#
# PCOD9420270 Si02
#       8
#     8   8   8   8   8   8   8   8
#     4  10  22  38  56  87 120 155 198 248 314 367
#     4  10  22  42  58  83 120 163 205 243 311 384
#     4  10  22  40  64  90 114 154 209 256 304 360
#     4  11  22  39  55  96 127 159 201 245 301 367
#     4  10  21  40  65  89 120 162 206 254 303 358
#     4   9  19  39  66  89 119 163 206 249 300 360
#     4   9  18  35  61  89 115 149 199 254 299 352
#     4   9  19  40  65  88 118 159 206 251 297 355
#
# _framework density 19.753086
#
# number of rings (size 3 to 8) (size 9 to 14) (size 15 to 20)
#    0.000    2.250    0.000    3.000    1.750    2.500 
#   24.750    1.875    0.000    0.000    0.000    0.000 
#    0.000    0.000    0.000    0.000    0.000    0.000 
#
# Total GULP energy -356515.021683 kJ/mol
# GULP energy per Si atom -5570.547214 kJ/mol
# Density = 1.970813 g / cm^3
# Si number density = 19.753086 Si / 1000 Ang^3
#
#
#
# Elastic Constant Matrix: (Units=GPa)
#
#
# Indices 1 2 3 4 5 6 
#
# 1 45.6317 43.0663 3.5638 0.0000 0.0000 0.0000
# 2 43.0663 56.6445 14.1434 0.0000 0.0000 0.0000
# 3 3.5638 14.1434 95.6397 0.0000 0.0000 0.0000
# 4 0.0000 0.0000 0.0000 5.3767 0.0000 0.0000
# 5 0.0000 0.0000 0.0000 0.0000 10.8144 0.0000
# 6 0.0000 0.0000 0.0000 0.0000 0.0000 -5.2182
#
#
#
# Elastic Compliance Matrix: (Units=1/GPa)
#
#
# Indices 1 2 3 4 5 6 
#
# 1 0.081118 -0.063254 0.006331 0.000000 0.000000 0.000000
# 2 -0.063254 0.067655 -0.007648 0.000000 0.000000 0.000000
# 3 0.006331 -0.007648 0.011351 0.000000 0.000000 0.000000
# 4 0.000000 0.000000 0.000000 0.185986 0.000000 0.000000
# 5 0.000000 0.000000 0.000000 0.000000 0.092470 0.000000
# 6 0.000000 0.000000 0.000000 0.000000 0.000000 -0.191637
#
#
# Mechanical properties :
#
#
# Convention : Reuss Voigt Hill
#
# Bulk Modulus (GPa) = 32.27594 35.49589 33.88592
# Shear Modulus (GPa) = 12.93955 11.33740 12.13848
#
# Velocity S-wave (km/s) = 2.56220 2.39834 2.48162
# Velocity P-wave (km/s) = 5.01282 5.06736 5.04016
#
# Compressibility (1/GPa) = 0.03098283
#
# Stress axis : x y z
#
# Youngs Moduli (GPa) = 12.32770 14.78083 88.09808
#
# Poissons Ratio (x) = 0.93495 -0.55779
# Poissons Ratio (y) = 0.77978 0.67377
# Poissons Ratio (z) = -0.07805 0.11304
#
# Static dielectric constant tensor:
#      x y z
#    x 1.664480 0.000000 0.000000 
#    y 0.000000 1.713650 0.000000 
#    z 0.000000 0.000000 1.730390 
# 
# From -- ./inp_files/17155.got.cif
#   From: 2010.05.17/outbox.ucp.g08.bks.cvg/sg53_9_cif.got.tgz:17155.got - 2010.06.11 16:32:34.
