data_PCOD9420102
_publ_section_title
;
Structure prediction by ZEFSAII (Michael W. Deem and Ramdas Pophale) SiO2 
 PCOD9420102
Probable space group: P M N A
;
_chemical_formula_sum "Si O2"
_cell_formula_units_Z 56
_cell_length_a 15.000000
_cell_length_b 15.000000
_cell_length_c 12.000000
_cell_angle_alpha 90.000000
_cell_angle_beta 90.000000
_cell_angle_gamma 90.000000
_cell_volume 2700.000000
_symmetry_space_group_name_H-M "P M N A"
_symmetry_group_IT_number 53
_symmetry_cell_setting 'orthorhombic'
loop_
_space_group_symop_operation_xyz
x,y,z
1/2-x,-y,1/2+z
x,-y,-z
1/2-x,y,1/2-z
-x,-y,-z
1/2+x,y,1/2-z
-x,y,z
1/2+x,-y,1/2+z
loop_
_atom_site_type_symbol
_atom_site_label
_atom_site_fract_x
_atom_site_fract_y
_atom_site_fract_z
Si Si1 0.355038 0.568488 0.241705
Si Si2 0.646541 0.297401 0.946633
Si Si3 0.897631 0.216895 0.148457
Si Si4 0.853764 0.699949 0.082990
Si Si5 0.603718 0.635260 0.809195
Si Si6 0.892845 0.844190 0.270486
Si Si7 0.390947 0.017139 0.370350
O O1 0.250000 0.588244 0.250000
O O2 0.391134 0.630593 0.142165
O O3 0.389885 0.608857 0.359538
O O4 0.362186 0.465141 0.210107
O O5 0.752223 0.312619 0.954270
O O6 0.631895 0.199175 0.891137
O O7 0.610486 0.322818 0.067665
O O8 0.854946 0.292910 0.224686
O O9 0.858579 0.117488 0.155556
O O10 0.000000 0.205912 0.186543
O O11 0.899723 0.255302 0.023106
O O12 0.856800 0.772277 0.181980
O O13 0.500000 0.625909 0.780523
O O14 0.000000 0.843751 0.266413
O O15 0.864054 0.940655 0.219544
O O16 0.500000 0.016766 0.370475
O O17 0.364814 0.000000 0.500000
#
# Coordination Sequence:
#
# PCOD9420102 Si02
#       7
#     8   8   8   8   8   8   8
#     4   9  21  38  57  82 108 149 195 237 289 347
#     4  10  22  38  57  82 117 160 192 227 284 353
#     4  10  21  36  57  87 116 147 193 243 291 342
#     4  10  20  36  59  84 115 151 186 244 297 342
#     4  11  24  39  57  82 117 156 197 239 279 342
#     4  10  18  33  62  89 112 145 192 243 282 333
#     4   9  16  31  58  87 110 142 186 234 291 341
#
# _framework density 20.740741
#
# number of rings (size 3 to 8) (size 9 to 14) (size 15 to 20)
#    0.000    2.143    1.429    2.571    2.000    4.571 
#    0.000    2.143    9.429    3.429    0.000    0.000 
#    0.000    0.000    0.000    0.000    0.000    0.000 
#
# Total GULP energy -312011.393430 kJ/mol
# GULP energy per Si atom -5571.632026 kJ/mol
# Density = 2.069353 g / cm^3
# Si number density = 20.740741 Si / 1000 Ang^3
#
#
#
# Elastic Constant Matrix: (Units=GPa)
#
#
# Indices 1 2 3 4 5 6 
#
# 1 45.5892 -9.2547 -17.2278 0.0000 0.0000 0.0000
# 2 -9.2547 163.6579 72.1533 0.0000 0.0000 0.0000
# 3 -17.2278 72.1533 74.0542 0.0000 0.0000 0.0000
# 4 0.0000 0.0000 0.0000 33.1804 0.0000 0.0000
# 5 0.0000 0.0000 0.0000 0.0000 35.5458 0.0000
# 6 0.0000 0.0000 0.0000 0.0000 0.0000 17.5372
#
#
#
# Elastic Compliance Matrix: (Units=1/GPa)
#
#
# Indices 1 2 3 4 5 6 
#
# 1 0.024406 -0.001969 0.007596 0.000000 0.000000 0.000000
# 2 -0.001969 0.010870 -0.011049 0.000000 0.000000 0.000000
# 3 0.007596 -0.011049 0.026036 0.000000 0.000000 0.000000
# 4 0.000000 0.000000 0.000000 0.030138 0.000000 0.000000
# 5 0.000000 0.000000 0.000000 0.000000 0.028133 0.000000
# 6 0.000000 0.000000 0.000000 0.000000 0.000000 0.057022
#
#
# Mechanical properties :
#
#
# Convention : Reuss Voigt Hill
#
# Bulk Modulus (GPa) = 19.81444 41.62701 30.72072
# Shear Modulus (GPa) = 24.47709 33.09471 28.78590
#
# Velocity S-wave (km/s) = 3.43905 3.99888 3.72948
# Velocity P-wave (km/s) = 5.03424 6.43701 5.77835
#
# Compressibility (1/GPa) = 0.05046825
#
# Stress axis : x y z
#
# Youngs Moduli (GPa) = 40.97390 91.99278 38.40762
#
# Poissons Ratio (x) = 0.18111 -0.29174
# Poissons Ratio (y) = 0.08067 0.42438
# Poissons Ratio (z) = -0.31124 1.01646
#
# Static dielectric constant tensor:
#      x y z
#    x 1.764730 0.000000 0.000000 
#    y 0.000000 1.785470 0.000000 
#    z 0.000000 0.000000 1.756120 
# 
# From -- ./inp_files/16068.got.cif
#   From: 2010.05.17/outbox.ucp.g08.bks.cvg/sg53_9_cif.got.tgz:16068.got - 2010.06.11 16:32:34.
