data_PCOD9420062
_publ_section_title
;
Structure prediction by ZEFSAII (Michael W. Deem and Ramdas Pophale) SiO2 
 PCOD9420062
Probable space group: P M N A
;
_chemical_formula_sum "Si O2"
_cell_formula_units_Z 64
_cell_length_a 7.261567
_cell_length_b 12.520693
_cell_length_c 33.348450
_cell_angle_alpha 90.000000
_cell_angle_beta 90.000000
_cell_angle_gamma 90.000000
_cell_volume 3032.036109
_symmetry_space_group_name_H-M "P M N A"
_symmetry_group_IT_number 53
_symmetry_cell_setting 'orthorhombic'
loop_
_space_group_symop_operation_xyz
x,y,z
1/2-x,-y,1/2+z
x,-y,-z
1/2-x,y,1/2-z
-x,-y,-z
1/2+x,y,1/2-z
-x,y,z
1/2+x,-y,1/2+z
loop_
_atom_site_type_symbol
_atom_site_label
_atom_site_fract_x
_atom_site_fract_y
_atom_site_fract_z
Si Si1 0.276272 0.622278 0.002201
Si Si2 0.224660 0.990546 0.452800
Si Si3 0.775586 0.570471 0.369425
Si Si4 0.223499 0.856424 0.619740
Si Si5 0.281365 0.432693 0.204879
Si Si6 0.224121 0.241738 0.578073
Si Si7 0.722765 0.362207 0.084693
Si Si8 0.780455 0.187322 0.295302
O O1 0.500000 0.622061 0.004169
O O2 0.215897 0.687293 0.040273
O O3 0.218221 0.500000 0.000000
O O4 0.220607 0.670156 0.959777
O O5 0.280254 0.878095 0.432495
O O6 0.000000 0.994372 0.454426
O O7 0.282397 0.000000 0.500000
O O8 0.284101 0.078242 0.419627
O O9 0.713520 0.517472 0.327819
O O10 0.717035 0.688440 0.383357
O O11 0.720134 0.479980 0.401936
O O12 0.000000 0.573473 0.369228
O O13 0.275561 0.732562 0.613842
O O14 0.282752 0.879700 0.665656
O O15 0.000000 0.864661 0.618621
O O16 0.250000 0.470686 0.250000
O O17 0.500000 0.424281 0.197696
O O18 0.209622 0.310460 0.202950
O O19 0.000000 0.238675 0.579128
O O20 0.500000 0.365956 0.084761
O O21 0.750000 0.146572 0.250000
O O22 0.000000 0.194243 0.299454
#
# Coordination Sequence:
#
# PCOD9420062 Si02
#       8
#     8   8   8   8   8   8   8   8
#     4   9  13  16  24  40  63  91 122 153 184 220
#     4   9  16  24  32  46  72 107 142 169 196 242
#     4   9  14  21  33  49  70  95 127 162 195 234
#     4   9  15  23  35  49  71 103 134 162 198 243
#     4   9  16  26  40  59  82 107 134 167 207 249
#     4   9  15  21  29  44  67  97 132 164 192 228
#     4   9  13  18  28  44  65  92 125 156 186 228
#     4   9  16  26  41  61  83 107 136 171 211 252
#
# _framework density 21.107928999999999
#
# number of rings (size 3 to 8) (size 9 to 14) (size 15 to 20)
#    0.000    3.000    2.500    0.750    0.000    3.000 
#    0.000    0.000    0.000    0.750    0.000    0.000 
#    0.000    0.500    0.000    5.875    0.000    7.500 
#
# Total GULP energy -356592.712119 kJ/mol
# GULP energy per Si atom -5571.761127 kJ/mol
# Density = 2.105989 g / cm^3
# Si number density = 21.107929 Si / 1000 Ang^3
#
#
#
# Elastic Constant Matrix: (Units=GPa)
#
#
# Indices 1 2 3 4 5 6 
#
# 1 91.9494 -0.1245 -0.4319 0.0000 0.0000 0.0000
# 2 -0.1245 91.9957 48.1074 0.0000 0.0000 0.0000
# 3 -0.4319 48.1074 165.6959 0.0000 0.0000 0.0000
# 4 0.0000 0.0000 0.0000 14.0351 0.0000 0.0000
# 5 0.0000 0.0000 0.0000 0.0000 -7.1575 0.0000
# 6 0.0000 0.0000 0.0000 0.0000 0.0000 63.7920
#
#
#
# Elastic Compliance Matrix: (Units=1/GPa)
#
#
# Indices 1 2 3 4 5 6 
#
# 1 0.010876 0.000000 0.000028 0.000000 0.000000 0.000000
# 2 0.000000 0.012816 -0.003721 0.000000 0.000000 0.000000
# 3 0.000028 -0.003721 0.007116 0.000000 0.000000 0.000000
# 4 0.000000 0.000000 0.000000 0.071250 0.000000 0.000000
# 5 0.000000 0.000000 0.000000 0.000000 -0.139714 0.000000
# 6 0.000000 0.000000 0.000000 0.000000 0.000000 0.015676
#
#
# Mechanical properties :
#
#
# Convention : Reuss Voigt Hill
#
# Bulk Modulus (GPa) = 42.69529 49.41589 46.05559
# Shear Modulus (GPa) = -736.58511 34.27325 -351.15593
#
# Velocity S-wave (km/s) = -18.70077 4.03391 -12.91214
# Velocity P-wave (km/s) = 21.11921 6.72000 14.15737
#
# Compressibility (1/GPa) = 0.02342179
#
# Stress axis : x y z
#
# Youngs Moduli (GPa) = 91.94824 78.02837 140.53753
#
# Poissons Ratio (x) = 0.00001 -0.00399
# Poissons Ratio (y) = 0.00001 0.52293
# Poissons Ratio (z) = -0.00261 0.29034
#
# Static dielectric constant tensor:
#      x y z
#    x 1.985250 0.000000 0.000000 
#    y 0.000000 1.737430 0.000000 
#    z 0.000000 0.000000 1.806000 
# 
# From -- ./inp_files/36865.got.cif
#   From: 2010.05.17/outbox.cif.g08.bks.cpg/sg53_19_cif.got.tgz:36865.got - 2010.06.03 12:45:16.
