data_PCOD9420557
_publ_section_title
;
Structure prediction by ZEFSAII (Michael W. Deem and Ramdas Pophale) SiO2 
 PCOD9420557
Probable space group: P C C A
;
_chemical_formula_sum "Si O2"
_cell_formula_units_Z 56
_cell_length_a 5.330907
_cell_length_b 19.233975
_cell_length_c 24.932408
_cell_angle_alpha 90.000000
_cell_angle_beta 90.000000
_cell_angle_gamma 90.000000
_cell_volume 2556.432785
_symmetry_space_group_name_H-M "P C C A"
_symmetry_group_IT_number 54
_symmetry_cell_setting 'orthorhombic'
loop_
_space_group_symop_operation_xyz
x,y,z
1/2-x,-y,z
1/2+x,-y,1/2-z
-x,y,1/2-z
-x,-y,-z
1/2+x,y,-z
1/2-x,y,1/2+z
x,-y,1/2+z
loop_
_atom_site_type_symbol
_atom_site_label
_atom_site_fract_x
_atom_site_fract_y
_atom_site_fract_z
Si Si1 0.672719 0.079754 0.522185
Si Si2 0.623108 0.727948 0.536332
Si Si3 0.930978 0.758377 0.810935
Si Si4 0.585952 0.089986 0.862168
Si Si5 0.076679 0.758193 0.346108
Si Si6 0.781678 0.426396 0.536628
Si Si7 0.589359 0.082318 0.190228
O O1 0.452249 0.110996 0.484710
O O2 0.541716 0.081386 0.580132
O O3 0.750000 0.000000 0.508836
O O4 0.377358 0.737210 0.498619
O O5 0.579933 0.771078 0.590491
O O6 0.666722 0.649614 0.560460
O O7 0.903649 0.828377 0.846942
O O8 0.667636 0.722699 0.821829
O O9 0.000000 0.776061 0.750000
O O10 0.169562 0.718369 0.832538
O O11 0.374995 0.060412 0.821624
O O12 0.869005 0.063625 0.852445
O O13 0.096712 0.833150 0.316144
O O14 0.750000 0.500000 0.567598
O O15 0.521115 0.426917 0.503555
O O16 0.500000 0.066641 0.250000
#
# Coordination Sequence:
#
# PCOD9420557 Si02
#       7
#     8   8   8   8   8   8   8
#     4  10  21  37  54  73  98 126 156 192 230 272
#     4  10  19  30  42  62  96 130 156 189 232 279
#     4  10  19  33  50  70  94 121 156 198 236 274
#     4  10  18  32  53  74  92 122 159 191 229 275
#     4  10  18  30  46  67  93 127 158 185 232 284
#     4   8  14  25  41  58  79 115 158 193 227 267
#     4  10  19  33  51  72  96 123 156 196 236 276
#
# _framework density 21.905524
#
# number of rings (size 3 to 8) (size 9 to 14) (size 15 to 20)
#    0.000    2.286    0.000    6.000    0.000    0.000 
#    0.000   17.143    0.000    2.571    0.000    0.000 
#    0.000    3.429    0.000    0.143    0.000    0.000 
#
# Total GULP energy -312065.448162 kJ/mol
# GULP energy per Si atom -5572.597289 kJ/mol
# Density = 2.185567 g / cm^3
# Si number density = 21.905524 Si / 1000 Ang^3
#
#
#
# Elastic Constant Matrix: (Units=GPa)
#
#
# Indices 1 2 3 4 5 6 
#
# 1 229.2666 11.1857 57.1530 0.0000 0.0000 0.0000
# 2 11.1857 38.9703 22.9996 0.0000 0.0000 0.0000
# 3 57.1530 22.9996 129.7555 0.0000 0.0000 0.0000
# 4 0.0000 0.0000 0.0000 7.4260 0.0000 0.0000
# 5 0.0000 0.0000 0.0000 0.0000 36.2990 0.0000
# 6 0.0000 0.0000 0.0000 0.0000 0.0000 13.7742
#
#
#
# Elastic Compliance Matrix: (Units=1/GPa)
#
#
# Indices 1 2 3 4 5 6 
#
# 1 0.004901 -0.000148 -0.002132 0.000000 0.000000 0.000000
# 2 -0.000148 0.028663 -0.005015 0.000000 0.000000 0.000000
# 3 -0.002132 -0.005015 0.009535 0.000000 0.000000 0.000000
# 4 0.000000 0.000000 0.000000 0.134661 0.000000 0.000000
# 5 0.000000 0.000000 0.000000 0.000000 0.027549 0.000000
# 6 0.000000 0.000000 0.000000 0.000000 0.000000 0.072600
#
#
# Mechanical properties :
#
#
# Convention : Reuss Voigt Hill
#
# Bulk Modulus (GPa) = 35.07914 64.51879 49.79897
# Shear Modulus (GPa) = 16.55616 31.94345 24.24981
#
# Velocity S-wave (km/s) = 2.75216 3.82283 3.33080
# Velocity P-wave (km/s) = 5.11349 7.00018 6.12986
#
# Compressibility (1/GPa) = 0.02850697
#
# Stress axis : x y z
#
# Youngs Moduli (GPa) = 204.06069 34.88812 104.87706
#
# Poissons Ratio (x) = 0.00517 0.22362
# Poissons Ratio (y) = 0.03024 0.52600
# Poissons Ratio (z) = 0.43511 0.17498
#
# Static dielectric constant tensor:
#      x y z
#    x 2.076700 0.000000 0.000000 
#    y 0.000000 1.977720 0.000000 
#    z 0.000000 0.000000 1.804420 
# 
# From -- ./inp_files/22998.got.cif
#   From: 2010.05.17/outbox.cif.g08.bks.cpg/sg54_12_cif.got.tgz:22998.got - 2010.06.03 13:09:01.
