data_PCOD9420155
_publ_section_title
;
Structure prediction by ZEFSAII (Michael W. Deem and Ramdas Pophale) SiO2 
 PCOD9420155
Probable space group: P M N A
;
_chemical_formula_sum "Si O2"
_cell_formula_units_Z 64
_cell_length_a 18.000000
_cell_length_b 15.000000
_cell_length_c 12.000000
_cell_angle_alpha 90.000000
_cell_angle_beta 90.000000
_cell_angle_gamma 90.000000
_cell_volume 3240.000000
_symmetry_space_group_name_H-M "P M N A"
_symmetry_group_IT_number 53
_symmetry_cell_setting 'orthorhombic'
loop_
_space_group_symop_operation_xyz
x,y,z
1/2-x,-y,1/2+z
x,-y,-z
1/2-x,y,1/2-z
-x,-y,-z
1/2+x,y,1/2-z
-x,y,z
1/2+x,-y,1/2+z
loop_
_atom_site_type_symbol
_atom_site_label
_atom_site_fract_x
_atom_site_fract_y
_atom_site_fract_z
Si Si1 0.088442 0.603015 0.034975
Si Si2 0.586656 0.850308 0.825777
Si Si3 0.182251 0.051801 0.175608
Si Si4 0.589382 0.410310 0.070462
Si Si5 0.089946 0.670475 0.797465
Si Si6 0.804548 0.136743 0.941644
Si Si7 0.338380 0.285606 0.718245
Si Si8 0.146092 0.233336 0.538966
O O1 0.130661 0.630754 0.148168
O O2 0.000000 0.620173 0.051034
O O3 0.096437 0.500000 0.000000
O O4 0.116685 0.654504 0.923345
O O5 0.500000 0.848246 0.812452
O O6 0.616778 0.937803 0.764475
O O7 0.616230 0.763528 0.757120
O O8 0.603653 0.833768 0.955573
O O9 0.250000 0.087729 0.250000
O O10 0.202087 0.953462 0.131338
O O11 0.167738 0.107644 0.063266
O O12 0.500000 0.390866 0.059147
O O13 0.605469 0.405807 0.203639
O O14 0.603560 0.500000 0.000000
O O15 0.636663 0.329674 0.018700
O O16 0.000000 0.672839 0.806023
O O17 0.851330 0.205235 0.868823
O O18 0.726912 0.188290 0.956553
O O19 0.250000 0.295927 0.750000
O O20 0.376357 0.255366 0.833841
#
# Coordination Sequence:
#
# PCOD9420155 Si02
#       8
#     8   8   8   8   8   8   8   8
#     4  10  21  36  60  87 115 160 211 253 300 367
#     4  10  20  36  61  94 125 154 197 260 318 366
#     4  11  20  37  66  90 118 159 211 250 308 378
#     4   9  18  31  55  90 125 162 205 256 319 382
#     4   8  16  32  52  82 121 153 194 251 299 357
#     4  10  22  39  60  87 117 161 211 254 300 379
#     4  10  22  40  58  81 124 164 202 259 315 371
#     4  10  19  36  58  86 123 164 206 250 314 374
#
# _framework density 19.753086
#
# number of rings (size 3 to 8) (size 9 to 14) (size 15 to 20)
#    0.000    2.250    1.250    3.000    1.750    1.000 
#    0.000    4.375    0.000    7.500    0.000    0.000 
#    0.000    0.000    0.000    0.000    0.000    0.000 
#
# Total GULP energy -356373.169481 kJ/mol
# GULP energy per Si atom -5568.330773 kJ/mol
# Density = 1.970813 g / cm^3
# Si number density = 19.753086 Si / 1000 Ang^3
#
#
#
# Elastic Constant Matrix: (Units=GPa)
#
#
# Indices 1 2 3 4 5 6 
#
# 1 29.4539 26.2360 33.9040 0.0000 0.0000 0.0000
# 2 26.2360 61.5782 34.6094 0.0000 0.0000 0.0000
# 3 33.9040 34.6094 145.4033 0.0000 0.0000 0.0000
# 4 0.0000 0.0000 0.0000 57.4853 0.0000 0.0000
# 5 0.0000 0.0000 0.0000 0.0000 30.6888 0.0000
# 6 0.0000 0.0000 0.0000 0.0000 0.0000 30.0040
#
#
#
# Elastic Compliance Matrix: (Units=1/GPa)
#
#
# Indices 1 2 3 4 5 6 
#
# 1 0.065097 -0.022170 -0.009902 0.000000 0.000000 0.000000
# 2 -0.022170 0.026298 -0.001090 0.000000 0.000000 0.000000
# 3 -0.009902 -0.001090 0.009446 0.000000 0.000000 0.000000
# 4 0.000000 0.000000 0.000000 0.017396 0.000000 0.000000
# 5 0.000000 0.000000 0.000000 0.000000 0.032585 0.000000
# 6 0.000000 0.000000 0.000000 0.000000 0.000000 0.033329
#
#
# Mechanical properties :
#
#
# Convention : Reuss Voigt Hill
#
# Bulk Modulus (GPa) = 28.97131 47.32602 38.14867
# Shear Modulus (GPa) = 19.08539 33.08135 26.08337
#
# Velocity S-wave (km/s) = 3.11174 4.09680 3.63777
# Velocity P-wave (km/s) = 5.25444 6.81096 6.08270
#
# Compressibility (1/GPa) = 0.03451691
#
# Stress axis : x y z
#
# Youngs Moduli (GPa) = 15.36162 38.02580 105.86787
#
# Poissons Ratio (x) = 0.84303 1.04829
# Poissons Ratio (y) = 0.34057 0.11540
# Poissons Ratio (z) = 0.15211 0.04145
#
# Static dielectric constant tensor:
#      x y z
#    x 1.705640 0.000000 0.000000 
#    y 0.000000 1.744090 0.000000 
#    z 0.000000 0.000000 1.681270 
# 
# From -- ./inp_files/17131.got.cif
#   From: 2010.05.17/outbox.ucp.g08.bks.cvg/sg53_9_cif.got.tgz:17131.got - 2010.06.11 16:32:34.
