data_PCOD9420099
_publ_section_title
;
Structure prediction by ZEFSAII (Michael W. Deem and Ramdas Pophale) SiO2 
 PCOD9420099
Probable space group: P M N A
;
_chemical_formula_sum "Si O2"
_cell_formula_units_Z 64
_cell_length_a 9.000000
_cell_length_b 15.000000
_cell_length_c 30.000000
_cell_angle_alpha 90.000000
_cell_angle_beta 90.000000
_cell_angle_gamma 90.000000
_cell_volume 4050.000000
_symmetry_space_group_name_H-M "P M N A"
_symmetry_group_IT_number 53
_symmetry_cell_setting 'orthorhombic'
loop_
_space_group_symop_operation_xyz
x,y,z
1/2-x,-y,1/2+z
x,-y,-z
1/2-x,y,1/2-z
-x,-y,-z
1/2+x,y,1/2-z
-x,y,z
1/2+x,-y,1/2+z
loop_
_atom_site_type_symbol
_atom_site_label
_atom_site_fract_x
_atom_site_fract_y
_atom_site_fract_z
Si Si1 0.676894 0.330974 0.041247
Si Si2 0.823132 0.540835 0.888984
Si Si3 0.177001 0.376109 0.559737
Si Si4 0.322826 0.292877 0.795473
Si Si5 0.322642 0.045227 0.562334
Si Si6 0.677686 0.196505 0.886051
Si Si7 0.321474 0.497358 0.203012
Si Si8 0.177897 0.121786 0.472128
O O1 0.500000 0.343992 0.048958
O O2 0.769292 0.379471 0.079220
O O3 0.704787 0.225080 0.038558
O O4 0.710717 0.373466 0.992772
O O5 0.764909 0.450623 0.913105
O O6 0.747356 0.547899 0.840531
O O7 0.000000 0.538401 0.884686
O O8 0.205180 0.277644 0.579453
O O9 0.000000 0.393458 0.565399
O O10 0.250000 0.261405 0.750000
O O11 0.500000 0.289456 0.791403
O O12 0.280688 0.235571 0.838113
O O13 0.284140 0.397040 0.802106
O O14 0.500000 0.037719 0.559542
O O15 0.269155 0.109441 0.601567
O O16 0.257316 0.093840 0.518158
O O17 0.245871 0.948291 0.562885
O O18 0.500000 0.178258 0.887652
O O19 0.250000 0.468278 0.250000
O O20 0.500000 0.488238 0.204051
O O21 0.000000 0.109336 0.476684
#
# Coordination Sequence:
#
# PCOD9420099 Si02
#       8
#     8   8   8   8   8   8   8   8
#     4  10  21  36  54  71  94 136 181 218 253 295
#     4  12  24  34  48  74 105 138 171 209 258 308
#     4  10  19  35  52  69  98 138 181 214 245 293
#     4   9  18  31  50  72  98 129 165 207 251 295
#     4  11  21  31  48  76 104 129 159 207 258 296
#     4  10  18  33  52  72  98 137 176 205 244 302
#     4  10  19  35  54  74  99 130 169 212 255 300
#     4  10  19  35  54  71  94 131 173 208 246 300
#
# _framework density 15.802469
#
# number of rings (size 3 to 8) (size 9 to 14) (size 15 to 20)
#    0.000    1.750    2.500    4.125    0.000    4.500 
#    0.000    0.000    0.000    0.000    0.000    0.875 
#    0.000    4.000    0.000    0.000    0.000    0.000 
#
# Total GULP energy -357244.923107 kJ/mol
# GULP energy per Si atom -5581.951924 kJ/mol
# Density = 1.576650 g / cm^3
# Si number density = 15.802469 Si / 1000 Ang^3
#
#
#
# Elastic Constant Matrix: (Units=GPa)
#
#
# Indices 1 2 3 4 5 6 
#
# 1 75.4430 35.1635 48.7179 0.0000 0.0000 0.0000
# 2 35.1635 55.1410 33.0877 0.0000 0.0000 0.0000
# 3 48.7179 33.0877 113.4036 0.0000 0.0000 0.0000
# 4 0.0000 0.0000 0.0000 14.0456 0.0000 0.0000
# 5 0.0000 0.0000 0.0000 0.0000 27.0309 0.0000
# 6 0.0000 0.0000 0.0000 0.0000 0.0000 8.7701
#
#
#
# Elastic Compliance Matrix: (Units=1/GPa)
#
#
# Indices 1 2 3 4 5 6 
#
# 1 0.022289 -0.010265 -0.006580 0.000000 0.000000 0.000000
# 2 -0.010265 0.026712 -0.003384 0.000000 0.000000 0.000000
# 3 -0.006580 -0.003384 0.012632 0.000000 0.000000 0.000000
# 4 0.000000 0.000000 0.000000 0.071197 0.000000 0.000000
# 5 0.000000 0.000000 0.000000 0.000000 0.036995 0.000000
# 6 0.000000 0.000000 0.000000 0.000000 0.000000 0.114024
#
#
# Mechanical properties :
#
#
# Convention : Reuss Voigt Hill
#
# Bulk Modulus (GPa) = 47.22635 53.10287 50.16461
# Shear Modulus (GPa) = 15.08910 18.43721 16.76316
#
# Velocity S-wave (km/s) = 3.09343 3.41945 3.26052
# Velocity P-wave (km/s) = 6.53524 7.01907 6.78147
#
# Compressibility (1/GPa) = 0.02117462
#
# Stress axis : x y z
#
# Youngs Moduli (GPa) = 44.86586 37.43653 79.16289
#
# Poissons Ratio (x) = 0.38429 0.52090
# Poissons Ratio (y) = 0.46055 0.26788
# Poissons Ratio (z) = 0.29522 0.12668
#
# Static dielectric constant tensor:
#      x y z
#    x 1.522160 0.000000 0.000000 
#    y 0.000000 1.525010 0.000000 
#    z 0.000000 0.000000 1.540010 
# 
# From -- ./inp_files/38489.got.cif
#   From: 2010.05.17/outbox.ucp.g08.bks.cvg/sg53_20_cif.got.tgz:38489.got - 2010.06.11 16:32:34.
