data_PCOD9420588
_publ_section_title
;
Structure prediction by ZEFSAII (Michael W. Deem and Ramdas Pophale) SiO2 
 PCOD9420588
Probable space group: P C C A
;
_chemical_formula_sum "Si O2"
_cell_formula_units_Z 24
_cell_length_a 4.966816
_cell_length_b 13.680362
_cell_length_c 13.895701
_cell_angle_alpha 90.000000
_cell_angle_beta 90.000000
_cell_angle_gamma 90.000000
_cell_volume 944.182880
_symmetry_space_group_name_H-M "P C C A"
_symmetry_group_IT_number 54
_symmetry_cell_setting 'orthorhombic'
loop_
_space_group_symop_operation_xyz
x,y,z
1/2-x,-y,z
1/2+x,-y,1/2-z
-x,y,1/2-z
-x,-y,-z
1/2+x,y,-z
1/2-x,y,1/2+z
x,-y,1/2+z
loop_
_atom_site_type_symbol
_atom_site_label
_atom_site_fract_x
_atom_site_fract_y
_atom_site_fract_z
Si Si1 0.795367 0.105627 0.065681
Si Si2 0.441219 0.408361 0.634402
Si Si3 0.948305 0.302745 0.637186
O O1 0.694737 0.199163 0.123950
O O2 0.750000 0.000000 0.114194
O O3 0.599831 0.107401 0.971880
O O4 0.250000 0.500000 0.612159
O O5 0.500000 0.413338 0.750000
O O6 0.741245 0.385090 0.598564
O O7 0.251640 0.317863 0.601126
O O8 0.000000 0.319126 0.750000
#
# Coordination Sequence:
#
# PCOD9420588 Si02
#       3
#     8   8   8
#     4  10  21  39  60  80 109 152 190 222 277 345
#     4  10  18  31  53  81 113 145 180 223 274 330
#     4  10  20  34  56  85 111 140 184 235 275 312
#
# _framework density 25.418804999999999
#
# number of rings (size 3 to 8) (size 9 to 14) (size 15 to 20)
#    0.000    2.000    0.000    6.000    0.000    0.000 
#    0.000   10.000    0.000   20.000    0.000    0.000 
#    0.000    0.000    0.000    0.000    0.000    0.000 
#
# Total GULP energy -133974.542676 kJ/mol
# GULP energy per Si atom -5582.272611 kJ/mol
# Density = 2.536095 g / cm^3
# Si number density = 25.418805 Si / 1000 Ang^3
#
#
#
# Elastic Constant Matrix: (Units=GPa)
#
#
# Indices 1 2 3 4 5 6 
#
# 1 167.4228 71.4981 2.9801 0.0000 0.0000 0.0000
# 2 71.4981 183.0126 5.5129 0.0000 0.0000 0.0000
# 3 2.9801 5.5129 72.5016 0.0000 0.0000 0.0000
# 4 0.0000 0.0000 0.0000 -74.1318 0.0000 0.0000
# 5 0.0000 0.0000 0.0000 0.0000 4.0553 0.0000
# 6 0.0000 0.0000 0.0000 0.0000 0.0000 43.9907
#
#
#
# Elastic Compliance Matrix: (Units=1/GPa)
#
#
# Indices 1 2 3 4 5 6 
#
# 1 0.007169 -0.002798 -0.000082 0.000000 0.000000 0.000000
# 2 -0.002798 0.006569 -0.000384 0.000000 0.000000 0.000000
# 3 -0.000082 -0.000384 0.013825 0.000000 0.000000 0.000000
# 4 0.000000 0.000000 0.000000 -0.013489 0.000000 0.000000
# 5 0.000000 0.000000 0.000000 0.000000 0.246591 0.000000
# 6 0.000000 0.000000 0.000000 0.000000 0.000000 0.022732
#
#
# Mechanical properties :
#
#
# Convention : Reuss Voigt Hill
#
# Bulk Modulus (GPa) = 47.54166 64.76880 56.15523
# Shear Modulus (GPa) = 16.83852 17.64590 17.24221
#
# Velocity S-wave (km/s) = 2.57659 2.63764 2.60729
# Velocity P-wave (km/s) = 5.25316 5.90018 5.58605
#
# Compressibility (1/GPa) = 0.02103418
#
# Stress axis : x y z
#
# Youngs Moduli (GPa) = 139.48096 152.23113 72.33061
#
# Poissons Ratio (x) = 0.42601 0.00592
# Poissons Ratio (y) = 0.39033 0.02781
# Poissons Ratio (z) = 0.01142 0.05853
#
# Static dielectric constant tensor:
#      x y z
#    x 1.960530 0.000000 0.000000 
#    y 0.000000 2.094200 0.000000 
#    z 0.000000 0.000000 2.019550 
# 
# From -- ./inp_files/15568.got.cif
#   From: 2010.05.17/outbox.cif.g08.bks.cpg/sg54_8_cif.got.tgz:15568.got - 2010.06.03 13:09:01.
