data_PCOD9420319
_publ_section_title
;
Structure prediction by ZEFSAII (Michael W. Deem and Ramdas Pophale) SiO2 
 PCOD9420319
Probable space group: P C C A
;
_chemical_formula_sum "Si O2"
_cell_formula_units_Z 56
_cell_length_a 13.090907
_cell_length_b 32.932434
_cell_length_c 5.419690
_cell_angle_alpha 90.000000
_cell_angle_beta 90.000000
_cell_angle_gamma 90.000000
_cell_volume 2336.511989
_symmetry_space_group_name_H-M "P C C A"
_symmetry_group_IT_number 54
_symmetry_cell_setting 'orthorhombic'
loop_
_space_group_symop_operation_xyz
x,y,z
1/2-x,-y,z
1/2+x,-y,1/2-z
-x,y,1/2-z
-x,-y,-z
1/2+x,y,-z
1/2-x,y,1/2+z
x,-y,1/2+z
loop_
_atom_site_type_symbol
_atom_site_label
_atom_site_fract_x
_atom_site_fract_y
_atom_site_fract_z
Si Si1 0.315408 0.309251 0.925012
Si Si2 0.370912 0.889996 0.112175
Si Si3 0.132717 0.984092 0.611946
Si Si4 0.684750 0.396044 0.481559
Si Si5 0.631107 0.515767 0.113191
Si Si6 0.639975 0.857966 0.887662
Si Si7 0.935732 0.773638 0.502725
O O1 0.232342 0.308305 0.149314
O O2 0.369475 0.352866 0.970229
O O3 0.383144 0.269653 0.958924
O O4 0.372289 0.937057 0.041618
O O5 0.411156 0.882891 0.388660
O O6 0.252582 0.876380 0.144798
O O7 0.407372 0.862895 0.883505
O O8 0.250000 0.000000 0.640471
O O9 0.090528 0.010309 0.386501
O O10 0.769472 0.396591 0.703983
O O11 0.626660 0.437943 0.523536
O O12 0.750000 0.500000 0.141175
O O13 0.590561 0.511542 0.389663
O O14 0.641716 0.811137 0.967107
O O15 0.000000 0.771985 0.250000
O O16 0.000000 0.782395 0.750000
#
# Coordination Sequence:
#
# PCOD9420319 Si02
#       7
#     8   8   8   8   8   8   8
#     4  10  23  38  62  85 114 149 195 243 291 344
#     4  10  19  32  52  85 114 142 184 232 279 328
#     4  10  16  25  43  72 118 148 168 212 280 327
#     4  10  16  27  42  71 103 142 177 221 270 338
#     4  10  14  20  36  60 102 146 163 202 276 337
#     4  10  20  33  54  75 109 142 181 227 286 330
#     4  12  26  43  61  84 116 151 197 242 293 354
#
# _framework density 23.96735
#
# number of rings (size 3 to 8) (size 9 to 14) (size 15 to 20)
#    0.000    1.714    2.857    6.000    4.000    0.000 
#    0.000    0.000    0.000    0.000    0.000    0.000 
#    0.000  142.857    0.000    0.000    0.000    0.000 
#
# Total GULP energy -312993.925720 kJ/mol
# GULP energy per Si atom -5589.177245 kJ/mol
# Density = 2.391280 g / cm^3
# Si number density = 23.967350 Si / 1000 Ang^3
#
#
#
# Elastic Constant Matrix: (Units=GPa)
#
#
# Indices 1 2 3 4 5 6 
#
# 1 31.2782 -6.7540 11.7058 0.0000 0.0000 0.0000
# 2 -6.7540 173.9632 -8.5077 0.0000 0.0000 0.0000
# 3 11.7058 -8.5077 162.9993 0.0000 0.0000 0.0000
# 4 0.0000 0.0000 0.0000 41.6001 0.0000 0.0000
# 5 0.0000 0.0000 0.0000 0.0000 4.0550 0.0000
# 6 0.0000 0.0000 0.0000 0.0000 0.0000 10.2053
#
#
#
# Elastic Compliance Matrix: (Units=1/GPa)
#
#
# Indices 1 2 3 4 5 6 
#
# 1 0.033091 0.001172 -0.002315 0.000000 0.000000 0.000000
# 2 0.001172 0.005805 0.000219 0.000000 0.000000 0.000000
# 3 -0.002315 0.000219 0.006313 0.000000 0.000000 0.000000
# 4 0.000000 0.000000 0.000000 0.024038 0.000000 0.000000
# 5 0.000000 0.000000 0.000000 0.000000 0.246608 0.000000
# 6 0.000000 0.000000 0.000000 0.000000 0.000000 0.097989
#
#
# Mechanical properties :
#
#
# Convention : Reuss Voigt Hill
#
# Bulk Modulus (GPa) = 23.06379 40.12542 31.59460
# Shear Modulus (GPa) = 11.62397 35.95852 23.79125
#
# Velocity S-wave (km/s) = 2.20464 3.87759 3.15406
# Velocity P-wave (km/s) = 4.01553 6.06841 5.14539
#
# Compressibility (1/GPa) = 0.04335801
#
# Stress axis : x y z
#
# Youngs Moduli (GPa) = 30.22003 172.27932 158.41115
#
# Poissons Ratio (x) = -0.20183 0.36676
# Poissons Ratio (y) = -0.03540 -0.03467
# Poissons Ratio (z) = 0.06997 -0.03770
#
# Static dielectric constant tensor:
#      x y z
#    x 1.865900 0.000000 0.000000 
#    y 0.000000 1.840600 0.000000 
#    z 0.000000 0.000000 1.967530 
# 
# From -- ./inp_files/709.got.cif
#   From: 2010.05.17/outbox.cif.g08.bks.cpg/sg54_1_cif.got.tgz:709.got - 2010.06.03 13:09:01.
