data_PCOD9420272
_publ_section_title
;
Structure prediction by ZEFSAII (Michael W. Deem and Ramdas Pophale) SiO2 
 PCOD9420272
Probable space group: P M N A
;
_chemical_formula_sum "Si O2"
_cell_formula_units_Z 56
_cell_length_a 15.000000
_cell_length_b 9.000000
_cell_length_c 21.000000
_cell_angle_alpha 90.000000
_cell_angle_beta 90.000000
_cell_angle_gamma 90.000000
_cell_volume 2835.000000
_symmetry_space_group_name_H-M "P M N A"
_symmetry_group_IT_number 53
_symmetry_cell_setting 'orthorhombic'
loop_
_space_group_symop_operation_xyz
x,y,z
1/2-x,-y,1/2+z
x,-y,-z
1/2-x,y,1/2-z
-x,-y,-z
1/2+x,y,1/2-z
-x,y,z
1/2+x,-y,1/2+z
loop_
_atom_site_type_symbol
_atom_site_label
_atom_site_fract_x
_atom_site_fract_y
_atom_site_fract_z
Si Si1 0.104323 0.372629 0.246945
Si Si2 0.394930 0.258474 0.120806
Si Si3 0.705862 0.866104 0.399625
Si Si4 0.598914 0.088313 0.843036
Si Si5 0.609237 0.813933 0.623707
Si Si6 0.267624 0.329496 0.474585
Si Si7 0.149044 0.713093 0.225053
O O1 0.140190 0.353979 0.318764
O O2 0.134670 0.253322 0.193629
O O3 0.113550 0.544901 0.227688
O O4 0.000000 0.339624 0.253892
O O5 0.500000 0.293511 0.104210
O O6 0.324403 0.282430 0.063054
O O7 0.396649 0.090504 0.149315
O O8 0.810257 0.865475 0.378548
O O9 0.709267 0.784492 0.467717
O O10 0.652085 0.772115 0.346778
O O11 0.660691 0.030944 0.393706
O O12 0.500000 0.131684 0.868835
O O13 0.604730 0.165805 0.773152
O O14 0.500000 0.828149 0.619870
O O15 0.650914 0.694079 0.574848
O O16 0.260548 0.500000 0.500000
O O17 0.250000 0.704114 0.250000
#
# Coordination Sequence:
#
# PCOD9420272 Si02
#       7
#     8   8   8   8   8   8   8
#     4  10  22  40  65  98 131 169 216 271 340 393
#     4  10  23  42  67  98 134 176 217 269 335 401
#     4  11  24  43  64  96 129 178 222 265 332 395
#     4  10  21  40  66  97 132 167 215 272 325 391
#     4  11  25  45  70  96 127 172 225 282 334 393
#     4  12  27  44  65  93 135 178 224 274 327 401
#     4  10  22  36  64  99 133 172 215 268 328 380
#
# _framework density 19.753086
#
# number of rings (size 3 to 8) (size 9 to 14) (size 15 to 20)
#    0.000    1.429    1.429    2.571    6.000    4.571 
#    0.000    1.429    0.000    0.000    0.000    0.000 
#    0.000    0.000    0.000    0.000    0.000    0.000 
#
# Total GULP energy -312331.718816 kJ/mol
# GULP energy per Si atom -5577.352122 kJ/mol
# Density = 1.970813 g / cm^3
# Si number density = 19.753086 Si / 1000 Ang^3
#
#
#
# Elastic Constant Matrix: (Units=GPa)
#
#
# Indices 1 2 3 4 5 6 
#
# 1 104.2241 13.7475 30.5647 0.0000 0.0000 0.0000
# 2 13.7475 111.2783 49.3442 0.0000 0.0000 0.0000
# 3 30.5647 49.3442 122.1409 0.0000 0.0000 0.0000
# 4 0.0000 0.0000 0.0000 41.6780 0.0000 0.0000
# 5 0.0000 0.0000 0.0000 0.0000 29.9615 0.0000
# 6 0.0000 0.0000 0.0000 0.0000 0.0000 33.9224
#
#
#
# Elastic Compliance Matrix: (Units=1/GPa)
#
#
# Indices 1 2 3 4 5 6 
#
# 1 0.010357 -0.000159 -0.002528 0.000000 0.000000 0.000000
# 2 -0.000159 0.010950 -0.004384 0.000000 0.000000 0.000000
# 3 -0.002528 -0.004384 0.010591 0.000000 0.000000 0.000000
# 4 0.000000 0.000000 0.000000 0.023993 0.000000 0.000000
# 5 0.000000 0.000000 0.000000 0.000000 0.033376 0.000000
# 6 0.000000 0.000000 0.000000 0.000000 0.000000 0.029479
#
#
# Mechanical properties :
#
#
# Convention : Reuss Voigt Hill
#
# Bulk Modulus (GPa) = 56.31524 58.32844 57.32184
# Shear Modulus (GPa) = 36.02140 37.37817 36.69978
#
# Velocity S-wave (km/s) = 4.27498 4.35474 4.31504
# Velocity P-wave (km/s) = 7.27590 7.40796 7.34223
#
# Compressibility (1/GPa) = 0.01775718
#
# Stress axis : x y z
#
# Youngs Moduli (GPa) = 96.55413 91.32325 94.42061
#
# Poissons Ratio (x) = 0.01449 0.23866
# Poissons Ratio (y) = 0.01532 0.41395
# Poissons Ratio (z) = 0.24405 0.40037
#
# Static dielectric constant tensor:
#      x y z
#    x 1.710140 0.000000 0.000000 
#    y 0.000000 1.706470 0.000000 
#    z 0.000000 0.000000 1.721670 
# 
# From -- ./inp_files/32439.got.cif
#   From: 2010.05.17/outbox.ucp.g08.bks.cvg/sg53_17_cif.got.tgz:32439.got - 2010.06.11 16:32:34.
