data_PCOD9420684
_publ_section_title
;
Structure prediction by ZEFSAII (Michael W. Deem and Ramdas Pophale) SiO2 
 PCOD9420684
Probable space group: P C C A
;
_chemical_formula_sum "Si O2"
_cell_formula_units_Z 40
_cell_length_a 17.228451
_cell_length_b 8.209819
_cell_length_c 13.551675
_cell_angle_alpha 90.000000
_cell_angle_beta 90.000000
_cell_angle_gamma 90.000000
_cell_volume 1916.782308
_symmetry_space_group_name_H-M "P C C A"
_symmetry_group_IT_number 54
_symmetry_cell_setting 'orthorhombic'
loop_
_space_group_symop_operation_xyz
x,y,z
1/2-x,-y,z
1/2+x,-y,1/2-z
-x,y,1/2-z
-x,-y,-z
1/2+x,y,-z
1/2-x,y,1/2+z
x,-y,1/2+z
loop_
_atom_site_type_symbol
_atom_site_label
_atom_site_fract_x
_atom_site_fract_y
_atom_site_fract_z
Si Si1 0.750000 0.000000 0.003704
Si Si2 0.836104 0.255738 0.134621
Si Si3 0.401232 0.832524 0.035863
Si Si4 0.836946 0.473853 0.965378
Si Si5 0.038467 0.997353 0.345233
Si Si6 0.250000 0.500000 0.219881
O O1 0.725536 0.852550 0.074625
O O2 0.823751 0.938151 0.943067
O O3 0.876610 0.357092 0.044866
O O4 0.896201 0.129939 0.182251
O O5 0.796275 0.371668 0.214155
O O6 0.380715 0.643746 0.046894
O O7 0.424021 0.873213 0.922666
O O8 0.471351 0.900957 0.099756
O O9 0.750000 0.500000 0.010619
O O10 0.811470 0.414655 0.856111
O O11 0.000000 0.918016 0.250000
#
# Coordination Sequence:
#
# PCOD9420684 Si02
#       6
#     4   8   8   8   8   4
#     4  10  18  36  62  82 114 158 198 250 308 342
#     4  11  20  37  59  87 121 156 196 259 295 362
#     4  10  20  40  59  86 122 158 203 252 300 366
#     4  10  20  36  60  85 120 148 200 254 300 350
#     4  10  23  39  59  84 127 161 202 245 306 370
#     4  10  18  34  58  84 120 150 206 250 294 356
#
# _framework density 20.868306
#
# number of rings (size 3 to 8) (size 9 to 14) (size 15 to 20)
#    0.600    1.200    3.000    1.200    0.000    0.800 
#    0.000   35.000    0.000    0.000    0.000    0.000 
#    0.000    0.000    0.000    0.000    0.000    0.000 
#
# Total GULP energy -223088.151490 kJ/mol
# GULP energy per Si atom -5577.203787 kJ/mol
# Density = 2.082081 g / cm^3
# Si number density = 20.868306 Si / 1000 Ang^3
#
#
#
# Elastic Constant Matrix: (Units=GPa)
#
#
# Indices 1 2 3 4 5 6 
#
# 1 72.7961 9.0283 5.0680 0.0000 0.0000 0.0000
# 2 9.0283 45.7837 23.2519 0.0000 0.0000 0.0000
# 3 5.0680 23.2519 78.3890 0.0000 0.0000 0.0000
# 4 0.0000 0.0000 0.0000 9.3355 0.0000 0.0000
# 5 0.0000 0.0000 0.0000 0.0000 17.4609 0.0000
# 6 0.0000 0.0000 0.0000 0.0000 0.0000 18.0158
#
#
#
# Elastic Compliance Matrix: (Units=1/GPa)
#
#
# Indices 1 2 3 4 5 6 
#
# 1 0.014082 -0.002725 -0.000102 0.000000 0.000000 0.000000
# 2 -0.002725 0.026243 -0.007608 0.000000 0.000000 0.000000
# 3 -0.000102 -0.007608 0.015020 0.000000 0.000000 0.000000
# 4 0.000000 0.000000 0.000000 0.107119 0.000000 0.000000
# 5 0.000000 0.000000 0.000000 0.000000 0.057271 0.000000
# 6 0.000000 0.000000 0.000000 0.000000 0.000000 0.055507
#
#
# Mechanical properties :
#
#
# Convention : Reuss Voigt Hill
#
# Bulk Modulus (GPa) = 29.00664 30.18501 29.59583
# Shear Modulus (GPa) = 16.25467 19.60379 17.92923
#
# Velocity S-wave (km/s) = 2.79394 3.06830 2.93432
# Velocity P-wave (km/s) = 4.93337 5.20082 5.06886
#
# Compressibility (1/GPa) = 0.03447487
#
# Stress axis : x y z
#
# Youngs Moduli (GPa) = 71.01223 38.10523 66.57690
#
# Poissons Ratio (x) = 0.10384 0.00680
# Poissons Ratio (y) = 0.19351 0.50652
# Poissons Ratio (z) = 0.00725 0.28991
#
# Static dielectric constant tensor:
#      x y z
#    x 1.787590 0.000000 0.000000 
#    y 0.000000 1.759780 0.000000 
#    z 0.000000 0.000000 1.767540 
# 
# From -- ./inp_files/13953.got.cif
#   From: 2010.05.17/outbox.cif.g08.bks.cpg/sg54_7_cif.got.tgz:13953.got - 2010.06.03 13:09:01.
