data_PCOD9420915
_publ_section_title
;
Structure prediction by ZEFSAII (Michael W. Deem and Ramdas Pophale) SiO2 
 PCOD9420915
Probable space group: P C C A
;
_chemical_formula_sum "Si O2"
_cell_formula_units_Z 48
_cell_length_a 14.063873
_cell_length_b 30.207911
_cell_length_c 5.187257
_cell_angle_alpha 90.000000
_cell_angle_beta 90.000000
_cell_angle_gamma 90.000000
_cell_volume 2203.755425
_symmetry_space_group_name_H-M "P C C A"
_symmetry_group_IT_number 54
_symmetry_cell_setting 'orthorhombic'
loop_
_space_group_symop_operation_xyz
x,y,z
1/2-x,-y,z
1/2+x,-y,1/2-z
-x,y,1/2-z
-x,-y,-z
1/2+x,y,-z
1/2-x,y,1/2+z
x,-y,1/2+z
loop_
_atom_site_type_symbol
_atom_site_label
_atom_site_fract_x
_atom_site_fract_y
_atom_site_fract_z
Si Si1 0.685659 0.790953 0.851442
Si Si2 0.184571 0.696632 0.038411
Si Si3 0.143174 0.518523 0.867960
Si Si4 0.563947 0.609027 0.995022
Si Si5 0.387551 0.977764 0.719393
Si Si6 0.687267 0.885050 0.956646
O O1 0.727272 0.790796 0.561399
O O2 0.635531 0.744473 0.913598
O O3 0.636154 0.837957 0.904436
O O4 0.265756 0.694795 0.258924
O O5 0.116616 0.654886 0.062198
O O6 0.250000 0.500000 0.829252
O O7 0.098030 0.511666 0.589409
O O8 0.137457 0.569065 0.953992
O O9 0.500000 0.597414 0.750000
O O10 0.500000 0.613608 0.250000
O O11 0.500000 0.984041 0.750000
O O12 0.369680 0.929039 0.610717
O O13 0.349941 0.012450 0.505978
O O14 0.773590 0.885425 0.747618
#
# Coordination Sequence:
#
# PCOD9420915 Si02
#       6
#     8   8   8   8   8   8
#     4   8  16  32  53  83 107 138 183 230 275 321
#     4  10  21  38  66  86 114 158 198 227 276 359
#     4  10  23  40  63  86 116 156 199 233 268 344
#     4  12  26  41  62  94 126 150 187 246 299 327
#     4  10  21  35  49  70 106 146 183 222 274 340
#     4  10  19  32  54  79 107 135 181 239 276 320
#
# _framework density 21.781003999999999
#
# number of rings (size 3 to 8) (size 9 to 14) (size 15 to 20)
#    0.000    2.000    0.000    3.000    4.667    4.000 
#    0.000    0.833    0.000    3.000    0.000    0.000 
#    0.000    0.000    0.000    0.000    0.000    0.000 
#
# Total GULP energy -267934.973047 kJ/mol
# GULP energy per Si atom -5581.978605 kJ/mol
# Density = 2.173143 g / cm^3
# Si number density = 21.781004 Si / 1000 Ang^3
#
#
#
# Elastic Constant Matrix: (Units=GPa)
#
#
# Indices 1 2 3 4 5 6 
#
# 1 39.5504 15.2597 11.7563 0.0000 0.0000 0.0000
# 2 15.2597 162.1809 21.0016 0.0000 0.0000 0.0000
# 3 11.7563 21.0016 121.2414 0.0000 0.0000 0.0000
# 4 0.0000 0.0000 0.0000 34.8093 0.0000 0.0000
# 5 0.0000 0.0000 0.0000 0.0000 17.4615 0.0000
# 6 0.0000 0.0000 0.0000 0.0000 0.0000 3.1048
#
#
#
# Elastic Compliance Matrix: (Units=1/GPa)
#
#
# Indices 1 2 3 4 5 6 
#
# 1 0.026804 -0.002236 -0.002212 0.000000 0.000000 0.000000
# 2 -0.002236 0.006494 -0.000908 0.000000 0.000000 0.000000
# 3 -0.002212 -0.000908 0.008620 0.000000 0.000000 0.000000
# 4 0.000000 0.000000 0.000000 0.028728 0.000000 0.000000
# 5 0.000000 0.000000 0.000000 0.000000 0.057269 0.000000
# 6 0.000000 0.000000 0.000000 0.000000 0.000000 0.322087
#
#
# Mechanical properties :
#
#
# Convention : Reuss Voigt Hill
#
# Bulk Modulus (GPa) = 32.04430 46.55644 39.30037
# Shear Modulus (GPa) = 10.61313 29.40546 20.00929
#
# Velocity S-wave (km/s) = 2.20980 3.67829 3.03423
# Velocity P-wave (km/s) = 4.61031 6.28180 5.50980
#
# Compressibility (1/GPa) = 0.03120680
#
# Stress axis : x y z
#
# Youngs Moduli (GPa) = 37.30755 153.99063 116.01220
#
# Poissons Ratio (x) = 0.34426 0.25660
# Poissons Ratio (y) = 0.08341 0.10535
# Poissons Ratio (z) = 0.08252 0.13984
#
# Static dielectric constant tensor:
#      x y z
#    x 1.722210 0.000000 0.000000 
#    y 0.000000 1.839260 0.000000 
#    z 0.000000 0.000000 1.822760 
# 
# From -- ./inp_files/611.got.cif
#   From: 2010.05.17/outbox.cif.g08.bks.cpg/sg54_1_cif.got.tgz:611.got - 2010.06.03 13:09:01.
