data_PCOD9420381
_publ_section_title
;
Structure prediction by ZEFSAII (Michael W. Deem and Ramdas Pophale) SiO2 
 PCOD9420381
Probable space group: P C C A
;
_chemical_formula_sum "Si O2"
_cell_formula_units_Z 48
_cell_length_a 9.673773
_cell_length_b 7.835769
_cell_length_c 28.752200
_cell_angle_alpha 90.000000
_cell_angle_beta 90.000000
_cell_angle_gamma 90.000000
_cell_volume 2179.458468
_symmetry_space_group_name_H-M "P C C A"
_symmetry_group_IT_number 54
_symmetry_cell_setting 'orthorhombic'
loop_
_space_group_symop_operation_xyz
x,y,z
1/2-x,-y,z
1/2+x,-y,1/2-z
-x,y,1/2-z
-x,-y,-z
1/2+x,y,-z
1/2-x,y,1/2+z
x,-y,1/2+z
loop_
_atom_site_type_symbol
_atom_site_label
_atom_site_fract_x
_atom_site_fract_y
_atom_site_fract_z
Si Si1 0.107092 0.400523 0.382741
Si Si2 0.016463 0.696557 0.981963
Si Si3 0.767682 0.710413 0.446646
Si Si4 0.644751 0.662881 0.220439
Si Si5 0.138863 0.111331 0.726037
Si Si6 0.361152 0.362094 0.147812
O O1 0.250000 0.500000 0.385361
O O2 0.088614 0.305237 0.431463
O O3 0.104269 0.303606 0.333338
O O4 0.983481 0.536996 0.377573
O O5 0.868496 0.774519 0.971832
O O6 0.104895 0.773585 0.023194
O O7 0.000000 0.500000 0.000000
O O8 0.750000 0.500000 0.447872
O O9 0.786427 0.746059 0.392429
O O10 0.750000 0.500000 0.221559
O O11 0.500000 0.641586 0.250000
O O12 0.747972 0.809004 0.238723
O O13 0.085018 0.255991 0.691038
O O14 0.000000 0.039443 0.750000
O O15 0.250000 0.000000 0.697171
O O16 0.250000 0.500000 0.165631
#
# Coordination Sequence:
#
# PCOD9420381 Si02
#       6
#     8   8   8   8   8   8
#     4  11  19  28  50  82 115 149 183 227 286 339
#     4  10  16  28  44  75 121 148 180 223 280 333
#     4   9  17  28  46  78 116 152 179 223 280 337
#     4  11  22  37  59  88 119 153 191 244 295 351
#     4  12  26  44  60  81 112 155 200 251 301 357
#     4  11  20  36  59  85 117 150 191 235 290 348
#
# _framework density 22.023820000000001
#
# number of rings (size 3 to 8) (size 9 to 14) (size 15 to 20)
#    0.000    1.333    5.000    7.000    0.000    0.000 
#    0.000    0.000    0.000    0.000    0.000    2.333 
#    0.000    0.000    0.000    0.000    0.000    0.000 
#
# Total GULP energy -267623.312045 kJ/mol
# GULP energy per Si atom -5575.485668 kJ/mol
# Density = 2.197369 g / cm^3
# Si number density = 22.023820 Si / 1000 Ang^3
#
#
#
# Elastic Constant Matrix: (Units=GPa)
#
#
# Indices 1 2 3 4 5 6 
#
# 1 122.9347 6.7027 9.4575 0.0000 0.0000 0.0000
# 2 6.7027 20.5679 2.2520 0.0000 0.0000 0.0000
# 3 9.4575 2.2520 119.2578 0.0000 0.0000 0.0000
# 4 0.0000 0.0000 0.0000 -0.3976 0.0000 0.0000
# 5 0.0000 0.0000 0.0000 0.0000 -60.2562 0.0000
# 6 0.0000 0.0000 0.0000 0.0000 0.0000 15.3074
#
#
#
# Elastic Compliance Matrix: (Units=1/GPa)
#
#
# Indices 1 2 3 4 5 6 
#
# 1 0.008326 -0.002646 -0.000610 0.000000 0.000000 0.000000
# 2 -0.002646 0.049561 -0.000726 0.000000 0.000000 0.000000
# 3 -0.000610 -0.000726 0.008447 0.000000 0.000000 0.000000
# 4 0.000000 0.000000 0.000000 -2.514794 0.000000 0.000000
# 5 0.000000 0.000000 0.000000 0.000000 -0.016596 0.000000
# 6 0.000000 0.000000 0.000000 0.000000 0.000000 0.065328
#
#
# Mechanical properties :
#
#
# Convention : Reuss Voigt Hill
#
# Bulk Modulus (GPa) = 17.13238 33.28719 25.20979
# Shear Modulus (GPa) = -2.10765 7.22060 2.55647
#
# Velocity S-wave (km/s) = -0.97932 1.81264 1.07856
# Velocity P-wave (km/s) = 2.55287 4.41903 3.60867
#
# Compressibility (1/GPa) = 0.05836899
#
# Stress axis : x y z
#
# Youngs Moduli (GPa) = 120.11096 20.17701 118.38103
#
# Poissons Ratio (x) = 0.05340 0.07224
# Poissons Ratio (y) = 0.31786 0.08595
# Poissons Ratio (z) = 0.07330 0.01465
#
# Static dielectric constant tensor:
#      x y z
#    x 1.874030 0.000000 0.000000 
#    y 0.000000 2.094390 0.000000 
#    z 0.000000 0.000000 1.804810 
# 
# From -- ./inp_files/27688.got.cif
#   From: 2010.05.17/outbox.cif.g08.bks.cpg/sg54_14_cif.got.tgz:27688.got - 2010.06.03 13:09:01.
