data_PCOD9420296
_publ_section_title
;
Structure prediction by ZEFSAII (Michael W. Deem and Ramdas Pophale) SiO2 
 PCOD9420296
Probable space group: P M N A
;
_chemical_formula_sum "Si O2"
_cell_formula_units_Z 48
_cell_length_a 9.000000
_cell_length_b 30.000000
_cell_length_c 9.000000
_cell_angle_alpha 90.000000
_cell_angle_beta 90.000000
_cell_angle_gamma 90.000000
_cell_volume 2430.000000
_symmetry_space_group_name_H-M "P M N A"
_symmetry_group_IT_number 53
_symmetry_cell_setting 'orthorhombic'
loop_
_space_group_symop_operation_xyz
x,y,z
1/2-x,-y,1/2+z
x,-y,-z
1/2-x,y,1/2-z
-x,-y,-z
1/2+x,y,1/2-z
-x,y,z
1/2+x,-y,1/2+z
loop_
_atom_site_type_symbol
_atom_site_label
_atom_site_fract_x
_atom_site_fract_y
_atom_site_fract_z
Si Si1 0.678675 0.727454 0.089219
Si Si2 0.177590 0.117311 0.592386
Si Si3 0.321176 0.457520 0.089687
Si Si4 0.831152 0.043494 0.099789
Si Si5 0.321275 0.195326 0.409475
Si Si6 0.677154 0.359455 0.088380
O O1 0.750000 0.736242 0.250000
O O2 0.500000 0.735124 0.092739
O O3 0.757086 0.757902 0.965566
O O4 0.710147 0.677576 0.033596
O O5 0.250000 0.106135 0.750000
O O6 0.227116 0.079276 0.479083
O O7 0.256823 0.161258 0.530445
O O8 0.000000 0.122112 0.601992
O O9 0.250000 0.459718 0.250000
O O10 0.500000 0.459647 0.099200
O O11 0.280842 0.408556 0.030659
O O12 0.267675 0.500000 0.000000
O O13 0.750000 0.030797 0.250000
O O14 0.000000 0.060920 0.122570
O O15 0.841197 0.000000 0.000000
O O16 0.250000 0.184076 0.250000
O O17 0.500000 0.194494 0.402766
O O18 0.750000 0.351466 0.250000
O O19 0.500000 0.358569 0.113218
#
# Coordination Sequence:
#
# PCOD9420296 Si02
#       6
#     8   8   8   8   8   8
#     4  11  23  39  58  84 116 150 190 236 289 344
#     4  12  25  43  66  93 126 162 202 248 299 352
#     4   9  18  33  52  76 107 142 182 228 278 334
#     4  11  24  42  65  94 128 166 208 253 302 355
#     4  12  25  43  65  90 120 155 196 240 291 348
#     4   9  19  35  55  78 107 144 185 230 280 337
#
# _framework density 19.753086
#
# number of rings (size 3 to 8) (size 9 to 14) (size 15 to 20)
#    0.000    1.333    0.000    6.000    0.000    6.333 
#    0.000    0.000    0.000    0.000    0.000    0.000 
#    0.000    0.000    0.000    0.000    0.000    0.000 
#
# Total GULP energy -268079.162484 kJ/mol
# GULP energy per Si atom -5584.982552 kJ/mol
# Density = 1.970813 g / cm^3
# Si number density = 19.753086 Si / 1000 Ang^3
#
#
#
# Elastic Constant Matrix: (Units=GPa)
#
#
# Indices 1 2 3 4 5 6 
#
# 1 122.1858 25.1525 30.0171 0.0000 0.0000 0.0000
# 2 25.1525 68.4834 1.9693 0.0000 0.0000 0.0000
# 3 30.0171 1.9693 59.6913 0.0000 0.0000 0.0000
# 4 0.0000 0.0000 0.0000 21.3265 0.0000 0.0000
# 5 0.0000 0.0000 0.0000 0.0000 23.0506 0.0000
# 6 0.0000 0.0000 0.0000 0.0000 0.0000 13.3835
#
#
#
# Elastic Compliance Matrix: (Units=1/GPa)
#
#
# Indices 1 2 3 4 5 6 
#
# 1 0.010146 -0.003583 -0.004984 0.000000 0.000000 0.000000
# 2 -0.003583 0.015881 0.001278 0.000000 0.000000 0.000000
# 3 -0.004984 0.001278 0.019217 0.000000 0.000000 0.000000
# 4 0.000000 0.000000 0.000000 0.046890 0.000000 0.000000
# 5 0.000000 0.000000 0.000000 0.000000 0.043383 0.000000
# 6 0.000000 0.000000 0.000000 0.000000 0.000000 0.074719
#
#
# Mechanical properties :
#
#
# Convention : Reuss Voigt Hill
#
# Bulk Modulus (GPa) = 32.60934 40.51536 36.56235
# Shear Modulus (GPa) = 21.27321 24.43354 22.85338
#
# Velocity S-wave (km/s) = 3.28526 3.52084 3.40509
# Velocity P-wave (km/s) = 5.56192 6.08965 5.83176
#
# Compressibility (1/GPa) = 0.03066606
#
# Stress axis : x y z
#
# Youngs Moduli (GPa) = 98.55810 62.96688 52.03712
#
# Poissons Ratio (x) = 0.22562 0.25936
# Poissons Ratio (y) = 0.35315 -0.06650
# Poissons Ratio (z) = 0.49122 -0.08047
#
# Static dielectric constant tensor:
#      x y z
#    x 1.661400 0.000000 0.000000 
#    y 0.000000 1.803260 0.000000 
#    z 0.000000 0.000000 1.782470 
# 
# From -- ./inp_files/6719.got.cif
#   From: 2010.05.17/outbox.ucp.g08.bks.cvg/sg53_4_cif.got.tgz:6719.got - 2010.06.11 16:32:34.
