data_PCOD9420433
_publ_section_title
;
Structure prediction by ZEFSAII (Michael W. Deem and Ramdas Pophale) SiO2 
 PCOD9420433
Probable space group: P C C A
;
_chemical_formula_sum "Si O2"
_cell_formula_units_Z 44
_cell_length_a 8.665124
_cell_length_b 13.181850
_cell_length_c 17.978766
_cell_angle_alpha 90.000000
_cell_angle_beta 90.000000
_cell_angle_gamma 90.000000
_cell_volume 2053.577169
_symmetry_space_group_name_H-M "P C C A"
_symmetry_group_IT_number 54
_symmetry_cell_setting 'orthorhombic'
loop_
_space_group_symop_operation_xyz
x,y,z
1/2-x,-y,z
1/2+x,-y,1/2-z
-x,y,1/2-z
-x,-y,-z
1/2+x,y,-z
1/2-x,y,1/2+z
x,-y,1/2+z
loop_
_atom_site_type_symbol
_atom_site_label
_atom_site_fract_x
_atom_site_fract_y
_atom_site_fract_z
Si Si1 0.445358 0.604185 0.831377
Si Si2 0.772606 0.215127 0.197859
Si Si3 0.906116 0.197495 0.365518
Si Si4 0.000000 0.080426 0.750000
Si Si5 0.750000 0.000000 0.361651
Si Si6 0.250000 0.500000 0.440863
Si Si7 0.265097 0.384153 0.084387
O O1 0.500000 0.571214 0.750000
O O2 0.296119 0.674878 0.820750
O O3 0.395001 0.518116 0.888461
O O4 0.586096 0.659909 0.873050
O O5 0.159487 0.211359 0.218604
O O6 0.621036 0.145616 0.202266
O O7 0.910543 0.181902 0.143656
O O8 0.870062 0.304454 0.403983
O O9 0.807214 0.104016 0.400348
O O10 0.104912 0.019592 0.692738
O O11 0.219194 0.407325 0.497081
O O12 0.250000 0.500000 0.116328
#
# Coordination Sequence:
#
# PCOD9420433 Si02
#       7
#     8   8   8   4   4   4   8
#     4  12  22  40  63  95 127 174 227 282 324 403
#     4  10  20  33  58  91 131 172 223 282 349 385
#     4  10  20  37  57  93 131 180 225 282 333 403
#     4  10  16  32  48  90 130 164 212 284 360 400
#     4  10  18  30  60  88 128 178 226 282 338 390
#     4  10  28  40  66  92 132 182 222 270 342 404
#     4  10  24  44  59  88 138 178 225 267 341 402
#
# _framework density 21.426027999999999
#
# number of rings (size 3 to 8) (size 9 to 14) (size 15 to 20)
#    0.545    1.091    2.727    3.818    3.818    0.000 
#    0.000    0.000    0.000    0.000    0.000   16.545 
#    0.000    0.000    0.000    0.000    0.000    0.000 
#
# Total GULP energy -245347.138318 kJ/mol
# GULP energy per Si atom -5576.071325 kJ/mol
# Density = 2.137726 g / cm^3
# Si number density = 21.426028 Si / 1000 Ang^3
#
#
#
# Elastic Constant Matrix: (Units=GPa)
#
#
# Indices 1 2 3 4 5 6 
#
# 1 134.2309 36.6401 31.7321 0.0000 0.0000 0.0000
# 2 36.6401 105.1530 19.1673 0.0000 0.0000 0.0000
# 3 31.7321 19.1673 79.3084 0.0000 0.0000 0.0000
# 4 0.0000 0.0000 0.0000 11.5131 0.0000 0.0000
# 5 0.0000 0.0000 0.0000 0.0000 5.6330 0.0000
# 6 0.0000 0.0000 0.0000 0.0000 0.0000 11.6699
#
#
#
# Elastic Compliance Matrix: (Units=1/GPa)
#
#
# Indices 1 2 3 4 5 6 
#
# 1 0.008835 -0.002546 -0.002920 0.000000 0.000000 0.000000
# 2 -0.002546 0.010682 -0.001563 0.000000 0.000000 0.000000
# 3 -0.002920 -0.001563 0.014155 0.000000 0.000000 0.000000
# 4 0.000000 0.000000 0.000000 0.086858 0.000000 0.000000
# 5 0.000000 0.000000 0.000000 0.000000 0.177526 0.000000
# 6 0.000000 0.000000 0.000000 0.000000 0.000000 0.085691
#
#
# Mechanical properties :
#
#
# Convention : Reuss Voigt Hill
#
# Bulk Modulus (GPa) = 50.98279 54.86350 52.92315
# Shear Modulus (GPa) = 12.36576 21.17338 16.76957
#
# Velocity S-wave (km/s) = 2.40497 3.14699 2.80066
# Velocity P-wave (km/s) = 5.61768 6.23429 5.93400
#
# Compressibility (1/GPa) = 0.01961446
#
# Stress axis : x y z
#
# Youngs Moduli (GPa) = 113.18484 93.61460 70.64705
#
# Poissons Ratio (x) = 0.23838 0.20626
# Poissons Ratio (y) = 0.28821 0.11041
# Poissons Ratio (z) = 0.33046 0.14630
#
# Static dielectric constant tensor:
#      x y z
#    x 1.888360 0.000000 0.000000 
#    y 0.000000 1.900600 0.000000 
#    z 0.000000 0.000000 1.737680 
# 
# From -- ./inp_files/12599.got.cif
#   From: 2010.05.17/outbox.cif.g08.bks.cpg/sg54_7_cif.got.tgz:12599.got - 2010.06.03 13:09:01.
