data_PCOD9420892
_publ_section_title
;
Structure prediction by ZEFSAII (Michael W. Deem and Ramdas Pophale) SiO2 
 PCOD9420892
Probable space group: P C C A
;
_chemical_formula_sum "Si O2"
_cell_formula_units_Z 56
_cell_length_a 17.881698
_cell_length_b 31.756283
_cell_length_c 5.237842
_cell_angle_alpha 90.000000
_cell_angle_beta 90.000000
_cell_angle_gamma 90.000000
_cell_volume 2974.341380
_symmetry_space_group_name_H-M "P C C A"
_symmetry_group_IT_number 54
_symmetry_cell_setting 'orthorhombic'
loop_
_space_group_symop_operation_xyz
x,y,z
1/2-x,-y,z
1/2+x,-y,1/2-z
-x,y,1/2-z
-x,-y,-z
1/2+x,y,-z
1/2-x,y,1/2+z
x,-y,1/2+z
loop_
_atom_site_type_symbol
_atom_site_label
_atom_site_fract_x
_atom_site_fract_y
_atom_site_fract_z
Si Si1 0.952913 0.337600 0.001354
Si Si2 0.197275 0.103954 0.658625
Si Si3 0.045687 0.560993 0.997600
Si Si4 0.410770 0.973536 0.749153
Si Si5 0.202404 0.193208 0.533813
Si Si6 0.217427 0.452723 0.500974
Si Si7 0.800823 0.711650 0.424439
O O1 0.946339 0.388316 0.012783
O O2 0.870979 0.318110 0.976150
O O3 0.000000 0.326771 0.750000
O O4 0.000000 0.324051 0.250000
O O5 0.252579 0.100586 0.414831
O O6 0.136078 0.067689 0.679612
O O7 0.160956 0.150452 0.616302
O O8 0.000000 0.550288 0.250000
O O9 0.129071 0.543687 0.002197
O O10 0.000000 0.547377 0.750000
O O11 0.500000 0.965481 0.750000
O O12 0.393079 0.007795 0.528624
O O13 0.228598 0.191481 0.238603
O O14 0.170251 0.239752 0.571248
O O15 0.250000 0.500000 0.500078
O O16 0.250304 0.430894 0.750490
O O17 0.740695 0.705908 0.653229
#
# Coordination Sequence:
#
# PCOD9420892 Si02
#       7
#     8   8   8   8   8   8   8
#     4  10  21  36  54  80 113 142 174 220 268 310
#     4  10  19  32  52  74  96 126 166 209 247 293
#     4  10  21  38  58  79 108 147 181 214 267 328
#     4  10  21  35  49  68  98 130 159 202 257 305
#     4   8  16  30  48  72 101 129 162 206 251 295
#     4  10  21  38  56  81 111 138 176 229 270 303
#     4  10  19  33  55  80 105 140 180 212 255 318
#
# _framework density 18.827698999999999
#
# number of rings (size 3 to 8) (size 9 to 14) (size 15 to 20)
#    0.000    2.286    0.000    2.571    0.000    2.857 
#    0.000    9.286    0.000    2.571    0.000    0.000 
#    0.000    0.000    0.000    0.000    0.000    0.000 
#
# Total GULP energy -312314.086415 kJ/mol
# GULP energy per Si atom -5577.037257 kJ/mol
# Density = 1.878485 g / cm^3
# Si number density = 18.827699 Si / 1000 Ang^3
#
#
#
# Elastic Constant Matrix: (Units=GPa)
#
#
# Indices 1 2 3 4 5 6 
#
# 1 114.4562 44.1289 52.1207 0.0000 0.0000 0.0000
# 2 44.1289 78.1728 23.6822 0.0000 0.0000 0.0000
# 3 52.1207 23.6822 154.4157 0.0000 0.0000 0.0000
# 4 0.0000 0.0000 0.0000 16.4284 0.0000 0.0000
# 5 0.0000 0.0000 0.0000 0.0000 22.7777 0.0000
# 6 0.0000 0.0000 0.0000 0.0000 0.0000 46.5580
#
#
#
# Elastic Compliance Matrix: (Units=1/GPa)
#
#
# Indices 1 2 3 4 5 6 
#
# 1 0.012603 -0.006110 -0.003317 0.000000 0.000000 0.000000
# 2 -0.006110 0.016377 -0.000450 0.000000 0.000000 0.000000
# 3 -0.003317 -0.000450 0.007665 0.000000 0.000000 0.000000
# 4 0.000000 0.000000 0.000000 0.060870 0.000000 0.000000
# 5 0.000000 0.000000 0.000000 0.000000 0.043903 0.000000
# 6 0.000000 0.000000 0.000000 0.000000 0.000000 0.021479
#
#
# Mechanical properties :
#
#
# Convention : Reuss Voigt Hill
#
# Bulk Modulus (GPa) = 59.19721 65.21201 62.20461
# Shear Modulus (GPa) = 26.55629 32.29367 29.42498
#
# Velocity S-wave (km/s) = 3.75972 4.14602 3.95759
# Velocity P-wave (km/s) = 7.09628 7.59149 7.34806
#
# Compressibility (1/GPa) = 0.01689269
#
# Stress axis : x y z
#
# Youngs Moduli (GPa) = 79.34622 61.06030 130.47082
#
# Poissons Ratio (x) = 0.37305 0.43276
# Poissons Ratio (y) = 0.48477 0.05865
# Poissons Ratio (z) = 0.26319 0.02745
#
# Static dielectric constant tensor:
#      x y z
#    x 1.624950 0.000000 0.000000 
#    y 0.000000 1.680570 0.000000 
#    z 0.000000 0.000000 1.675650 
# 
# From -- ./inp_files/741.got.cif
#   From: 2010.05.17/outbox.cif.g08.bks.cpg/sg54_1_cif.got.tgz:741.got - 2010.06.03 13:09:01.
