data_PCOD9420659
_publ_section_title
;
Structure prediction by ZEFSAII (Michael W. Deem and Ramdas Pophale) SiO2 
 PCOD9420659
Probable space group: P C C A
;
_chemical_formula_sum "Si O2"
_cell_formula_units_Z 40
_cell_length_a 8.738944
_cell_length_b 10.852056
_cell_length_c 20.906282
_cell_angle_alpha 90.000000
_cell_angle_beta 90.000000
_cell_angle_gamma 90.000000
_cell_volume 1982.657909
_symmetry_space_group_name_H-M "P C C A"
_symmetry_group_IT_number 54
_symmetry_cell_setting 'orthorhombic'
loop_
_space_group_symop_operation_xyz
x,y,z
1/2-x,-y,z
1/2+x,-y,1/2-z
-x,y,1/2-z
-x,-y,-z
1/2+x,y,-z
1/2-x,y,1/2+z
x,-y,1/2+z
loop_
_atom_site_type_symbol
_atom_site_label
_atom_site_fract_x
_atom_site_fract_y
_atom_site_fract_z
Si Si1 0.771672 0.687724 0.026289
Si Si2 0.823336 0.688634 0.390107
Si Si3 0.903332 0.076981 0.814140
Si Si4 0.414785 0.059194 0.439448
Si Si5 0.029057 0.433754 0.076980
O O1 0.872976 0.795013 0.056604
O O2 0.638728 0.627223 0.069964
O O3 0.882995 0.586935 0.991941
O O4 0.691231 0.744688 0.962388
O O5 0.868260 0.783915 0.336528
O O6 0.647611 0.644848 0.379375
O O7 0.936368 0.571233 0.397499
O O8 0.000000 0.073464 0.750000
O O9 0.993476 0.026366 0.875718
O O10 0.750000 0.000000 0.805650
O O11 0.250000 0.000000 0.436028
O O12 0.500000 0.000000 0.500000
#
# Coordination Sequence:
#
# PCOD9420659 Si02
#       5
#     8   8   8   8   8
#     4  10  18  33  60 101 137 174 213 265 344 392
#     4   9  20  36  63  90 132 168 218 264 335 394
#     4  12  27  48  68  90 127 177 227 281 347 421
#     4  12  24  39  64 103 136 175 222 284 335 399
#     4   9  19  32  60  95 134 175 207 268 329 407
#
# _framework density 20.174935999999999
#
# number of rings (size 3 to 8) (size 9 to 14) (size 15 to 20)
#    1.200    0.400    0.000    6.600    2.800    0.000 
#    0.000    0.000    8.800    0.000    0.000    0.000 
#    0.000    0.000    0.000    0.000    0.000    0.000 
#
# Total GULP energy -222972.923325 kJ/mol
# GULP energy per Si atom -5574.323083 kJ/mol
# Density = 2.012902 g / cm^3
# Si number density = 20.174936 Si / 1000 Ang^3
#
#
#
# Elastic Constant Matrix: (Units=GPa)
#
#
# Indices 1 2 3 4 5 6 
#
# 1 167.2183 81.4787 74.9335 0.0000 0.0000 0.0000
# 2 81.4787 117.7047 55.3481 0.0000 0.0000 0.0000
# 3 74.9335 55.3481 135.4876 0.0000 0.0000 0.0000
# 4 0.0000 0.0000 0.0000 16.1939 0.0000 0.0000
# 5 0.0000 0.0000 0.0000 0.0000 37.1110 0.0000
# 6 0.0000 0.0000 0.0000 0.0000 0.0000 41.0421
#
#
#
# Elastic Compliance Matrix: (Units=1/GPa)
#
#
# Indices 1 2 3 4 5 6 
#
# 1 0.010146 -0.005427 -0.003394 0.000000 0.000000 0.000000
# 2 -0.005427 0.013419 -0.002480 0.000000 0.000000 0.000000
# 3 -0.003394 -0.002480 0.010271 0.000000 0.000000 0.000000
# 4 0.000000 0.000000 0.000000 0.061752 0.000000 0.000000
# 5 0.000000 0.000000 0.000000 0.000000 0.026946 0.000000
# 6 0.000000 0.000000 0.000000 0.000000 0.000000 0.024365
#
#
# Mechanical properties :
#
#
# Convention : Reuss Voigt Hill
#
# Bulk Modulus (GPa) = 89.02572 93.77013 91.39793
# Shear Modulus (GPa) = 28.86075 32.77943 30.82009
#
# Velocity S-wave (km/s) = 3.78633 4.03520 3.91275
# Velocity P-wave (km/s) = 7.95850 8.26377 8.11257
#
# Compressibility (1/GPa) = 0.01123271
#
# Stress axis : x y z
#
# Youngs Moduli (GPa) = 98.56524 74.52185 97.36014
#
# Poissons Ratio (x) = 0.40443 0.33046
# Poissons Ratio (y) = 0.53492 0.24148
# Poissons Ratio (z) = 0.33455 0.18483
#
# Static dielectric constant tensor:
#      x y z
#    x 1.846030 0.000000 0.000000 
#    y 0.000000 2.051940 0.000000 
#    z 0.000000 0.000000 1.676610 
# 
# From -- ./inp_files/16307.got.cif
#   From: 2010.05.17/outbox.cif.g08.bks.cpg/sg54_9_cif.got.tgz:16307.got - 2010.06.03 13:09:01.
