data_PCOD9420378
_publ_section_title
;
Structure prediction by ZEFSAII (Michael W. Deem and Ramdas Pophale) SiO2 
 PCOD9420378
Probable space group: P C C A
;
_chemical_formula_sum "Si O2"
_cell_formula_units_Z 64
_cell_length_a 19.243514
_cell_length_b 30.941835
_cell_length_c 5.533499
_cell_angle_alpha 90.000000
_cell_angle_beta 90.000000
_cell_angle_gamma 90.000000
_cell_volume 3294.809290
_symmetry_space_group_name_H-M "P C C A"
_symmetry_group_IT_number 54
_symmetry_cell_setting 'orthorhombic'
loop_
_space_group_symop_operation_xyz
x,y,z
1/2-x,-y,z
1/2+x,-y,1/2-z
-x,y,1/2-z
-x,-y,-z
1/2+x,y,-z
1/2-x,y,1/2+z
x,-y,1/2+z
loop_
_atom_site_type_symbol
_atom_site_label
_atom_site_fract_x
_atom_site_fract_y
_atom_site_fract_z
Si Si1 0.418105 0.834552 0.250000
Si Si2 0.245260 0.234134 0.750000
Si Si3 0.604879 0.267814 0.750000
Si Si4 0.384906 0.701686 0.750000
Si Si5 0.293677 0.617172 0.750001
Si Si6 0.915052 0.876397 0.250000
Si Si7 0.415428 0.022692 0.250000
Si Si8 0.829983 0.517640 0.249999
O O1 0.500000 0.845263 0.250000
O O2 0.411222 0.782955 0.250000
O O3 0.390452 0.853751 0.502277
O O4 0.390452 0.853751 0.997723
O O5 0.250000 0.209101 0.500000
O O6 0.309838 0.268208 0.750000
O O7 0.174840 0.261133 0.750000
O O8 0.579039 0.289713 0.505243
O O9 0.579039 0.289713 0.994756
O O10 0.349730 0.655144 0.750000
O O11 0.250000 0.621208 0.500001
O O12 0.325876 0.569236 0.750001
O O13 0.896729 0.926846 0.250000
O O14 0.000000 0.873365 0.250000
O O15 0.500000 0.020467 0.250000
O O16 0.392360 1.000000 0.500000
O O17 0.750000 0.500000 0.249999
O O18 0.861502 0.500000 0.499999
#
# Coordination Sequence:
#
# PCOD9420378 Si02
#       8
#     8   8   8   8   8   8   8   8
#     4  10  19  30  44  58  76 110 143 173 204 234
#     4   8  14  25  37  52  74  92 123 156 193 233
#     4  10  18  30  41  55  80  98 135 176 206 237
#     4  10  19  28  40  60  75 102 135 170 202 241
#     4  12  18  25  41  54  78 105 138 175 191 222
#     4   9  17  28  40  58  80 102 141 173 191 237
#     4   9  15  23  37  56  78 103 128 162 200 227
#     4  10  16  27  33  51  74 104 137 167 179 223
#
# _framework density 19.424492000000001
#
# number of rings (size 3 to 8) (size 9 to 14) (size 15 to 20)
#    0.000    2.250    2.500    4.500    0.000    3.000 
#    0.000    0.000    0.000    0.000    0.000    0.000 
#    0.000    0.000    0.000    0.000    0.000  406.250 
#
# Total GULP energy -356629.198732 kJ/mol
# GULP energy per Si atom -5572.331230 kJ/mol
# Density = 1.938028 g / cm^3
# Si number density = 19.424492 Si / 1000 Ang^3
#
#
#
# Elastic Constant Matrix: (Units=GPa)
#
#
# Indices 1 2 3 4 5 6 
#
# 1 32.8152 -1.6818 12.6972 0.0000 0.0000 0.0000
# 2 -1.6818 155.0191 107.4946 0.0000 0.0000 0.0000
# 3 12.6972 107.4946 276.8683 0.0000 0.0000 0.0000
# 4 0.0000 0.0000 0.0000 38.0285 0.0000 0.0000
# 5 0.0000 0.0000 0.0000 0.0000 -9.6711 0.0000
# 6 0.0000 0.0000 0.0000 0.0000 0.0000 15.8606
#
#
#
# Elastic Compliance Matrix: (Units=1/GPa)
#
#
# Indices 1 2 3 4 5 6 
#
# 1 0.031400 0.001833 -0.002152 0.000000 0.000000 0.000000
# 2 0.001833 0.008934 -0.003553 0.000000 0.000000 0.000000
# 3 -0.002152 -0.003553 0.005090 0.000000 0.000000 0.000000
# 4 0.000000 0.000000 0.000000 0.026296 0.000000 0.000000
# 5 0.000000 0.000000 0.000000 0.000000 -0.103401 0.000000
# 6 0.000000 0.000000 0.000000 0.000000 0.000000 0.063049
#
#
# Mechanical properties :
#
#
# Convention : Reuss Voigt Hill
#
# Bulk Modulus (GPa) = 26.53875 77.96919 52.25397
# Shear Modulus (GPa) = 96.76399 31.92312 64.34355
#
# Velocity S-wave (km/s) = 7.06566 4.05834 5.76167
# Velocity P-wave (km/s) = 8.95863 7.88587 8.43931
#
# Compressibility (1/GPa) = 0.03768076
#
# Stress axis : x y z
#
# Youngs Moduli (GPa) = 31.84708 111.92801 196.46847
#
# Poissons Ratio (x) = -0.20512 0.42270
# Poissons Ratio (y) = -0.05836 0.69801
# Poissons Ratio (z) = 0.06852 0.39766
#
# Static dielectric constant tensor:
#      x y z
#    x 1.696390 0.000000 0.000000 
#    y 0.000000 1.624120 0.000000 
#    z 0.000000 0.000000 1.767950 
# 
# From -- ./inp_files/2039.got.cif
#   From: 2010.05.17/outbox.cif.g08.bks.cpg/sg54_2_cif.got.tgz:2039.got - 2010.06.03 13:09:01.
