data_PCOD9420649
_publ_section_title
;
Structure prediction by ZEFSAII (Michael W. Deem and Ramdas Pophale) SiO2 
 PCOD9420649
Probable space group: P C C A
;
_chemical_formula_sum "Si O2"
_cell_formula_units_Z 56
_cell_length_a 17.314768
_cell_length_b 7.788420
_cell_length_c 16.631198
_cell_angle_alpha 90.000000
_cell_angle_beta 90.000000
_cell_angle_gamma 90.000000
_cell_volume 2242.794974
_symmetry_space_group_name_H-M "P C C A"
_symmetry_group_IT_number 54
_symmetry_cell_setting 'orthorhombic'
loop_
_space_group_symop_operation_xyz
x,y,z
1/2-x,-y,z
1/2+x,-y,1/2-z
-x,y,1/2-z
-x,-y,-z
1/2+x,y,-z
1/2-x,y,1/2+z
x,-y,1/2+z
loop_
_atom_site_type_symbol
_atom_site_label
_atom_site_fract_x
_atom_site_fract_y
_atom_site_fract_z
Si Si1 0.177349 0.113972 0.149607
Si Si2 0.280254 0.685399 0.547075
Si Si3 0.903075 0.220808 0.831986
Si Si4 0.519155 0.199528 0.028570
Si Si5 0.863250 0.155848 0.650599
Si Si6 0.792786 0.671721 0.704689
Si Si7 0.100515 0.225906 0.412508
O O1 0.208006 0.195235 0.068470
O O2 0.167799 0.254429 0.216444
O O3 0.250000 0.000000 0.179593
O O4 0.108986 0.981472 0.146655
O O5 0.250000 0.500000 0.521663
O O6 0.329279 0.678940 0.630832
O O7 0.339740 0.777214 0.487313
O O8 0.971809 0.262450 0.892535
O O9 0.902080 0.221108 0.735043
O O10 0.603489 0.225386 0.065872
O O11 0.481745 0.282311 0.949031
O O12 0.500000 0.000000 0.000000
O O13 0.773032 0.203621 0.664361
O O14 0.887904 0.953384 0.637246
O O15 0.750000 0.500000 0.723639
O O16 0.861696 0.633232 0.643848
#
# Coordination Sequence:
#
# PCOD9420649 Si02
#       7
#     8   8   8   8   8   8   8
#     4  10  18  33  55  87 116 152 197 252 302 359
#     4  10  20  34  55  90 127 155 197 254 318 372
#     4  10  19  34  59  88 118 162 205 253 309 369
#     4   9  21  37  59  89 117 160 211 260 310 372
#     4  11  20  37  61  88 121 162 211 258 310 376
#     4  12  22  35  59  92 124 162 204 261 318 371
#     4  10  21  38  57  87 125 158 206 259 310 375
#
# _framework density 24.968845000000002
#
# number of rings (size 3 to 8) (size 9 to 14) (size 15 to 20)
#    0.000    1.714    4.286    1.714    0.000    6.857 
#    0.000    0.714    0.000    5.143    0.000    0.000 
#    0.000    0.000    0.000    0.000    0.000    0.000 
#
# Total GULP energy -312091.040918 kJ/mol
# GULP energy per Si atom -5573.054302 kJ/mol
# Density = 2.491201 g / cm^3
# Si number density = 24.968845 Si / 1000 Ang^3
#
#
#
# Elastic Constant Matrix: (Units=GPa)
#
#
# Indices 1 2 3 4 5 6 
#
# 1 37.9698 -7.3383 33.4401 0.0000 0.0000 0.0000
# 2 -7.3383 48.5396 4.0528 0.0000 0.0000 0.0000
# 3 33.4401 4.0528 115.6260 0.0000 0.0000 0.0000
# 4 0.0000 0.0000 0.0000 20.0254 0.0000 0.0000
# 5 0.0000 0.0000 0.0000 0.0000 40.7140 0.0000
# 6 0.0000 0.0000 0.0000 0.0000 0.0000 11.9766
#
#
#
# Elastic Compliance Matrix: (Units=1/GPa)
#
#
# Indices 1 2 3 4 5 6 
#
# 1 0.037311 0.006561 -0.011021 0.000000 0.000000 0.000000
# 2 0.006561 0.021816 -0.002662 0.000000 0.000000 0.000000
# 3 -0.011021 -0.002662 0.011929 0.000000 0.000000 0.000000
# 4 0.000000 0.000000 0.000000 0.049937 0.000000 0.000000
# 5 0.000000 0.000000 0.000000 0.000000 0.024562 0.000000
# 6 0.000000 0.000000 0.000000 0.000000 0.000000 0.083496
#
#
# Mechanical properties :
#
#
# Convention : Reuss Voigt Hill
#
# Bulk Modulus (GPa) = 17.60196 29.16054 23.38125
# Shear Modulus (GPa) = 19.06718 26.00858 22.53788
#
# Velocity S-wave (km/s) = 2.76640 3.23095 3.00766
# Velocity P-wave (km/s) = 4.15558 5.06190 4.63096
#
# Compressibility (1/GPa) = 0.05681187
#
# Stress axis : x y z
#
# Youngs Moduli (GPa) = 26.80205 45.83821 83.82845
#
# Poissons Ratio (x) = -0.30074 0.92383
# Poissons Ratio (y) = -0.17584 0.22316
# Poissons Ratio (z) = 0.29537 0.12203
#
# Static dielectric constant tensor:
#      x y z
#    x 2.127550 0.000000 0.000000 
#    y 0.000000 2.098040 0.000000 
#    z 0.000000 0.000000 2.012340 
# 
# From -- ./inp_files/18898.got.cif
#   From: 2010.05.17/outbox.cif.g08.bks.cpg/sg54_10_cif.got.tgz:18898.got - 2010.06.03 13:09:01.
