data_PCOD9420287
_publ_section_title
;
Structure prediction by ZEFSAII (Michael W. Deem and Ramdas Pophale) SiO2 
 PCOD9420287
Probable space group: P M N A
;
_chemical_formula_sum "Si O2"
_cell_formula_units_Z 48
_cell_length_a 12.000000
_cell_length_b 12.000000
_cell_length_c 21.000000
_cell_angle_alpha 90.000000
_cell_angle_beta 90.000000
_cell_angle_gamma 90.000000
_cell_volume 3024.000000
_symmetry_space_group_name_H-M "P M N A"
_symmetry_group_IT_number 53
_symmetry_cell_setting 'orthorhombic'
loop_
_space_group_symop_operation_xyz
x,y,z
1/2-x,-y,1/2+z
x,-y,-z
1/2-x,y,1/2-z
-x,-y,-z
1/2+x,y,1/2-z
-x,y,z
1/2+x,-y,1/2+z
loop_
_atom_site_type_symbol
_atom_site_label
_atom_site_fract_x
_atom_site_fract_y
_atom_site_fract_z
Si Si1 0.691013 0.662352 0.052081
Si Si2 0.000000 0.157760 0.546489
Si Si3 0.710465 0.213992 0.175389
Si Si4 0.865240 0.583019 0.590890
Si Si5 0.000000 0.908090 0.605210
Si Si6 0.633420 0.162022 0.552814
Si Si7 0.866705 0.923055 0.911185
O O1 0.604447 0.763304 0.062753
O O2 0.666867 0.548438 0.090653
O O3 0.808199 0.721293 0.066582
O O4 0.677726 0.629186 0.977466
O O5 0.000000 0.139450 0.468575
O O6 0.000000 0.041252 0.586654
O O7 0.750000 0.216791 0.250000
O O8 0.683049 0.336898 0.146309
O O9 0.605859 0.137959 0.147111
O O10 0.813896 0.156877 0.140055
O O11 0.000000 0.590533 0.591158
O O12 0.500000 0.171151 0.556577
O O13 0.664080 0.125108 0.480700
O O14 0.669075 0.052835 0.593186
O O15 0.000000 0.922711 0.908074
#
# Coordination Sequence:
#
# PCOD9420287 Si02
#       7
#     8   4   8   8   4   8   8
#     4  11  17  31  56  84 110 138 176 234 301 331
#     4  11  18  32  65  90 117 134 172 266 303 327
#     4  12  23  36  55  77 113 152 184 229 264 346
#     4  11  20  35  52  80 112 142 184 232 286 329
#     4  11  22  35  54  95 118 138 191 231 302 346
#     4   9  17  31  53  79 114 139 171 228 275 339
#     4   9  18  33  52  79 108 145 179 214 282 332
#
# _framework density 15.873016
#
# number of rings (size 3 to 8) (size 9 to 14) (size 15 to 20)
#    0.000    1.500    5.833    2.500    1.167    2.667 
#    0.000    2.500    0.000    4.000    0.000    0.000 
#    0.000    0.000    0.000    0.000    0.000    0.000 
#
# Total GULP energy -267238.491461 kJ/mol
# GULP energy per Si atom -5567.468572 kJ/mol
# Density = 1.583689 g / cm^3
# Si number density = 15.873016 Si / 1000 Ang^3
#
#
#
# Elastic Constant Matrix: (Units=GPa)
#
#
# Indices 1 2 3 4 5 6 
#
# 1 45.9530 47.1761 26.7662 0.0000 0.0000 0.0000
# 2 47.1761 156.2745 48.0690 0.0000 0.0000 0.0000
# 3 26.7662 48.0690 81.4811 0.0000 0.0000 0.0000
# 4 0.0000 0.0000 0.0000 21.8383 0.0000 0.0000
# 5 0.0000 0.0000 0.0000 0.0000 18.7612 0.0000
# 6 0.0000 0.0000 0.0000 0.0000 0.0000 37.4138
#
#
#
# Elastic Compliance Matrix: (Units=1/GPa)
#
#
# Indices 1 2 3 4 5 6 
#
# 1 0.033945 -0.008329 -0.006237 0.000000 0.000000 0.000000
# 2 -0.008329 0.009861 -0.003082 0.000000 0.000000 0.000000
# 3 -0.006237 -0.003082 0.016140 0.000000 0.000000 0.000000
# 4 0.000000 0.000000 0.000000 0.045791 0.000000 0.000000
# 5 0.000000 0.000000 0.000000 0.000000 0.053301 0.000000
# 6 0.000000 0.000000 0.000000 0.000000 0.000000 0.026728
#
#
# Mechanical properties :
#
#
# Convention : Reuss Voigt Hill
#
# Bulk Modulus (GPa) = 40.56716 58.63680 49.60198
# Shear Modulus (GPa) = 21.80762 26.38250 24.09506
#
# Velocity S-wave (km/s) = 3.71061 4.08131 3.90036
# Velocity P-wave (km/s) = 6.63106 7.69615 7.18337
#
# Compressibility (1/GPa) = 0.02465048
#
# Stress axis : x y z
#
# Youngs Moduli (GPa) = 29.45969 101.40838 61.95936
#
# Poissons Ratio (x) = 0.84460 0.38646
# Poissons Ratio (y) = 0.24536 0.19093
# Poissons Ratio (z) = 0.18375 0.31249
#
# Static dielectric constant tensor:
#      x y z
#    x 1.591730 0.000000 0.000000 
#    y 0.000000 1.553660 0.000000 
#    z 0.000000 0.000000 1.515710 
# 
# From -- ./inp_files/31929.got.cif
#   From: 2010.05.17/outbox.ucp.g08.bks.cvg/sg53_16_cif.got.tgz:31929.got - 2010.06.11 16:32:34.
