data_PCOD9420648
_publ_section_title
;
Structure prediction by ZEFSAII (Michael W. Deem and Ramdas Pophale) SiO2 
 PCOD9420648
Probable space group: P C C A
;
_chemical_formula_sum "Si O2"
_cell_formula_units_Z 64
_cell_length_a 13.508188
_cell_length_b 12.734339
_cell_length_c 22.170504
_cell_angle_alpha 90.000000
_cell_angle_beta 90.000000
_cell_angle_gamma 90.000000
_cell_volume 3813.722327
_symmetry_space_group_name_H-M "P C C A"
_symmetry_group_IT_number 54
_symmetry_cell_setting 'orthorhombic'
loop_
_space_group_symop_operation_xyz
x,y,z
1/2-x,-y,z
1/2+x,-y,1/2-z
-x,y,1/2-z
-x,-y,-z
1/2+x,y,-z
1/2-x,y,1/2+z
x,-y,1/2+z
loop_
_atom_site_type_symbol
_atom_site_label
_atom_site_fract_x
_atom_site_fract_y
_atom_site_fract_z
Si Si1 0.078733 0.241379 0.295766
Si Si2 0.751986 0.624475 0.143330
Si Si3 0.772865 0.122583 0.289307
Si Si4 0.804533 0.112221 0.430596
Si Si5 0.395835 0.764984 0.780689
Si Si6 0.969496 0.875287 0.582498
Si Si7 0.342744 0.933785 0.875711
Si Si8 0.223202 0.225864 0.461819
O O1 0.157458 0.322237 0.323627
O O2 0.139052 0.158069 0.254977
O O3 0.029031 0.181231 0.351883
O O4 0.000000 0.290892 0.250000
O O5 0.750000 0.500000 0.145947
O O6 0.845761 0.672989 0.179442
O O7 0.745885 0.667526 0.074458
O O8 0.794684 0.135784 0.359814
O O9 0.681162 0.195479 0.269856
O O10 0.750000 0.000000 0.282034
O O11 0.756970 0.204236 0.470600
O O12 0.921762 0.109082 0.443537
O O13 0.750000 0.000000 0.443370
O O14 0.500000 0.740506 0.750000
O O15 0.398511 0.864244 0.826421
O O16 0.891960 0.805717 0.544520
O O17 0.917358 0.987025 0.592830
O O18 0.287009 0.858335 0.922757
O O19 0.250000 0.000000 0.849303
#
# Coordination Sequence:
#
# PCOD9420648 Si02
#       8
#     8   8   8   8   8   8   8   8
#     4  10  18  33  55  79 104 138 170 215 257 309
#     4   9  20  39  60  75  90 127 182 227 269 317
#     4  10  20  31  46  80 120 146 171 197 238 308
#     4  11  22  31  47  81 112 141 177 205 241 301
#     4  10  20  31  50  79 111 135 159 213 271 308
#     4  10  19  32  52  75 105 149 182 197 245 307
#     4   9  17  31  49  70 102 145 181 202 234 300
#     4   9  20  37  51  70 100 134 181 226 253 293
#
# _framework density 16.781504000000002
#
# number of rings (size 3 to 8) (size 9 to 14) (size 15 to 20)
#    0.000    2.250    1.250    4.500    3.500    3.500 
#    2.250    0.000    0.000    6.000    0.000    0.000 
#    0.000    0.000    0.000    0.000    0.000    0.000 
#
# Total GULP energy -356807.518191 kJ/mol
# GULP energy per Si atom -5575.117472 kJ/mol
# Density = 1.674331 g / cm^3
# Si number density = 16.781504 Si / 1000 Ang^3
#
#
#
# Elastic Constant Matrix: (Units=GPa)
#
#
# Indices 1 2 3 4 5 6 
#
# 1 105.1604 26.7867 25.6556 0.0000 0.0000 0.0000
# 2 26.7867 96.3931 29.6814 0.0000 0.0000 0.0000
# 3 25.6556 29.6814 70.9710 0.0000 0.0000 0.0000
# 4 0.0000 0.0000 0.0000 12.4739 0.0000 0.0000
# 5 0.0000 0.0000 0.0000 0.0000 16.8766 0.0000
# 6 0.0000 0.0000 0.0000 0.0000 0.0000 8.6369
#
#
#
# Elastic Compliance Matrix: (Units=1/GPa)
#
#
# Indices 1 2 3 4 5 6 
#
# 1 0.010774 -0.002060 -0.003033 0.000000 0.000000 0.000000
# 2 -0.002060 0.012302 -0.004400 0.000000 0.000000 0.000000
# 3 -0.003033 -0.004400 0.017027 0.000000 0.000000 0.000000
# 4 0.000000 0.000000 0.000000 0.080167 0.000000 0.000000
# 5 0.000000 0.000000 0.000000 0.000000 0.059254 0.000000
# 6 0.000000 0.000000 0.000000 0.000000 0.000000 0.115783
#
#
# Mechanical properties :
#
#
# Convention : Reuss Voigt Hill
#
# Bulk Modulus (GPa) = 47.35761 48.53022 47.94392
# Shear Modulus (GPa) = 15.56028 20.29086 17.92557
#
# Velocity S-wave (km/s) = 3.04834 3.48101 3.27184
# Velocity P-wave (km/s) = 6.37740 6.71850 6.55017
#
# Compressibility (1/GPa) = 0.02111593
#
# Stress axis : x y z
#
# Youngs Moduli (GPa) = 92.81594 81.29080 58.73043
#
# Poissons Ratio (x) = 0.16746 0.17814
# Poissons Ratio (y) = 0.19120 0.25842
# Poissons Ratio (z) = 0.28153 0.35768
#
# Static dielectric constant tensor:
#      x y z
#    x 1.590790 0.000000 0.000000 
#    y 0.000000 1.537550 0.000000 
#    z 0.000000 0.000000 1.597000 
# 
# From -- ./inp_files/24259.got.cif
#   From: 2010.05.17/outbox.cif.g08.bks.cpg/sg54_13_cif.got.tgz:24259.got - 2010.06.03 13:09:01.
