data_PCOD9420211
_publ_section_title
;
Structure prediction by ZEFSAII (Michael W. Deem and Ramdas Pophale) SiO2 
 PCOD9420211
Probable space group: P M N A
;
_chemical_formula_sum "Si O2"
_cell_formula_units_Z 40
_cell_length_a 9.000000
_cell_length_b 12.000000
_cell_length_c 18.000000
_cell_angle_alpha 90.000000
_cell_angle_beta 90.000000
_cell_angle_gamma 90.000000
_cell_volume 1944.000000
_symmetry_space_group_name_H-M "P M N A"
_symmetry_group_IT_number 53
_symmetry_cell_setting 'orthorhombic'
loop_
_space_group_symop_operation_xyz
x,y,z
1/2-x,-y,1/2+z
x,-y,-z
1/2-x,y,1/2-z
-x,-y,-z
1/2+x,y,1/2-z
-x,y,z
1/2+x,-y,1/2+z
loop_
_atom_site_type_symbol
_atom_site_label
_atom_site_fract_x
_atom_site_fract_y
_atom_site_fract_z
Si Si1 0.823932 0.565503 0.172072
Si Si2 0.171663 0.147447 0.449175
Si Si3 0.823932 0.023349 0.675381
Si Si4 0.825765 0.212810 0.901633
Si Si5 0.671364 0.665517 0.824719
O O1 0.750000 0.600179 0.250000
O O2 0.795459 0.657185 0.109843
O O3 0.754179 0.447082 0.153336
O O4 0.000000 0.556339 0.182216
O O5 0.273875 0.172960 0.518256
O O6 0.175721 0.248263 0.391171
O O7 0.000000 0.131759 0.474220
O O8 0.218748 0.043634 0.398793
O O9 0.750000 0.978868 0.750000
O O10 0.766766 0.146694 0.659962
O O11 0.000000 0.016309 0.682711
O O12 0.000000 0.191867 0.889936
O O13 0.750000 0.708192 0.750000
O O14 0.500000 0.641571 0.806938
#
# Coordination Sequence:
#
# PCOD9420211 Si02
#       5
#     8   8   8   8   8
#     4  10  21  37  57  83 113 147 189 234 280 330
#     4  10  23  40  58  84 117 151 186 230 284 338
#     4  11  23  40  62  86 114 148 188 233 281 336
#     4  11  24  39  58  85 116 151 190 234 283 335
#     4  10  20  36  59  85 113 148 190 233 280 334
#
# _framework density 20.576132000000001
#
# number of rings (size 3 to 8) (size 9 to 14) (size 15 to 20)
#    0.000    1.600    0.000    5.400    0.000   11.200 
#    0.000    4.000    0.000    0.000    0.000    0.000 
#    0.000    0.000    0.000    0.000    0.000    0.000 
#
# Total GULP energy -223435.547153 kJ/mol
# GULP energy per Si atom -5585.888679 kJ/mol
# Density = 2.052930 g / cm^3
# Si number density = 20.576132 Si / 1000 Ang^3
#
#
#
# Elastic Constant Matrix: (Units=GPa)
#
#
# Indices 1 2 3 4 5 6 
#
# 1 57.1226 42.9284 28.2986 0.0000 0.0000 0.0000
# 2 42.9284 88.5805 51.1058 0.0000 0.0000 0.0000
# 3 28.2986 51.1058 43.3503 0.0000 0.0000 0.0000
# 4 0.0000 0.0000 0.0000 44.4306 0.0000 0.0000
# 5 0.0000 0.0000 0.0000 0.0000 126.3516 0.0000
# 6 0.0000 0.0000 0.0000 0.0000 0.0000 17.1248
#
#
#
# Elastic Compliance Matrix: (Units=1/GPa)
#
#
# Indices 1 2 3 4 5 6 
#
# 1 0.028233 -0.009534 -0.007191 0.000000 0.000000 0.000000
# 2 -0.009534 0.038516 -0.039182 0.000000 0.000000 0.000000
# 3 -0.007191 -0.039182 0.073954 0.000000 0.000000 0.000000
# 4 0.000000 0.000000 0.000000 0.022507 0.000000 0.000000
# 5 0.000000 0.000000 0.000000 0.000000 0.007914 0.000000
# 6 0.000000 0.000000 0.000000 0.000000 0.000000 0.058395
#
#
# Mechanical properties :
#
#
# Convention : Reuss Voigt Hill
#
# Bulk Modulus (GPa) = 34.61550 48.19097 41.40324
# Shear Modulus (GPa) = 14.24648 42.02944 28.13796
#
# Velocity S-wave (km/s) = 2.63416 4.52445 3.70199
# Velocity P-wave (km/s) = 5.10993 7.12502 6.19989
#
# Compressibility (1/GPa) = 0.02888879
#
# Stress axis : x y z
#
# Youngs Moduli (GPa) = 35.41897 25.96353 13.52186
#
# Poissons Ratio (x) = 0.24754 0.09723
# Poissons Ratio (y) = 0.33768 0.52982
# Poissons Ratio (z) = 0.25469 1.01731
#
# Static dielectric constant tensor:
#      x y z
#    x 1.687780 0.000000 0.000000 
#    y 0.000000 1.781330 0.000000 
#    z 0.000000 0.000000 1.708400 
# 
# From -- ./inp_files/25832.got.cif
#   From: 2010.05.17/outbox.ucp.g08.bks.cvg/sg53_13_cif.got.tgz:25832.got - 2010.06.11 16:32:34.
