data_PCOD9420937
_publ_section_title
;
Structure prediction by ZEFSAII (Michael W. Deem and Ramdas Pophale) SiO2 
 PCOD9420937
Probable space group: P C C A
;
_chemical_formula_sum "Si O2"
_cell_formula_units_Z 40
_cell_length_a 5.068841
_cell_length_b 28.750334
_cell_length_c 10.981093
_cell_angle_alpha 90.000000
_cell_angle_beta 90.000000
_cell_angle_gamma 90.000000
_cell_volume 1600.284256
_symmetry_space_group_name_H-M "P C C A"
_symmetry_group_IT_number 54
_symmetry_cell_setting 'orthorhombic'
loop_
_space_group_symop_operation_xyz
x,y,z
1/2-x,-y,z
1/2+x,-y,1/2-z
-x,y,1/2-z
-x,-y,-z
1/2+x,y,-z
1/2-x,y,1/2+z
x,-y,1/2+z
loop_
_atom_site_type_symbol
_atom_site_label
_atom_site_fract_x
_atom_site_fract_y
_atom_site_fract_z
Si Si1 0.239732 0.604735 0.919988
Si Si2 0.250000 0.000000 0.840513
Si Si3 0.750115 0.901558 0.663774
Si Si4 0.664314 0.703916 0.585172
Si Si5 0.000000 0.528714 0.250000
Si Si6 0.679463 0.798034 0.071676
O O1 0.285449 0.654359 0.853221
O O2 0.342023 0.561618 0.843022
O O3 0.437518 0.603958 0.036665
O O4 0.247574 0.049562 0.910059
O O5 0.500000 0.999519 0.750000
O O6 0.500000 0.901566 0.750000
O O7 0.762879 0.851005 0.605589
O O8 0.000000 0.903998 0.750000
O O9 0.374699 0.703498 0.527114
O O10 0.728303 0.753135 0.649189
O O11 0.250000 0.500000 0.194381
O O12 0.370785 0.793368 0.045905
#
# Coordination Sequence:
#
# PCOD9420937 Si02
#       6
#     8   4   8   8   4   8
#     4  10  21  40  63  84 116 158 193 231 287 343
#     4   8  16  30  48  66  94 140 174 214 264 318
#     4  10  19  33  51  73 102 135 182 221 263 324
#     4   8  16  32  55  76 102 142 178 209 265 334
#     4  12  26  40  60  92 122 148 196 246 282 334
#     4  10  19  33  53  77 107 138 170 222 279 321
#
# _framework density 24.995557999999999
#
# number of rings (size 3 to 8) (size 9 to 14) (size 15 to 20)
#    0.000    2.400    0.000    2.400    0.000    2.400 
#    1.800    1.000    2.200    0.000    0.000    0.000 
#    0.000    0.000    0.000    0.000    0.000    0.000 
#
# Total GULP energy -223115.899865 kJ/mol
# GULP energy per Si atom -5577.897497 kJ/mol
# Density = 2.493867 g / cm^3
# Si number density = 24.995558 Si / 1000 Ang^3
#
#
#
# Elastic Constant Matrix: (Units=GPa)
#
#
# Indices 1 2 3 4 5 6 
#
# 1 147.8483 10.9420 11.0195 0.0000 0.0000 0.0000
# 2 10.9420 211.2871 14.8016 0.0000 0.0000 0.0000
# 3 11.0195 14.8016 17.1682 0.0000 0.0000 0.0000
# 4 0.0000 0.0000 0.0000 16.4107 0.0000 0.0000
# 5 0.0000 0.0000 0.0000 0.0000 30.2584 0.0000
# 6 0.0000 0.0000 0.0000 0.0000 0.0000 38.5682
#
#
#
# Elastic Compliance Matrix: (Units=1/GPa)
#
#
# Indices 1 2 3 4 5 6 
#
# 1 0.007104 -0.000052 -0.004515 0.000000 0.000000 0.000000
# 2 -0.000052 0.005038 -0.004310 0.000000 0.000000 0.000000
# 3 -0.004515 -0.004310 0.064861 0.000000 0.000000 0.000000
# 4 0.000000 0.000000 0.000000 0.060936 0.000000 0.000000
# 5 0.000000 0.000000 0.000000 0.000000 0.033049 0.000000
# 6 0.000000 0.000000 0.000000 0.000000 0.000000 0.025928
#
#
# Mechanical properties :
#
#
# Convention : Reuss Voigt Hill
#
# Bulk Modulus (GPa) = 16.87792 49.98109 33.42950
# Shear Modulus (GPa) = 21.32935 39.68349 30.50642
#
# Velocity S-wave (km/s) = 2.92434 3.98882 3.49732
# Velocity P-wave (km/s) = 4.26256 6.42290 5.45083
#
# Compressibility (1/GPa) = 0.05924902
#
# Stress axis : x y z
#
# Youngs Moduli (GPa) = 140.76490 198.51110 15.41754
#
# Poissons Ratio (x) = 0.01024 0.06961
# Poissons Ratio (y) = 0.00726 0.06645
# Poissons Ratio (z) = 0.63560 0.85558
#
# Static dielectric constant tensor:
#      x y z
#    x 1.889690 0.000000 0.000000 
#    y 0.000000 2.169480 0.000000 
#    z 0.000000 0.000000 1.975110 
# 
# From -- ./inp_files/6458.got.cif
#   From: 2010.05.17/outbox.cif.g08.bks.cpg/sg54_4_cif.got.tgz:6458.got - 2010.06.03 13:09:01.
