data_PCOD9420398
_publ_section_title
;
Structure prediction by ZEFSAII (Michael W. Deem and Ramdas Pophale) SiO2 
 PCOD9420398
Probable space group: P C C A
;
_chemical_formula_sum "Si O2"
_cell_formula_units_Z 64
_cell_length_a 14.388478
_cell_length_b 36.969088
_cell_length_c 5.354955
_cell_angle_alpha 90.000000
_cell_angle_beta 90.000000
_cell_angle_gamma 90.000000
_cell_volume 2848.455373
_symmetry_space_group_name_H-M "P C C A"
_symmetry_group_IT_number 54
_symmetry_cell_setting 'orthorhombic'
loop_
_space_group_symop_operation_xyz
x,y,z
1/2-x,-y,z
1/2+x,-y,1/2-z
-x,y,1/2-z
-x,-y,-z
1/2+x,y,-z
1/2-x,y,1/2+z
x,-y,1/2+z
loop_
_atom_site_type_symbol
_atom_site_label
_atom_site_fract_x
_atom_site_fract_y
_atom_site_fract_z
Si Si1 0.642031 0.176983 0.816471
Si Si2 0.307236 0.716610 0.832553
Si Si3 0.111516 0.019941 0.249219
Si Si4 0.807439 0.098624 0.169298
Si Si5 0.358198 0.794733 0.683520
Si Si6 0.354891 0.485292 0.859803
Si Si7 0.388585 0.362090 0.248007
Si Si8 0.112791 0.402713 0.248127
O O1 0.639098 0.135740 0.726524
O O2 0.750062 0.191179 0.844870
O O3 0.601604 0.200528 0.591498
O O4 0.601681 0.181659 0.091434
O O5 0.227349 0.717632 0.618400
O O6 0.361504 0.753501 0.773755
O O7 0.358768 0.679060 0.787353
O O8 0.139920 0.061302 0.285627
O O9 0.000000 0.018005 0.250000
O O10 0.144253 0.996075 0.484775
O O11 0.727719 0.099398 0.383899
O O12 0.250000 0.500000 0.889544
O O13 0.398923 0.506934 0.628810
O O14 0.353549 0.443312 0.792370
O O15 0.500000 0.363541 0.250000
O O16 0.357160 0.386416 0.482682
O O17 0.357786 0.377659 0.980657
O O18 0.000000 0.404056 0.250000
#
# Coordination Sequence:
#
# PCOD9420398 Si02
#       8
#     8   8   8   8   8   8   8   8
#     4  10  16  30  48  78 109 145 174 224 278 332
#     4  12  21  35  57  92 111 146 198 236 270 331
#     4  10  23  42  57  74 110 154 183 220 288 352
#     4  12  21  32  58  88 108 138 187 240 281 317
#     4  10  16  30  51  75 113 148 173 221 275 338
#     4  10  21  38  56  84 117 144 178 233 286 319
#     4  10  23  42  59  83 120 153 189 234 281 328
#     4  10  21  41  63  80 109 159 193 218 275 347
#
# _framework density 22.468315
#
# number of rings (size 3 to 8) (size 9 to 14) (size 15 to 20)
#    0.000    1.500    5.000    2.250    0.000    2.000 
#   13.500    0.000    0.000    1.500    0.000    0.000 
#    0.000    0.000    0.000    0.000    0.000    0.000 
#
# Total GULP energy -357740.679739 kJ/mol
# GULP energy per Si atom -5589.698121 kJ/mol
# Density = 2.241718 g / cm^3
# Si number density = 22.468315 Si / 1000 Ang^3
#
#
#
# Elastic Constant Matrix: (Units=GPa)
#
#
# Indices 1 2 3 4 5 6 
#
# 1 51.4885 -3.2042 -0.8678 0.0000 0.0000 0.0000
# 2 -3.2042 108.9527 -12.5730 0.0000 0.0000 0.0000
# 3 -0.8678 -12.5730 111.1574 0.0000 0.0000 0.0000
# 4 0.0000 0.0000 0.0000 41.7688 0.0000 0.0000
# 5 0.0000 0.0000 0.0000 0.0000 2.0883 0.0000
# 6 0.0000 0.0000 0.0000 0.0000 0.0000 -493.3871
#
#
#
# Elastic Compliance Matrix: (Units=1/GPa)
#
#
# Indices 1 2 3 4 5 6 
#
# 1 0.019463 0.000598 0.000220 0.000000 0.000000 0.000000
# 2 0.000598 0.009318 0.001059 0.000000 0.000000 0.000000
# 3 0.000220 0.001059 0.009118 0.000000 0.000000 0.000000
# 4 0.000000 0.000000 0.000000 0.023941 0.000000 0.000000
# 5 0.000000 0.000000 0.000000 0.000000 0.478869 0.000000
# 6 0.000000 0.000000 0.000000 0.000000 0.000000 -0.002027
#
#
# Mechanical properties :
#
#
# Convention : Reuss Voigt Hill
#
# Bulk Modulus (GPa) = 24.00946 26.47874 25.24410
# Shear Modulus (GPa) = 9.11056 -70.68978 -30.78961
#
# Velocity S-wave (km/s) = 2.01585 -5.61518 -3.70585
# Velocity P-wave (km/s) = 4.01588 5.49817 2.65542
#
# Compressibility (1/GPa) = 0.04165025
#
# Stress axis : x y z
#
# Youngs Moduli (GPa) = 51.38028 107.31873 109.67667
#
# Poissons Ratio (x) = -0.06415 -0.02408
# Poissons Ratio (y) = -0.03071 -0.11611
# Poissons Ratio (z) = -0.01128 -0.11361
#
# Static dielectric constant tensor:
#      x y z
#    x 1.891840 0.000000 0.000000 
#    y 0.000000 1.773450 0.000000 
#    z 0.000000 0.000000 1.875050 
# 
# From -- ./inp_files/1091.got.cif
#   From: 2010.05.17/outbox.cif.g08.bks.cpg/sg54_1_cif.got.tgz:1091.got - 2010.06.03 13:09:01.
