data_PCOD9420605
_publ_section_title
;
Structure prediction by ZEFSAII (Michael W. Deem and Ramdas Pophale) SiO2 
 PCOD9420605
Probable space group: P C C A
;
_chemical_formula_sum "Si O2"
_cell_formula_units_Z 64
_cell_length_a 14.008630
_cell_length_b 7.446857
_cell_length_c 29.197878
_cell_angle_alpha 90.000000
_cell_angle_beta 90.000000
_cell_angle_gamma 90.000000
_cell_volume 3045.930352
_symmetry_space_group_name_H-M "P C C A"
_symmetry_group_IT_number 54
_symmetry_cell_setting 'orthorhombic'
loop_
_space_group_symop_operation_xyz
x,y,z
1/2-x,-y,z
1/2+x,-y,1/2-z
-x,y,1/2-z
-x,-y,-z
1/2+x,y,-z
1/2-x,y,1/2+z
x,-y,1/2+z
loop_
_atom_site_type_symbol
_atom_site_label
_atom_site_fract_x
_atom_site_fract_y
_atom_site_fract_z
Si Si1 0.675150 0.838053 0.422473
Si Si2 0.798424 0.197815 0.525395
Si Si3 0.904609 0.291540 0.039043
Si Si4 0.557994 0.744321 0.846162
Si Si5 0.474606 0.908941 0.375561
Si Si6 0.467409 0.646680 0.198127
Si Si7 0.734754 0.701063 0.331104
Si Si8 0.496010 0.322245 0.445704
O O1 0.664858 0.768728 0.473677
O O2 0.576926 0.907170 0.401356
O O3 0.710326 0.697119 0.385032
O O4 0.750000 0.000000 0.423335
O O5 0.707689 0.323435 0.534133
O O6 0.892005 0.226551 0.556212
O O7 0.750000 0.000000 0.526950
O O8 0.966371 0.469213 0.049428
O O9 0.911954 0.152699 0.081153
O O10 0.945790 0.239743 0.988769
O O11 0.536281 0.560866 0.818783
O O12 0.663995 0.802662 0.828854
O O13 0.557803 0.692328 0.899933
O O14 0.479820 0.903949 0.847358
O O15 0.467323 0.753007 0.337924
O O16 0.500000 0.654609 0.250000
O O17 0.364592 0.748384 0.193045
O O18 0.750000 0.500000 0.314099
#
# Coordination Sequence:
#
# PCOD9420605 Si02
#       8
#     8   8   8   8   8   8   8   8
#     4  10  18  32  51  90 127 161 214 264 311 362
#     4  11  23  35  54  84 130 181 224 261 310 375
#     4  11  23  38  58  90 135 178 226 258 324 378
#     4  11  21  38  67  94 125 162 217 259 327 385
#     4  11  21  38  64  94 127 171 209 273 321 386
#     4  10  23  42  63  93 129 155 206 272 343 398
#     4   9  19  33  60  90 119 155 199 263 318 379
#     4  11  23  38  58  92 130 177 218 276 310 382
#
# _framework density 21.011641999999998
#
# number of rings (size 3 to 8) (size 9 to 14) (size 15 to 20)
#    0.000    1.500    3.750    1.875    1.750    2.500 
#    0.000    0.000    8.250    0.000    0.000    0.000 
#    0.000    0.000    0.000    0.000    0.000    0.000 
#
# Total GULP energy -356688.279852 kJ/mol
# GULP energy per Si atom -5573.254373 kJ/mol
# Density = 2.096382 g / cm^3
# Si number density = 21.011642 Si / 1000 Ang^3
#
#
#
# Elastic Constant Matrix: (Units=GPa)
#
#
# Indices 1 2 3 4 5 6 
#
# 1 90.5781 22.6384 46.6556 0.0000 0.0000 0.0000
# 2 22.6384 80.3671 31.3555 0.0000 0.0000 0.0000
# 3 46.6556 31.3555 121.2478 0.0000 0.0000 0.0000
# 4 0.0000 0.0000 0.0000 9.0012 0.0000 0.0000
# 5 0.0000 0.0000 0.0000 0.0000 16.6666 0.0000
# 6 0.0000 0.0000 0.0000 0.0000 0.0000 22.8905
#
#
#
# Elastic Compliance Matrix: (Units=1/GPa)
#
#
# Indices 1 2 3 4 5 6 
#
# 1 0.014069 -0.002059 -0.004881 0.000000 0.000000 0.000000
# 2 -0.002059 0.014140 -0.002865 0.000000 0.000000 0.000000
# 3 -0.004881 -0.002865 0.010867 0.000000 0.000000 0.000000
# 4 0.000000 0.000000 0.000000 0.111096 0.000000 0.000000
# 5 0.000000 0.000000 0.000000 0.000000 0.060000 0.000000
# 6 0.000000 0.000000 0.000000 0.000000 0.000000 0.043686
#
#
# Mechanical properties :
#
#
# Convention : Reuss Voigt Hill
#
# Bulk Modulus (GPa) = 51.36907 54.83244 53.10076
# Shear Modulus (GPa) = 17.85991 22.48123 20.17057
#
# Velocity S-wave (km/s) = 2.91864 3.27454 3.10170
# Velocity P-wave (km/s) = 5.98823 6.36001 6.17692
#
# Compressibility (1/GPa) = 0.01946697
#
# Stress axis : x y z
#
# Youngs Moduli (GPa) = 71.07823 70.71918 92.02428
#
# Poissons Ratio (x) = 0.14558 0.44920
# Poissons Ratio (y) = 0.14632 0.26362
# Poissons Ratio (z) = 0.34696 0.20259
#
# Static dielectric constant tensor:
#      x y z
#    x 1.825820 0.000000 0.000000 
#    y 0.000000 1.887340 0.000000 
#    z 0.000000 0.000000 1.722960 
# 
# From -- ./inp_files/28304.got.cif
#   From: 2010.05.17/outbox.cif.g08.bks.cpg/sg54_15_cif.got.tgz:28304.got - 2010.06.03 13:09:01.
