data_PCOD9420773
_publ_section_title
;
Structure prediction by ZEFSAII (Michael W. Deem and Ramdas Pophale) SiO2 
 PCOD9420773
Probable space group: P C C A
;
_chemical_formula_sum "Si O2"
_cell_formula_units_Z 48
_cell_length_a 8.238562
_cell_length_b 11.615859
_cell_length_c 27.730237
_cell_angle_alpha 90.000000
_cell_angle_beta 90.000000
_cell_angle_gamma 90.000000
_cell_volume 2653.727515
_symmetry_space_group_name_H-M "P C C A"
_symmetry_group_IT_number 54
_symmetry_cell_setting 'orthorhombic'
loop_
_space_group_symop_operation_xyz
x,y,z
1/2-x,-y,z
1/2+x,-y,1/2-z
-x,y,1/2-z
-x,-y,-z
1/2+x,y,-z
1/2-x,y,1/2+z
x,-y,1/2+z
loop_
_atom_site_type_symbol
_atom_site_label
_atom_site_fract_x
_atom_site_fract_y
_atom_site_fract_z
Si Si1 0.174139 0.128060 0.222951
Si Si2 0.244804 0.136658 0.115504
Si Si3 0.500000 0.268307 0.250000
Si Si4 0.572204 0.698637 0.459092
Si Si5 0.282467 0.364361 0.442971
Si Si6 0.991113 0.322213 0.857115
Si Si7 0.250000 0.500000 0.096055
O O1 0.149006 0.156796 0.166097
O O2 0.327310 0.201439 0.243077
O O3 0.000000 0.136863 0.250000
O O4 0.250000 0.000000 0.224870
O O5 0.167970 0.202599 0.069917
O O6 0.417391 0.197107 0.128184
O O7 0.250000 0.000000 0.107275
O O8 0.520813 0.332066 0.199368
O O9 0.383651 0.704232 0.448351
O O10 0.599784 0.687066 0.516100
O O11 0.636707 0.578554 0.437044
O O12 0.250000 0.500000 0.451868
O O13 0.356371 0.348290 0.390430
O O14 0.855316 0.413958 0.872322
#
# Coordination Sequence:
#
# PCOD9420773 Si02
#       7
#     8   8   4   8   8   8   4
#     4  10  19  35  62  87 118 165 211 256 297 356
#     4   9  21  40  59  88 125 160 197 251 308 363
#     4  10  22  40  56  88 128 156 202 260 310 364
#     4  11  21  36  62  89 117 155 200 250 303 355
#     4  12  22  38  62  92 115 156 210 252 298 363
#     4  10  22  39  60  87 120 156 203 250 306 364
#     4  10  18  38  58  82 116 152 194 256 296 354
#
# _framework density 18.087764
#
# number of rings (size 3 to 8) (size 9 to 14) (size 15 to 20)
#    0.000    1.667    3.333    2.500    2.333    0.000 
#    1.500    4.167    3.667    0.000    0.000    0.000 
#    0.000    0.000    0.000    0.000    0.000    0.000 
#
# Total GULP energy -267582.260020 kJ/mol
# GULP energy per Si atom -5574.630417 kJ/mol
# Density = 1.804660 g / cm^3
# Si number density = 18.087764 Si / 1000 Ang^3
#
#
#
# Elastic Constant Matrix: (Units=GPa)
#
#
# Indices 1 2 3 4 5 6 
#
# 1 86.9251 3.3173 36.9858 0.0000 0.0000 0.0000
# 2 3.3173 59.4433 16.9402 0.0000 0.0000 0.0000
# 3 36.9858 16.9402 126.9984 0.0000 0.0000 0.0000
# 4 0.0000 0.0000 0.0000 18.3042 0.0000 0.0000
# 5 0.0000 0.0000 0.0000 0.0000 36.8415 0.0000
# 6 0.0000 0.0000 0.0000 0.0000 0.0000 -0.0824
#
#
#
# Elastic Compliance Matrix: (Units=1/GPa)
#
#
# Indices 1 2 3 4 5 6 
#
# 1 0.013139 0.000371 -0.003876 0.000000 0.000000 0.000000
# 2 0.000371 0.017498 -0.002442 0.000000 0.000000 0.000000
# 3 -0.003876 -0.002442 0.009329 0.000000 0.000000 0.000000
# 4 0.000000 0.000000 0.000000 0.054632 0.000000 0.000000
# 5 0.000000 0.000000 0.000000 0.000000 0.027143 0.000000
# 6 0.000000 0.000000 0.000000 0.000000 0.000000-12.141115
#
#
# Mechanical properties :
#
#
# Convention : Reuss Voigt Hill
#
# Bulk Modulus (GPa) = 35.62254 43.09482 39.35868
# Shear Modulus (GPa) = -0.41673 25.42089 12.50208
#
# Velocity S-wave (km/s) = -0.48051 3.75296 2.63190
# Velocity P-wave (km/s) = 4.40785 6.53121 5.57162
#
# Compressibility (1/GPa) = 0.02807212
#
# Stress axis : x y z
#
# Youngs Moduli (GPa) = 76.10805 57.14933 107.19599
#
# Poissons Ratio (x) = -0.02122 0.41550
# Poissons Ratio (y) = -0.02826 0.26179
# Poissons Ratio (z) = 0.29500 0.13957
#
# Static dielectric constant tensor:
#      x y z
#    x 1.635710 0.000000 0.000000 
#    y 0.000000 1.623530 0.000000 
#    z 0.000000 0.000000 1.622800 
# 
# From -- ./inp_files/23551.got.cif
#   From: 2010.05.17/outbox.cif.g08.bks.cpg/sg54_12_cif.got.tgz:23551.got - 2010.06.03 13:09:01.
