data_PCOD9420913
_publ_section_title
;
Structure prediction by ZEFSAII (Michael W. Deem and Ramdas Pophale) SiO2 
 PCOD9420913
Probable space group: P C C A
;
_chemical_formula_sum "Si O2"
_cell_formula_units_Z 44
_cell_length_a 14.910604
_cell_length_b 5.451498
_cell_length_c 27.140735
_cell_angle_alpha 90.000000
_cell_angle_beta 90.000000
_cell_angle_gamma 90.000000
_cell_volume 2206.138115
_symmetry_space_group_name_H-M "P C C A"
_symmetry_group_IT_number 54
_symmetry_cell_setting 'orthorhombic'
loop_
_space_group_symop_operation_xyz
x,y,z
1/2-x,-y,z
1/2+x,-y,1/2-z
-x,y,1/2-z
-x,-y,-z
1/2+x,y,-z
1/2-x,y,1/2+z
x,-y,1/2+z
loop_
_atom_site_type_symbol
_atom_site_label
_atom_site_fract_x
_atom_site_fract_y
_atom_site_fract_z
Si Si1 0.454155 0.998864 0.446916
Si Si2 0.588057 0.483639 0.787376
Si Si3 0.109106 0.016808 0.751735
Si Si4 0.486620 0.502034 0.386226
Si Si5 0.750000 0.000000 0.077720
Si Si6 0.314323 0.314077 0.335682
O O1 0.481026 0.749302 0.418187
O O2 0.344875 0.990806 0.450325
O O3 0.500000 0.000000 0.500000
O O4 0.484398 0.248049 0.417891
O O5 0.500000 0.493271 0.750000
O O6 0.634626 0.742715 0.778647
O O7 0.562240 0.472661 0.844626
O O8 0.638025 0.238563 0.770932
O O9 0.147688 0.081776 0.805525
O O10 0.000000 0.006987 0.750000
O O11 0.399012 0.470854 0.352412
O O12 0.736390 0.224235 0.115533
O O13 0.250000 0.500000 0.307623
#
# Coordination Sequence:
#
# PCOD9420913 Si02
#       6
#     8   8   8   8   4   8
#     4  11  24  41  62  94 123 161 213 270 339 382
#     4  10  19  32  53  84 119 160 202 231 289 369
#     4  10  20  30  51  81 122 163 198 225 290 363
#     4  11  21  38  60  90 125 163 206 261 311 384
#     4  10  24  36  62  90 128 152 214 276 330 380
#     4  11  21  34  55  91 130 159 193 261 323 369
#
# _framework density 19.944355000000002
#
# number of rings (size 3 to 8) (size 9 to 14) (size 15 to 20)
#    0.000    1.455    5.455    1.636   10.182    0.000 
#    0.000    0.000    0.000    0.000    9.455    0.000 
#    0.000    0.000    0.000    0.000    0.000    0.000 
#
# Total GULP energy -245348.600347 kJ/mol
# GULP energy per Si atom -5576.104553 kJ/mol
# Density = 1.989896 g / cm^3
# Si number density = 19.944355 Si / 1000 Ang^3
#
#
#
# Elastic Constant Matrix: (Units=GPa)
#
#
# Indices 1 2 3 4 5 6 
#
# 1 73.0410 32.7625 60.3074 0.0000 0.0000 0.0000
# 2 32.7625 181.7950 63.4795 0.0000 0.0000 0.0000
# 3 60.3074 63.4795 128.7656 0.0000 0.0000 0.0000
# 4 0.0000 0.0000 0.0000 35.8257 0.0000 0.0000
# 5 0.0000 0.0000 0.0000 0.0000 30.1466 0.0000
# 6 0.0000 0.0000 0.0000 0.0000 0.0000 3.5761
#
#
#
# Elastic Compliance Matrix: (Units=1/GPa)
#
#
# Indices 1 2 3 4 5 6 
#
# 1 0.022354 -0.000450 -0.010247 0.000000 0.000000 0.000000
# 2 -0.000450 0.006654 -0.003069 0.000000 0.000000 0.000000
# 3 -0.010247 -0.003069 0.014078 0.000000 0.000000 0.000000
# 4 0.000000 0.000000 0.000000 0.027913 0.000000 0.000000
# 5 0.000000 0.000000 0.000000 0.000000 0.033171 0.000000
# 6 0.000000 0.000000 0.000000 0.000000 0.000000 0.279634
#
#
# Mechanical properties :
#
#
# Convention : Reuss Voigt Hill
#
# Bulk Modulus (GPa) = 64.30030 77.41116 70.85573
# Shear Modulus (GPa) = 12.00416 29.04650 20.52533
#
# Velocity S-wave (km/s) = 2.45599 3.82039 3.21149
# Velocity P-wave (km/s) = 6.35235 7.63926 7.02534
#
# Compressibility (1/GPa) = 0.01555203
#
# Stress axis : x y z
#
# Youngs Moduli (GPa) = 44.73499 150.29536 71.03030
#
# Poissons Ratio (x) = 0.06768 0.72788
# Poissons Ratio (y) = 0.02015 0.21801
# Poissons Ratio (z) = 0.45842 0.46129
#
# Static dielectric constant tensor:
#      x y z
#    x 1.773930 0.000000 0.000000 
#    y 0.000000 1.764620 0.000000 
#    z 0.000000 0.000000 1.707760 
# 
# From -- ./inp_files/24559.got.cif
#   From: 2010.05.17/outbox.cif.g08.bks.cpg/sg54_13_cif.got.tgz:24559.got - 2010.06.03 13:09:01.
