data_PCOD9420441
_publ_section_title
;
Structure prediction by ZEFSAII (Michael W. Deem and Ramdas Pophale) SiO2 
 PCOD9420441
Probable space group: P C C A
;
_chemical_formula_sum "Si O2"
_cell_formula_units_Z 56
_cell_length_a 29.368404
_cell_length_b 17.483281
_cell_length_c 5.248623
_cell_angle_alpha 90.000000
_cell_angle_beta 90.000000
_cell_angle_gamma 90.000000
_cell_volume 2694.937284
_symmetry_space_group_name_H-M "P C C A"
_symmetry_group_IT_number 54
_symmetry_cell_setting 'orthorhombic'
loop_
_space_group_symop_operation_xyz
x,y,z
1/2-x,-y,z
1/2+x,-y,1/2-z
-x,y,1/2-z
-x,-y,-z
1/2+x,y,-z
1/2-x,y,1/2+z
x,-y,1/2+z
loop_
_atom_site_type_symbol
_atom_site_label
_atom_site_fract_x
_atom_site_fract_y
_atom_site_fract_z
Si Si1 0.366417 0.718767 0.305886
Si Si2 0.500000 0.693468 0.750000
Si Si3 0.091639 0.787123 0.297926
Si Si4 0.000000 0.589416 0.750000
Si Si5 0.445948 0.951857 0.728315
Si Si6 0.721538 0.204944 0.846938
Si Si7 0.302252 0.032431 0.769294
Si Si8 0.898146 0.456164 0.215334
O O1 0.373962 0.758189 0.579699
O O2 0.314578 0.730359 0.220952
O O3 0.382394 0.631123 0.316523
O O4 0.394408 0.760866 0.080687
O O5 0.544518 0.745173 0.771852
O O6 0.504687 0.641614 0.500188
O O7 0.083414 0.877004 0.282276
O O8 0.046689 0.543549 0.781182
O O9 0.500000 0.931675 0.750000
O O10 0.437914 0.985503 0.447892
O O11 0.761196 0.208724 0.635555
O O12 0.699588 0.120934 0.802550
O O13 0.250000 0.000000 0.798249
O O14 0.323825 0.984360 0.541378
O O15 0.882435 0.492256 0.480355
#
# Coordination Sequence:
#
# PCOD9420441 Si02
#       8
#     8   4   8   4   8   8   8   8
#     4  12  27  43  66  97 130 163 217 269 327 395
#     4  12  20  37  66  91 132 174 208 268 310 385
#     4  12  22  43  62  92 131 173 215 267 325 370
#     4  12  22  39  64 101 130 170 220 246 314 413
#     4  10  21  36  59  84 117 174 231 268 305 361
#     4  12  23  42  68  93 122 169 213 260 320 397
#     4  10  16  32  60  90 122 150 196 242 320 392
#     4  12  24  42  65  95 138 171 203 264 324 386
#
# _framework density 20.779703999999999
#
# number of rings (size 3 to 8) (size 9 to 14) (size 15 to 20)
#    0.000    0.571    6.429    3.857    0.000    0.000 
#    0.000    4.286    0.000    2.571    0.000    0.000 
#    0.000    0.000    0.000    0.000    0.000    0.000 
#
# Total GULP energy -313430.733627 kJ/mol
# GULP energy per Si atom -5596.977386 kJ/mol
# Density = 2.073241 g / cm^3
# Si number density = 20.779704 Si / 1000 Ang^3
#
#
#
# Elastic Constant Matrix: (Units=GPa)
#
#
# Indices 1 2 3 4 5 6 
#
# 1 31.0137 7.3352 -12.7561 0.0000 0.0000 0.0000
# 2 7.3352 66.4900 5.7059 0.0000 0.0000 0.0000
# 3 -12.7561 5.7059 84.5126 0.0000 0.0000 0.0000
# 4 0.0000 0.0000 0.0000 19.8209 0.0000 0.0000
# 5 0.0000 0.0000 0.0000 0.0000 10.5332 0.0000
# 6 0.0000 0.0000 0.0000 0.0000 0.0000 6.7651
#
#
#
# Elastic Compliance Matrix: (Units=1/GPa)
#
#
# Indices 1 2 3 4 5 6 
#
# 1 0.035623 -0.004417 0.005675 0.000000 0.000000 0.000000
# 2 -0.004417 0.015675 -0.001725 0.000000 0.000000 0.000000
# 3 0.005675 -0.001725 0.012806 0.000000 0.000000 0.000000
# 4 0.000000 0.000000 0.000000 0.050452 0.000000 0.000000
# 5 0.000000 0.000000 0.000000 0.000000 0.094938 0.000000
# 6 0.000000 0.000000 0.000000 0.000000 0.000000 0.147818
#
#
# Mechanical properties :
#
#
# Convention : Reuss Voigt Hill
#
# Bulk Modulus (GPa) = 15.83043 20.28738 18.05890
# Shear Modulus (GPa) = 13.18213 19.53926 16.36069
#
# Velocity S-wave (km/s) = 2.52141 3.06977 2.80900
# Velocity P-wave (km/s) = 4.01391 4.72746 4.38522
#
# Compressibility (1/GPa) = 0.06316949
#
# Stress axis : x y z
#
# Youngs Moduli (GPa) = 28.07205 63.79519 78.09094
#
# Poissons Ratio (x) = 0.28178 -0.44316
# Poissons Ratio (y) = 0.12399 0.13471
# Poissons Ratio (z) = -0.15931 0.11005
#
# Static dielectric constant tensor:
#      x y z
#    x 1.856840 0.000000 0.000000 
#    y 0.000000 1.710940 0.000000 
#    z 0.000000 0.000000 1.756590 
# 
# From -- ./inp_files/2180.got.cif
#   From: 2010.05.17/outbox.cif.g08.bks.cpg/sg54_2_cif.got.tgz:2180.got - 2010.06.03 13:09:01.
