data_PCOD9420526
_publ_section_title
;
Structure prediction by ZEFSAII (Michael W. Deem and Ramdas Pophale) SiO2 
 PCOD9420526
Probable space group: P C C A
;
_chemical_formula_sum "Si O2"
_cell_formula_units_Z 40
_cell_length_a 23.046031
_cell_length_b 15.099159
_cell_length_c 5.322510
_cell_angle_alpha 90.000000
_cell_angle_beta 90.000000
_cell_angle_gamma 90.000000
_cell_volume 1852.104071
_symmetry_space_group_name_H-M "P C C A"
_symmetry_group_IT_number 54
_symmetry_cell_setting 'orthorhombic'
loop_
_space_group_symop_operation_xyz
x,y,z
1/2-x,-y,z
1/2+x,-y,1/2-z
-x,y,1/2-z
-x,-y,-z
1/2+x,y,-z
1/2-x,y,1/2+z
x,-y,1/2+z
loop_
_atom_site_type_symbol
_atom_site_label
_atom_site_fract_x
_atom_site_fract_y
_atom_site_fract_z
Si Si1 0.500000 0.682780 0.250000
Si Si2 0.000000 0.058743 0.750000
Si Si3 0.321763 0.450695 0.151751
Si Si4 0.064234 0.390006 0.857790
Si Si5 0.713044 0.250317 0.470783
Si Si6 0.915680 0.210447 0.878997
O O1 0.549561 0.615476 0.349868
O O2 0.463726 0.748272 0.430930
O O3 0.943718 0.122363 0.767968
O O4 0.000000 0.000000 0.500000
O O5 0.306539 0.477235 0.439363
O O6 0.390864 0.443629 0.193066
O O7 0.299828 0.356130 0.054718
O O8 0.086987 0.288578 0.825672
O O9 0.000000 0.400870 0.750000
O O10 0.750868 0.229843 0.717425
O O11 0.649667 0.204186 0.481965
#
# Coordination Sequence:
#
# PCOD9420526 Si02
#       6
#     4   4   8   8   8   8
#     4  10  17  36  68  87 126 174 216 284 323 384
#     4  12  25  40  70 111 140 166 194 256 347 402
#     4  11  25  39  57  86 128 165 217 286 341 378
#     4   9  20  34  59  85 120 177 214 266 324 398
#     4  11  26  43  69  92 120 179 236 273 320 384
#     4  10  22  40  65  98 135 168 221 270 322 400
#
# _framework density 21.597059999999999
#
# number of rings (size 3 to 8) (size 9 to 14) (size 15 to 20)
#    0.000    1.600    3.000    1.800   14.000    3.200 
#    0.000    0.000    0.000    3.600    0.000    0.000 
#    0.000    0.000    0.000    0.000    0.000    0.000 
#
# Total GULP energy -222949.118894 kJ/mol
# GULP energy per Si atom -5573.727972 kJ/mol
# Density = 2.154790 g / cm^3
# Si number density = 21.597060 Si / 1000 Ang^3
#
#
#
# Elastic Constant Matrix: (Units=GPa)
#
#
# Indices 1 2 3 4 5 6 
#
# 1 132.9427 15.6926 18.8791 0.0000 0.0000 0.0000
# 2 15.6926 72.5105 16.3979 0.0000 0.0000 0.0000
# 3 18.8791 16.3979 108.3065 0.0000 0.0000 0.0000
# 4 0.0000 0.0000 0.0000 12.4698 0.0000 0.0000
# 5 0.0000 0.0000 0.0000 0.0000 -542.2742 0.0000
# 6 0.0000 0.0000 0.0000 0.0000 0.0000 32.2608
#
#
#
# Elastic Compliance Matrix: (Units=1/GPa)
#
#
# Indices 1 2 3 4 5 6 
#
# 1 0.007855 -0.001440 -0.001151 0.000000 0.000000 0.000000
# 2 -0.001440 0.014544 -0.001951 0.000000 0.000000 0.000000
# 3 -0.001151 -0.001951 0.009729 0.000000 0.000000 0.000000
# 4 0.000000 0.000000 0.000000 0.080194 0.000000 0.000000
# 5 0.000000 0.000000 0.000000 0.000000 -0.001844 0.000000
# 6 0.000000 0.000000 0.000000 0.000000 0.000000 0.030997
#
#
# Mechanical properties :
#
#
# Convention : Reuss Voigt Hill
#
# Bulk Modulus (GPa) = 43.39450 46.18878 44.79164
# Shear Modulus (GPa) = 31.59731 -81.98940 -25.19604
#
# Velocity S-wave (km/s) = 3.82912 -6.16811 -3.41932
# Velocity P-wave (km/s) = 6.29968 5.41244 2.27941
#
# Compressibility (1/GPa) = 0.02304440
#
# Stress axis : x y z
#
# Youngs Moduli (GPa) = 127.29968 68.75732 102.78405
#
# Poissons Ratio (x) = 0.09899 0.11834
# Poissons Ratio (y) = 0.18327 0.20054
# Poissons Ratio (z) = 0.14656 0.13415
#
# Static dielectric constant tensor:
#      x y z
#    x 1.890110 0.000000 0.000000 
#    y 0.000000 1.796640 0.000000 
#    z 0.000000 0.000000 2.486050 
# 
# From -- ./inp_files/1621.got.cif
#   From: 2010.05.17/outbox.cif.g08.bks.cpg/sg54_1_cif.got.tgz:1621.got - 2010.06.03 13:09:01.
