data_PCOD9420447
_publ_section_title
;
Structure prediction by ZEFSAII (Michael W. Deem and Ramdas Pophale) SiO2 
 PCOD9420447
Probable space group: P C C A
;
_chemical_formula_sum "Si O2"
_cell_formula_units_Z 56
_cell_length_a 13.748279
_cell_length_b 14.417933
_cell_length_c 14.670058
_cell_angle_alpha 90.000000
_cell_angle_beta 90.000000
_cell_angle_gamma 90.000000
_cell_volume 2907.924797
_symmetry_space_group_name_H-M "P C C A"
_symmetry_group_IT_number 54
_symmetry_cell_setting 'orthorhombic'
loop_
_space_group_symop_operation_xyz
x,y,z
1/2-x,-y,z
1/2+x,-y,1/2-z
-x,y,1/2-z
-x,-y,-z
1/2+x,y,-z
1/2-x,y,1/2+z
x,-y,1/2+z
loop_
_atom_site_type_symbol
_atom_site_label
_atom_site_fract_x
_atom_site_fract_y
_atom_site_fract_z
Si Si1 0.481049 0.990999 0.143354
Si Si2 0.626242 0.272347 0.550353
Si Si3 0.750000 0.500000 0.344347
Si Si4 0.439217 0.785570 0.155895
Si Si5 0.677914 0.647478 0.240059
Si Si6 0.153266 0.936255 0.993213
Si Si7 0.570672 0.554435 0.933702
Si Si8 0.500000 0.499721 0.750000
O O1 0.500000 0.012911 0.250000
O O2 0.422972 0.893042 0.137330
O O3 0.413497 0.058191 0.084160
O O4 0.582593 0.973169 0.089115
O O5 0.513878 0.254149 0.581934
O O6 0.682272 0.308858 0.640409
O O7 0.670881 0.173129 0.523430
O O8 0.616438 0.352868 0.475843
O O9 0.766236 0.587625 0.278701
O O10 0.840850 0.486171 0.408987
O O11 0.500000 0.784094 0.250000
O O12 0.348505 0.723195 0.183014
O O13 0.589966 0.571788 0.235621
O O14 0.250000 0.000000 0.997961
O O15 0.514624 0.562220 0.838447
O O16 0.500000 0.500000 0.000000
#
# Coordination Sequence:
#
# PCOD9420447 Si02
#       8
#     8   8   4   8   8   8   8   4
#     4   9  19  38  62  85 115 154 200 256 310 362
#     4  10  18  34  59  81 114 160 197 237 308 372
#     4  10  24  32  54  88 118 154 206 252 290 364
#     4   8  14  29  59  83  99 149 206 241 293 367
#     4  10  16  34  56  83 112 150 206 251 292 365
#     4  10  22  38  58  90 122 153 205 255 306 378
#     4  11  21  39  58  86 120 159 199 245 311 358
#     4  10  18  34  58  82 112 152 192 250 290 354
#
# _framework density 19.257719000000002
#
# number of rings (size 3 to 8) (size 9 to 14) (size 15 to 20)
#    0.000    2.286    3.571    1.714    0.000    2.286 
#    1.286    2.857    0.000    0.000    0.000    0.000 
#    0.000    0.000    0.000    0.000    0.000    0.000 
#
# Total GULP energy -311818.067044 kJ/mol
# GULP energy per Si atom -5568.179769 kJ/mol
# Density = 1.921389 g / cm^3
# Si number density = 19.257719 Si / 1000 Ang^3
#
#
#
# Elastic Constant Matrix: (Units=GPa)
#
#
# Indices 1 2 3 4 5 6 
#
# 1 53.4356 25.3920 34.0261 0.0000 0.0000 0.0000
# 2 25.3920 99.3991 43.8827 0.0000 0.0000 0.0000
# 3 34.0261 43.8827 123.0462 0.0000 0.0000 0.0000
# 4 0.0000 0.0000 0.0000 35.8810 0.0000 0.0000
# 5 0.0000 0.0000 0.0000 0.0000 16.5358 0.0000
# 6 0.0000 0.0000 0.0000 0.0000 0.0000 25.0310
#
#
#
# Elastic Compliance Matrix: (Units=1/GPa)
#
#
# Indices 1 2 3 4 5 6 
#
# 1 0.023851 -0.003775 -0.005249 0.000000 0.000000 0.000000
# 2 -0.003775 0.012538 -0.003428 0.000000 0.000000 0.000000
# 3 -0.005249 -0.003428 0.010801 0.000000 0.000000 0.000000
# 4 0.000000 0.000000 0.000000 0.027870 0.000000 0.000000
# 5 0.000000 0.000000 0.000000 0.000000 0.060475 0.000000
# 6 0.000000 0.000000 0.000000 0.000000 0.000000 0.039950
#
#
# Mechanical properties :
#
#
# Convention : Reuss Voigt Hill
#
# Bulk Modulus (GPa) = 44.87177 53.60916 49.24047
# Shear Modulus (GPa) = 24.05960 26.99489 25.52725
#
# Velocity S-wave (km/s) = 3.53845 3.74808 3.64477
# Velocity P-wave (km/s) = 6.32814 6.82854 6.58310
#
# Compressibility (1/GPa) = 0.02228573
#
# Stress axis : x y z
#
# Youngs Moduli (GPa) = 41.92774 79.75697 92.58490
#
# Poissons Ratio (x) = 0.30112 0.48597
# Poissons Ratio (y) = 0.15830 0.31734
# Poissons Ratio (z) = 0.22008 0.27337
#
# Static dielectric constant tensor:
#      x y z
#    x 1.678370 0.000000 0.000000 
#    y 0.000000 1.723100 0.000000 
#    z 0.000000 0.000000 1.700490 
# 
# From -- ./inp_files/13587.got.cif
#   From: 2010.05.17/outbox.cif.g08.bks.cpg/sg54_7_cif.got.tgz:13587.got - 2010.06.03 13:09:01.
