data_PCOD9420517
_publ_section_title
;
Structure prediction by ZEFSAII (Michael W. Deem and Ramdas Pophale) SiO2 
 PCOD9420517
Probable space group: P C C A
;
_chemical_formula_sum "Si O2"
_cell_formula_units_Z 44
_cell_length_a 5.438453
_cell_length_b 20.407482
_cell_length_c 20.332727
_cell_angle_alpha 90.000000
_cell_angle_beta 90.000000
_cell_angle_gamma 90.000000
_cell_volume 2256.630384
_symmetry_space_group_name_H-M "P C C A"
_symmetry_group_IT_number 54
_symmetry_cell_setting 'orthorhombic'
loop_
_space_group_symop_operation_xyz
x,y,z
1/2-x,-y,z
1/2+x,-y,1/2-z
-x,y,1/2-z
-x,-y,-z
1/2+x,y,-z
1/2-x,y,1/2+z
x,-y,1/2+z
loop_
_atom_site_type_symbol
_atom_site_label
_atom_site_fract_x
_atom_site_fract_y
_atom_site_fract_z
Si Si1 0.250000 0.000000 0.635670
Si Si2 0.126748 0.639228 0.322203
Si Si3 0.873489 0.766114 0.355173
Si Si4 0.750000 0.500000 0.705635
Si Si5 0.276169 0.874317 0.541982
Si Si6 0.500000 0.278830 0.750000
Si Si7 0.000000 0.143577 0.750000
Si Si8 0.500000 0.940018 0.250000
O O1 0.290736 0.936279 0.590873
O O2 0.023090 0.983377 0.684157
O O3 0.179229 0.563748 0.337477
O O4 0.377906 0.674500 0.304242
O O5 0.000000 0.637096 0.250000
O O6 0.976105 0.692299 0.364804
O O7 0.785395 0.805982 0.417588
O O8 0.677698 0.761713 0.296114
O O9 0.059628 0.813320 0.315778
O O10 0.500000 0.486398 0.750000
O O11 0.518137 0.877222 0.496458
O O12 0.248972 0.101326 0.743838
#
# Coordination Sequence:
#
# PCOD9420517 Si02
#       8
#     4   8   8   4   8   4   4   4
#     4  12  28  48  74  94 134 150 220 256 336 392
#     4   9  18  30  54  89 130 173 197 250 314 379
#     4  11  23  38  64  91 127 160 216 261 321 378
#     4  10  18  30  48  86 140 176 202 228 308 414
#     4  12  31  48  66  88 124 177 213 261 317 382
#     4  10  17  34  60  94 125 160 198 268 315 364
#     4  12  23  40  66  98 129 150 200 268 325 370
#     4  12  28  42  70 102 116 158 190 272 326 386
#
# _framework density 19.498099
#
# number of rings (size 3 to 8) (size 9 to 14) (size 15 to 20)
#    0.000    1.091    5.455    1.636    5.091    1.455 
#    0.000    0.000    0.000    0.000    0.000    1.273 
#    0.000    0.000    0.000    0.000    0.000    0.000 
#
# Total GULP energy -245056.393024 kJ/mol
# GULP energy per Si atom -5569.463478 kJ/mol
# Density = 1.945372 g / cm^3
# Si number density = 19.498099 Si / 1000 Ang^3
#
#
#
# Elastic Constant Matrix: (Units=GPa)
#
#
# Indices 1 2 3 4 5 6 
#
# 1 89.7493 37.2950 21.9239 0.0000 0.0000 0.0000
# 2 37.2950 165.8114 44.5907 0.0000 0.0000 0.0000
# 3 21.9239 44.5907 67.4090 0.0000 0.0000 0.0000
# 4 0.0000 0.0000 0.0000 9.8282 0.0000 0.0000
# 5 0.0000 0.0000 0.0000 0.0000 23.9578 0.0000
# 6 0.0000 0.0000 0.0000 0.0000 0.0000 24.8864
#
#
#
# Elastic Compliance Matrix: (Units=1/GPa)
#
#
# Indices 1 2 3 4 5 6 
#
# 1 0.012689 -0.002122 -0.002723 0.000000 0.000000 0.000000
# 2 -0.002122 0.007691 -0.004397 0.000000 0.000000 0.000000
# 3 -0.002723 -0.004397 0.018629 0.000000 0.000000 0.000000
# 4 0.000000 0.000000 0.000000 0.101748 0.000000 0.000000
# 5 0.000000 0.000000 0.000000 0.000000 0.041740 0.000000
# 6 0.000000 0.000000 0.000000 0.000000 0.000000 0.040183
#
#
# Mechanical properties :
#
#
# Convention : Reuss Voigt Hill
#
# Bulk Modulus (GPa) = 48.72287 58.95433 53.83860
# Shear Modulus (GPa) = 20.16077 26.34516 23.25296
#
# Velocity S-wave (km/s) = 3.21905 3.67981 3.45712
# Velocity P-wave (km/s) = 6.23371 6.95386 6.60361
#
# Compressibility (1/GPa) = 0.02052424
#
# Stress axis : x y z
#
# Youngs Moduli (GPa) = 78.80784 130.02706 53.67860
#
# Poissons Ratio (x) = 0.27587 0.14619
# Poissons Ratio (y) = 0.16720 0.23604
# Poissons Ratio (z) = 0.21463 0.57177
#
# Static dielectric constant tensor:
#      x y z
#    x 1.946070 0.000000 0.000000 
#    y 0.000000 1.797340 0.000000 
#    z 0.000000 0.000000 1.655520 
# 
# From -- ./inp_files/19775.got.cif
#   From: 2010.05.17/outbox.cif.g08.bks.cpg/sg54_10_cif.got.tgz:19775.got - 2010.06.03 13:09:01.
