data_PCOD9420731
_publ_section_title
;
Structure prediction by ZEFSAII (Michael W. Deem and Ramdas Pophale) SiO2 
 PCOD9420731
Probable space group: P C C A
;
_chemical_formula_sum "Si O2"
_cell_formula_units_Z 40
_cell_length_a 11.753905
_cell_length_b 7.624597
_cell_length_c 18.955292
_cell_angle_alpha 90.000000
_cell_angle_beta 90.000000
_cell_angle_gamma 90.000000
_cell_volume 1698.750310
_symmetry_space_group_name_H-M "P C C A"
_symmetry_group_IT_number 54
_symmetry_cell_setting 'orthorhombic'
loop_
_space_group_symop_operation_xyz
x,y,z
1/2-x,-y,z
1/2+x,-y,1/2-z
-x,y,1/2-z
-x,-y,-z
1/2+x,y,-z
1/2-x,y,1/2+z
x,-y,1/2+z
loop_
_atom_site_type_symbol
_atom_site_label
_atom_site_fract_x
_atom_site_fract_y
_atom_site_fract_z
Si Si1 0.907413 0.300129 0.809475
Si Si2 0.302581 0.181983 0.857439
Si Si3 0.420147 0.660657 0.922989
Si Si4 0.506341 0.256734 0.927023
Si Si5 0.349645 0.715317 0.205894
O O1 0.781670 0.226541 0.802400
O O2 0.878214 0.508314 0.803489
O O3 0.000000 0.254145 0.750000
O O4 0.972462 0.259664 0.881396
O O5 0.197565 0.302501 0.882556
O O6 0.391482 0.145203 0.920375
O O7 0.370207 0.252076 0.788864
O O8 0.250000 0.000000 0.835318
O O9 0.450185 0.453478 0.922637
O O10 0.421669 0.735143 0.001833
O O11 0.582853 0.206151 0.860047
#
# Coordination Sequence:
#
# PCOD9420731 Si02
#       5
#     8   8   8   8   8
#     4  10  18  35  66  96 121 158 213 274 326 371
#     4  12  25  42  63  93 135 178 214 262 328 401
#     4  10  22  41  68  98 126 167 213 279 329 385
#     4  10  23  42  69  96 128 165 222 277 328 388
#     4  10  21  38  63  94 124 163 213 273 322 374
#
# _framework density 23.546723
#
# number of rings (size 3 to 8) (size 9 to 14) (size 15 to 20)
#    0.000    1.600    2.000    3.600    5.600    0.800 
#    7.200    1.000    0.000    0.000    0.000    0.000 
#    0.000    0.000    0.000    0.000    0.000    0.000 
#
# Total GULP energy -223316.520919 kJ/mol
# GULP energy per Si atom -5582.913023 kJ/mol
# Density = 2.349313 g / cm^3
# Si number density = 23.546723 Si / 1000 Ang^3
#
#
#
# Elastic Constant Matrix: (Units=GPa)
#
#
# Indices 1 2 3 4 5 6 
#
# 1 133.2641 9.4588 69.3820 0.0000 0.0000 0.0000
# 2 9.4588 37.9065 14.9122 0.0000 0.0000 0.0000
# 3 69.3820 14.9122 132.4434 0.0000 0.0000 0.0000
# 4 0.0000 0.0000 0.0000 6.0029 0.0000 0.0000
# 5 0.0000 0.0000 0.0000 0.0000 36.6137 0.0000
# 6 0.0000 0.0000 0.0000 0.0000 0.0000 15.3119
#
#
#
# Elastic Compliance Matrix: (Units=1/GPa)
#
#
# Indices 1 2 3 4 5 6 
#
# 1 0.010326 -0.000469 -0.005357 0.000000 0.000000 0.000000
# 2 -0.000469 0.027625 -0.002864 0.000000 0.000000 0.000000
# 3 -0.005357 -0.002864 0.010679 0.000000 0.000000 0.000000
# 4 0.000000 0.000000 0.000000 0.166585 0.000000 0.000000
# 5 0.000000 0.000000 0.000000 0.000000 0.027312 0.000000
# 6 0.000000 0.000000 0.000000 0.000000 0.000000 0.065309
#
#
# Mechanical properties :
#
#
# Convention : Reuss Voigt Hill
#
# Bulk Modulus (GPa) = 32.00114 54.56888 43.28501
# Shear Modulus (GPa) = 14.89724 25.57645 20.23685
#
# Velocity S-wave (km/s) = 2.51802 3.29933 2.93479
# Velocity P-wave (km/s) = 4.69828 6.14322 5.46868
#
# Compressibility (1/GPa) = 0.03124889
#
# Stress axis : x y z
#
# Youngs Moduli (GPa) = 96.84273 36.19955 93.64177
#
# Poissons Ratio (x) = 0.01699 0.50160
# Poissons Ratio (y) = 0.04546 0.26823
# Poissons Ratio (z) = 0.51874 0.10369
#
# Static dielectric constant tensor:
#      x y z
#    x 1.880140 0.000000 0.000000 
#    y 0.000000 1.965360 0.000000 
#    z 0.000000 0.000000 1.884570 
# 
# From -- ./inp_files/17107.got.cif
#   From: 2010.05.17/outbox.cif.g08.bks.cpg/sg54_9_cif.got.tgz:17107.got - 2010.06.03 13:09:01.
