data_PCOD9420502
_publ_section_title
;
Structure prediction by ZEFSAII (Michael W. Deem and Ramdas Pophale) SiO2 
 PCOD9420502
Probable space group: P C C A
;
_chemical_formula_sum "Si O2"
_cell_formula_units_Z 64
_cell_length_a 17.379570
_cell_length_b 11.460010
_cell_length_c 17.888589
_cell_angle_alpha 90.000000
_cell_angle_beta 90.000000
_cell_angle_gamma 90.000000
_cell_volume 3562.871094
_symmetry_space_group_name_H-M "P C C A"
_symmetry_group_IT_number 54
_symmetry_cell_setting 'orthorhombic'
loop_
_space_group_symop_operation_xyz
x,y,z
1/2-x,-y,z
1/2+x,-y,1/2-z
-x,y,1/2-z
-x,-y,-z
1/2+x,y,-z
1/2-x,y,1/2+z
x,-y,1/2+z
loop_
_atom_site_type_symbol
_atom_site_label
_atom_site_fract_x
_atom_site_fract_y
_atom_site_fract_z
Si Si1 0.563444 0.440815 0.552450
Si Si2 0.662395 0.957962 0.131372
Si Si3 0.669069 0.046803 0.396342
Si Si4 0.073157 0.082772 0.984058
Si Si5 0.565445 0.711656 0.405595
Si Si6 0.177403 0.758829 0.989361
Si Si7 0.686176 0.597549 0.504662
Si Si8 0.415978 0.087669 0.716362
O O1 0.500000 0.500000 0.500000
O O2 0.510323 0.366963 0.609755
O O3 0.615550 0.344148 0.511601
O O4 0.626735 0.543084 0.565660
O O5 0.653917 0.850020 0.074479
O O6 0.640658 0.914142 0.213405
O O7 0.750000 0.000000 0.128324
O O8 0.604300 0.058088 0.099267
O O9 0.676612 0.173285 0.432188
O O10 0.750000 0.000000 0.366903
O O11 0.643914 0.962896 0.464824
O O12 0.605227 0.023616 0.334562
O O13 0.052168 0.207902 0.019473
O O14 0.000000 0.000000 0.000000
O O15 0.636275 0.631596 0.432102
O O16 0.585545 0.799749 0.338489
O O17 0.262325 0.708362 0.972503
O O18 0.750000 0.500000 0.487575
O O19 0.500000 0.079911 0.750000
#
# Coordination Sequence:
#
# PCOD9420502 Si02
#       8
#     8   8   8   8   8   8   8   8
#     4   9  18  30  49  78  99 120 166 220 256 293
#     4  11  21  32  49  79 110 137 171 209 252 316
#     4  10  19  32  50  74 103 139 174 204 252 322
#     4  10  18  30  50  77 104 134 170 206 250 313
#     4  10  18  33  52  71 102 139 168 207 266 310
#     4  10  17  32  53  75 105 135 163 210 271 308
#     4   9  18  31  52  78  97 120 167 226 264 303
#     4  11  22  34  49  74 107 142 176 208 251 321
#
# _framework density 17.963041
#
# number of rings (size 3 to 8) (size 9 to 14) (size 15 to 20)
#    0.000    2.000    0.000    7.875    0.000    0.000 
#    0.000    0.000    0.000    3.750    0.000   48.125 
#    0.000    0.000    0.000    0.000    0.000    0.000 
#
# Total GULP energy -356270.804926 kJ/mol
# GULP energy per Si atom -5566.731327 kJ/mol
# Density = 1.792216 g / cm^3
# Si number density = 17.963041 Si / 1000 Ang^3
#
#
#
# Elastic Constant Matrix: (Units=GPa)
#
#
# Indices 1 2 3 4 5 6 
#
# 1 79.7062 20.5474 15.5547 0.0000 0.0000 0.0000
# 2 20.5474 62.0085 26.6122 0.0000 0.0000 0.0000
# 3 15.5547 26.6122 74.6357 0.0000 0.0000 0.0000
# 4 0.0000 0.0000 0.0000 13.3533 0.0000 0.0000
# 5 0.0000 0.0000 0.0000 0.0000 25.6312 0.0000
# 6 0.0000 0.0000 0.0000 0.0000 0.0000 38.7670
#
#
#
# Elastic Compliance Matrix: (Units=1/GPa)
#
#
# Indices 1 2 3 4 5 6 
#
# 1 0.013854 -0.003957 -0.001476 0.000000 0.000000 0.000000
# 2 -0.003957 0.020171 -0.006367 0.000000 0.000000 0.000000
# 3 -0.001476 -0.006367 0.015976 0.000000 0.000000 0.000000
# 4 0.000000 0.000000 0.000000 0.074888 0.000000 0.000000
# 5 0.000000 0.000000 0.000000 0.000000 0.039015 0.000000
# 6 0.000000 0.000000 0.000000 0.000000 0.000000 0.025795
#
#
# Mechanical properties :
#
#
# Convention : Reuss Voigt Hill
#
# Bulk Modulus (GPa) = 37.87935 37.97545 37.92740
# Shear Modulus (GPa) = 22.51225 25.79270 24.15247
#
# Velocity S-wave (km/s) = 3.54397 3.79341 3.67081
# Velocity P-wave (km/s) = 6.15463 6.35400 6.25511
#
# Compressibility (1/GPa) = 0.02639961
#
# Stress axis : x y z
#
# Youngs Moduli (GPa) = 72.17960 49.57655 62.59203
#
# Poissons Ratio (x) = 0.19619 0.09241
# Poissons Ratio (y) = 0.28563 0.39855
# Poissons Ratio (z) = 0.10656 0.31567
#
# Static dielectric constant tensor:
#      x y z
#    x 1.691090 0.000000 0.000000 
#    y 0.000000 1.683280 0.000000 
#    z 0.000000 0.000000 1.624220 
# 
# From -- ./inp_files/18725.got.cif
#   From: 2010.05.17/outbox.cif.g08.bks.cpg/sg54_10_cif.got.tgz:18725.got - 2010.06.03 13:09:01.
