data_PCOD9420259
_publ_section_title
;
Structure prediction by ZEFSAII (Michael W. Deem and Ramdas Pophale) SiO2 
 PCOD9420259
Probable space group: P M N A
;
_chemical_formula_sum "Si O2"
_cell_formula_units_Z 48
_cell_length_a 9.000000
_cell_length_b 30.000000
_cell_length_c 9.000000
_cell_angle_alpha 90.000000
_cell_angle_beta 90.000000
_cell_angle_gamma 90.000000
_cell_volume 2430.000000
_symmetry_space_group_name_H-M "P M N A"
_symmetry_group_IT_number 53
_symmetry_cell_setting 'orthorhombic'
loop_
_space_group_symop_operation_xyz
x,y,z
1/2-x,-y,1/2+z
x,-y,-z
1/2-x,y,1/2-z
-x,-y,-z
1/2+x,y,1/2-z
-x,y,z
1/2+x,-y,1/2+z
loop_
_atom_site_type_symbol
_atom_site_label
_atom_site_fract_x
_atom_site_fract_y
_atom_site_fract_z
Si Si1 0.674537 0.792558 0.903032
Si Si2 0.825761 0.119526 0.591494
Si Si3 0.833272 0.542703 0.604384
Si Si4 0.831009 0.955799 0.901600
Si Si5 0.325018 0.386013 0.592821
Si Si6 0.824265 0.281362 0.908541
O O1 0.750000 0.806475 0.750000
O O2 0.500000 0.785296 0.880552
O O3 0.694725 0.831703 0.022141
O O4 0.751163 0.748507 0.965776
O O5 0.750000 0.116713 0.750000
O O6 0.753354 0.083540 0.484067
O O7 0.000000 0.110586 0.605597
O O8 0.837567 0.500000 0.500000
O O9 0.750000 0.528053 0.750000
O O10 0.746578 0.582994 0.529638
O O11 0.000000 0.557325 0.638107
O O12 0.750000 0.966482 0.750000
O O13 0.000000 0.941855 0.872972
O O14 0.831102 0.000000 0.000000
O O15 0.250000 0.396591 0.750000
O O16 0.500000 0.393874 0.603535
O O17 0.300033 0.333735 0.562675
O O18 0.750000 0.270661 0.750000
O O19 0.000000 0.273066 0.899611
#
# Coordination Sequence:
#
# PCOD9420259 Si02
#       6
#     8   8   8   8   8   8
#     4  11  24  40  60  87 119 156 197 243 294 348
#     4  11  24  41  63  90 120 156 198 244 295 351
#     4  11  24  40  60  86 116 152 193 238 289 345
#     4  11  24  41  63  91 123 159 199 244 294 349
#     4  10  21  38  61  88 118 153 193 238 289 345
#     4  10  21  38  61  88 118 154 195 239 289 346
#
# _framework density 19.753086
#
# number of rings (size 3 to 8) (size 9 to 14) (size 15 to 20)
#    0.000    1.333    0.000    5.000    0.000   13.333 
#    0.000    0.000    0.000    0.000    0.000    0.000 
#    0.000    0.000    0.000    0.000    0.000    0.000 
#
# Total GULP energy -268366.046860 kJ/mol
# GULP energy per Si atom -5590.959310 kJ/mol
# Density = 1.970813 g / cm^3
# Si number density = 19.753086 Si / 1000 Ang^3
#
#
#
# Elastic Constant Matrix: (Units=GPa)
#
#
# Indices 1 2 3 4 5 6 
#
# 1 36.3076 62.8992 64.2514 0.0000 0.0000 0.0000
# 2 62.8992 24.0996 22.1856 0.0000 0.0000 0.0000
# 3 64.2514 22.1856 84.7733 0.0000 0.0000 0.0000
# 4 0.0000 0.0000 0.0000 356.1616 0.0000 0.0000
# 5 0.0000 0.0000 0.0000 0.0000 27.0581 0.0000
# 6 0.0000 0.0000 0.0000 0.0000 0.0000 30.8447
#
#
#
# Elastic Compliance Matrix: (Units=1/GPa)
#
#
# Indices 1 2 3 4 5 6 
#
# 1 -0.007783 0.019607 0.000768 0.000000 0.000000 0.000000
# 2 0.019607 0.005271 -0.016240 0.000000 0.000000 0.000000
# 3 0.000768 -0.016240 0.015464 0.000000 0.000000 0.000000
# 4 0.000000 0.000000 0.000000 0.002808 0.000000 0.000000
# 5 0.000000 0.000000 0.000000 0.000000 0.036958 0.000000
# 6 0.000000 0.000000 0.000000 0.000000 0.000000 0.032420
#
#
# Mechanical properties :
#
#
# Convention : Reuss Voigt Hill
#
# Bulk Modulus (GPa) = 47.12121 49.31700 48.21910
# Shear Modulus (GPa) = 59.56431 82.53584 71.05008
#
# Velocity S-wave (km/s) = 5.49726 6.47105 6.00393
# Velocity P-wave (km/s) = 8.01250 8.99186 8.51627
#
# Compressibility (1/GPa) = 0.02122187
#
# Stress axis : x y z
#
# Youngs Moduli (GPa) = -128.48349 189.70612 64.66492
#
# Poissons Ratio (x) = -3.71954 -0.04965
# Poissons Ratio (y) = 2.51916 1.05016
# Poissons Ratio (z) = 0.09865 3.08082
#
# Static dielectric constant tensor:
#      x y z
#    x 1.676440 0.000000 0.000000 
#    y 0.000000 1.653530 0.000000 
#    z 0.000000 0.000000 1.652130 
# 
# From -- ./inp_files/6680.got.cif
#   From: 2010.05.17/outbox.ucp.g08.bks.cvg/sg53_4_cif.got.tgz:6680.got - 2010.06.11 16:32:34.
