data_PCOD9420613
_publ_section_title
;
Structure prediction by ZEFSAII (Michael W. Deem and Ramdas Pophale) SiO2 
 PCOD9420613
Probable space group: P C C A
;
_chemical_formula_sum "Si O2"
_cell_formula_units_Z 52
_cell_length_a 9.032800
_cell_length_b 11.465842
_cell_length_c 24.901987
_cell_angle_alpha 90.000000
_cell_angle_beta 90.000000
_cell_angle_gamma 90.000000
_cell_volume 2579.065366
_symmetry_space_group_name_H-M "P C C A"
_symmetry_group_IT_number 54
_symmetry_cell_setting 'orthorhombic'
loop_
_space_group_symop_operation_xyz
x,y,z
1/2-x,-y,z
1/2+x,-y,1/2-z
-x,y,1/2-z
-x,-y,-z
1/2+x,y,-z
1/2-x,y,1/2+z
x,-y,1/2+z
loop_
_atom_site_type_symbol
_atom_site_label
_atom_site_fract_x
_atom_site_fract_y
_atom_site_fract_z
Si Si1 0.042448 0.555515 0.624069
Si Si2 0.897442 0.314936 0.928766
Si Si3 0.224889 0.135994 0.148691
Si Si4 0.692456 0.769762 0.520875
Si Si5 0.335179 0.316385 0.726821
Si Si6 0.250000 0.500000 0.809839
Si Si7 0.015025 0.200010 0.428204
O O1 0.892273 0.515850 0.653416
O O2 0.108705 0.441721 0.596762
O O3 0.140699 0.609345 0.672156
O O4 0.004997 0.660014 0.582277
O O5 0.832013 0.212331 0.890587
O O6 0.068281 0.292252 0.943678
O O7 0.797106 0.308657 0.982368
O O8 0.233796 0.196453 0.206559
O O9 0.058326 0.150591 0.125283
O O10 0.250000 0.000000 0.148618
O O11 0.590526 0.838805 0.477793
O O12 0.816422 0.829993 0.557876
O O13 0.500000 0.299313 0.750000
O O14 0.242881 0.388873 0.770127
#
# Coordination Sequence:
#
# PCOD9420613 Si02
#       7
#     8   8   8   8   8   4   8
#     4  10  19  30  52  79 110 143 172 213 264 321
#     4  10  20  34  52  80 111 144 181 217 262 317
#     4  10  21  39  58  76 104 141 182 231 277 315
#     4   9  19  33  51  80 113 145 179 216 261 313
#     4   9  19  35  55  79 107 139 175 217 272 329
#     4  10  18  32  54  82 108 138 174 214 262 328
#     4   9  19  34  52  78 111 145 179 216 264 316
#
# _framework density 20.162343
#
# number of rings (size 3 to 8) (size 9 to 14) (size 15 to 20)
#    0.000    2.462    0.000    1.846    0.000    8.615 
#    0.000   14.615    0.000    0.000    0.000    0.000 
#    0.000    0.000    0.000    0.000    0.000    0.000 
#
# Total GULP energy -289950.184027 kJ/mol
# GULP energy per Si atom -5575.965077 kJ/mol
# Density = 2.011645 g / cm^3
# Si number density = 20.162343 Si / 1000 Ang^3
#
#
#
# Elastic Constant Matrix: (Units=GPa)
#
#
# Indices 1 2 3 4 5 6 
#
# 1 119.1948 27.4574 23.3541 0.0000 0.0000 0.0000
# 2 27.4574 104.8607 26.6335 0.0000 0.0000 0.0000
# 3 23.3541 26.6335 55.6309 0.0000 0.0000 0.0000
# 4 0.0000 0.0000 0.0000 0.6016 0.0000 0.0000
# 5 0.0000 0.0000 0.0000 0.0000 31.4279 0.0000
# 6 0.0000 0.0000 0.0000 0.0000 0.0000 9.6505
#
#
#
# Elastic Compliance Matrix: (Units=1/GPa)
#
#
# Indices 1 2 3 4 5 6 
#
# 1 0.009388 -0.001659 -0.003147 0.000000 0.000000 0.000000
# 2 -0.001659 0.011150 -0.004642 0.000000 0.000000 0.000000
# 3 -0.003147 -0.004642 0.021519 0.000000 0.000000 0.000000
# 4 0.000000 0.000000 0.000000 1.662296 0.000000 0.000000
# 5 0.000000 0.000000 0.000000 0.000000 0.031819 0.000000
# 6 0.000000 0.000000 0.000000 0.000000 0.000000 0.103622
#
#
# Mechanical properties :
#
#
# Convention : Reuss Voigt Hill
#
# Bulk Modulus (GPa) = 43.17432 48.28629 45.73030
# Shear Modulus (GPa) = 2.67894 21.81874 12.24884
#
# Velocity S-wave (km/s) = 1.15394 3.29318 2.46745
# Velocity P-wave (km/s) = 4.82030 6.20167 5.55410
#
# Compressibility (1/GPa) = 0.02316192
#
# Stress axis : x y z
#
# Youngs Moduli (GPa) = 106.51446 89.68792 46.47074
#
# Poissons Ratio (x) = 0.14879 0.14625
# Poissons Ratio (y) = 0.17671 0.21570
# Poissons Ratio (z) = 0.33520 0.41629
#
# Static dielectric constant tensor:
#      x y z
#    x 1.751930 0.000000 0.000000 
#    y 0.000000 1.721730 0.000000 
#    z 0.000000 0.000000 1.740770 
# 
# From -- ./inp_files/25899.got.cif
#   From: 2010.05.17/outbox.cif.g08.bks.cpg/sg54_13_cif.got.tgz:25899.got - 2010.06.03 13:09:01.
