data_PCOD9420696
_publ_section_title
;
Structure prediction by ZEFSAII (Michael W. Deem and Ramdas Pophale) SiO2 
 PCOD9420696
Probable space group: P C C A
;
_chemical_formula_sum "Si O2"
_cell_formula_units_Z 36
_cell_length_a 5.582931
_cell_length_b 13.915395
_cell_length_c 21.194675
_cell_angle_alpha 90.000000
_cell_angle_beta 90.000000
_cell_angle_gamma 90.000000
_cell_volume 1646.586538
_symmetry_space_group_name_H-M "P C C A"
_symmetry_group_IT_number 54
_symmetry_cell_setting 'orthorhombic'
loop_
_space_group_symop_operation_xyz
x,y,z
1/2-x,-y,z
1/2+x,-y,1/2-z
-x,y,1/2-z
-x,-y,-z
1/2+x,y,-z
1/2-x,y,1/2+z
x,-y,1/2+z
loop_
_atom_site_type_symbol
_atom_site_label
_atom_site_fract_x
_atom_site_fract_y
_atom_site_fract_z
Si Si1 0.500000 0.335892 0.250000
Si Si2 0.645153 0.205615 0.684317
Si Si3 0.847163 0.381814 0.355171
Si Si4 0.797264 0.322738 0.988293
Si Si5 0.250000 0.500000 0.913109
Si Si6 0.750000 0.000000 0.208830
O O1 0.382941 0.265918 0.301667
O O2 0.707904 0.388107 0.288913
O O3 0.500000 0.196132 0.750000
O O4 0.486782 0.279462 0.645285
O O5 0.706830 0.096436 0.668241
O O6 0.695178 0.369756 0.418965
O O7 0.034301 0.468061 0.366442
O O8 0.545038 0.269426 0.998200
O O9 0.770544 0.410864 0.037915
O O10 0.500000 0.015322 0.250000
#
# Coordination Sequence:
#
# PCOD9420696 Si02
#       6
#     4   8   8   8   4   4
#     4  10  20  36  58  88 128 170 190 256 332 390
#     4   9  19  35  56  85 121 161 201 250 312 387
#     4  10  21  36  61  87 126 160 211 264 319 375
#     4  10  21  38  62  92 108 151 217 279 300 338
#     4  10  22  42  64  90 112 164 230 278 292 352
#     4  10  18  34  60  86 116 160 212 250 294 384
#
# _framework density 21.863410999999999
#
# number of rings (size 3 to 8) (size 9 to 14) (size 15 to 20)
#    0.000    2.222    1.111    2.667    6.222    0.000 
#    0.000    0.000    7.333    1.333    2.889    6.222 
#    0.000    0.222    0.000    0.000    0.000    0.000 
#
# Total GULP energy -200587.939530 kJ/mol
# GULP energy per Si atom -5571.887209 kJ/mol
# Density = 2.181365 g / cm^3
# Si number density = 21.863411 Si / 1000 Ang^3
#
#
#
# Elastic Constant Matrix: (Units=GPa)
#
#
# Indices 1 2 3 4 5 6 
#
# 1 112.2044 22.9246 33.4205 0.0000 0.0000 0.0000
# 2 22.9246 118.2635 33.6938 0.0000 0.0000 0.0000
# 3 33.4205 33.6938 79.4004 0.0000 0.0000 0.0000
# 4 0.0000 0.0000 0.0000 13.6638 0.0000 0.0000
# 5 0.0000 0.0000 0.0000 0.0000 38.4620 0.0000
# 6 0.0000 0.0000 0.0000 0.0000 0.0000 26.6362
#
#
#
# Elastic Compliance Matrix: (Units=1/GPa)
#
#
# Indices 1 2 3 4 5 6 
#
# 1 0.010267 -0.000863 -0.003955 0.000000 0.000000 0.000000
# 2 -0.000863 0.009691 -0.003749 0.000000 0.000000 0.000000
# 3 -0.003955 -0.003749 0.015850 0.000000 0.000000 0.000000
# 4 0.000000 0.000000 0.000000 0.073186 0.000000 0.000000
# 5 0.000000 0.000000 0.000000 0.000000 0.026000 0.000000
# 6 0.000000 0.000000 0.000000 0.000000 0.000000 0.037543
#
#
# Mechanical properties :
#
#
# Convention : Reuss Voigt Hill
#
# Bulk Modulus (GPa) = 53.55310 54.43845 53.99578
# Shear Modulus (GPa) = 25.52376 30.40769 27.96573
#
# Velocity S-wave (km/s) = 3.42046 3.73339 3.58035
# Velocity P-wave (km/s) = 6.33616 6.59831 6.46856
#
# Compressibility (1/GPa) = 0.01867305
#
# Stress axis : x y z
#
# Youngs Moduli (GPa) = 97.40214 103.18666 63.09131
#
# Poissons Ratio (x) = 0.08908 0.24953
# Poissons Ratio (y) = 0.08409 0.23653
# Poissons Ratio (z) = 0.38523 0.38686
#
# Static dielectric constant tensor:
#      x y z
#    x 2.060920 0.000000 0.000000 
#    y 0.000000 1.800120 0.000000 
#    z 0.000000 0.000000 1.829450 
# 
# From -- ./inp_files/19641.got.cif
#   From: 2010.05.17/outbox.cif.g08.bks.cpg/sg54_10_cif.got.tgz:19641.got - 2010.06.03 13:09:01.
