data_PCOD9420820
_publ_section_title
;
Structure prediction by ZEFSAII (Michael W. Deem and Ramdas Pophale) SiO2 
 PCOD9420820
Probable space group: P C C A
;
_chemical_formula_sum "Si O2"
_cell_formula_units_Z 64
_cell_length_a 20.944382
_cell_length_b 23.312932
_cell_length_c 5.564876
_cell_angle_alpha 90.000000
_cell_angle_beta 90.000000
_cell_angle_gamma 90.000000
_cell_volume 2717.189569
_symmetry_space_group_name_H-M "P C C A"
_symmetry_group_IT_number 54
_symmetry_cell_setting 'orthorhombic'
loop_
_space_group_symop_operation_xyz
x,y,z
1/2-x,-y,z
1/2+x,-y,1/2-z
-x,y,1/2-z
-x,-y,-z
1/2+x,y,-z
1/2-x,y,1/2+z
x,-y,1/2+z
loop_
_atom_site_type_symbol
_atom_site_label
_atom_site_fract_x
_atom_site_fract_y
_atom_site_fract_z
Si Si1 0.176567 0.522223 0.075476
Si Si2 0.996069 0.091955 0.000371
Si Si3 0.635581 0.649323 0.814906
Si Si4 0.393159 0.187235 0.523496
Si Si5 0.390254 0.311521 0.683108
Si Si6 0.356545 0.852505 0.522512
Si Si7 0.750045 0.740734 0.268520
Si Si8 0.321920 0.022887 0.146852
O O1 0.250000 0.500000 0.060605
O O2 0.148202 0.492179 0.313648
O O3 0.169535 0.589512 0.123614
O O4 0.928882 0.124019 0.996311
O O5 0.000000 0.060292 0.750000
O O6 0.000000 0.060065 0.250000
O O7 0.050820 0.140777 0.003932
O O8 0.602331 0.648359 0.551511
O O9 0.691271 0.696428 0.778755
O O10 0.592988 0.666695 0.048773
O O11 0.418163 0.249806 0.603247
O O12 0.360801 0.188344 0.258301
O O13 0.348258 0.169062 0.748588
O O14 0.314433 0.297469 0.716192
O O15 0.318479 0.909438 0.596058
O O16 0.752382 0.773601 0.518527
O O17 0.250000 0.000000 0.167712
O O18 0.351803 0.992728 0.908135
#
# Coordination Sequence:
#
# PCOD9420820 Si02
#       8
#     8   8   8   8   8   8   8   8
#     4  10  21  27  43  64  79 116 177 237 279 307
#     4   8  16  30  52  79 106 136 161 205 260 313
#     4  10  19  31  44  60  93 127 175 227 257 308
#     4  10  19  33  54  81 108 135 177 206 269 331
#     4  10  19  29  48  64  93 135 160 206 265 312
#     4  10  19  35  60  81 109 138 172 223 260 310
#     4   8  16  25  42  50  80 118 157 200 245 287
#     4  10  21  38  63  81 106 147 185 219 267 304
#
# _framework density 23.553747999999999
#
# number of rings (size 3 to 8) (size 9 to 14) (size 15 to 20)
#    0.000    2.500    0.000    2.250   10.500    0.000 
#    0.000    0.000   49.500   20.250    0.000    0.000 
#    0.000    0.000    0.000    0.000    0.000  393.750 
#
# Total GULP energy -356849.575516 kJ/mol
# GULP energy per Si atom -5575.774617 kJ/mol
# Density = 2.350014 g / cm^3
# Si number density = 23.553748 Si / 1000 Ang^3
#
#
#
# Elastic Constant Matrix: (Units=GPa)
#
#
# Indices 1 2 3 4 5 6 
#
# 1 16.8856 16.9225 31.0490 0.0000 0.0000 0.0000
# 2 16.9225 92.1728 4.9122 0.0000 0.0000 0.0000
# 3 31.0490 4.9122 230.0034 0.0000 0.0000 0.0000
# 4 0.0000 0.0000 0.0000 234.0559 0.0000 0.0000
# 5 0.0000 0.0000 0.0000 0.0000 26.4781 0.0000
# 6 0.0000 0.0000 0.0000 0.0000 0.0000 39.1335
#
#
#
# Elastic Compliance Matrix: (Units=1/GPa)
#
#
# Indices 1 2 3 4 5 6 
#
# 1 0.101804 -0.017979 -0.013359 0.000000 0.000000 0.000000
# 2 -0.017979 0.014037 0.002127 0.000000 0.000000 0.000000
# 3 -0.013359 0.002127 0.006106 0.000000 0.000000 0.000000
# 4 0.000000 0.000000 0.000000 0.004272 0.000000 0.000000
# 5 0.000000 0.000000 0.000000 0.000000 0.037767 0.000000
# 6 0.000000 0.000000 0.000000 0.000000 0.000000 0.025554
#
#
# Mechanical properties :
#
#
# Convention : Reuss Voigt Hill
#
# Bulk Modulus (GPa) = 15.74172 49.42549 32.58360
# Shear Modulus (GPa) = 18.57795 79.01202 48.79498
#
# Velocity S-wave (km/s) = 2.81151 5.79812 4.55647
# Velocity P-wave (km/s) = 4.15178 8.11505 6.44559
#
# Compressibility (1/GPa) = 0.06352547
#
# Stress axis : x y z
#
# Youngs Moduli (GPa) = 9.82277 71.24197 163.78127
#
# Poissons Ratio (x) = 1.28085 2.18795
# Poissons Ratio (y) = 0.17660 -0.34840
# Poissons Ratio (z) = 0.13122 -0.15155
#
# Static dielectric constant tensor:
#      x y z
#    x 1.893670 0.000000 0.000000 
#    y 0.000000 1.823130 0.000000 
#    z 0.000000 0.000000 2.071620 
# 
# From -- ./inp_files/2027.got.cif
#   From: 2010.05.17/outbox.cif.g08.bks.cpg/sg54_2_cif.got.tgz:2027.got - 2010.06.03 13:09:01.
