data_PCOD9420445
_publ_section_title
;
Structure prediction by ZEFSAII (Michael W. Deem and Ramdas Pophale) SiO2 
 PCOD9420445
Probable space group: P C C A
;
_chemical_formula_sum "Si O2"
_cell_formula_units_Z 40
_cell_length_a 28.491409
_cell_length_b 12.020903
_cell_length_c 5.513343
_cell_angle_alpha 90.000000
_cell_angle_beta 90.000000
_cell_angle_gamma 90.000000
_cell_volume 1888.278429
_symmetry_space_group_name_H-M "P C C A"
_symmetry_group_IT_number 54
_symmetry_cell_setting 'orthorhombic'
loop_
_space_group_symop_operation_xyz
x,y,z
1/2-x,-y,z
1/2+x,-y,1/2-z
-x,y,1/2-z
-x,-y,-z
1/2+x,y,-z
1/2-x,y,1/2+z
x,-y,1/2+z
loop_
_atom_site_type_symbol
_atom_site_label
_atom_site_fract_x
_atom_site_fract_y
_atom_site_fract_z
Si Si1 0.402455 0.464252 0.302419
Si Si2 0.122490 0.928915 0.709277
Si Si3 0.561303 0.239439 0.057196
Si Si4 0.269104 0.127913 0.693237
Si Si5 0.500000 0.604442 0.250000
Si Si6 0.000000 0.933613 0.250000
O O1 0.379432 0.500546 0.553012
O O2 0.407691 0.332386 0.316059
O O3 0.453971 0.529463 0.308464
O O4 0.086256 0.827946 0.660003
O O5 0.174991 0.880286 0.700487
O O6 0.117838 0.991880 0.968038
O O7 0.544297 0.146736 0.240855
O O8 0.517574 0.311588 0.957326
O O9 0.248954 0.178831 0.941125
O O10 0.250000 0.000000 0.690309
O O11 0.000000 0.000000 0.500000
#
# Coordination Sequence:
#
# PCOD9420445 Si02
#       6
#     8   8   8   8   4   4
#     4  10  20  36  58  77  95 131 183 237 282 307
#     4  12  23  36  53  83 116 147 182 224 265 319
#     4  11  23  37  56  79 108 145 192 233 268 319
#     4  10  16  33  57  76 101 145 177 215 268 316
#     4  10  20  40  60  76 100 144 190 240 280 314
#     4  12  24  38  48  66 106 156 184 202 256 320
#
# _framework density 21.183315
#
# number of rings (size 3 to 8) (size 9 to 14) (size 15 to 20)
#    0.000    1.200    4.000    6.000    0.000    6.400 
#    0.000    0.000    0.000    0.000    0.000    0.000 
#    0.000   19.200    0.000    0.000    0.000    0.000 
#
# Total GULP energy -223309.723795 kJ/mol
# GULP energy per Si atom -5582.743095 kJ/mol
# Density = 2.113510 g / cm^3
# Si number density = 21.183315 Si / 1000 Ang^3
#
#
#
# Elastic Constant Matrix: (Units=GPa)
#
#
# Indices 1 2 3 4 5 6 
#
# 1 36.6174 2.9054 10.3060 0.0000 0.0000 0.0000
# 2 2.9054 87.3522 59.1906 0.0000 0.0000 0.0000
# 3 10.3060 59.1906 196.5075 0.0000 0.0000 0.0000
# 4 0.0000 0.0000 0.0000 24.9519 0.0000 0.0000
# 5 0.0000 0.0000 0.0000 0.0000 20.7581 0.0000
# 6 0.0000 0.0000 0.0000 0.0000 0.0000 2.7677
#
#
#
# Elastic Compliance Matrix: (Units=1/GPa)
#
#
# Indices 1 2 3 4 5 6 
#
# 1 0.027719 0.000079 -0.001478 0.000000 0.000000 0.000000
# 2 0.000079 0.014384 -0.004337 0.000000 0.000000 0.000000
# 3 -0.001478 -0.004337 0.006473 0.000000 0.000000 0.000000
# 4 0.000000 0.000000 0.000000 0.040077 0.000000 0.000000
# 5 0.000000 0.000000 0.000000 0.000000 0.048174 0.000000
# 6 0.000000 0.000000 0.000000 0.000000 0.000000 0.361313
#
#
# Mechanical properties :
#
#
# Convention : Reuss Voigt Hill
#
# Bulk Modulus (GPa) = 26.95029 51.69792 39.32411
# Shear Modulus (GPa) = 9.57894 26.23388 17.90641
#
# Velocity S-wave (km/s) = 2.12879 3.52294 2.91057
# Velocity P-wave (km/s) = 4.33502 6.40360 5.46802
#
# Compressibility (1/GPa) = 0.03710535
#
# Stress axis : x y z
#
# Youngs Moduli (GPa) = 36.07629 69.52211 154.49612
#
# Poissons Ratio (x) = -0.00551 0.22829
# Poissons Ratio (y) = -0.00286 0.67002
# Poissons Ratio (z) = 0.05331 0.30150
#
# Static dielectric constant tensor:
#      x y z
#    x 1.772160 0.000000 0.000000 
#    y 0.000000 1.765630 0.000000 
#    z 0.000000 0.000000 1.847820 
# 
# From -- ./inp_files/2111.got.cif
#   From: 2010.05.17/outbox.cif.g08.bks.cpg/sg54_2_cif.got.tgz:2111.got - 2010.06.03 13:09:01.
