data_PCOD9420357
_publ_section_title
;
Structure prediction by ZEFSAII (Michael W. Deem and Ramdas Pophale) SiO2 
 PCOD9420357
Probable space group: P C C A
;
_chemical_formula_sum "Si O2"
_cell_formula_units_Z 48
_cell_length_a 5.549568
_cell_length_b 20.169443
_cell_length_c 18.452661
_cell_angle_alpha 90.000000
_cell_angle_beta 90.000000
_cell_angle_gamma 90.000000
_cell_volume 2065.437631
_symmetry_space_group_name_H-M "P C C A"
_symmetry_group_IT_number 54
_symmetry_cell_setting 'orthorhombic'
loop_
_space_group_symop_operation_xyz
x,y,z
1/2-x,-y,z
1/2+x,-y,1/2-z
-x,y,1/2-z
-x,-y,-z
1/2+x,y,-z
1/2-x,y,1/2+z
x,-y,1/2+z
loop_
_atom_site_type_symbol
_atom_site_label
_atom_site_fract_x
_atom_site_fract_y
_atom_site_fract_z
Si Si1 0.952618 0.737304 0.923549
Si Si2 0.496733 0.526698 0.915963
Si Si3 0.461758 0.315485 0.413713
Si Si4 0.766354 0.072284 0.625195
Si Si5 0.249808 0.183144 0.750355
Si Si6 0.276715 0.882044 0.093120
O O1 0.717853 0.709286 0.882598
O O2 0.865689 0.812264 0.940602
O O3 0.216104 0.722423 0.889067
O O4 0.974609 0.701682 0.000789
O O5 0.750000 0.500000 0.885172
O O6 0.467417 0.605512 0.910817
O O7 0.250000 0.500000 0.882163
O O8 0.500000 0.500000 0.000000
O O9 0.752900 0.132079 0.682627
O O10 0.512696 0.073447 0.582647
O O11 0.011752 0.087368 0.580548
O O12 0.750000 0.000000 0.661637
O O13 0.500000 0.221213 0.750000
O O14 0.256952 0.137317 0.678599
O O15 0.000000 0.220977 0.750000
#
# Coordination Sequence:
#
# PCOD9420357 Si02
#       6
#     8   8   8   8   8   8
#     4  10  18  30  43  61  86 112 153 185 202 248
#     4  10  16  25  41  63  88 110 142 177 209 251
#     4  10  19  30  45  64  85 120 153 180 213 239
#     4  10  19  31  46  66  89 107 131 171 225 282
#     4   8  16  27  41  61  86 108 130 157 208 266
#     4  10  19  29  44  65  84 111 142 174 214 256
#
# _framework density 23.239626999999999
#
# number of rings (size 3 to 8) (size 9 to 14) (size 15 to 20)
#    0.000    2.333    0.000    6.500    0.000    6.000 
#    0.000    0.000    0.000    0.000    0.000   46.667 
#    0.000    0.000    0.000    0.000    0.000 1365.000 
#
# Total GULP energy -267343.099421 kJ/mol
# GULP energy per Si atom -5569.647905 kJ/mol
# Density = 2.318673 g / cm^3
# Si number density = 23.239627 Si / 1000 Ang^3
#
#
#
# Elastic Constant Matrix: (Units=GPa)
#
#
# Indices 1 2 3 4 5 6 
#
# 1 283.4832 29.8662 11.9012 0.0000 0.0000 0.0000
# 2 29.8662 108.7778 -9.4530 0.0000 0.0000 0.0000
# 3 11.9012 -9.4530 52.1135 0.0000 0.0000 0.0000
# 4 0.0000 0.0000 0.0000 -80.1143 0.0000 0.0000
# 5 0.0000 0.0000 0.0000 0.0000 7.4529 0.0000
# 6 0.0000 0.0000 0.0000 0.0000 0.0000 -2.0173
#
#
#
# Elastic Compliance Matrix: (Units=1/GPa)
#
#
# Indices 1 2 3 4 5 6 
#
# 1 0.003688 -0.001103 -0.001042 0.000000 0.000000 0.000000
# 2 -0.001103 0.009670 0.002006 0.000000 0.000000 0.000000
# 3 -0.001042 0.002006 0.019791 0.000000 0.000000 0.000000
# 4 0.000000 0.000000 0.000000 -0.012482 0.000000 0.000000
# 5 0.000000 0.000000 0.000000 0.000000 0.134177 0.000000
# 6 0.000000 0.000000 0.000000 0.000000 0.000000 -0.495710
#
#
# Mechanical properties :
#
#
# Convention : Reuss Voigt Hill
#
# Bulk Modulus (GPa) = 30.42279 56.55591 43.48935
# Shear Modulus (GPa) = -15.16845 12.53492 -1.31676
#
# Velocity S-wave (km/s) = -2.55757 2.32497 -0.75355
# Velocity P-wave (km/s) = 2.09709 5.62104 4.24228
#
# Compressibility (1/GPa) = 0.03287009
#
# Stress axis : x y z
#
# Youngs Moduli (GPa) = 271.18588 103.41025 50.52860
#
# Poissons Ratio (x) = 0.11406 0.05266
# Poissons Ratio (y) = 0.29912 -0.10136
# Poissons Ratio (z) = 0.28263 -0.20744
#
# Static dielectric constant tensor:
#      x y z
#    x 2.048000 0.000000 0.000000 
#    y 0.000000 1.948310 0.000000 
#    z 0.000000 0.000000 1.907670 
# 
# From -- ./inp_files/22924.got.cif
#   From: 2010.05.17/outbox.cif.g08.bks.cpg/sg54_12_cif.got.tgz:22924.got - 2010.06.03 13:09:01.
