data_PCOD9420900
_publ_section_title
;
Structure prediction by ZEFSAII (Michael W. Deem and Ramdas Pophale) SiO2 
 PCOD9420900
Probable space group: P C C A
;
_chemical_formula_sum "Si O2"
_cell_formula_units_Z 36
_cell_length_a 5.063532
_cell_length_b 23.362262
_cell_length_c 15.311044
_cell_angle_alpha 90.000000
_cell_angle_beta 90.000000
_cell_angle_gamma 90.000000
_cell_volume 1811.228543
_symmetry_space_group_name_H-M "P C C A"
_symmetry_group_IT_number 54
_symmetry_cell_setting 'orthorhombic'
loop_
_space_group_symop_operation_xyz
x,y,z
1/2-x,-y,z
1/2+x,-y,1/2-z
-x,y,1/2-z
-x,-y,-z
1/2+x,y,-z
1/2-x,y,1/2+z
x,-y,1/2+z
loop_
_atom_site_type_symbol
_atom_site_label
_atom_site_fract_x
_atom_site_fract_y
_atom_site_fract_z
Si Si1 0.088858 0.657124 0.941208
Si Si2 0.999176 0.536262 0.644727
Si Si3 0.250000 0.000000 0.305948
Si Si4 0.953145 0.905143 0.561788
Si Si5 0.021091 0.221112 0.058953
O O1 0.020401 0.600931 0.887432
O O2 0.037495 0.718484 0.895237
O O3 0.387241 0.656081 0.976520
O O4 0.750000 0.500000 0.614132
O O5 0.250000 0.500000 0.614650
O O6 0.000000 0.537169 0.750000
O O7 0.377784 0.950900 0.365916
O O8 0.500000 0.022329 0.250000
O O9 0.735270 0.912003 0.485105
O O10 0.954815 0.840321 0.599782
O O11 0.821534 0.221805 0.975256
#
# Coordination Sequence:
#
# PCOD9420900 Si02
#       5
#     8   8   4   8   8
#     4  10  19  32  52  77 100 124 163 213 257 293
#     4  10  21  35  49  68  99 135 167 201 246 302
#     4  12  24  36  52  82 118 140 168 226 278 302
#     4  10  19  36  59  78 101 143 187 210 249 324
#     4   8  16  30  51  76  99 125 165 214 250 291
#
# _framework density 19.876010999999998
#
# number of rings (size 3 to 8) (size 9 to 14) (size 15 to 20)
#    0.000    2.222    0.000    3.333    0.000    2.667 
#    0.000    1.111    0.000    4.000    0.000    0.000 
#    0.000    0.000    0.000    0.000    0.000    0.000 
#
# Total GULP energy -200765.644816 kJ/mol
# GULP energy per Si atom -5576.823467 kJ/mol
# Density = 1.983077 g / cm^3
# Si number density = 19.876011 Si / 1000 Ang^3
#
#
#
# Elastic Constant Matrix: (Units=GPa)
#
#
# Indices 1 2 3 4 5 6 
#
# 1 90.5966 0.4226 1.0551 0.0000 0.0000 0.0000
# 2 0.4226 153.0442 25.8678 0.0000 0.0000 0.0000
# 3 1.0551 25.8678 21.8641 0.0000 0.0000 0.0000
# 4 0.0000 0.0000 0.0000 -31.0063 0.0000 0.0000
# 5 0.0000 0.0000 0.0000 0.0000 -427.0647 0.0000
# 6 0.0000 0.0000 0.0000 0.0000 0.0000 30.9785
#
#
#
# Elastic Compliance Matrix: (Units=1/GPa)
#
#
# Indices 1 2 3 4 5 6 
#
# 1 0.011045 0.000074 -0.000621 0.000000 0.000000 0.000000
# 2 0.000074 0.008168 -0.009667 0.000000 0.000000 0.000000
# 3 -0.000621 -0.009667 0.057204 0.000000 0.000000 0.000000
# 4 0.000000 0.000000 0.000000 -0.032251 0.000000 0.000000
# 5 0.000000 0.000000 0.000000 0.000000 -0.002342 0.000000
# 6 0.000000 0.000000 0.000000 0.000000 0.000000 0.032280
#
#
# Mechanical properties :
#
#
# Convention : Reuss Voigt Hill
#
# Bulk Modulus (GPa) = 17.86052 35.57734 26.71893
# Shear Modulus (GPa) = 44.17166 -69.54122 -12.68478
#
# Velocity S-wave (km/s) = 4.71931 -5.92144 -2.52899
# Velocity P-wave (km/s) = 6.22103 5.36775 2.22357
#
# Compressibility (1/GPa) = 0.05598941
#
# Stress axis : x y z
#
# Youngs Moduli (GPa) = 90.54016 122.43202 17.48124
#
# Poissons Ratio (x) = -0.00912 0.01086
# Poissons Ratio (y) = -0.00674 0.16899
# Poissons Ratio (z) = 0.05624 1.18356
#
# Static dielectric constant tensor:
#      x y z
#    x 1.682850 0.000000 0.000000 
#    y 0.000000 1.740380 0.000000 
#    z 0.000000 0.000000 1.668730 
# 
# From -- ./inp_files/10795.got.cif
#   From: 2010.05.17/outbox.cif.g08.bks.cpg/sg54_6_cif.got.tgz:10795.got - 2010.06.03 13:09:01.
