data_PCOD9420078
_publ_section_title
;
Structure prediction by ZEFSAII (Michael W. Deem and Ramdas Pophale) SiO2 
 PCOD9420078
Probable space group: P M N A
;
_chemical_formula_sum "Si O2"
_cell_formula_units_Z 64
_cell_length_a 9.000000
_cell_length_b 18.000000
_cell_length_c 27.000000
_cell_angle_alpha 90.000000
_cell_angle_beta 90.000000
_cell_angle_gamma 90.000000
_cell_volume 4374.000000
_symmetry_space_group_name_H-M "P M N A"
_symmetry_group_IT_number 53
_symmetry_cell_setting 'orthorhombic'
loop_
_space_group_symop_operation_xyz
x,y,z
1/2-x,-y,1/2+z
x,-y,-z
1/2-x,y,1/2-z
-x,-y,-z
1/2+x,y,1/2-z
-x,y,z
1/2+x,-y,1/2+z
loop_
_atom_site_type_symbol
_atom_site_label
_atom_site_fract_x
_atom_site_fract_y
_atom_site_fract_z
Si Si1 0.178123 0.358920 0.425220
Si Si2 0.678916 0.835556 0.060829
Si Si3 0.827674 0.513893 0.059349
Si Si4 0.179058 0.901597 0.695792
Si Si5 0.178627 0.331960 0.541978
Si Si6 0.172915 0.898184 0.961962
Si Si7 0.674095 0.779440 0.627065
Si Si8 0.821442 0.984336 0.391383
O O1 0.242513 0.442314 0.418530
O O2 0.210977 0.334930 0.482594
O O3 0.250910 0.298223 0.388788
O O4 0.000000 0.359256 0.419710
O O5 0.500000 0.833531 0.057725
O O6 0.726520 0.748771 0.063300
O O7 0.718215 0.896984 0.102881
O O8 0.742570 0.870127 0.010314
O O9 0.753951 0.595111 0.065997
O O10 0.000000 0.514337 0.074833
O O11 0.823381 0.500000 0.000000
O O12 0.250000 0.910516 0.750000
O O13 0.242878 0.827099 0.669469
O O14 0.000000 0.897230 0.698982
O O15 0.217345 0.971143 0.659089
O O16 0.000000 0.338748 0.547140
O O17 0.181969 0.832673 0.921188
O O18 0.000000 0.912079 0.972972
O O19 0.245830 0.969756 0.935990
O O20 0.500000 0.769190 0.639513
O O21 0.000000 0.990209 0.396788
#
# Coordination Sequence:
#
# PCOD9420078 Si02
#       8
#     8   8   8   8   8   8   8   8
#     4  10  17  27  43  62  85 115 152 188 218 256
#     4  10  18  29  43  60  85 118 152 184 218 259
#     4   9  17  27  39  56  82 116 151 185 220 258
#     4  10  20  35  52  68  87 113 145 184 230 274
#     4   9  17  27  40  58  83 117 154 187 219 255
#     4  10  19  28  40  60  88 117 147 183 220 256
#     4  10  19  30  45  66  90 117 149 184 223 266
#     4   9  19  32  46  62  83 113 148 181 219 269
#
# _framework density 14.631916
#
# number of rings (size 3 to 8) (size 9 to 14) (size 15 to 20)
#    0.000    2.375    1.250    2.250    0.000    6.000 
#    0.000    0.000    0.000    0.000    0.000    0.000 
#    0.000    1.000    0.000    7.000    0.000    3.250 
#
# Total GULP energy -356668.457753 kJ/mol
# GULP energy per Si atom -5572.944652 kJ/mol
# Density = 1.459861 g / cm^3
# Si number density = 14.631916 Si / 1000 Ang^3
#
#
#
# Elastic Constant Matrix: (Units=GPa)
#
#
# Indices 1 2 3 4 5 6 
#
# 1 56.3882 52.2568 27.1754 0.0000 0.0000 0.0000
# 2 52.2568 160.7241 43.1511 0.0000 0.0000 0.0000
# 3 27.1754 43.1511 53.6879 0.0000 0.0000 0.0000
# 4 0.0000 0.0000 0.0000 15.7018 0.0000 0.0000
# 5 0.0000 0.0000 0.0000 0.0000 18.3146 0.0000
# 6 0.0000 0.0000 0.0000 0.0000 0.0000 22.1007
#
#
#
# Elastic Compliance Matrix: (Units=1/GPa)
#
#
# Indices 1 2 3 4 5 6 
#
# 1 0.028334 -0.006837 -0.008847 0.000000 0.000000 0.000000
# 2 -0.006837 0.009584 -0.004242 0.000000 0.000000 0.000000
# 3 -0.008847 -0.004242 0.026514 0.000000 0.000000 0.000000
# 4 0.000000 0.000000 0.000000 0.063687 0.000000 0.000000
# 5 0.000000 0.000000 0.000000 0.000000 0.054601 0.000000
# 6 0.000000 0.000000 0.000000 0.000000 0.000000 0.045248
#
#
# Mechanical properties :
#
#
# Convention : Reuss Voigt Hill
#
# Bulk Modulus (GPa) = 40.68404 57.32964 49.00684
# Shear Modulus (GPa) = 18.11518 21.10454 19.60986
#
# Velocity S-wave (km/s) = 3.52242 3.80197 3.66486
# Velocity P-wave (km/s) = 6.66398 7.65111 7.17455
#
# Compressibility (1/GPa) = 0.02457966
#
# Stress axis : x y z
#
# Youngs Moduli (GPa) = 35.29340 104.34338 37.71660
#
# Poissons Ratio (x) = 0.71342 0.33366
# Poissons Ratio (y) = 0.24131 0.15999
# Poissons Ratio (z) = 0.31222 0.44263
#
# Static dielectric constant tensor:
#      x y z
#    x 1.490960 0.000000 0.000000 
#    y 0.000000 1.501100 0.000000 
#    z 0.000000 0.000000 1.454570 
# 
# From -- ./inp_files/36473.got.cif
#   From: 2010.05.17/outbox.ucp.g08.bks.cvg/sg53_19_cif.got.tgz:36473.got - 2010.06.11 16:32:34.
