data_PCOD9420630
_publ_section_title
;
Structure prediction by ZEFSAII (Michael W. Deem and Ramdas Pophale) SiO2 
 PCOD9420630
Probable space group: P C C A
;
_chemical_formula_sum "Si O2"
_cell_formula_units_Z 36
_cell_length_a 15.276584
_cell_length_b 7.263052
_cell_length_c 18.285095
_cell_angle_alpha 90.000000
_cell_angle_beta 90.000000
_cell_angle_gamma 90.000000
_cell_volume 2028.815840
_symmetry_space_group_name_H-M "P C C A"
_symmetry_group_IT_number 54
_symmetry_cell_setting 'orthorhombic'
loop_
_space_group_symop_operation_xyz
x,y,z
1/2-x,-y,z
1/2+x,-y,1/2-z
-x,y,1/2-z
-x,-y,-z
1/2+x,y,-z
1/2-x,y,1/2+z
x,-y,1/2+z
loop_
_atom_site_type_symbol
_atom_site_label
_atom_site_fract_x
_atom_site_fract_y
_atom_site_fract_z
Si Si1 0.954891 0.244477 0.560979
Si Si2 0.096096 0.666623 0.941201
Si Si3 0.498372 0.067395 0.836488
Si Si4 0.750000 0.500000 0.476049
Si Si5 0.331595 0.141644 0.566693
O O1 0.933841 0.457367 0.573846
O O2 0.879737 0.145102 0.512632
O O3 0.039421 0.250060 0.508127
O O4 0.971366 0.132937 0.633992
O O5 0.192728 0.633888 0.972240
O O6 0.071295 0.791268 0.872611
O O7 0.500000 0.081525 0.750000
O O8 0.593197 0.103446 0.873674
O O9 0.696557 0.643805 0.427191
O O10 0.250000 0.000000 0.571012
#
# Coordination Sequence:
#
# PCOD9420630 Si02
#       5
#     8   8   8   4   8
#     4   9  18  34  56  77  99 133 179 221 257 303
#     4   9  18  34  56  78  99 132 177 221 259 300
#     4  11  22  35  51  77 114 147 170 204 265 332
#     4  10  18  32  58  82  98 126 182 236 262 292
#     4  10  19  34  57  78 100 133 179 228 264 306
#
# _framework density 17.744342
#
# number of rings (size 3 to 8) (size 9 to 14) (size 15 to 20)
#    0.000    2.222    0.000    6.667    0.000    0.889 
#    0.000    6.667    0.000    0.000    0.000    0.000 
#    0.000    0.000    0.000    0.000    0.000    0.000 
#
# Total GULP energy -200634.145160 kJ/mol
# GULP energy per Si atom -5573.170699 kJ/mol
# Density = 1.770395 g / cm^3
# Si number density = 17.744342 Si / 1000 Ang^3
#
#
#
# Elastic Constant Matrix: (Units=GPa)
#
#
# Indices 1 2 3 4 5 6 
#
# 1 73.5690 13.5269 4.8342 0.0000 0.0000 0.0000
# 2 13.5269 87.6159 29.3514 0.0000 0.0000 0.0000
# 3 4.8342 29.3514 87.2346 0.0000 0.0000 0.0000
# 4 0.0000 0.0000 0.0000 8.9919 0.0000 0.0000
# 5 0.0000 0.0000 0.0000 0.0000 2.9227 0.0000
# 6 0.0000 0.0000 0.0000 0.0000 0.0000 38.7152
#
#
#
# Elastic Compliance Matrix: (Units=1/GPa)
#
#
# Indices 1 2 3 4 5 6 
#
# 1 0.013990 -0.002142 -0.000055 0.000000 0.000000 0.000000
# 2 -0.002142 0.013191 -0.004320 0.000000 0.000000 0.000000
# 3 -0.000055 -0.004320 0.012920 0.000000 0.000000 0.000000
# 4 0.000000 0.000000 0.000000 0.111212 0.000000 0.000000
# 5 0.000000 0.000000 0.000000 0.000000 0.342148 0.000000
# 6 0.000000 0.000000 0.000000 0.000000 0.000000 0.025830
#
#
# Mechanical properties :
#
#
# Convention : Reuss Voigt Hill
#
# Bulk Modulus (GPa) = 36.94254 38.20495 37.57375
# Shear Modulus (GPa) = 9.23624 23.50643 16.37134
#
# Velocity S-wave (km/s) = 2.28396 3.64363 3.04077
# Velocity P-wave (km/s) = 5.27445 6.26729 5.79218
#
# Compressibility (1/GPa) = 0.02706906
#
# Stress axis : x y z
#
# Youngs Moduli (GPa) = 71.47942 75.80820 77.40059
#
# Poissons Ratio (x) = 0.16235 0.00423
# Poissons Ratio (y) = 0.15308 0.33435
# Poissons Ratio (z) = 0.00391 0.32747
#
# Static dielectric constant tensor:
#      x y z
#    x 1.688000 0.000000 0.000000 
#    y 0.000000 1.644810 0.000000 
#    z 0.000000 0.000000 1.554890 
# 
# From -- ./inp_files/17744.got.cif
#   From: 2010.05.17/outbox.cif.g08.bks.cpg/sg54_9_cif.got.tgz:17744.got - 2010.06.03 13:09:01.
