data_PCOD9420263
_publ_section_title
;
Structure prediction by ZEFSAII (Michael W. Deem and Ramdas Pophale) SiO2 
 PCOD9420263
Probable space group: P M N A
;
_chemical_formula_sum "Si O2"
_cell_formula_units_Z 64
_cell_length_a 9.000000
_cell_length_b 18.000000
_cell_length_c 21.000000
_cell_angle_alpha 90.000000
_cell_angle_beta 90.000000
_cell_angle_gamma 90.000000
_cell_volume 3402.000000
_symmetry_space_group_name_H-M "P M N A"
_symmetry_group_IT_number 53
_symmetry_cell_setting 'orthorhombic'
loop_
_space_group_symop_operation_xyz
x,y,z
1/2-x,-y,1/2+z
x,-y,-z
1/2-x,y,1/2-z
-x,-y,-z
1/2+x,y,1/2-z
-x,y,z
1/2+x,-y,1/2+z
loop_
_atom_site_type_symbol
_atom_site_label
_atom_site_fract_x
_atom_site_fract_y
_atom_site_fract_z
Si Si1 0.175966 0.112317 0.377953
Si Si2 0.324268 0.194850 0.813455
Si Si3 0.825335 0.047619 0.864247
Si Si4 0.169096 0.861230 0.003725
Si Si5 0.681533 0.736457 0.679277
Si Si6 0.182597 0.423913 0.322508
Si Si7 0.174564 0.289043 0.921785
Si Si8 0.820885 0.466150 0.929834
O O1 0.208214 0.116071 0.453234
O O2 0.259101 0.187100 0.352763
O O3 0.000000 0.114800 0.363106
O O4 0.247729 0.032903 0.357280
O O5 0.250000 0.225060 0.750000
O O6 0.500000 0.188900 0.808609
O O7 0.254814 0.113159 0.825314
O O8 0.277028 0.251320 0.868813
O O9 0.819494 0.083859 0.935507
O O10 0.000000 0.041541 0.847542
O O11 0.185136 0.773667 0.022255
O O12 0.000000 0.870806 0.978000
O O13 0.750000 0.740570 0.750000
O O14 0.500000 0.733605 0.678298
O O15 0.750000 0.656956 0.655311
O O16 0.250000 0.436200 0.250000
O O17 0.238411 0.487228 0.373173
O O18 0.000000 0.421504 0.319741
O O19 0.000000 0.285942 0.902359
O O20 0.210376 0.376445 0.931856
O O21 0.000000 0.474229 0.920245
O O22 0.785455 0.500000 0.000000
#
# Coordination Sequence:
#
# PCOD9420263 Si02
#       8
#     8   8   8   8   8   8   8   8
#     4  12  24  36  56  88 120 155 198 244 295 353
#     4  11  22  38  61  87 117 156 198 246 303 358
#     4  10  21  39  59  83 116 155 200 247 297 354
#     4   9  19  36  58  83 115 158 199 241 294 355
#     4  11  23  42  64  86 116 153 198 248 300 359
#     4  11  23  42  66  93 125 165 209 258 313 375
#     4   9  20  39  60  87 121 157 200 244 295 360
#     4  10  22  40  65  97 130 168 209 256 314 377
#
# _framework density 18.812463000000001
#
# number of rings (size 3 to 8) (size 9 to 14) (size 15 to 20)
#    0.000    1.625    0.000    6.750    1.750    5.750 
#    0.000    2.500    0.000    0.000    0.000    0.000 
#    0.000    0.000    0.000    0.000    0.000    0.000 
#
# Total GULP energy -357056.511177 kJ/mol
# GULP energy per Si atom -5579.007987 kJ/mol
# Density = 1.876965 g / cm^3
# Si number density = 18.812463 Si / 1000 Ang^3
#
#
#
# Elastic Constant Matrix: (Units=GPa)
#
#
# Indices 1 2 3 4 5 6 
#
# 1 153.6148 53.3770 31.3098 0.0000 0.0000 0.0000
# 2 53.3770 143.5610 19.6185 0.0000 0.0000 0.0000
# 3 31.3098 19.6185 48.2030 0.0000 0.0000 0.0000
# 4 0.0000 0.0000 0.0000 22.3475 0.0000 0.0000
# 5 0.0000 0.0000 0.0000 0.0000 31.6908 0.0000
# 6 0.0000 0.0000 0.0000 0.0000 0.0000 41.0351
#
#
#
# Elastic Compliance Matrix: (Units=1/GPa)
#
#
# Indices 1 2 3 4 5 6 
#
# 1 0.008258 -0.002475 -0.004356 0.000000 0.000000 0.000000
# 2 -0.002475 0.008118 -0.001696 0.000000 0.000000 0.000000
# 3 -0.004356 -0.001696 0.024266 0.000000 0.000000 0.000000
# 4 0.000000 0.000000 0.000000 0.044748 0.000000 0.000000
# 5 0.000000 0.000000 0.000000 0.000000 0.031555 0.000000
# 6 0.000000 0.000000 0.000000 0.000000 0.000000 0.024369
#
#
# Mechanical properties :
#
#
# Convention : Reuss Voigt Hill
#
# Bulk Modulus (GPa) = 42.39849 61.55436 51.97642
# Shear Modulus (GPa) = 30.07874 35.08624 32.58249
#
# Velocity S-wave (km/s) = 4.00293 4.32331 4.16620
# Velocity P-wave (km/s) = 6.62955 7.59687 7.12963
#
# Compressibility (1/GPa) = 0.02358574
#
# Stress axis : x y z
#
# Youngs Moduli (GPa) = 121.09929 123.18777 41.21046
#
# Poissons Ratio (x) = 0.30488 0.17953
# Poissons Ratio (y) = 0.29971 0.06991
# Poissons Ratio (z) = 0.52756 0.20896
#
# Static dielectric constant tensor:
#      x y z
#    x 1.635870 0.000000 0.000000 
#    y 0.000000 1.649650 0.000000 
#    z 0.000000 0.000000 1.764950 
# 
# From -- ./inp_files/31189.got.cif
#   From: 2010.05.17/outbox.ucp.g08.bks.cvg/sg53_16_cif.got.tgz:31189.got - 2010.06.11 16:32:34.
