data_PCOD9420547
_publ_section_title
;
Structure prediction by ZEFSAII (Michael W. Deem and Ramdas Pophale) SiO2 
 PCOD9420547
Probable space group: P C C A
;
_chemical_formula_sum "Si O2"
_cell_formula_units_Z 52
_cell_length_a 17.857402
_cell_length_b 5.594839
_cell_length_c 27.517318
_cell_angle_alpha 90.000000
_cell_angle_beta 90.000000
_cell_angle_gamma 90.000000
_cell_volume 2749.235681
_symmetry_space_group_name_H-M "P C C A"
_symmetry_group_IT_number 54
_symmetry_cell_setting 'orthorhombic'
loop_
_space_group_symop_operation_xyz
x,y,z
1/2-x,-y,z
1/2+x,-y,1/2-z
-x,y,1/2-z
-x,-y,-z
1/2+x,y,-z
1/2-x,y,1/2+z
x,-y,1/2+z
loop_
_atom_site_type_symbol
_atom_site_label
_atom_site_fract_x
_atom_site_fract_y
_atom_site_fract_z
Si Si1 0.077439 0.071722 0.718176
Si Si2 0.879408 0.262431 0.072207
Si Si3 0.961948 0.250061 0.982740
Si Si4 0.501037 0.055616 0.381191
Si Si5 0.591190 0.419578 0.745147
Si Si6 0.250000 0.000000 0.872615
Si Si7 0.637816 0.362375 0.148386
O O1 0.059059 0.018284 0.661962
O O2 0.112488 0.333692 0.727307
O O3 0.000000 0.081526 0.750000
O O4 0.119784 0.836138 0.736696
O O5 0.859451 0.515320 0.095644
O O6 0.816665 0.089610 0.093247
O O7 0.886107 0.256172 0.014337
O O8 0.959429 0.173876 0.094844
O O9 0.965450 0.217330 0.924778
O O10 0.000000 0.500000 0.000000
O O11 0.000000 0.000000 0.000000
O O12 0.433368 0.190338 0.354119
O O13 0.500000 0.408933 0.750000
O O14 0.618027 0.450111 0.689917
O O15 0.213155 0.214818 0.842626
#
# Coordination Sequence:
#
# PCOD9420547 Si02
#       7
#     8   8   8   8   8   4   8
#     4  10  18  29  45  77 107 142 175 212 275 332
#     4  10  20  35  52  74 114 146 187 228 280 346
#     4  10  20  33  53  80 109 148 181 228 290 339
#     4  10  19  31  52  79 113 146 181 227 287 345
#     4  10  19  29  49  75 106 146 177 221 282 326
#     4  10  24  34  52  80 106 158 196 232 286 334
#     4  11  19  34  52  75 115 150 190 235 276 352
#
# _framework density 18.914349000000001
#
# number of rings (size 3 to 8) (size 9 to 14) (size 15 to 20)
#    0.000    1.846    4.615    2.308    2.154    0.000 
#    0.000    0.000    0.000    0.000    0.000    1.077 
#    0.000    0.000    0.000    0.000    0.000    0.000 
#
# Total GULP energy -289502.751763 kJ/mol
# GULP energy per Si atom -5567.360611 kJ/mol
# Density = 1.887130 g / cm^3
# Si number density = 18.914349 Si / 1000 Ang^3
#
#
#
# Elastic Constant Matrix: (Units=GPa)
#
#
# Indices 1 2 3 4 5 6 
#
# 1 26.9401 1.7189 18.2150 0.0000 0.0000 0.0000
# 2 1.7189 105.1958 8.0811 0.0000 0.0000 0.0000
# 3 18.2150 8.0811 99.8245 0.0000 0.0000 0.0000
# 4 0.0000 0.0000 0.0000 25.8789 0.0000 0.0000
# 5 0.0000 0.0000 0.0000 0.0000 10.2574 0.0000
# 6 0.0000 0.0000 0.0000 0.0000 0.0000 474.6606
#
#
#
# Elastic Compliance Matrix: (Units=1/GPa)
#
#
# Indices 1 2 3 4 5 6 
#
# 1 0.042344 -0.000099 -0.007719 0.000000 0.000000 0.000000
# 2 -0.000099 0.009566 -0.000756 0.000000 0.000000 0.000000
# 3 -0.007719 -0.000756 0.011487 0.000000 0.000000 0.000000
# 4 0.000000 0.000000 0.000000 0.038642 0.000000 0.000000
# 5 0.000000 0.000000 0.000000 0.000000 0.097491 0.000000
# 6 0.000000 0.000000 0.000000 0.000000 0.000000 0.002107
#
#
# Mechanical properties :
#
#
# Convention : Reuss Voigt Hill
#
# Bulk Modulus (GPa) = 21.62177 31.99893 26.81035
# Shear Modulus (GPa) = 21.34918 115.75573 68.55246
#
# Velocity S-wave (km/s) = 3.36330 7.83153 6.02680
# Velocity P-wave (km/s) = 5.15157 9.93638 7.91424
#
# Compressibility (1/GPa) = 0.04624968
#
# Stress axis : x y z
#
# Youngs Moduli (GPa) = 23.61586 104.53909 87.05326
#
# Poissons Ratio (x) = 0.01035 0.67193
# Poissons Ratio (y) = 0.00234 0.06584
# Poissons Ratio (z) = 0.18228 0.07906
#
# Static dielectric constant tensor:
#      x y z
#    x 1.650440 0.000000 0.000000 
#    y 0.000000 1.779090 0.000000 
#    z 0.000000 0.000000 2.549130 
# 
# From -- ./inp_files/26605.got.cif
#   From: 2010.05.17/outbox.cif.g08.bks.cpg/sg54_14_cif.got.tgz:26605.got - 2010.06.03 13:09:01.
