data_PCOD9420315
_publ_section_title
;
Structure prediction by ZEFSAII (Michael W. Deem and Ramdas Pophale) SiO2 
 PCOD9420315
Probable space group: P C C A
;
_chemical_formula_sum "Si O2"
_cell_formula_units_Z 48
_cell_length_a 5.455850
_cell_length_b 23.381441
_cell_length_c 16.956324
_cell_angle_alpha 90.000000
_cell_angle_beta 90.000000
_cell_angle_gamma 90.000000
_cell_volume 2163.044236
_symmetry_space_group_name_H-M "P C C A"
_symmetry_group_IT_number 54
_symmetry_cell_setting 'orthorhombic'
loop_
_space_group_symop_operation_xyz
x,y,z
1/2-x,-y,z
1/2+x,-y,1/2-z
-x,y,1/2-z
-x,-y,-z
1/2+x,y,-z
1/2-x,y,1/2+z
x,-y,1/2+z
loop_
_atom_site_type_symbol
_atom_site_label
_atom_site_fract_x
_atom_site_fract_y
_atom_site_fract_z
Si Si1 0.002144 0.976362 0.907305
Si Si2 0.381951 0.279109 0.951528
Si Si3 0.753450 0.288936 0.223932
Si Si4 0.262644 0.434000 0.528798
Si Si5 0.381562 0.854866 0.455048
Si Si6 0.249697 0.416235 0.711609
O O1 0.032829 0.908105 0.902967
O O2 0.250000 0.000000 0.871014
O O3 0.750000 0.000000 0.873620
O O4 0.000000 0.000000 0.000000
O O5 0.290526 0.305442 0.868016
O O6 0.395586 0.211152 0.930736
O O7 0.657735 0.289518 0.986104
O O8 0.500000 0.259727 0.250000
O O9 0.749328 0.347740 0.275020
O O10 0.000000 0.257149 0.250000
O O11 0.250000 0.500000 0.498789
O O12 0.517818 0.406524 0.504508
O O13 0.247622 0.432525 0.621490
O O14 0.593999 0.861519 0.522551
O O15 0.500000 0.437088 0.750000
O O16 0.000000 0.437326 0.750000
#
# Coordination Sequence:
#
# PCOD9420315 Si02
#       6
#     8   8   8   8   8   8
#     4  10  14  20  34  55  91 133 160 190 253 323
#     4  10  21  35  55  79 108 140 180 234 285 332
#     4  10  21  40  58  78 110 146 190 236 280 338
#     4  10  21  38  60  87 120 151 184 230 285 337
#     4  10  16  25  39  64  95 133 164 204 260 324
#     4  10  21  38  58  85 114 149 191 231 274 336
#
# _framework density 22.190944999999999
#
# number of rings (size 3 to 8) (size 9 to 14) (size 15 to 20)
#    0.000    2.000    3.333    2.000    0.000    0.667 
#    0.000   20.000    0.000    0.000    0.000    0.000 
#    0.000    2.667    0.000    0.000    0.000    0.000 
#
# Total GULP energy -267512.803307 kJ/mol
# GULP energy per Si atom -5573.183402 kJ/mol
# Density = 2.214044 g / cm^3
# Si number density = 22.190945 Si / 1000 Ang^3
#
#
#
# Elastic Constant Matrix: (Units=GPa)
#
#
# Indices 1 2 3 4 5 6 
#
# 1 238.0448 -0.8227 51.0644 0.0000 0.0000 0.0000
# 2 -0.8227 88.5260 -25.3874 0.0000 0.0000 0.0000
# 3 51.0644 -25.3874 72.9745 0.0000 0.0000 0.0000
# 4 0.0000 0.0000 0.0000 1.7644 0.0000 0.0000
# 5 0.0000 0.0000 0.0000 0.0000 31.7361 0.0000
# 6 0.0000 0.0000 0.0000 0.0000 0.0000 32.7389
#
#
#
# Elastic Compliance Matrix: (Units=1/GPa)
#
#
# Indices 1 2 3 4 5 6 
#
# 1 0.005032 -0.001070 -0.003894 0.000000 0.000000 0.000000
# 2 -0.001070 0.012775 0.005193 0.000000 0.000000 0.000000
# 3 -0.003894 0.005193 0.018235 0.000000 0.000000 0.000000
# 4 0.000000 0.000000 0.000000 0.566766 0.000000 0.000000
# 5 0.000000 0.000000 0.000000 0.000000 0.031510 0.000000
# 6 0.000000 0.000000 0.000000 0.000000 0.000000 0.030545
#
#
# Mechanical properties :
#
#
# Convention : Reuss Voigt Hill
#
# Bulk Modulus (GPa) = 27.39590 49.91710 38.65650
# Shear Modulus (GPa) = 7.39021 38.22728 22.80874
#
# Velocity S-wave (km/s) = 1.82689 4.15499 3.20947
# Velocity P-wave (km/s) = 4.10151 6.74994 5.58498
#
# Compressibility (1/GPa) = 0.03650181
#
# Stress axis : x y z
#
# Youngs Moduli (GPa) = 198.71041 78.27507 54.84048
#
# Poissons Ratio (x) = 0.08374 0.21353
# Poissons Ratio (y) = 0.21259 -0.28479
# Poissons Ratio (z) = 0.77372 -0.40649
#
# Static dielectric constant tensor:
#      x y z
#    x 1.947930 0.000000 0.000000 
#    y 0.000000 2.497980 0.000000 
#    z 0.000000 0.000000 1.780310 
# 
# From -- ./inp_files/10915.got.cif
#   From: 2010.05.17/outbox.cif.g08.bks.cpg/sg54_6_cif.got.tgz:10915.got - 2010.06.03 13:09:01.
