data_PCOD9420110
_publ_section_title
;
Structure prediction by ZEFSAII (Michael W. Deem and Ramdas Pophale) SiO2 
 PCOD9420110
Probable space group: P M N A
;
_chemical_formula_sum "Si O2"
_cell_formula_units_Z 48
_cell_length_a 9.000000
_cell_length_b 15.000000
_cell_length_c 21.000000
_cell_angle_alpha 90.000000
_cell_angle_beta 90.000000
_cell_angle_gamma 90.000000
_cell_volume 2835.000000
_symmetry_space_group_name_H-M "P M N A"
_symmetry_group_IT_number 53
_symmetry_cell_setting 'orthorhombic'
loop_
_space_group_symop_operation_xyz
x,y,z
1/2-x,-y,1/2+z
x,-y,-z
1/2-x,y,1/2-z
-x,-y,-z
1/2+x,y,1/2-z
-x,y,z
1/2+x,-y,1/2+z
loop_
_atom_site_type_symbol
_atom_site_label
_atom_site_fract_x
_atom_site_fract_y
_atom_site_fract_z
Si Si1 0.671897 0.501262 0.813052
Si Si2 0.179478 0.925327 0.051461
Si Si3 0.179111 0.565525 0.941658
Si Si4 0.670968 0.695001 0.144444
Si Si5 0.176421 0.104394 0.684475
Si Si6 0.177264 0.729229 0.017402
O O1 0.750000 0.535760 0.750000
O O2 0.500000 0.525568 0.813562
O O3 0.749269 0.534974 0.876620
O O4 0.681803 0.393464 0.814356
O O5 0.253049 0.936528 0.120530
O O6 0.231136 0.830309 0.022906
O O7 0.000000 0.922844 0.059698
O O8 0.215553 0.000000 0.000000
O O9 0.000000 0.563585 0.936096
O O10 0.219178 0.500000 0.000000
O O11 0.229946 0.664570 0.961807
O O12 0.500000 0.701078 0.121354
O O13 0.704673 0.788682 0.178021
O O14 0.777934 0.685585 0.084325
O O15 0.250000 0.072940 0.750000
O O16 0.000000 0.090660 0.685850
O O17 0.000000 0.732426 0.012754
#
# Coordination Sequence:
#
# PCOD9420110 Si02
#       6
#     8   8   8   8   8   8
#     4  11  22  33  47  68  98 134 170 209 249 289
#     4   9  18  33  53  76 101 129 163 203 248 296
#     4  10  19  32  50  72  98 130 166 201 239 289
#     4   9  18  30  45  69  99 130 162 197 239 290
#     4  10  19  31  48  72 102 133 163 198 244 297
#     4   9  17  30  50  73  97 128 162 198 241 289
#
# _framework density 16.931217
#
# number of rings (size 3 to 8) (size 9 to 14) (size 15 to 20)
#    0.000    2.333    1.667    1.500    0.000    2.667 
#    0.000    0.000    0.000    1.000    0.000    0.000 
#    0.000    0.000    0.000    0.000    0.000    0.000 
#
# Total GULP energy -267440.718589 kJ/mol
# GULP energy per Si atom -5571.681637 kJ/mol
# Density = 1.689268 g / cm^3
# Si number density = 16.931217 Si / 1000 Ang^3
#
#
#
# Elastic Constant Matrix: (Units=GPa)
#
#
# Indices 1 2 3 4 5 6 
#
# 1 20.8092 33.4726 62.6157 0.0000 0.0000 0.0000
# 2 33.4726 48.8023 56.8661 0.0000 0.0000 0.0000
# 3 62.6157 56.8661 150.3889 0.0000 0.0000 0.0000
# 4 0.0000 0.0000 0.0000 13.0504 0.0000 0.0000
# 5 0.0000 0.0000 0.0000 0.0000 24.0015 0.0000
# 6 0.0000 0.0000 0.0000 0.0000 0.0000 14.3455
#
#
#
# Elastic Compliance Matrix: (Units=1/GPa)
#
#
# Indices 1 2 3 4 5 6 
#
# 1 -0.113941 0.040886 0.031981 0.000000 0.000000 0.000000
# 2 0.040886 0.021959 -0.025326 0.000000 0.000000 0.000000
# 3 0.031981 -0.025326 0.002911 0.000000 0.000000 0.000000
# 4 0.000000 0.000000 0.000000 0.076626 0.000000 0.000000
# 5 0.000000 0.000000 0.000000 0.000000 0.041664 0.000000
# 6 0.000000 0.000000 0.000000 0.000000 0.000000 0.069708
#
#
# Mechanical properties :
#
#
# Convention : Reuss Voigt Hill
#
# Bulk Modulus (GPa) = 166.44799 58.43437 112.44118
# Shear Modulus (GPa) = 854.58830 14.74921 434.66875
#
# Velocity S-wave (km/s) = 22.49082 2.95468 16.04006
# Velocity P-wave (km/s) = 27.80236 6.79911 20.23856
#
# Compressibility (1/GPa) = 0.00600788
#
# Stress axis : x y z
#
# Youngs Moduli (GPa) = -8.77644 45.53845 343.56065
#
# Poissons Ratio (x) = -1.86186 -10.98725
# Poissons Ratio (y) = 0.35883 8.70119
# Poissons Ratio (z) = 0.28068 1.15333
#
# Static dielectric constant tensor:
#      x y z
#    x 1.567410 0.000000 0.000000 
#    y 0.000000 1.596060 0.000000 
#    z 0.000000 0.000000 1.553340 
# 
# From -- ./inp_files/20199.got.cif
#   From: 2010.05.17/outbox.ucp.g08.bks.cvg/sg53_11_cif.got.tgz:20199.got - 2010.06.11 16:32:34.
