data_PCOD9420642
_publ_section_title
;
Structure prediction by ZEFSAII (Michael W. Deem and Ramdas Pophale) SiO2 
 PCOD9420642
Probable space group: P C C A
;
_chemical_formula_sum "Si O2"
_cell_formula_units_Z 52
_cell_length_a 25.184749
_cell_length_b 12.782990
_cell_length_c 8.537487
_cell_angle_alpha 90.000000
_cell_angle_beta 90.000000
_cell_angle_gamma 90.000000
_cell_volume 2748.527784
_symmetry_space_group_name_H-M "P C C A"
_symmetry_group_IT_number 54
_symmetry_cell_setting 'orthorhombic'
loop_
_space_group_symop_operation_xyz
x,y,z
1/2-x,-y,z
1/2+x,-y,1/2-z
-x,y,1/2-z
-x,-y,-z
1/2+x,y,-z
1/2-x,y,1/2+z
x,-y,1/2+z
loop_
_atom_site_type_symbol
_atom_site_label
_atom_site_fract_x
_atom_site_fract_y
_atom_site_fract_z
Si Si1 0.734072 0.114213 0.987948
Si Si2 0.500000 0.936188 0.750000
Si Si3 0.866780 0.123809 0.286983
Si Si4 0.663843 0.651518 0.296656
Si Si5 0.074884 0.045766 0.501413
Si Si6 0.217458 0.740832 0.231888
Si Si7 0.188321 0.539441 0.378260
O O1 0.692850 0.098579 0.844896
O O2 0.781652 0.186517 0.920890
O O3 0.750000 0.000000 0.042680
O O4 0.706276 0.183040 0.122057
O O5 0.533163 0.006142 0.628387
O O6 0.455911 0.885439 0.633726
O O7 0.874007 0.248507 0.305752
O O8 0.902045 0.053291 0.403629
O O9 0.880020 0.095584 0.107993
O O10 0.721733 0.700309 0.258261
O O11 0.654434 0.560870 0.170869
O O12 0.671203 0.592817 0.461162
O O13 0.185906 0.632737 0.248853
O O14 0.250000 0.500000 0.391714
#
# Coordination Sequence:
#
# PCOD9420642 Si02
#       7
#     8   4   8   8   8   8   8
#     4  11  23  31  46  68 111 158 193 211 255 308
#     4   8  16  36  60  84 100 144 162 204 266 352
#     4  10  21  34  47  83 110 147 169 227 263 317
#     4  10  21  32  49  69 100 133 192 233 276 279
#     4   9  18  34  59  80 117 132 170 208 270 341
#     4  10  19  34  46  65  90 148 198 232 255 295
#     4  10  18  33  50  66  88 140 201 249 259 285
#
# _framework density 18.919219999999999
#
# number of rings (size 3 to 8) (size 9 to 14) (size 15 to 20)
#    0.000    2.154    3.077    1.846    8.615    0.000 
#    0.000    3.077    0.000    0.000    0.000    0.000 
#    0.000   61.538    0.000    0.000    0.000    0.000 
#
# Total GULP energy -289492.756027 kJ/mol
# GULP energy per Si atom -5567.168385 kJ/mol
# Density = 1.887616 g / cm^3
# Si number density = 18.919220 Si / 1000 Ang^3
#
#
#
# Elastic Constant Matrix: (Units=GPa)
#
#
# Indices 1 2 3 4 5 6 
#
# 1 34.3569 18.4264 24.0336 0.0000 0.0000 0.0000
# 2 18.4264 138.1146 45.6632 0.0000 0.0000 0.0000
# 3 24.0336 45.6632 82.6184 0.0000 0.0000 0.0000
# 4 0.0000 0.0000 0.0000 32.9865 0.0000 0.0000
# 5 0.0000 0.0000 0.0000 0.0000 27.6853 0.0000
# 6 0.0000 0.0000 0.0000 0.0000 0.0000 -0.3873
#
#
#
# Elastic Compliance Matrix: (Units=1/GPa)
#
#
# Indices 1 2 3 4 5 6 
#
# 1 0.036858 -0.001679 -0.009794 0.000000 0.000000 0.000000
# 2 -0.001679 0.008936 -0.004450 0.000000 0.000000 0.000000
# 3 -0.009794 -0.004450 0.017413 0.000000 0.000000 0.000000
# 4 0.000000 0.000000 0.000000 0.030315 0.000000 0.000000
# 5 0.000000 0.000000 0.000000 0.000000 0.036120 0.000000
# 6 0.000000 0.000000 0.000000 0.000000 0.000000 -2.581964
#
#
# Mechanical properties :
#
#
# Convention : Reuss Voigt Hill
#
# Bulk Modulus (GPa) = 31.88838 47.92627 39.90732
# Shear Modulus (GPa) = -2.07467 23.18801 10.55667
#
# Velocity S-wave (km/s) = -1.04832 3.50470 2.36474
# Velocity P-wave (km/s) = 3.92763 6.46253 5.34746
#
# Compressibility (1/GPa) = 0.03135939
#
# Stress axis : x y z
#
# Youngs Moduli (GPa) = 27.13122 111.90998 57.42995
#
# Poissons Ratio (x) = 0.18794 0.56246
# Poissons Ratio (y) = 0.04556 0.25558
# Poissons Ratio (z) = 0.26572 0.49803
#
# Static dielectric constant tensor:
#      x y z
#    x 1.713130 0.000000 0.000000 
#    y 0.000000 1.704220 0.000000 
#    z 0.000000 0.000000 1.738800 
# 
# From -- ./inp_files/5923.got.cif
#   From: 2010.05.17/outbox.cif.g08.bks.cpg/sg54_3_cif.got.tgz:5923.got - 2010.06.03 13:09:01.
