data_PCOD9420091
_publ_section_title
;
Structure prediction by ZEFSAII (Michael W. Deem and Ramdas Pophale) SiO2 
 PCOD9420091
Probable space group: P M N A
;
_chemical_formula_sum "Si O2"
_cell_formula_units_Z 48
_cell_length_a 9.000000
_cell_length_b 15.000000
_cell_length_c 21.000000
_cell_angle_alpha 90.000000
_cell_angle_beta 90.000000
_cell_angle_gamma 90.000000
_cell_volume 2835.000000
_symmetry_space_group_name_H-M "P M N A"
_symmetry_group_IT_number 53
_symmetry_cell_setting 'orthorhombic'
loop_
_space_group_symop_operation_xyz
x,y,z
1/2-x,-y,1/2+z
x,-y,-z
1/2-x,y,1/2-z
-x,-y,-z
1/2+x,y,1/2-z
-x,y,z
1/2+x,-y,1/2+z
loop_
_atom_site_type_symbol
_atom_site_label
_atom_site_fract_x
_atom_site_fract_y
_atom_site_fract_z
Si Si1 0.176850 0.009808 0.312043
Si Si2 0.174841 0.810758 0.846941
Si Si3 0.676866 0.766388 0.979136
Si Si4 0.324916 0.413989 0.456484
Si Si5 0.179830 0.066515 0.555381
Si Si6 0.325383 0.394756 0.313965
O O1 0.250000 0.968758 0.250000
O O2 0.227088 0.112390 0.316532
O O3 0.000000 0.004981 0.308476
O O4 0.233523 0.963778 0.376218
O O5 0.231821 0.803155 0.919108
O O6 0.197298 0.712258 0.818526
O O7 0.000000 0.832244 0.842979
O O8 0.500000 0.771376 0.966117
O O9 0.730005 0.665726 0.986058
O O10 0.711527 0.832176 0.037002
O O11 0.313987 0.500000 0.500000
O O12 0.500000 0.386743 0.452891
O O13 0.275126 0.429602 0.383307
O O14 0.000000 0.057278 0.556537
O O15 0.233558 0.000000 0.500000
O O16 0.250000 0.429003 0.250000
O O17 0.500000 0.411715 0.308888
#
# Coordination Sequence:
#
# PCOD9420091 Si02
#       6
#     8   8   8   8   8   8
#     4  11  21  33  48  68  99 135 174 214 257 302
#     4  10  19  31  46  70 102 135 168 199 246 306
#     4  10  18  31  53  77  99 128 169 213 252 296
#     4   9  19  36  54  73 102 134 164 205 259 310
#     4   9  17  32  51  71  98 135 170 203 252 301
#     4   9  18  30  46  69  97 128 158 191 240 299
#
# _framework density 16.931217
#
# number of rings (size 3 to 8) (size 9 to 14) (size 15 to 20)
#    0.000    2.333    1.667    3.000    0.000    5.000 
#    0.000    4.167    0.000    1.000    0.000    7.000 
#    0.000    0.000    0.000    0.000    0.000    0.000 
#
# Total GULP energy -267424.436838 kJ/mol
# GULP energy per Si atom -5571.342434 kJ/mol
# Density = 1.689268 g / cm^3
# Si number density = 16.931217 Si / 1000 Ang^3
#
#
#
# Elastic Constant Matrix: (Units=GPa)
#
#
# Indices 1 2 3 4 5 6 
#
# 1 25.0472 15.5214 42.6433 0.0000 0.0000 0.0000
# 2 15.5214 42.1543 50.4477 0.0000 0.0000 0.0000
# 3 42.6433 50.4477 122.6810 0.0000 0.0000 0.0000
# 4 0.0000 0.0000 0.0000 0.3359 0.0000 0.0000
# 5 0.0000 0.0000 0.0000 0.0000 23.8084 0.0000
# 6 0.0000 0.0000 0.0000 0.0000 0.0000 78.1275
#
#
#
# Elastic Compliance Matrix: (Units=1/GPa)
#
#
# Indices 1 2 3 4 5 6 
#
# 1 0.099650 0.009374 -0.038493 0.000000 0.000000 0.000000
# 2 0.009374 0.047590 -0.022828 0.000000 0.000000 0.000000
# 3 -0.038493 -0.022828 0.030918 0.000000 0.000000 0.000000
# 4 0.000000 0.000000 0.000000 2.977310 0.000000 0.000000
# 5 0.000000 0.000000 0.000000 0.000000 0.042002 0.000000
# 6 0.000000 0.000000 0.000000 0.000000 0.000000 0.012800
#
#
# Mechanical properties :
#
#
# Convention : Reuss Voigt Hill
#
# Bulk Modulus (GPa) = 13.46526 45.23414 29.34970
# Shear Modulus (GPa) = 1.49749 25.87236 13.68492
#
# Velocity S-wave (km/s) = 0.94148 3.91331 2.84609
# Velocity P-wave (km/s) = 3.02523 6.86973 5.30778
#
# Compressibility (1/GPa) = 0.07426521
#
# Stress axis : x y z
#
# Youngs Moduli (GPa) = 10.03511 21.01303 32.34360
#
# Poissons Ratio (x) = -0.19698 1.24499
# Poissons Ratio (y) = -0.09407 0.73833
# Poissons Ratio (z) = 0.38628 0.47968
#
# Static dielectric constant tensor:
#      x y z
#    x 1.573340 0.000000 0.000000 
#    y 0.000000 1.575090 0.000000 
#    z 0.000000 0.000000 1.609830 
# 
# From -- ./inp_files/30508.got.cif
#   From: 2010.05.17/outbox.ucp.g08.bks.cvg/sg53_16_cif.got.tgz:30508.got - 2010.06.11 16:32:34.
