data_PCOD9420975
_publ_section_title
;
Structure prediction by ZEFSAII (Michael W. Deem and Ramdas Pophale) SiO2 
 PCOD9420975
Probable space group: P C C A
;
_chemical_formula_sum "Si O2"
_cell_formula_units_Z 48
_cell_length_a 26.146797
_cell_length_b 10.329152
_cell_length_c 8.778822
_cell_angle_alpha 90.000000
_cell_angle_beta 90.000000
_cell_angle_gamma 90.000000
_cell_volume 2370.933684
_symmetry_space_group_name_H-M "P C C A"
_symmetry_group_IT_number 54
_symmetry_cell_setting 'orthorhombic'
loop_
_space_group_symop_operation_xyz
x,y,z
1/2-x,-y,z
1/2+x,-y,1/2-z
-x,y,1/2-z
-x,-y,-z
1/2+x,y,-z
1/2-x,y,1/2+z
x,-y,1/2+z
loop_
_atom_site_type_symbol
_atom_site_label
_atom_site_fract_x
_atom_site_fract_y
_atom_site_fract_z
Si Si1 0.202391 0.083446 0.583108
Si Si2 0.889613 0.442166 0.943580
Si Si3 0.731593 0.242039 0.691369
Si Si4 0.167436 0.355695 0.848818
Si Si5 0.560248 0.667529 0.238311
Si Si6 0.357856 0.171002 0.600767
O O1 0.226226 0.143241 0.735835
O O2 0.199663 0.191086 0.452683
O O3 0.250000 0.000000 0.522099
O O4 0.157414 0.980115 0.605783
O O5 0.856689 0.365939 0.818672
O O6 0.923174 0.544413 0.844233
O O7 0.852181 0.524258 0.051848
O O8 0.922911 0.360582 0.064022
O O9 0.771029 0.354039 0.652359
O O10 0.689129 0.251485 0.821278
O O11 0.143237 0.229677 0.932129
O O12 0.500000 0.686217 0.250000
O O13 0.592106 0.787382 0.308108
#
# Coordination Sequence:
#
# PCOD9420975 Si02
#       6
#     8   8   8   8   8   8
#     4  10  19  33  55  85 113 148 192 229 285 346
#     4   9  21  38  59  86 115 160 198 247 295 360
#     4  11  20  35  58  85 117 156 189 234 286 362
#     4  10  20  38  54  84 121 151 194 231 296 353
#     4  10  20  39  62  86 116 156 205 256 305 352
#     4  10  22  34  56  89 115 148 198 244 292 354
#
# _framework density 20.245189
#
# number of rings (size 3 to 8) (size 9 to 14) (size 15 to 20)
#    0.000    2.000    3.333    2.000    2.333    0.000 
#    0.000   14.167    0.000    1.000    0.000    0.000 
#    0.000    0.000    0.000    0.000    0.000    0.000 
#
# Total GULP energy -267717.270747 kJ/mol
# GULP energy per Si atom -5577.443141 kJ/mol
# Density = 2.019911 g / cm^3
# Si number density = 20.245189 Si / 1000 Ang^3
#
#
#
# Elastic Constant Matrix: (Units=GPa)
#
#
# Indices 1 2 3 4 5 6 
#
# 1 138.9947 53.8468 57.6754 0.0000 0.0000 0.0000
# 2 53.8468 55.1669 43.7628 0.0000 0.0000 0.0000
# 3 57.6754 43.7628 145.3355 0.0000 0.0000 0.0000
# 4 0.0000 0.0000 0.0000 24.4737 0.0000 0.0000
# 5 0.0000 0.0000 0.0000 0.0000 14.9368 0.0000
# 6 0.0000 0.0000 0.0000 0.0000 0.0000 26.1714
#
#
#
# Elastic Compliance Matrix: (Units=1/GPa)
#
#
# Indices 1 2 3 4 5 6 
#
# 1 0.011846 -0.010292 -0.001602 0.000000 0.000000 0.000000
# 2 -0.010292 0.032757 -0.005779 0.000000 0.000000 0.000000
# 3 -0.001602 -0.005779 0.009257 0.000000 0.000000 0.000000
# 4 0.000000 0.000000 0.000000 0.040860 0.000000 0.000000
# 5 0.000000 0.000000 0.000000 0.000000 0.066949 0.000000
# 6 0.000000 0.000000 0.000000 0.000000 0.000000 0.038210
#
#
# Mechanical properties :
#
#
# Convention : Reuss Voigt Hill
#
# Bulk Modulus (GPa) = 54.01517 72.22970 63.12243
# Shear Modulus (GPa) = 20.71273 25.39717 23.05495
#
# Velocity S-wave (km/s) = 3.20205 3.54571 3.37825
# Velocity P-wave (km/s) = 6.35683 7.24690 6.81641
#
# Compressibility (1/GPa) = 0.01851332
#
# Stress axis : x y z
#
# Youngs Moduli (GPa) = 84.41323 30.52749 108.03016
#
# Poissons Ratio (x) = 0.31419 0.17307
# Poissons Ratio (y) = 0.86879 0.62435
# Poissons Ratio (z) = 0.13524 0.17643
#
# Static dielectric constant tensor:
#      x y z
#    x 1.689620 0.000000 0.000000 
#    y 0.000000 1.876570 0.000000 
#    z 0.000000 0.000000 1.771640 
# 
# From -- ./inp_files/5144.got.cif
#   From: 2010.05.17/outbox.cif.g08.bks.cpg/sg54_3_cif.got.tgz:5144.got - 2010.06.03 13:09:01.
