data_PCOD9420759
_publ_section_title
;
Structure prediction by ZEFSAII (Michael W. Deem and Ramdas Pophale) SiO2 
 PCOD9420759
Probable space group: P C C A
;
_chemical_formula_sum "Si O2"
_cell_formula_units_Z 52
_cell_length_a 19.499535
_cell_length_b 8.821545
_cell_length_c 13.426103
_cell_angle_alpha 90.000000
_cell_angle_beta 90.000000
_cell_angle_gamma 90.000000
_cell_volume 2309.504876
_symmetry_space_group_name_H-M "P C C A"
_symmetry_group_IT_number 54
_symmetry_cell_setting 'orthorhombic'
loop_
_space_group_symop_operation_xyz
x,y,z
1/2-x,-y,z
1/2+x,-y,1/2-z
-x,y,1/2-z
-x,-y,-z
1/2+x,y,-z
1/2-x,y,1/2+z
x,-y,1/2+z
loop_
_atom_site_type_symbol
_atom_site_label
_atom_site_fract_x
_atom_site_fract_y
_atom_site_fract_z
Si Si1 0.131630 0.051329 0.966988
Si Si2 0.109939 0.449559 0.105883
Si Si3 0.250000 0.500000 0.392127
Si Si4 0.000000 0.514739 0.750000
Si Si5 0.831798 0.737790 0.466970
Si Si6 0.199512 0.809329 0.653191
Si Si7 0.750000 0.000000 0.170356
Si Si8 0.389631 0.340168 0.378352
O O1 0.087158 0.164657 0.899827
O O2 0.201259 0.085001 0.905668
O O3 0.145123 0.112005 0.078461
O O4 0.126906 0.870413 0.976182
O O5 0.121040 0.629864 0.100412
O O6 0.174705 0.363941 0.154648
O O7 0.043698 0.398652 0.167056
O O8 0.105352 0.403312 0.990904
O O9 0.210053 0.374762 0.459723
O O10 0.313141 0.401766 0.344025
O O11 0.056008 0.417092 0.807697
O O12 0.774181 0.815464 0.397682
O O13 0.206402 0.891040 0.758290
#
# Coordination Sequence:
#
# PCOD9420759 Si02
#       8
#     8   8   4   4   8   8   4   8
#     4  11  21  37  59  96 135 171 211 274 339 399
#     4  10  24  42  66  90 130 176 225 276 333 400
#     4  10  18  36  70  98 126 164 222 278 338 392
#     4  12  26  44  64  96 138 186 230 278 334 408
#     4  11  17  39  64  95 130 164 210 276 340 391
#     4  11  20  36  60  97 133 168 210 269 344 398
#     4  12  20  30  64 100 142 164 200 278 346 400
#     4  10  23  43  66  95 134 176 228 278 339 400
#
# _framework density 22.515647999999999
#
# number of rings (size 3 to 8) (size 9 to 14) (size 15 to 20)
#    0.000    1.231    7.692    0.462    2.154    3.692 
#    0.000    0.769    0.000   13.846    0.000    0.000 
#    0.000    0.000    0.000    0.000    0.000    0.000 
#
# Total GULP energy -289716.661124 kJ/mol
# GULP energy per Si atom -5571.474252 kJ/mol
# Density = 2.246440 g / cm^3
# Si number density = 22.515648 Si / 1000 Ang^3
#
#
#
# Elastic Constant Matrix: (Units=GPa)
#
#
# Indices 1 2 3 4 5 6 
#
# 1 57.3819 4.1046 20.6598 0.0000 0.0000 0.0000
# 2 4.1046 107.0140 15.4765 0.0000 0.0000 0.0000
# 3 20.6598 15.4765 63.3044 0.0000 0.0000 0.0000
# 4 0.0000 0.0000 0.0000 34.3423 0.0000 0.0000
# 5 0.0000 0.0000 0.0000 0.0000 35.3190 0.0000
# 6 0.0000 0.0000 0.0000 0.0000 0.0000 6.3555
#
#
#
# Elastic Compliance Matrix: (Units=1/GPa)
#
#
# Indices 1 2 3 4 5 6 
#
# 1 0.019751 0.000181 -0.006490 0.000000 0.000000 0.000000
# 2 0.000181 0.009689 -0.002428 0.000000 0.000000 0.000000
# 3 -0.006490 -0.002428 0.018508 0.000000 0.000000 0.000000
# 4 0.000000 0.000000 0.000000 0.029119 0.000000 0.000000
# 5 0.000000 0.000000 0.000000 0.000000 0.028313 0.000000
# 6 0.000000 0.000000 0.000000 0.000000 0.000000 0.157345
#
#
# Mechanical properties :
#
#
# Convention : Reuss Voigt Hill
#
# Bulk Modulus (GPa) = 32.81454 34.24244 33.52849
# Shear Modulus (GPa) = 17.22023 27.70066 22.46045
#
# Velocity S-wave (km/s) = 2.76852 3.51135 3.16183
# Velocity P-wave (km/s) = 4.98251 5.62856 5.31536
#
# Compressibility (1/GPa) = 0.03047430
#
# Stress axis : x y z
#
# Youngs Moduli (GPa) = 50.63074 103.21265 54.02980
#
# Poissons Ratio (x) = -0.01869 0.35066
# Poissons Ratio (y) = -0.00917 0.13117
# Poissons Ratio (z) = 0.32860 0.25058
#
# Static dielectric constant tensor:
#      x y z
#    x 2.006930 0.000000 0.000000 
#    y 0.000000 2.109340 0.000000 
#    z 0.000000 0.000000 1.828970 
# 
# From -- ./inp_files/14639.got.cif
#   From: 2010.05.17/outbox.cif.g08.bks.cpg/sg54_8_cif.got.tgz:14639.got - 2010.06.03 13:09:01.
