data_PCOD9420377
_publ_section_title
;
Structure prediction by ZEFSAII (Michael W. Deem and Ramdas Pophale) SiO2 
 PCOD9420377
Probable space group: P C C A
;
_chemical_formula_sum "Si O2"
_cell_formula_units_Z 64
_cell_length_a 24.584919
_cell_length_b 25.951400
_cell_length_c 5.541266
_cell_angle_alpha 90.000000
_cell_angle_beta 90.000000
_cell_angle_gamma 90.000000
_cell_volume 3535.400115
_symmetry_space_group_name_H-M "P C C A"
_symmetry_group_IT_number 54
_symmetry_cell_setting 'orthorhombic'
loop_
_space_group_symop_operation_xyz
x,y,z
1/2-x,-y,z
1/2+x,-y,1/2-z
-x,y,1/2-z
-x,-y,-z
1/2+x,y,-z
1/2-x,y,1/2+z
x,-y,1/2+z
loop_
_atom_site_type_symbol
_atom_site_label
_atom_site_fract_x
_atom_site_fract_y
_atom_site_fract_z
Si Si1 0.589134 0.395077 0.201392
Si Si2 0.687163 0.979040 0.225052
Si Si3 0.216039 0.138723 0.281673
Si Si4 0.871635 0.718923 0.248620
Si Si5 0.751320 0.672936 0.255530
Si Si6 0.941940 0.445276 0.197755
Si Si7 0.834036 0.483252 0.699750
Si Si8 0.848527 0.756032 0.748655
O O1 0.597180 0.334681 0.224979
O O2 0.558389 0.415732 0.441129
O O3 0.647617 0.424113 0.215303
O O4 0.567561 0.409632 0.934567
O O5 0.688723 0.917445 0.222734
O O6 0.750000 0.000000 0.225750
O O7 0.662817 0.999671 0.475635
O O8 0.248448 0.141634 0.535617
O O9 0.177184 0.187840 0.273765
O O10 0.806874 0.705571 0.254853
O O11 0.882466 0.744373 0.507069
O O12 0.879288 0.750490 0.002841
O O13 0.750597 0.642647 0.505572
O O14 0.700545 0.713030 0.255903
O O15 0.892066 0.485041 0.189193
O O16 0.000000 0.471011 0.250000
O O17 0.808089 0.497041 0.445343
#
# Coordination Sequence:
#
# PCOD9420377 Si02
#       8
#     8   8   8   8   8   8   8   8
#     4  10  19  29  44  62  82 115 129 153 208 236
#     4  10  16  27  33  51  74 102 129 168 214 265
#     4  12  18  25  41  54  76 102 137 172 223 267
#     4  10  18  30  40  55  84  99 133 169 204 255
#     4   8  14  25  37  51  72  91 121 161 202 235
#     4  10  19  31  46  66  89 107 132 160 187 237
#     4   8  16  27  41  61  83 101 130 149 180 233
#     4  10  19  28  40  58  74 103 135 180 217 249
#
# _framework density 18.102619000000001
#
# number of rings (size 3 to 8) (size 9 to 14) (size 15 to 20)
#    0.000    2.250    2.500    4.125    0.000    4.500 
#    0.000    0.000    0.000    0.000    0.000    0.000 
#    0.000  243.000    0.000    0.000    0.000    0.000 
#
# Total GULP energy -356627.887727 kJ/mol
# GULP energy per Si atom -5572.310746 kJ/mol
# Density = 1.806142 g / cm^3
# Si number density = 18.102619 Si / 1000 Ang^3
#
#
#
# Elastic Constant Matrix: (Units=GPa)
#
#
# Indices 1 2 3 4 5 6 
#
# 1 22.3767 5.9709 0.7134 0.0000 0.0000 0.0000
# 2 5.9709 59.5168 8.8461 0.0000 0.0000 0.0000
# 3 0.7134 8.8461 170.6585 0.0000 0.0000 0.0000
# 4 0.0000 0.0000 0.0000 27.0987 0.0000 0.0000
# 5 0.0000 0.0000 0.0000 0.0000 25.8749 0.0000
# 6 0.0000 0.0000 0.0000 0.0000 0.0000 7.8798
#
#
#
# Elastic Compliance Matrix: (Units=1/GPa)
#
#
# Indices 1 2 3 4 5 6 
#
# 1 0.045919 -0.004614 0.000047 0.000000 0.000000 0.000000
# 2 -0.004614 0.017396 -0.000882 0.000000 0.000000 0.000000
# 3 0.000047 -0.000882 0.005905 0.000000 0.000000 0.000000
# 4 0.000000 0.000000 0.000000 0.036902 0.000000 0.000000
# 5 0.000000 0.000000 0.000000 0.000000 0.038648 0.000000
# 6 0.000000 0.000000 0.000000 0.000000 0.000000 0.126906
#
#
# Mechanical properties :
#
#
# Convention : Reuss Voigt Hill
#
# Bulk Modulus (GPa) = 17.14613 31.51252 24.32933
# Shear Modulus (GPa) = 16.55551 27.97214 22.26382
#
# Velocity S-wave (km/s) = 3.02741 3.93517 3.51075
# Velocity P-wave (km/s) = 4.65967 6.17194 5.46833
#
# Compressibility (1/GPa) = 0.05832220
#
# Stress axis : x y z
#
# Youngs Moduli (GPa) = 21.77754 57.48452 169.34231
#
# Poissons Ratio (x) = 0.26522 -0.00799
# Poissons Ratio (y) = 0.10048 0.14943
# Poissons Ratio (z) = -0.00103 0.05073
#
# Static dielectric constant tensor:
#      x y z
#    x 1.622480 0.000000 0.000000 
#    y 0.000000 1.585030 0.000000 
#    z 0.000000 0.000000 1.743940 
# 
# From -- ./inp_files/2030.got.cif
#   From: 2010.05.17/outbox.cif.g08.bks.cpg/sg54_2_cif.got.tgz:2030.got - 2010.06.03 13:09:01.
