data_PCOD9420846
_publ_section_title
;
Structure prediction by ZEFSAII (Michael W. Deem and Ramdas Pophale) SiO2 
 PCOD9420846
Probable space group: P C C A
;
_chemical_formula_sum "Si O2"
_cell_formula_units_Z 44
_cell_length_a 5.215727
_cell_length_b 31.195916
_cell_length_c 9.743210
_cell_angle_alpha 90.000000
_cell_angle_beta 90.000000
_cell_angle_gamma 90.000000
_cell_volume 1585.311672
_symmetry_space_group_name_H-M "P C C A"
_symmetry_group_IT_number 54
_symmetry_cell_setting 'orthorhombic'
loop_
_space_group_symop_operation_xyz
x,y,z
1/2-x,-y,z
1/2+x,-y,1/2-z
-x,y,1/2-z
-x,-y,-z
1/2+x,y,-z
1/2-x,y,1/2+z
x,-y,1/2+z
loop_
_atom_site_type_symbol
_atom_site_label
_atom_site_fract_x
_atom_site_fract_y
_atom_site_fract_z
Si Si1 0.248773 0.090423 0.341458
Si Si2 0.672473 0.811780 0.075268
Si Si3 0.698217 0.455007 0.093125
Si Si4 0.809094 0.275635 0.592956
Si Si5 0.300882 0.635043 0.406628
Si Si6 0.750000 0.000000 0.152080
O O1 0.500000 0.091013 0.250000
O O2 0.224281 0.138486 0.395363
O O3 0.000000 0.085785 0.250000
O O4 0.255180 0.045737 0.426574
O O5 0.760106 0.770407 0.162604
O O6 0.371086 0.807024 0.051371
O O7 0.750000 0.500000 0.168108
O O8 0.415170 0.455008 0.027362
O O9 0.749922 0.410014 0.168110
O O10 0.590927 0.276421 0.473138
O O11 0.752504 0.320161 0.669722
O O12 0.583486 0.635066 0.473003
O O13 0.500000 0.001043 0.250000
#
# Coordination Sequence:
#
# PCOD9420846 Si02
#       6
#     8   8   8   8   8   4
#     4  10  19  33  51  69  89 117 149 177 210 256
#     4  10  19  31  46  67  92 115 142 180 219 251
#     4   8  12  16  22  33  50  73 105 145 181 213
#     4   8  14  23  35  50  71  98 126 157 195 239
#     4   8  12  18  27  39  56  82 115 147 181 225
#     4   8  16  30  48  66  86 114 146 174 204 252
#
# _framework density 27.754795000000001
#
# number of rings (size 3 to 8) (size 9 to 14) (size 15 to 20)
#    0.000    3.273    0.000    1.091    0.000    0.000 
#    0.000    0.909    0.000    0.000    0.000    0.000 
#    0.000    0.000    0.000    0.000    0.000    1.818 
#
# Total GULP energy -245622.757740 kJ/mol
# GULP energy per Si atom -5582.335403 kJ/mol
# Density = 2.769162 g / cm^3
# Si number density = 27.754795 Si / 1000 Ang^3
#
#
#
# Elastic Constant Matrix: (Units=GPa)
#
#
# Indices 1 2 3 4 5 6 
#
# 1 222.5250 -0.5267 57.8364 0.0000 0.0000 0.0000
# 2 -0.5267 348.7994 33.7041 0.0000 0.0000 0.0000
# 3 57.8364 33.7041 50.1856 0.0000 0.0000 0.0000
# 4 0.0000 0.0000 0.0000 -3.2316 0.0000 0.0000
# 5 0.0000 0.0000 0.0000 0.0000 54.9622 0.0000
# 6 0.0000 0.0000 0.0000 0.0000 0.0000 40.1911
#
#
#
# Elastic Compliance Matrix: (Units=1/GPa)
#
#
# Indices 1 2 3 4 5 6 
#
# 1 0.006617 0.000799 -0.008162 0.000000 0.000000 0.000000
# 2 0.000799 0.003162 -0.003044 0.000000 0.000000 0.000000
# 3 -0.008162 -0.003044 0.031377 0.000000 0.000000 0.000000
# 4 0.000000 0.000000 0.000000 -0.309447 0.000000 0.000000
# 5 0.000000 0.000000 0.000000 0.000000 0.018194 0.000000
# 6 0.000000 0.000000 0.000000 0.000000 0.000000 0.024881
#
#
# Mechanical properties :
#
#
# Convention : Reuss Voigt Hill
#
# Bulk Modulus (GPa) = 49.16202 89.28197 69.22200
# Shear Modulus (GPa) = -25.30130 53.75076 14.22473
#
# Velocity S-wave (km/s) = -3.02255 4.40549 2.26633
# Velocity P-wave (km/s) = 2.36016 7.62337 5.64297
#
# Compressibility (1/GPa) = 0.02034090
#
# Stress axis : x y z
#
# Youngs Moduli (GPa) = 151.11947 316.22064 31.87008
#
# Poissons Ratio (x) = -0.25257 0.26014
# Poissons Ratio (y) = -0.12070 0.09702
# Poissons Ratio (z) = 1.23351 0.96267
#
# Static dielectric constant tensor:
#      x y z
#    x 2.089910 0.000000 0.000000 
#    y 0.000000 2.338400 0.000000 
#    z 0.000000 0.000000 3.078560 
# 
# From -- ./inp_files/10954.got.cif
#   From: 2010.05.17/outbox.cif.g08.bks.cpg/sg54_6_cif.got.tgz:10954.got - 2010.06.03 13:09:01.
