data_PCOD9420129
_publ_section_title
;
Structure prediction by ZEFSAII (Michael W. Deem and Ramdas Pophale) SiO2 
 PCOD9420129
Probable space group: P M N A
;
_chemical_formula_sum "Si O2"
_cell_formula_units_Z 64
_cell_length_a 9.000000
_cell_length_b 21.000000
_cell_length_c 18.000000
_cell_angle_alpha 90.000000
_cell_angle_beta 90.000000
_cell_angle_gamma 90.000000
_cell_volume 3402.000000
_symmetry_space_group_name_H-M "P M N A"
_symmetry_group_IT_number 53
_symmetry_cell_setting 'orthorhombic'
loop_
_space_group_symop_operation_xyz
x,y,z
1/2-x,-y,1/2+z
x,-y,-z
1/2-x,y,1/2-z
-x,-y,-z
1/2+x,y,1/2-z
-x,y,z
1/2+x,-y,1/2+z
loop_
_atom_site_type_symbol
_atom_site_label
_atom_site_fract_x
_atom_site_fract_y
_atom_site_fract_z
Si Si1 0.821340 0.844572 0.331464
Si Si2 0.824101 0.371272 0.172083
Si Si3 0.321420 0.608308 0.170171
Si Si4 0.823094 0.757320 0.908870
Si Si5 0.678778 0.876986 0.832476
Si Si6 0.178274 0.480949 0.415994
Si Si7 0.321801 0.016684 0.831480
Si Si8 0.820688 0.725889 0.434997
O O1 0.750000 0.838012 0.250000
O O2 0.779885 0.786740 0.384565
O O3 0.000000 0.842616 0.322846
O O4 0.780408 0.914419 0.364374
O O5 0.750000 0.387905 0.250000
O O6 0.793040 0.298285 0.150830
O O7 0.757731 0.417253 0.109781
O O8 0.000000 0.379990 0.176722
O O9 0.250000 0.620192 0.250000
O O10 0.500000 0.610218 0.177535
O O11 0.279949 0.539221 0.138095
O O12 0.280383 0.662450 0.110520
O O13 0.743186 0.821514 0.883185
O O14 0.000000 0.766761 0.913283
O O15 0.759693 0.732761 0.986834
O O16 0.750000 0.871980 0.750000
O O17 0.500000 0.871641 0.826651
O O18 0.717087 0.947647 0.864154
O O19 0.215193 0.500000 0.500000
O O20 0.000000 0.472224 0.412002
O O21 0.250000 0.016977 0.750000
O O22 0.500000 0.016675 0.824360
O O23 0.000000 0.725702 0.445921
#
# Coordination Sequence:
#
# PCOD9420129 Si02
#       8
#     8   8   8   8   8   8   8   8
#     4   9  17  31  53  80 108 140 179 221 266 317
#     4  11  24  40  59  83 109 140 180 225 270 318
#     4  10  21  36  56  83 111 142 181 222 265 314
#     4  11  24  39  55  78 107 140 180 225 273 323
#     4  10  19  33  55  80 107 140 177 220 268 319
#     4  10  21  38  60  85 115 149 181 217 263 314
#     4   8  15  28  48  76 106 136 174 218 263 313
#     4  10  21  37  56  78 107 144 182 220 267 321
#
# _framework density 18.812463000000001
#
# number of rings (size 3 to 8) (size 9 to 14) (size 15 to 20)
#    0.000    2.125    0.000    3.000    0.000    7.250 
#    0.000    0.625    0.000    3.750    0.000    0.000 
#    0.000    0.000    0.000    0.000    0.000    0.000 
#
# Total GULP energy -357165.729985 kJ/mol
# GULP energy per Si atom -5580.714531 kJ/mol
# Density = 1.876965 g / cm^3
# Si number density = 18.812463 Si / 1000 Ang^3
#
#
#
# Elastic Constant Matrix: (Units=GPa)
#
#
# Indices 1 2 3 4 5 6 
#
# 1 16.6584 26.4876 11.8522 0.0000 0.0000 0.0000
# 2 26.4876 76.6159 -6.6882 0.0000 0.0000 0.0000
# 3 11.8522 -6.6882 43.3739 0.0000 0.0000 0.0000
# 4 0.0000 0.0000 0.0000 -8.7956 0.0000 0.0000
# 5 0.0000 0.0000 0.0000 0.0000 28.2889 0.0000
# 6 0.0000 0.0000 0.0000 0.0000 0.0000 18.5506
#
#
#
# Elastic Compliance Matrix: (Units=1/GPa)
#
#
# Indices 1 2 3 4 5 6 
#
# 1 0.355576 -0.133204 -0.117703 0.000000 0.000000 0.000000
# 2 -0.133204 0.063131 0.046134 0.000000 0.000000 0.000000
# 3 -0.117703 0.046134 0.062332 0.000000 0.000000 0.000000
# 4 0.000000 0.000000 0.000000 -0.113694 0.000000 0.000000
# 5 0.000000 0.000000 0.000000 0.000000 0.035350 0.000000
# 6 0.000000 0.000000 0.000000 0.000000 0.000000 0.053907
#
#
# Mechanical properties :
#
#
# Convention : Reuss Voigt Hill
#
# Bulk Modulus (GPa) = 13.98784 22.21684 18.10234
# Shear Modulus (GPa) = 5.61811 14.60854 10.11332
#
# Velocity S-wave (km/s) = 1.72999 2.78966 2.32111
# Velocity P-wave (km/s) = 3.38261 4.71291 4.10205
#
# Compressibility (1/GPa) = 0.07149068
#
# Stress axis : x y z
#
# Youngs Moduli (GPa) = 2.81234 15.84015 16.04309
#
# Poissons Ratio (x) = 2.10998 1.88832
# Poissons Ratio (y) = 0.37462 -0.74012
# Poissons Ratio (z) = 0.33102 -0.73076
#
# Static dielectric constant tensor:
#      x y z
#    x 1.616260 0.000000 0.000000 
#    y 0.000000 1.679920 0.000000 
#    z 0.000000 0.000000 1.610880 
# 
# From -- ./inp_files/26787.got.cif
#   From: 2010.05.17/outbox.ucp.g08.bks.cvg/sg53_14_cif.got.tgz:26787.got - 2010.06.11 16:32:34.
