data_PCOD9420512
_publ_section_title
;
Structure prediction by ZEFSAII (Michael W. Deem and Ramdas Pophale) SiO2 
 PCOD9420512
Probable space group: P C C A
;
_chemical_formula_sum "Si O2"
_cell_formula_units_Z 48
_cell_length_a 12.015058
_cell_length_b 7.974665
_cell_length_c 19.693937
_cell_angle_alpha 90.000000
_cell_angle_beta 90.000000
_cell_angle_gamma 90.000000
_cell_volume 1886.995499
_symmetry_space_group_name_H-M "P C C A"
_symmetry_group_IT_number 54
_symmetry_cell_setting 'orthorhombic'
loop_
_space_group_symop_operation_xyz
x,y,z
1/2-x,-y,z
1/2+x,-y,1/2-z
-x,y,1/2-z
-x,-y,-z
1/2+x,y,-z
1/2-x,y,1/2+z
x,-y,1/2+z
loop_
_atom_site_type_symbol
_atom_site_label
_atom_site_fract_x
_atom_site_fract_y
_atom_site_fract_z
Si Si1 0.102830 0.835857 0.444580
Si Si2 0.119669 0.815826 0.732834
Si Si3 0.138231 0.436208 0.768454
Si Si4 0.568558 0.343901 0.361549
Si Si5 0.330337 0.808616 0.382466
Si Si6 0.923584 0.291025 0.404376
O O1 0.981159 0.788129 0.414249
O O2 0.214640 0.747465 0.414201
O O3 0.098077 0.787490 0.522844
O O4 0.130391 0.025225 0.422908
O O5 0.106262 0.613380 0.734308
O O6 0.187544 0.848363 0.801922
O O7 0.133138 0.831375 0.652091
O O8 0.000000 0.898483 0.750000
O O9 0.250000 0.500000 0.803625
O O10 0.044540 0.371077 0.817286
O O11 0.152605 0.314826 0.702342
O O12 0.608629 0.511567 0.400333
O O13 0.443177 0.700953 0.387974
#
# Coordination Sequence:
#
# PCOD9420512 Si02
#       6
#     8   8   8   8   8   8
#     4  11  23  37  58  93 127 148 199 260 309 364
#     4   9  16  37  63  79 102 159 206 229 282 367
#     4  10  17  33  59  86 119 156 201 252 303 360
#     4  10  20  36  57  91 119 156 204 259 303 359
#     4  10  21  40  62  84 116 169 199 240 304 375
#     4  10  20  40  63  81 118 161 202 245 304 363
#
# _framework density 25.437262
#
# number of rings (size 3 to 8) (size 9 to 14) (size 15 to 20)
#    0.000    2.000    5.000    2.000    0.000    0.000 
#   15.000    3.333    0.000    0.000    0.000    0.000 
#    0.000    0.000    0.000    0.000    0.000    0.000 
#
# Total GULP energy -267206.841156 kJ/mol
# GULP energy per Si atom -5566.809191 kJ/mol
# Density = 2.537937 g / cm^3
# Si number density = 25.437262 Si / 1000 Ang^3
#
#
#
# Elastic Constant Matrix: (Units=GPa)
#
#
# Indices 1 2 3 4 5 6 
#
# 1 91.1683 -6.4348 26.3163 0.0000 0.0000 0.0000
# 2 -6.4348 35.2876 29.5574 0.0000 0.0000 0.0000
# 3 26.3163 29.5574 203.6800 0.0000 0.0000 0.0000
# 4 0.0000 0.0000 0.0000 26.2378 0.0000 0.0000
# 5 0.0000 0.0000 0.0000 0.0000 32.1721 0.0000
# 6 0.0000 0.0000 0.0000 0.0000 0.0000 19.8561
#
#
#
# Elastic Compliance Matrix: (Units=1/GPa)
#
#
# Indices 1 2 3 4 5 6 
#
# 1 0.011852 0.003920 -0.002100 0.000000 0.000000 0.000000
# 2 0.003920 0.033557 -0.005376 0.000000 0.000000 0.000000
# 3 -0.002100 -0.005376 0.005961 0.000000 0.000000 0.000000
# 4 0.000000 0.000000 0.000000 0.038113 0.000000 0.000000
# 5 0.000000 0.000000 0.000000 0.000000 0.031083 0.000000
# 6 0.000000 0.000000 0.000000 0.000000 0.000000 0.050362
#
#
# Mechanical properties :
#
#
# Convention : Reuss Voigt Hill
#
# Bulk Modulus (GPa) = 22.59508 47.66821 35.13165
# Shear Modulus (GPa) = 25.93468 34.36634 30.15051
#
# Velocity S-wave (km/s) = 3.19651 3.67961 3.44654
# Velocity P-wave (km/s) = 4.74611 6.06902 5.44787
#
# Compressibility (1/GPa) = 0.04425742
#
# Stress axis : x y z
#
# Youngs Moduli (GPa) = 84.37637 29.80038 167.75182
#
# Poissons Ratio (x) = -0.11683 0.35231
# Poissons Ratio (y) = -0.33078 0.90186
# Poissons Ratio (z) = 0.17721 0.16021
#
# Static dielectric constant tensor:
#      x y z
#    x 2.314240 0.000000 0.000000 
#    y 0.000000 2.084750 0.000000 
#    z 0.000000 0.000000 2.092080 
# 
# From -- ./inp_files/17988.got.cif
#   From: 2010.05.17/outbox.cif.g08.bks.cpg/sg54_9_cif.got.tgz:17988.got - 2010.06.03 13:09:01.
