data_PCOD9420997
_publ_section_title
;
Structure prediction by ZEFSAII (Michael W. Deem and Ramdas Pophale) SiO2 
 PCOD9420997
Probable space group: P C C A
;
_chemical_formula_sum "Si O2"
_cell_formula_units_Z 52
_cell_length_a 16.329691
_cell_length_b 7.211271
_cell_length_c 19.997453
_cell_angle_alpha 90.000000
_cell_angle_beta 90.000000
_cell_angle_gamma 90.000000
_cell_volume 2354.856614
_symmetry_space_group_name_H-M "P C C A"
_symmetry_group_IT_number 54
_symmetry_cell_setting 'orthorhombic'
loop_
_space_group_symop_operation_xyz
x,y,z
1/2-x,-y,z
1/2+x,-y,1/2-z
-x,y,1/2-z
-x,-y,-z
1/2+x,y,-z
1/2-x,y,1/2+z
x,-y,1/2+z
loop_
_atom_site_type_symbol
_atom_site_label
_atom_site_fract_x
_atom_site_fract_y
_atom_site_fract_z
Si Si1 0.271259 0.289306 0.097336
Si Si2 0.775083 0.779201 0.558735
Si Si3 0.604269 0.226781 0.084703
Si Si4 0.071278 0.141659 0.359040
Si Si5 0.000000 0.383521 0.250000
Si Si6 0.063976 0.407897 0.622650
Si Si7 0.599627 0.798503 0.430530
O O1 0.250000 0.500000 0.120159
O O2 0.362720 0.258647 0.125298
O O3 0.187894 0.168485 0.104886
O O4 0.283239 0.280026 0.017563
O O5 0.693587 0.681671 0.587619
O O6 0.860318 0.757117 0.596371
O O7 0.750000 0.000000 0.561512
O O8 0.522771 0.341999 0.095114
O O9 0.600284 0.069417 0.141471
O O10 0.599974 0.145056 0.008389
O O11 0.060747 0.249956 0.290605
O O12 0.981772 0.134138 0.393771
O O13 0.953071 0.505498 0.304686
O O14 0.091461 0.574799 0.573628
#
# Coordination Sequence:
#
# PCOD9420997 Si02
#       7
#     8   8   8   8   4   8   8
#     4   9  18  32  54  81 114 142 172 219 277 335
#     4   9  19  34  55  86 114 136 172 224 286 342
#     4  10  19  33  59  86 105 136 180 228 286 336
#     4  10  20  37  55  76 112 149 182 226 267 319
#     4  10  24  40  54  72 106 156 198 224 260 316
#     4  10  20  36  53  78 112 145 181 226 268 320
#     4   9  18  33  55  87 115 138 171 222 289 339
#
# _framework density 22.082025000000002
#
# number of rings (size 3 to 8) (size 9 to 14) (size 15 to 20)
#    0.000    2.462    0.000    1.846    0.000    9.231 
#    0.000    7.692    0.000    7.385    0.000    0.000 
#    0.000    0.000    0.000    0.000    0.000    0.000 
#
# Total GULP energy -289954.108757 kJ/mol
# GULP energy per Si atom -5576.040553 kJ/mol
# Density = 2.203176 g / cm^3
# Si number density = 22.082025 Si / 1000 Ang^3
#
#
#
# Elastic Constant Matrix: (Units=GPa)
#
#
# Indices 1 2 3 4 5 6 
#
# 1 179.0894 23.1094 41.4627 0.0000 0.0000 0.0000
# 2 23.1094 37.4572 6.1334 0.0000 0.0000 0.0000
# 3 41.4627 6.1334 61.3748 0.0000 0.0000 0.0000
# 4 0.0000 0.0000 0.0000 -35.2197 0.0000 0.0000
# 5 0.0000 0.0000 0.0000 0.0000 6.6832 0.0000
# 6 0.0000 0.0000 0.0000 0.0000 0.0000 23.5061
#
#
#
# Elastic Compliance Matrix: (Units=1/GPa)
#
#
# Indices 1 2 3 4 5 6 
#
# 1 0.007076 -0.003643 -0.004417 0.000000 0.000000 0.000000
# 2 -0.003643 0.029016 -0.000439 0.000000 0.000000 0.000000
# 3 -0.004417 -0.000439 0.019321 0.000000 0.000000 0.000000
# 4 0.000000 0.000000 0.000000 -0.028393 0.000000 0.000000
# 5 0.000000 0.000000 0.000000 0.000000 0.149628 0.000000
# 6 0.000000 0.000000 0.000000 0.000000 0.000000 0.042542
#
#
# Mechanical properties :
#
#
# Convention : Reuss Voigt Hill
#
# Bulk Modulus (GPa) = 26.02979 46.59249 36.31114
# Shear Modulus (GPa) = 20.08096 12.80832 16.44464
#
# Velocity S-wave (km/s) = 3.01886 2.41100 2.73189
# Velocity P-wave (km/s) = 4.89538 5.37551 5.14105
#
# Compressibility (1/GPa) = 0.03841752
#
# Stress axis : x y z
#
# Youngs Moduli (GPa) = 141.31570 34.46339 51.75752
#
# Poissons Ratio (x) = 0.12554 0.22859
# Poissons Ratio (y) = 0.51476 0.02271
# Poissons Ratio (z) = 0.62413 0.01512
#
# Static dielectric constant tensor:
#      x y z
#    x 1.901800 0.000000 0.000000 
#    y 0.000000 1.954400 0.000000 
#    z 0.000000 0.000000 1.736590 
# 
# From -- ./inp_files/21540.got.cif
#   From: 2010.05.17/outbox.cif.g08.bks.cpg/sg54_11_cif.got.tgz:21540.got - 2010.06.03 13:09:01.
