data_PCOD9420853
_publ_section_title
;
Structure prediction by ZEFSAII (Michael W. Deem and Ramdas Pophale) SiO2 
 PCOD9420853
Probable space group: P C C A
;
_chemical_formula_sum "Si O2"
_cell_formula_units_Z 64
_cell_length_a 21.210707
_cell_length_b 5.148719
_cell_length_c 29.510095
_cell_angle_alpha 90.000000
_cell_angle_beta 90.000000
_cell_angle_gamma 90.000000
_cell_volume 3222.737573
_symmetry_space_group_name_H-M "P C C A"
_symmetry_group_IT_number 54
_symmetry_cell_setting 'orthorhombic'
loop_
_space_group_symop_operation_xyz
x,y,z
1/2-x,-y,z
1/2+x,-y,1/2-z
-x,y,1/2-z
-x,-y,-z
1/2+x,y,-z
1/2-x,y,1/2+z
x,-y,1/2+z
loop_
_atom_site_type_symbol
_atom_site_label
_atom_site_fract_x
_atom_site_fract_y
_atom_site_fract_z
Si Si1 0.099973 0.453792 0.195899
Si Si2 0.325426 0.999350 0.544789
Si Si3 0.517622 0.427070 0.137760
Si Si4 0.095255 0.073041 0.353006
Si Si5 0.826647 0.498677 0.397707
Si Si6 0.577976 0.946225 0.748979
Si Si7 0.114745 0.067491 0.947379
Si Si8 0.966342 0.569066 0.545724
O O1 0.145427 0.494371 0.152924
O O2 0.100913 0.167628 0.216457
O O3 0.030211 0.504809 0.176636
O O4 0.104966 0.670924 0.234649
O O5 0.346587 0.746371 0.572412
O O6 0.250000 0.000000 0.545254
O O7 0.346765 0.247236 0.573633
O O8 0.345394 0.013434 0.492358
O O9 0.576033 0.625821 0.143428
O O10 0.490745 0.505136 0.088992
O O11 0.536877 0.127399 0.138229
O O12 0.106371 0.011960 0.300468
O O13 0.139105 0.999931 0.396330
O O14 0.750000 0.500000 0.394584
O O15 0.500000 0.947767 0.750000
O O16 0.091451 0.364705 0.948888
O O17 0.056837 0.863903 0.952693
O O18 0.000000 0.500000 0.500000
#
# Coordination Sequence:
#
# PCOD9420853 Si02
#       8
#     8   8   8   8   8   8   8   8
#     4  12  22  34  57  81 106 152 186 229 279 326
#     4  10  21  39  62  83 106 144 187 236 283 331
#     4  10  19  31  48  74 108 144 178 215 258 322
#     4  10  20  35  49  75 114 140 177 225 262 312
#     4  10  23  41  59  84 113 141 187 239 282 331
#     4  12  21  35  55  80 114 149 189 226 269 333
#     4  10  21  35  53  76 107 143 179 221 275 326
#     4  10  21  33  46  75 112 149 173 210 267 333
#
# _framework density 19.858893999999999
#
# number of rings (size 3 to 8) (size 9 to 14) (size 15 to 20)
#    0.000    1.500    2.500    3.000    3.500    0.000 
#    0.000    0.000    0.000    1.500    0.000    0.000 
#    0.000    0.000    0.000    0.000    0.000    0.000 
#
# Total GULP energy -356917.740634 kJ/mol
# GULP energy per Si atom -5576.839697 kJ/mol
# Density = 1.981369 g / cm^3
# Si number density = 19.858894 Si / 1000 Ang^3
#
#
#
# Elastic Constant Matrix: (Units=GPa)
#
#
# Indices 1 2 3 4 5 6 
#
# 1 17.3379 15.2220 15.1352 0.0000 0.0000 0.0000
# 2 15.2220 91.6095 9.7000 0.0000 0.0000 0.0000
# 3 15.1352 9.7000 135.7756 0.0000 0.0000 0.0000
# 4 0.0000 0.0000 0.0000 41.8250 0.0000 0.0000
# 5 0.0000 0.0000 0.0000 0.0000 22.9601 0.0000
# 6 0.0000 0.0000 0.0000 0.0000 0.0000 5.2567
#
#
#
# Elastic Compliance Matrix: (Units=1/GPa)
#
#
# Indices 1 2 3 4 5 6 
#
# 1 0.074342 -0.011563 -0.007461 0.000000 0.000000 0.000000
# 2 -0.011563 0.012798 0.000375 0.000000 0.000000 0.000000
# 3 -0.007461 0.000375 0.008170 0.000000 0.000000 0.000000
# 4 0.000000 0.000000 0.000000 0.023909 0.000000 0.000000
# 5 0.000000 0.000000 0.000000 0.000000 0.043554 0.000000
# 6 0.000000 0.000000 0.000000 0.000000 0.000000 0.190233
#
#
# Mechanical properties :
#
#
# Convention : Reuss Voigt Hill
#
# Bulk Modulus (GPa) = 17.23807 36.09305 26.66556
# Shear Modulus (GPa) = 12.20582 27.65275 19.92929
#
# Velocity S-wave (km/s) = 2.48186 3.73562 3.17131
# Velocity P-wave (km/s) = 4.11241 6.06800 5.18327
#
# Compressibility (1/GPa) = 0.05801114
#
# Stress axis : x y z
#
# Youngs Moduli (GPa) = 13.45140 78.14025 122.39871
#
# Poissons Ratio (x) = 0.90351 0.91321
# Poissons Ratio (y) = 0.15553 -0.04586
# Poissons Ratio (z) = 0.10036 -0.02927
#
# Static dielectric constant tensor:
#      x y z
#    x 1.656390 0.000000 0.000000 
#    y 0.000000 1.741900 0.000000 
#    z 0.000000 0.000000 1.767770 
# 
# From -- ./inp_files/26711.got.cif
#   From: 2010.05.17/outbox.cif.g08.bks.cpg/sg54_14_cif.got.tgz:26711.got - 2010.06.03 13:09:01.
