data_PCOD9420863
_publ_section_title
;
Structure prediction by ZEFSAII (Michael W. Deem and Ramdas Pophale) SiO2 
 PCOD9420863
Probable space group: P C C A
;
_chemical_formula_sum "Si O2"
_cell_formula_units_Z 40
_cell_length_a 5.186394
_cell_length_b 28.712052
_cell_length_c 12.755726
_cell_angle_alpha 90.000000
_cell_angle_beta 90.000000
_cell_angle_gamma 90.000000
_cell_volume 1899.480852
_symmetry_space_group_name_H-M "P C C A"
_symmetry_group_IT_number 54
_symmetry_cell_setting 'orthorhombic'
loop_
_space_group_symop_operation_xyz
x,y,z
1/2-x,-y,z
1/2+x,-y,1/2-z
-x,y,1/2-z
-x,-y,-z
1/2+x,y,-z
1/2-x,y,1/2+z
x,-y,1/2+z
loop_
_atom_site_type_symbol
_atom_site_label
_atom_site_fract_x
_atom_site_fract_y
_atom_site_fract_z
Si Si1 0.247988 0.698892 0.178298
Si Si2 0.186153 0.900308 0.073493
Si Si3 0.250000 0.500000 0.174321
Si Si4 0.000000 0.970791 0.250000
Si Si5 0.795720 0.798573 0.428467
Si Si6 0.750247 0.400254 0.325833
O O1 0.500000 0.701050 0.250000
O O2 0.215784 0.749005 0.126808
O O3 0.257652 0.649673 0.114988
O O4 0.000000 0.693847 0.250000
O O5 0.189177 0.848790 0.127832
O O6 0.120714 0.939027 0.158518
O O7 0.459910 0.903987 0.014089
O O8 0.500000 0.500297 0.250000
O O9 0.250672 0.549869 0.115464
O O10 0.750000 0.000000 0.211093
O O11 0.543138 0.799297 0.498573
O O12 0.500000 0.401199 0.250000
O O13 0.000000 0.399823 0.250000
#
# Coordination Sequence:
#
# PCOD9420863 Si02
#       6
#     8   8   4   4   8   8
#     4  10  19  31  50  79 104 135 175 228 273 319
#     4  10  23  43  63  89 124 157 193 242 284 337
#     4   8  12  20  34  54  86 128 156 204 262 316
#     4  12  26  42  66  98 120 156 202 234 288 348
#     4  10  21  38  56  79 110 146 183 217 274 333
#     4   8  14  23  37  61  94 123 165 210 265 315
#
# _framework density 21.058384
#
# number of rings (size 3 to 8) (size 9 to 14) (size 15 to 20)
#    0.000    2.400    0.000    2.400    1.400    2.400 
#    1.800    0.000    0.000    0.000    0.000    1.400 
#    0.000    0.000    0.000    0.000    0.000    0.000 
#
# Total GULP energy -222673.981359 kJ/mol
# GULP energy per Si atom -5566.849534 kJ/mol
# Density = 2.101045 g / cm^3
# Si number density = 21.058384 Si / 1000 Ang^3
#
#
#
# Elastic Constant Matrix: (Units=GPa)
#
#
# Indices 1 2 3 4 5 6 
#
# 1 152.9106 13.5795 0.4377 0.0000 0.0000 0.0000
# 2 13.5795 203.1668 29.2677 0.0000 0.0000 0.0000
# 3 0.4377 29.2677 9.4552 0.0000 0.0000 0.0000
# 4 0.0000 0.0000 0.0000 48.1562 0.0000 0.0000
# 5 0.0000 0.0000 0.0000 0.0000 13.4595 0.0000
# 6 0.0000 0.0000 0.0000 0.0000 0.0000 36.1433
#
#
#
# Elastic Compliance Matrix: (Units=1/GPa)
#
#
# Indices 1 2 3 4 5 6 
#
# 1 0.006598 -0.000716 0.001912 0.000000 0.000000 0.000000
# 2 -0.000716 0.008961 -0.027705 0.000000 0.000000 0.000000
# 3 0.001912 -0.027705 0.191430 0.000000 0.000000 0.000000
# 4 0.000000 0.000000 0.000000 0.020766 0.000000 0.000000
# 5 0.000000 0.000000 0.000000 0.000000 0.074297 0.000000
# 6 0.000000 0.000000 0.000000 0.000000 0.000000 0.027668
#
#
# Mechanical properties :
#
#
# Convention : Reuss Voigt Hill
#
# Bulk Modulus (GPa) = 6.49472 50.23359 28.36416
# Shear Modulus (GPa) = 11.51914 41.03498 26.27706
#
# Velocity S-wave (km/s) = 2.34136 4.41912 3.53628
# Velocity P-wave (km/s) = 3.22492 7.06713 5.49293
#
# Compressibility (1/GPa) = 0.15397115
#
# Stress axis : x y z
#
# Youngs Moduli (GPa) = 151.56279 111.59440 5.22385
#
# Poissons Ratio (x) = 0.07996 -0.00999
# Poissons Ratio (y) = 0.10859 0.14473
# Poissons Ratio (z) = -0.28985 3.09169
#
# Static dielectric constant tensor:
#      x y z
#    x 1.709060 0.000000 0.000000 
#    y 0.000000 1.945470 0.000000 
#    z 0.000000 0.000000 1.825590 
# 
# From -- ./inp_files/6474.got.cif
#   From: 2010.05.17/outbox.cif.g08.bks.cpg/sg54_4_cif.got.tgz:6474.got - 2010.06.03 13:09:01.
