data_PCOD9420860
_publ_section_title
;
Structure prediction by ZEFSAII (Michael W. Deem and Ramdas Pophale) SiO2 
 PCOD9420860
Probable space group: P C C A
;
_chemical_formula_sum "Si O2"
_cell_formula_units_Z 56
_cell_length_a 14.385082
_cell_length_b 12.468890
_cell_length_c 17.038721
_cell_angle_alpha 90.000000
_cell_angle_beta 90.000000
_cell_angle_gamma 90.000000
_cell_volume 3056.167318
_symmetry_space_group_name_H-M "P C C A"
_symmetry_group_IT_number 54
_symmetry_cell_setting 'orthorhombic'
loop_
_space_group_symop_operation_xyz
x,y,z
1/2-x,-y,z
1/2+x,-y,1/2-z
-x,y,1/2-z
-x,-y,-z
1/2+x,y,-z
1/2-x,y,1/2+z
x,-y,1/2+z
loop_
_atom_site_type_symbol
_atom_site_label
_atom_site_fract_x
_atom_site_fract_y
_atom_site_fract_z
Si Si1 0.258357 0.873188 0.130242
Si Si2 0.901792 0.279488 0.288374
Si Si3 0.450318 0.353561 0.046793
Si Si4 0.593551 0.260116 0.288300
Si Si5 0.258870 0.628507 0.822040
Si Si6 0.267222 0.274753 0.990535
Si Si7 0.612926 0.596131 0.444521
O O1 0.347684 0.821711 0.173725
O O2 0.169177 0.821453 0.174996
O O3 0.250000 0.000000 0.133531
O O4 0.261200 0.830151 0.040079
O O5 0.831440 0.334104 0.226800
O O6 0.916270 0.364349 0.358893
O O7 0.000000 0.252269 0.250000
O O8 0.444402 0.324981 0.137254
O O9 0.412016 0.474100 0.040513
O O10 0.377717 0.282698 0.998238
O O11 0.551099 0.342495 0.009218
O O12 0.500000 0.212243 0.250000
O O13 0.651437 0.337783 0.229797
O O14 0.250000 0.500000 0.837108
O O15 0.260453 0.697406 0.902176
O O16 0.218734 0.369096 0.042315
#
# Coordination Sequence:
#
# PCOD9420860 Si02
#       7
#     8   8   8   8   8   8   8
#     4   9  21  41  60  76 100 139 185 233 280 320
#     4  10  21  35  54  82 113 140 178 226 271 322
#     4  10  19  31  50  76 109 148 181 211 256 318
#     4  10  21  35  54  82 113 140 178 226 271 322
#     4  11  21  33  54  84 118 151 177 211 264 324
#     4  10  20  34  52  74 104 140 184 226 262 314
#     4  10  19  31  50  76 109 148 181 211 256 318
#
# _framework density 18.323604
#
# number of rings (size 3 to 8) (size 9 to 14) (size 15 to 20)
#    0.000    2.000    0.000    4.714    0.000    5.143 
#    0.000    2.857    0.000   29.143    0.000    0.000 
#    0.000    0.000    0.000    0.000    0.000    0.000 
#
# Total GULP energy -312191.485161 kJ/mol
# GULP energy per Si atom -5574.847949 kJ/mol
# Density = 1.828190 g / cm^3
# Si number density = 18.323604 Si / 1000 Ang^3
#
#
#
# Elastic Constant Matrix: (Units=GPa)
#
#
# Indices 1 2 3 4 5 6 
#
# 1 110.1691 21.4448 40.5055 0.0000 0.0000 0.0000
# 2 21.4448 31.6600 -6.1437 0.0000 0.0000 0.0000
# 3 40.5055 -6.1437 100.2487 0.0000 0.0000 0.0000
# 4 0.0000 0.0000 0.0000 8.4626 0.0000 0.0000
# 5 0.0000 0.0000 0.0000 0.0000 37.1885 0.0000
# 6 0.0000 0.0000 0.0000 0.0000 0.0000 6.3245
#
#
#
# Elastic Compliance Matrix: (Units=1/GPa)
#
#
# Indices 1 2 3 4 5 6 
#
# 1 0.013245 -0.010130 -0.005972 0.000000 0.000000 0.000000
# 2 -0.010130 0.039714 0.006527 0.000000 0.000000 0.000000
# 3 -0.005972 0.006527 0.012788 0.000000 0.000000 0.000000
# 4 0.000000 0.000000 0.000000 0.118167 0.000000 0.000000
# 5 0.000000 0.000000 0.000000 0.000000 0.026890 0.000000
# 6 0.000000 0.000000 0.000000 0.000000 0.000000 0.158116
#
#
# Mechanical properties :
#
#
# Convention : Reuss Voigt Hill
#
# Bulk Modulus (GPa) = 21.46125 39.29901 30.38013
# Shear Modulus (GPa) = 12.38844 22.81321 17.60083
#
# Velocity S-wave (km/s) = 2.60300 3.53231 3.10264
# Velocity P-wave (km/s) = 4.55762 6.17495 5.42688
#
# Compressibility (1/GPa) = 0.04659561
#
# Stress axis : x y z
#
# Youngs Moduli (GPa) = 75.50216 25.18018 78.19642
#
# Poissons Ratio (x) = 0.25508 0.46701
# Poissons Ratio (y) = 0.76485 -0.51038
# Poissons Ratio (z) = 0.45092 -0.16435
#
# Static dielectric constant tensor:
#      x y z
#    x 1.634390 0.000000 0.000000 
#    y 0.000000 1.605100 0.000000 
#    z 0.000000 0.000000 1.654190 
# 
# From -- ./inp_files/13565.got.cif
#   From: 2010.05.17/outbox.cif.g08.bks.cpg/sg54_7_cif.got.tgz:13565.got - 2010.06.03 13:09:01.
