data_PCOD9420463
_publ_section_title
;
Structure prediction by ZEFSAII (Michael W. Deem and Ramdas Pophale) SiO2 
 PCOD9420463
Probable space group: P C C A
;
_chemical_formula_sum "Si O2"
_cell_formula_units_Z 52
_cell_length_a 31.297527
_cell_length_b 8.679539
_cell_length_c 8.494549
_cell_angle_alpha 90.000000
_cell_angle_beta 90.000000
_cell_angle_gamma 90.000000
_cell_volume 2307.528149
_symmetry_space_group_name_H-M "P C C A"
_symmetry_group_IT_number 54
_symmetry_cell_setting 'orthorhombic'
loop_
_space_group_symop_operation_xyz
x,y,z
1/2-x,-y,z
1/2+x,-y,1/2-z
-x,y,1/2-z
-x,-y,-z
1/2+x,y,-z
1/2-x,y,1/2+z
x,-y,1/2+z
loop_
_atom_site_type_symbol
_atom_site_label
_atom_site_fract_x
_atom_site_fract_y
_atom_site_fract_z
Si Si1 0.693006 0.698561 0.342947
Si Si2 0.987601 0.665176 0.934133
Si Si3 0.309137 0.074160 0.189073
Si Si4 0.000000 0.137798 0.750000
Si Si5 0.758836 0.755270 0.578599
Si Si6 0.902203 0.966656 0.187913
Si Si7 0.604109 0.236278 0.884348
O O1 0.728716 0.661278 0.465447
O O2 0.710153 0.646599 0.177226
O O3 0.645926 0.661777 0.393359
O O4 0.693614 0.888039 0.323243
O O5 0.936834 0.667787 0.923856
O O6 0.000000 0.697257 0.750000
O O7 0.000000 0.500000 0.000000
O O8 0.001531 0.778827 0.077030
O O9 0.276237 0.149542 0.315709
O O10 0.359178 0.106087 0.229189
O O11 0.290363 0.138676 0.025950
O O12 0.951730 0.064316 0.740758
O O13 0.897327 0.149274 0.216846
O O14 0.896928 0.902689 0.011752
#
# Coordination Sequence:
#
# PCOD9420463 Si02
#       7
#     8   8   8   4   8   8   8
#     4  10  17  27  41  70 108 154 197 229 274 336
#     4  11  24  44  67  86 111 150 202 256 302 350
#     4  10  17  26  41  66 105 156 194 231 262 340
#     4  10  24  42  62  90 120 154 196 244 304 364
#     4  10  17  25  42  65 106 160 203 224 268 334
#     4  10  22  35  52  81 124 155 193 234 300 360
#     4  10  23  35  55  84 122 156 194 245 296 360
#
# _framework density 22.534935999999998
#
# number of rings (size 3 to 8) (size 9 to 14) (size 15 to 20)
#    0.000    1.846    2.308    3.692    9.692    1.231 
#    0.000    0.000    0.000    0.000    0.000    0.000 
#    0.000   20.923    0.000    0.000    0.000    0.000 
#
# Total GULP energy -289576.218176 kJ/mol
# GULP energy per Si atom -5568.773426 kJ/mol
# Density = 2.248365 g / cm^3
# Si number density = 22.534936 Si / 1000 Ang^3
#
#
#
# Elastic Constant Matrix: (Units=GPa)
#
#
# Indices 1 2 3 4 5 6 
#
# 1 166.2299 26.6925 34.7242 0.0000 0.0000 0.0000
# 2 26.6925 25.3639 14.5949 0.0000 0.0000 0.0000
# 3 34.7242 14.5949 109.8030 0.0000 0.0000 0.0000
# 4 0.0000 0.0000 0.0000 6.7202 0.0000 0.0000
# 5 0.0000 0.0000 0.0000 0.0000 30.0498 0.0000
# 6 0.0000 0.0000 0.0000 0.0000 0.0000 10.6337
#
#
#
# Elastic Compliance Matrix: (Units=1/GPa)
#
#
# Indices 1 2 3 4 5 6 
#
# 1 0.007438 -0.007010 -0.001420 0.000000 0.000000 0.000000
# 2 -0.007010 0.049299 -0.004336 0.000000 0.000000 0.000000
# 3 -0.001420 -0.004336 0.010133 0.000000 0.000000 0.000000
# 4 0.000000 0.000000 0.000000 0.148804 0.000000 0.000000
# 5 0.000000 0.000000 0.000000 0.000000 0.033278 0.000000
# 6 0.000000 0.000000 0.000000 0.000000 0.000000 0.094041
#
#
# Mechanical properties :
#
#
# Convention : Reuss Voigt Hill
#
# Bulk Modulus (GPa) = 24.19176 50.37999 37.28588
# Shear Modulus (GPa) = 13.07856 24.50643 18.79249
#
# Velocity S-wave (km/s) = 2.41170 3.30128 2.89091
# Velocity P-wave (km/s) = 4.30274 6.07752 5.26544
#
# Compressibility (1/GPa) = 0.04133638
#
# Stress axis : x y z
#
# Youngs Moduli (GPa) = 134.44124 20.28450 98.69018
#
# Poissons Ratio (x) = 0.14220 0.14018
# Poissons Ratio (y) = 0.94250 0.42789
# Poissons Ratio (z) = 0.19097 0.08795
#
# Static dielectric constant tensor:
#      x y z
#    x 1.872380 0.000000 0.000000 
#    y 0.000000 1.868280 0.000000 
#    z 0.000000 0.000000 2.017710 
# 
# From -- ./inp_files/5555.got.cif
#   From: 2010.05.17/outbox.cif.g08.bks.cpg/sg54_3_cif.got.tgz:5555.got - 2010.06.03 13:09:01.
