data_PCOD9420130
_publ_section_title
;
Structure prediction by ZEFSAII (Michael W. Deem and Ramdas Pophale) SiO2 
 PCOD9420130
Probable space group: P M N A
;
_chemical_formula_sum "Si O2"
_cell_formula_units_Z 64
_cell_length_a 9.000000
_cell_length_b 18.000000
_cell_length_c 21.000000
_cell_angle_alpha 90.000000
_cell_angle_beta 90.000000
_cell_angle_gamma 90.000000
_cell_volume 3402.000000
_symmetry_space_group_name_H-M "P M N A"
_symmetry_group_IT_number 53
_symmetry_cell_setting 'orthorhombic'
loop_
_space_group_symop_operation_xyz
x,y,z
1/2-x,-y,1/2+z
x,-y,-z
1/2-x,y,1/2-z
-x,-y,-z
1/2+x,y,1/2-z
-x,y,z
1/2+x,-y,1/2+z
loop_
_atom_site_type_symbol
_atom_site_label
_atom_site_fract_x
_atom_site_fract_y
_atom_site_fract_z
Si Si1 0.678860 0.314931 0.404515
Si Si2 0.820172 0.387402 0.819540
Si Si3 0.177137 0.054215 0.817450
Si Si4 0.180388 0.512389 0.926170
Si Si5 0.328136 0.935825 0.909116
Si Si6 0.322181 0.780775 0.366339
Si Si7 0.678927 0.192299 0.001990
Si Si8 0.328624 0.795399 0.813699
O O1 0.500000 0.310778 0.408630
O O2 0.721519 0.402146 0.408619
O O3 0.749451 0.260632 0.458162
O O4 0.739471 0.274751 0.341469
O O5 0.750000 0.404004 0.750000
O O6 0.774395 0.447746 0.874949
O O7 0.783142 0.300876 0.837683
O O8 0.000000 0.391489 0.814832
O O9 0.250000 0.031587 0.750000
O O10 0.204701 0.143054 0.826817
O O11 0.000000 0.043013 0.814829
O O12 0.241827 0.003592 0.875369
O O13 0.000000 0.509497 0.926534
O O14 0.228858 0.500000 0.000000
O O15 0.500000 0.959049 0.918640
O O16 0.324846 0.865771 0.860660
O O17 0.274609 0.890459 0.972268
O O18 0.500000 0.778196 0.379315
O O19 0.231608 0.794247 0.430720
O O20 0.500000 0.195472 0.008952
O O21 0.250000 0.819994 0.750000
O O22 0.500000 0.774935 0.804305
#
# Coordination Sequence:
#
# PCOD9420130 Si02
#       8
#     8   8   8   8   8   8   8   8
#     4  10  19  33  55  81 110 143 178 220 273 331
#     4  10  21  39  61  85 116 153 194 240 291 346
#     4  11  23  37  56  82 110 143 185 231 279 333
#     4   9  18  34  58  85 111 145 189 233 280 339
#     4   9  20  37  55  78 109 144 180 222 274 330
#     4  10  22  39  59  82 109 146 189 232 281 337
#     4  10  21  37  58  84 113 146 185 229 278 333
#     4  10  20  34  52  76 107 143 183 222 266 324
#
# _framework density 18.812463000000001
#
# number of rings (size 3 to 8) (size 9 to 14) (size 15 to 20)
#    0.000    2.125    0.000    3.750    0.000    8.500 
#    0.000    5.000    0.000    2.625    0.000    0.000 
#    0.000    0.000    0.000    0.000    0.000    0.000 
#
# Total GULP energy -356896.808850 kJ/mol
# GULP energy per Si atom -5576.512638 kJ/mol
# Density = 1.876965 g / cm^3
# Si number density = 18.812463 Si / 1000 Ang^3
#
#
#
# Elastic Constant Matrix: (Units=GPa)
#
#
# Indices 1 2 3 4 5 6 
#
# 1 53.0229 35.6885 30.9120 0.0000 0.0000 0.0000
# 2 35.6885 122.6680 29.4496 0.0000 0.0000 0.0000
# 3 30.9120 29.4496 96.7106 0.0000 0.0000 0.0000
# 4 0.0000 0.0000 0.0000 35.0803 0.0000 0.0000
# 5 0.0000 0.0000 0.0000 0.0000 32.2796 0.0000
# 6 0.0000 0.0000 0.0000 0.0000 0.0000 23.5960
#
#
#
# Elastic Compliance Matrix: (Units=1/GPa)
#
#
# Indices 1 2 3 4 5 6 
#
# 1 0.026976 -0.006234 -0.006724 0.000000 0.000000 0.000000
# 2 -0.006234 0.010236 -0.001124 0.000000 0.000000 0.000000
# 3 -0.006724 -0.001124 0.012832 0.000000 0.000000 0.000000
# 4 0.000000 0.000000 0.000000 0.028506 0.000000 0.000000
# 5 0.000000 0.000000 0.000000 0.000000 0.030979 0.000000
# 6 0.000000 0.000000 0.000000 0.000000 0.000000 0.042380
#
#
# Mechanical properties :
#
#
# Convention : Reuss Voigt Hill
#
# Bulk Modulus (GPa) = 45.70685 51.61131 48.65908
# Shear Modulus (GPa) = 26.68572 29.94793 28.31683
#
# Velocity S-wave (km/s) = 3.77040 3.99422 3.88392
# Velocity P-wave (km/s) = 6.58053 6.98326 6.78488
#
# Compressibility (1/GPa) = 0.02187856
#
# Stress axis : x y z
#
# Youngs Moduli (GPa) = 37.07029 97.69742 77.93179
#
# Poissons Ratio (x) = 0.60904 0.52402
# Poissons Ratio (y) = 0.23109 0.08762
# Poissons Ratio (z) = 0.24926 0.10984
#
# Static dielectric constant tensor:
#      x y z
#    x 1.628960 0.000000 0.000000 
#    y 0.000000 1.642390 0.000000 
#    z 0.000000 0.000000 1.640270 
# 
# From -- ./inp_files/31101.got.cif
#   From: 2010.05.17/outbox.ucp.g08.bks.cvg/sg53_16_cif.got.tgz:31101.got - 2010.06.11 16:32:34.
