data_PCOD9420330
_publ_section_title
;
Structure prediction by ZEFSAII (Michael W. Deem and Ramdas Pophale) SiO2 
 PCOD9420330
Probable space group: P C C A
;
_chemical_formula_sum "Si O2"
_cell_formula_units_Z 60
_cell_length_a 10.630172
_cell_length_b 15.813351
_cell_length_c 19.800435
_cell_angle_alpha 90.000000
_cell_angle_beta 90.000000
_cell_angle_gamma 90.000000
_cell_volume 3328.426215
_symmetry_space_group_name_H-M "P C C A"
_symmetry_group_IT_number 54
_symmetry_cell_setting 'orthorhombic'
loop_
_space_group_symop_operation_xyz
x,y,z
1/2-x,-y,z
1/2+x,-y,1/2-z
-x,y,1/2-z
-x,-y,-z
1/2+x,y,-z
1/2-x,y,1/2+z
x,-y,1/2+z
loop_
_atom_site_type_symbol
_atom_site_label
_atom_site_fract_x
_atom_site_fract_y
_atom_site_fract_z
Si Si1 0.467884 0.190724 0.829966
Si Si2 0.703962 0.172636 0.221920
Si Si3 0.831268 0.929538 0.840461
Si Si4 0.000000 0.052497 0.750000
Si Si5 0.436958 0.380362 0.864131
Si Si6 0.181438 0.372891 0.784687
Si Si7 0.565556 0.443357 0.348842
Si Si8 0.626377 0.556083 0.995657
O O1 0.500000 0.184906 0.750000
O O2 0.320892 0.165941 0.829866
O O3 0.559721 0.128983 0.870937
O O4 0.488398 0.287720 0.849166
O O5 0.748377 0.134994 0.294752
O O6 0.584476 0.114886 0.204275
O O7 0.674726 0.271869 0.226532
O O8 0.750000 0.000000 0.880200
O O9 0.906582 0.990575 0.789015
O O10 0.317368 0.394518 0.815079
O O11 0.535545 0.456356 0.853355
O O12 0.386542 0.382177 0.940978
O O13 0.150263 0.419201 0.714756
O O14 0.070655 0.400874 0.835619
O O15 0.625244 0.411802 0.418863
O O16 0.750000 0.500000 0.005927
O O17 0.500000 0.500000 0.000000
#
# Coordination Sequence:
#
# PCOD9420330 Si02
#       8
#     8   8   8   4   8   8   8   8
#     4   9  17  30  44  72 102 134 171 217 264 315
#     4   9  17  28  43  68 104 135 164 216 258 319
#     4   9  16  27  44  68 100 138 165 203 266 333
#     4  10  14  24  46  66  98 138 162 194 266 322
#     4  10  20  35  53  70 107 145 184 224 271 320
#     4  10  20  34  51  77 110 140 180 227 280 316
#     4  10  21  34  52  76 103 146 189 225 269 320
#     4  10  21  40  55  75 102 144 192 233 265 318
#
# _framework density 18.026539
#
# number of rings (size 3 to 8) (size 9 to 14) (size 15 to 20)
#    0.000    2.400    2.000    2.800    1.867    2.133 
#   14.400    0.000    0.000    0.000    0.000    0.000 
#    0.000   14.933    2.933    0.000    0.000    0.000 
#
# Total GULP energy -334204.597079 kJ/mol
# GULP energy per Si atom -5570.076618 kJ/mol
# Density = 1.798551 g / cm^3
# Si number density = 18.026539 Si / 1000 Ang^3
#
#
#
# Elastic Constant Matrix: (Units=GPa)
#
#
# Indices 1 2 3 4 5 6 
#
# 1 56.6722 43.0997 6.3613 0.0000 0.0000 0.0000
# 2 43.0997 116.6899 25.7785 0.0000 0.0000 0.0000
# 3 6.3613 25.7785 58.0551 0.0000 0.0000 0.0000
# 4 0.0000 0.0000 0.0000 4.9786 0.0000 0.0000
# 5 0.0000 0.0000 0.0000 0.0000 13.2902 0.0000
# 6 0.0000 0.0000 0.0000 0.0000 0.0000 36.8790
#
#
#
# Elastic Compliance Matrix: (Units=1/GPa)
#
#
# Indices 1 2 3 4 5 6 
#
# 1 0.024653 -0.009434 0.001488 0.000000 0.000000 0.000000
# 2 -0.009434 0.013112 -0.004789 0.000000 0.000000 0.000000
# 3 0.001488 -0.004789 0.019188 0.000000 0.000000 0.000000
# 4 0.000000 0.000000 0.000000 0.200858 0.000000 0.000000
# 5 0.000000 0.000000 0.000000 0.000000 0.075243 0.000000
# 6 0.000000 0.000000 0.000000 0.000000 0.000000 0.027116
#
#
# Mechanical properties :
#
#
# Convention : Reuss Voigt Hill
#
# Bulk Modulus (GPa) = 31.76255 42.43289 37.09772
# Shear Modulus (GPa) = 12.62193 21.44141 17.03167
#
# Velocity S-wave (km/s) = 2.64897 3.45256 3.07711
# Velocity P-wave (km/s) = 5.19752 6.28361 5.76619
#
# Compressibility (1/GPa) = 0.03148362
#
# Stress axis : x y z
#
# Youngs Moduli (GPa) = 40.56251 76.26481 52.11521
#
# Poissons Ratio (x) = 0.71952 -0.07754
# Poissons Ratio (y) = 0.38268 0.24955
# Poissons Ratio (z) = -0.06035 0.36520
#
# Static dielectric constant tensor:
#      x y z
#    x 1.717780 0.000000 0.000000 
#    y 0.000000 1.635470 0.000000 
#    z 0.000000 0.000000 1.622030 
# 
# From -- ./inp_files/21258.got.cif
#   From: 2010.05.17/outbox.cif.g08.bks.cpg/sg54_11_cif.got.tgz:21258.got - 2010.06.03 13:09:01.
