data_PCOD9420960
_publ_section_title
;
Structure prediction by ZEFSAII (Michael W. Deem and Ramdas Pophale) SiO2 
 PCOD9420960
Probable space group: P C C A
;
_chemical_formula_sum "Si O2"
_cell_formula_units_Z 60
_cell_length_a 16.717674
_cell_length_b 11.616105
_cell_length_c 13.435247
_cell_angle_alpha 90.000000
_cell_angle_beta 90.000000
_cell_angle_gamma 90.000000
_cell_volume 2609.047803
_symmetry_space_group_name_H-M "P C C A"
_symmetry_group_IT_number 54
_symmetry_cell_setting 'orthorhombic'
loop_
_space_group_symop_operation_xyz
x,y,z
1/2-x,-y,z
1/2+x,-y,1/2-z
-x,y,1/2-z
-x,-y,-z
1/2+x,y,-z
1/2-x,y,1/2+z
x,-y,1/2+z
loop_
_atom_site_type_symbol
_atom_site_label
_atom_site_fract_x
_atom_site_fract_y
_atom_site_fract_z
Si Si1 0.522168 0.663488 0.950535
Si Si2 0.664858 0.540793 0.716453
Si Si3 0.005390 0.079109 0.632156
Si Si4 0.500000 0.513643 0.750000
Si Si5 0.332359 0.068083 0.396520
Si Si6 0.692454 0.661060 0.925498
Si Si7 0.644521 0.683290 0.525643
Si Si8 0.677201 0.916998 0.840386
O O1 0.511786 0.797924 0.922186
O O2 0.517330 0.592200 0.847422
O O3 0.611666 0.640625 0.990279
O O4 0.442238 0.642891 0.015683
O O5 0.750000 0.500000 0.677655
O O6 0.586888 0.458545 0.726956
O O7 0.683396 0.592559 0.823718
O O8 0.641490 0.639682 0.638993
O O9 0.093612 0.025425 0.624533
O O10 0.000000 0.104553 0.750000
O O11 0.923340 0.014951 0.600955
O O12 0.340110 0.180776 0.464448
O O13 0.324269 0.101464 0.279225
O O14 0.250000 0.000000 0.418505
O O15 0.688024 0.795327 0.894178
O O16 0.777935 0.634352 0.972005
O O17 0.750000 0.000000 0.861050
#
# Coordination Sequence:
#
# PCOD9420960 Si02
#       8
#     8   8   8   4   8   8   8   8
#     4   8  14  28  50  74  95 127 173 213 238 279
#     4  10  20  36  57  79 101 128 167 211 256 299
#     4   8  12  22  43  69  93 125 172 210 235 276
#     4   8  14  30  56  76  92 124 170 212 244 284
#     4   9  16  28  48  73 101 131 166 206 247 291
#     4  10  19  33  54  78 103 131 168 210 252 296
#     4  10  19  33  54  78 103 131 168 210 252 296
#     4   9  16  28  48  73 101 131 166 206 247 291
#
# _framework density 22.996894999999999
#
# number of rings (size 3 to 8) (size 9 to 14) (size 15 to 20)
#    0.000    2.933    2.000    0.000    0.000    1.067 
#    0.000    2.667    0.000    9.600    0.000    0.000 
#    0.000    0.000    0.000    0.000    0.000    0.000 
#
# Total GULP energy -334282.373183 kJ/mol
# GULP energy per Si atom -5571.372886 kJ/mol
# Density = 2.294455 g / cm^3
# Si number density = 22.996895 Si / 1000 Ang^3
#
#
#
# Elastic Constant Matrix: (Units=GPa)
#
#
# Indices 1 2 3 4 5 6 
#
# 1 170.8070 4.0229 -8.8774 0.0000 0.0000 0.0000
# 2 4.0229 29.2867 -9.8334 0.0000 0.0000 0.0000
# 3 -8.8774 -9.8334 53.7417 0.0000 0.0000 0.0000
# 4 0.0000 0.0000 0.0000 15.5349 0.0000 0.0000
# 5 0.0000 0.0000 0.0000 0.0000 19.3341 0.0000
# 6 0.0000 0.0000 0.0000 0.0000 0.0000 20.9950
#
#
#
# Elastic Compliance Matrix: (Units=1/GPa)
#
#
# Indices 1 2 3 4 5 6 
#
# 1 0.005913 -0.000516 0.000882 0.000000 0.000000 0.000000
# 2 -0.000516 0.036425 0.006580 0.000000 0.000000 0.000000
# 3 0.000882 0.006580 0.019957 0.000000 0.000000 0.000000
# 4 0.000000 0.000000 0.000000 0.064371 0.000000 0.000000
# 5 0.000000 0.000000 0.000000 0.000000 0.051722 0.000000
# 6 0.000000 0.000000 0.000000 0.000000 0.000000 0.047630
#
#
# Mechanical properties :
#
#
# Convention : Reuss Voigt Hill
#
# Bulk Modulus (GPa) = 13.12557 24.93997 19.03277
# Shear Modulus (GPa) = 21.05064 29.07434 25.06249
#
# Velocity S-wave (km/s) = 3.02879 3.55952 3.30482
# Velocity P-wave (km/s) = 4.23690 5.26897 4.78087
#
# Compressibility (1/GPa) = 0.07618717
#
# Stress axis : x y z
#
# Youngs Moduli (GPa) = 169.13133 27.45343 50.10723
#
# Poissons Ratio (x) = 0.01416 -0.04421
# Poissons Ratio (y) = 0.08726 -0.32969
# Poissons Ratio (z) = -0.14922 -0.18064
#
# Static dielectric constant tensor:
#      x y z
#    x 2.049370 0.000000 0.000000 
#    y 0.000000 1.850550 0.000000 
#    z 0.000000 0.000000 1.846990 
# 
# From -- ./inp_files/13601.got.cif
#   From: 2010.05.17/outbox.cif.g08.bks.cpg/sg54_7_cif.got.tgz:13601.got - 2010.06.03 13:09:01.
