data_PCOD9420848
_publ_section_title
;
Structure prediction by ZEFSAII (Michael W. Deem and Ramdas Pophale) SiO2 
 PCOD9420848
Probable space group: P C C A
;
_chemical_formula_sum "Si O2"
_cell_formula_units_Z 56
_cell_length_a 22.633255
_cell_length_b 20.344391
_cell_length_c 5.159758
_cell_angle_alpha 90.000000
_cell_angle_beta 90.000000
_cell_angle_gamma 90.000000
_cell_volume 2375.861082
_symmetry_space_group_name_H-M "P C C A"
_symmetry_group_IT_number 54
_symmetry_cell_setting 'orthorhombic'
loop_
_space_group_symop_operation_xyz
x,y,z
1/2-x,-y,z
1/2+x,-y,1/2-z
-x,y,1/2-z
-x,-y,-z
1/2+x,y,-z
1/2-x,y,1/2+z
x,-y,1/2+z
loop_
_atom_site_type_symbol
_atom_site_label
_atom_site_fract_x
_atom_site_fract_y
_atom_site_fract_z
Si Si1 0.047924 0.349341 0.926795
Si Si2 0.134494 0.193608 0.319190
Si Si3 0.500000 0.956405 0.250000
Si Si4 0.364915 0.953498 0.272833
Si Si5 0.277928 0.595606 0.968520
Si Si6 0.336424 0.278133 0.314361
Si Si7 0.603620 0.542786 0.275397
Si Si8 0.500000 0.233737 0.750000
O O1 0.108807 0.329649 0.786231
O O2 0.063115 0.394776 0.168159
O O3 0.000000 0.383699 0.750000
O O4 0.020086 0.281316 0.020928
O O5 0.161229 0.119404 0.313863
O O6 0.163378 0.235867 0.552217
O O7 0.061624 0.199264 0.340549
O O8 0.149313 0.228621 0.048302
O O9 0.433689 0.930347 0.249980
O O10 0.500000 0.000000 0.500000
O O11 0.353660 0.002688 0.515188
O O12 0.273505 0.573566 0.668931
O O13 0.284332 0.674049 0.916311
O O14 0.332827 0.571284 0.137465
O O15 0.594534 0.512973 0.994286
#
# Coordination Sequence:
#
# PCOD9420848 Si02
#       8
#     8   8   4   8   8   8   8   4
#     4  10  21  38  58  78 117 156 199 240 283 328
#     4  11  20  34  55  80 117 152 196 245 279 335
#     4   8  15  26  38  56  90 136 187 232 250 290
#     4  10  19  31  46  71 108 152 193 230 281 333
#     4  11  23  42  68  88 115 149 181 237 308 358
#     4  10  22  37  57  88 114 143 194 247 289 339
#     4  11  26  41  59  89 120 150 194 238 281 346
#     4  10  21  34  56  80 106 164 211 240 290 338
#
# _framework density 23.570404
#
# number of rings (size 3 to 8) (size 9 to 14) (size 15 to 20)
#    0.000    1.714    1.429    3.000    2.000    4.571 
#    0.000    4.286    0.000    0.000    0.000    0.000 
#    0.000   40.000    0.000    0.000    0.000    0.000 
#
# Total GULP energy -312103.844750 kJ/mol
# GULP energy per Si atom -5573.282942 kJ/mol
# Density = 2.351676 g / cm^3
# Si number density = 23.570404 Si / 1000 Ang^3
#
#
#
# Elastic Constant Matrix: (Units=GPa)
#
#
# Indices 1 2 3 4 5 6 
#
# 1 13.5595 11.3530 26.8106 0.0000 0.0000 0.0000
# 2 11.3530 108.5188 25.6650 0.0000 0.0000 0.0000
# 3 26.8106 25.6650 130.3443 0.0000 0.0000 0.0000
# 4 0.0000 0.0000 0.0000 11.8067 0.0000 0.0000
# 5 0.0000 0.0000 0.0000 0.0000 25.7600 0.0000
# 6 0.0000 0.0000 0.0000 0.0000 0.0000 12.8383
#
#
#
# Elastic Compliance Matrix: (Units=1/GPa)
#
#
# Indices 1 2 3 4 5 6 
#
# 1 0.130069 -0.007636 -0.025250 0.000000 0.000000 0.000000
# 2 -0.007636 0.010113 -0.000421 0.000000 0.000000 0.000000
# 3 -0.025250 -0.000421 0.012949 0.000000 0.000000 0.000000
# 4 0.000000 0.000000 0.000000 0.084698 0.000000 0.000000
# 5 0.000000 0.000000 0.000000 0.000000 0.038820 0.000000
# 6 0.000000 0.000000 0.000000 0.000000 0.000000 0.077892
#
#
# Mechanical properties :
#
#
# Convention : Reuss Voigt Hill
#
# Bulk Modulus (GPa) = 11.55844 42.23109 26.89477
# Shear Modulus (GPa) = 11.11129 22.65394 16.88261
#
# Velocity S-wave (km/s) = 2.17355 3.10355 2.67921
# Velocity P-wave (km/s) = 3.34866 5.54965 4.58324
#
# Compressibility (1/GPa) = 0.08651689
#
# Stress axis : x y z
#
# Youngs Moduli (GPa) = 7.68825 98.87946 77.22832
#
# Poissons Ratio (x) = 0.75501 1.95005
# Poissons Ratio (y) = 0.05870 0.03249
# Poissons Ratio (z) = 0.19413 0.04160
#
# Static dielectric constant tensor:
#      x y z
#    x 2.075710 0.000000 0.000000 
#    y 0.000000 1.870580 0.000000 
#    z 0.000000 0.000000 1.797680 
# 
# From -- ./inp_files/1699.got.cif
#   From: 2010.05.17/outbox.cif.g08.bks.cpg/sg54_1_cif.got.tgz:1699.got - 2010.06.03 13:09:01.
