data_PCOD9420818
_publ_section_title
;
Structure prediction by ZEFSAII (Michael W. Deem and Ramdas Pophale) SiO2 
 PCOD9420818
Probable space group: P C C A
;
_chemical_formula_sum "Si O2"
_cell_formula_units_Z 52
_cell_length_a 5.122104
_cell_length_b 18.439718
_cell_length_c 25.691820
_cell_angle_alpha 90.000000
_cell_angle_beta 90.000000
_cell_angle_gamma 90.000000
_cell_volume 2426.596338
_symmetry_space_group_name_H-M "P C C A"
_symmetry_group_IT_number 54
_symmetry_cell_setting 'orthorhombic'
loop_
_space_group_symop_operation_xyz
x,y,z
1/2-x,-y,z
1/2+x,-y,1/2-z
-x,y,1/2-z
-x,-y,-z
1/2+x,y,-z
1/2-x,y,1/2+z
x,-y,1/2+z
loop_
_atom_site_type_symbol
_atom_site_label
_atom_site_fract_x
_atom_site_fract_y
_atom_site_fract_z
Si Si1 0.573443 0.733721 0.132909
Si Si2 0.191469 0.659153 0.536331
Si Si3 0.423425 0.267661 0.192339
Si Si4 0.162653 0.080699 0.020952
Si Si5 0.586755 0.907833 0.133002
Si Si6 0.913819 0.909210 0.307287
Si Si7 0.250000 0.500000 0.037251
O O1 0.431263 0.710451 0.079990
O O2 0.862128 0.708150 0.149433
O O3 0.591760 0.820580 0.132248
O O4 0.367954 0.710973 0.177196
O O5 0.477437 0.667079 0.510420
O O6 0.214751 0.578637 0.562779
O O7 0.500000 0.291543 0.250000
O O8 0.422930 0.179164 0.192966
O O9 0.037004 0.073427 0.077453
O O10 0.250000 0.000000 0.003223
O O11 0.446750 0.117748 0.016155
O O12 0.877398 0.931673 0.148398
O O13 0.378990 0.929369 0.177202
O O14 0.000000 0.932595 0.250000
O O15 0.500000 0.500000 0.000000
#
# Coordination Sequence:
#
# PCOD9420818 Si02
#       7
#     8   8   8   8   8   8   4
#     4  10  19  29  46  73  97 123 158 192 240 285
#     4  10  19  31  46  67  97 127 156 194 236 285
#     4   9  17  30  46  67  97 127 156 193 230 276
#     4  10  21  36  52  69  91 125 166 199 231 278
#     4  10  19  31  49  72  97 124 156 197 237 279
#     4   9  17  30  49  72  97 124 153 188 236 287
#     4   8  16  30  46  62  86 124 162 190 224 274
#
# _framework density 21.429189999999998
#
# number of rings (size 3 to 8) (size 9 to 14) (size 15 to 20)
#    0.000    2.462    0.000    2.769    0.000    4.923 
#    0.000    0.000    0.000    1.846    0.000    2.154 
#    0.000    0.000    0.000    0.000    0.000    0.000 
#
# Total GULP energy -289991.840231 kJ/mol
# GULP energy per Si atom -5576.766158 kJ/mol
# Density = 2.138042 g / cm^3
# Si number density = 21.429190 Si / 1000 Ang^3
#
#
#
# Elastic Constant Matrix: (Units=GPa)
#
#
# Indices 1 2 3 4 5 6 
#
# 1 139.8464 6.9901 18.4279 0.0000 0.0000 0.0000
# 2 6.9901 30.6914 -7.4370 0.0000 0.0000 0.0000
# 3 18.4279 -7.4370 73.0975 0.0000 0.0000 0.0000
# 4 0.0000 0.0000 0.0000 -5.4599 0.0000 0.0000
# 5 0.0000 0.0000 0.0000 0.0000 32.9856 0.0000
# 6 0.0000 0.0000 0.0000 0.0000 0.0000 20.3668
#
#
#
# Elastic Compliance Matrix: (Units=1/GPa)
#
#
# Indices 1 2 3 4 5 6 
#
# 1 0.007543 -0.002234 -0.002129 0.000000 0.000000 0.000000
# 2 -0.002234 0.034067 0.004029 0.000000 0.000000 0.000000
# 3 -0.002129 0.004029 0.014627 0.000000 0.000000 0.000000
# 4 0.000000 0.000000 0.000000 -0.183155 0.000000 0.000000
# 5 0.000000 0.000000 0.000000 0.000000 0.030316 0.000000
# 6 0.000000 0.000000 0.000000 0.000000 0.000000 0.049099
#
#
# Mechanical properties :
#
#
# Convention : Reuss Voigt Hill
#
# Bulk Modulus (GPa) = 17.99517 31.06637 24.53077
# Shear Modulus (GPa) = -176.60815 24.62213 -75.99301
#
# Velocity S-wave (km/s) = -9.08811 3.39337 -5.96149
# Velocity P-wave (km/s) = 10.08510 5.46644 5.99280
#
# Compressibility (1/GPa) = 0.05557047
#
# Stress axis : x y z
#
# Youngs Moduli (GPa) = 132.57545 29.35353 68.36688
#
# Poissons Ratio (x) = 0.06557 0.14554
# Poissons Ratio (y) = 0.29614 -0.27546
# Poissons Ratio (z) = 0.28223 -0.11827
#
# Static dielectric constant tensor:
#      x y z
#    x 1.882060 0.000000 0.000000 
#    y 0.000000 1.866890 0.000000 
#    z 0.000000 0.000000 1.785070 
# 
# From -- ./inp_files/19824.got.cif
#   From: 2010.05.17/outbox.cif.g08.bks.cpg/sg54_10_cif.got.tgz:19824.got - 2010.06.03 13:09:01.
