data_PCOD9420955
_publ_section_title
;
Structure prediction by ZEFSAII (Michael W. Deem and Ramdas Pophale) SiO2 
 PCOD9420955
Probable space group: P C C A
;
_chemical_formula_sum "Si O2"
_cell_formula_units_Z 64
_cell_length_a 24.422842
_cell_length_b 15.382980
_cell_length_c 9.102968
_cell_angle_alpha 90.000000
_cell_angle_beta 90.000000
_cell_angle_gamma 90.000000
_cell_volume 3419.949485
_symmetry_space_group_name_H-M "P C C A"
_symmetry_group_IT_number 54
_symmetry_cell_setting 'orthorhombic'
loop_
_space_group_symop_operation_xyz
x,y,z
1/2-x,-y,z
1/2+x,-y,1/2-z
-x,y,1/2-z
-x,-y,-z
1/2+x,y,-z
1/2-x,y,1/2+z
x,-y,1/2+z
loop_
_atom_site_type_symbol
_atom_site_label
_atom_site_fract_x
_atom_site_fract_y
_atom_site_fract_z
Si Si1 0.500362 0.405546 0.426861
Si Si2 0.920919 0.276119 0.114241
Si Si3 0.493872 0.136478 0.530386
Si Si4 0.810963 0.176291 0.134813
Si Si5 0.641565 0.008681 0.062756
Si Si6 0.908861 0.712606 0.959991
Si Si7 0.196041 0.190879 0.014227
Si Si8 0.436381 0.025703 0.179719
O O1 0.500000 0.408903 0.250000
O O2 0.500000 0.500000 0.500000
O O3 0.548411 0.345667 0.506208
O O4 0.442190 0.362882 0.464960
O O5 0.861730 0.234860 0.075842
O O6 0.913828 0.304500 0.284267
O O7 0.961677 0.193967 0.115798
O O8 0.443368 0.200402 0.502124
O O9 0.469373 0.058173 0.624598
O O10 0.527451 0.103152 0.387754
O O11 0.824821 0.073904 0.118787
O O12 0.803676 0.188039 0.309066
O O13 0.755930 0.201762 0.051184
O O14 0.584925 0.021773 0.154556
O O15 0.673185 0.099064 0.048619
O O16 0.621313 0.978375 0.903618
O O17 0.848063 0.733090 0.015320
#
# Coordination Sequence:
#
# PCOD9420955 Si02
#       8
#     8   8   8   8   8   8   8   8
#     4  11  23  40  67 101 129 154 178 220 284 358
#     4  10  21  39  62  84 119 157 194 239 297 355
#     4  10  19  33  53  82 111 154 191 250 302 361
#     4  11  24  40  58  78 114 160 210 258 304 341
#     4  12  22  39  49  78 111 158 211 259 304 351
#     4  10  21  40  59  87 118 155 195 239 296 356
#     4  11  25  40  57  80 112 160 211 259 302 345
#     4  11  23  31  53  73 114 151 204 251 308 350
#
# _framework density 18.713726999999999
#
# number of rings (size 3 to 8) (size 9 to 14) (size 15 to 20)
#    0.000    1.250    3.750    3.375    3.500    5.500 
#    0.000    0.000    0.000    0.750    0.000    5.250 
#    0.000    0.000    0.000    0.000    0.000    0.000 
#
# Total GULP energy -357151.736737 kJ/mol
# GULP energy per Si atom -5580.495887 kJ/mol
# Density = 1.867113 g / cm^3
# Si number density = 18.713727 Si / 1000 Ang^3
#
#
#
# Elastic Constant Matrix: (Units=GPa)
#
#
# Indices 1 2 3 4 5 6 
#
# 1 155.4847 52.2031 48.4883 0.0000 0.0000 0.0000
# 2 52.2031 85.7908 57.0015 0.0000 0.0000 0.0000
# 3 48.4883 57.0015 92.4916 0.0000 0.0000 0.0000
# 4 0.0000 0.0000 0.0000 22.2430 0.0000 0.0000
# 5 0.0000 0.0000 0.0000 0.0000 40.6405 0.0000
# 6 0.0000 0.0000 0.0000 0.0000 0.0000 11.2357
#
#
#
# Elastic Compliance Matrix: (Units=1/GPa)
#
#
# Indices 1 2 3 4 5 6 
#
# 1 0.008317 -0.003664 -0.002102 0.000000 0.000000 0.000000
# 2 -0.003664 0.021353 -0.011239 0.000000 0.000000 0.000000
# 3 -0.002102 -0.011239 0.018840 0.000000 0.000000 0.000000
# 4 0.000000 0.000000 0.000000 0.044958 0.000000 0.000000
# 5 0.000000 0.000000 0.000000 0.000000 0.024606 0.000000
# 6 0.000000 0.000000 0.000000 0.000000 0.000000 0.089002
#
#
# Mechanical properties :
#
#
# Convention : Reuss Voigt Hill
#
# Bulk Modulus (GPa) = 68.96362 72.12812 70.54587
# Shear Modulus (GPa) = 20.33176 26.56211 23.44693
#
# Velocity S-wave (km/s) = 3.29973 3.77157 3.54351
# Velocity P-wave (km/s) = 7.17283 7.58900 7.38385
#
# Compressibility (1/GPa) = 0.01450040
#
# Stress axis : x y z
#
# Youngs Moduli (GPa) = 120.23108 46.83109 53.07844
#
# Poissons Ratio (x) = 0.17161 0.11157
# Poissons Ratio (y) = 0.44058 0.59654
# Poissons Ratio (z) = 0.25272 0.52632
#
# Static dielectric constant tensor:
#      x y z
#    x 1.673710 0.000000 0.000000 
#    y 0.000000 1.648840 0.000000 
#    z 0.000000 0.000000 1.700570 
# 
# From -- ./inp_files/5296.got.cif
#   From: 2010.05.17/outbox.cif.g08.bks.cpg/sg54_3_cif.got.tgz:5296.got - 2010.06.03 13:09:01.
