data_PCOD9420979
_publ_section_title
;
Structure prediction by ZEFSAII (Michael W. Deem and Ramdas Pophale) SiO2 
 PCOD9420979
Probable space group: P C C A
;
_chemical_formula_sum "Si O2"
_cell_formula_units_Z 36
_cell_length_a 4.981668
_cell_length_b 25.828313
_cell_length_c 11.936999
_cell_angle_alpha 90.000000
_cell_angle_beta 90.000000
_cell_angle_gamma 90.000000
_cell_volume 1535.910747
_symmetry_space_group_name_H-M "P C C A"
_symmetry_group_IT_number 54
_symmetry_cell_setting 'orthorhombic'
loop_
_space_group_symop_operation_xyz
x,y,z
1/2-x,-y,z
1/2+x,-y,1/2-z
-x,y,1/2-z
-x,-y,-z
1/2+x,y,-z
1/2-x,y,1/2+z
x,-y,1/2+z
loop_
_atom_site_type_symbol
_atom_site_label
_atom_site_fract_x
_atom_site_fract_y
_atom_site_fract_z
Si Si1 0.105146 0.835549 0.069305
Si Si2 0.740224 0.614444 0.922277
Si Si3 0.247065 0.053999 0.669701
Si Si4 0.500000 0.466631 0.250000
Si Si5 0.857837 0.724985 0.420814
O O1 0.185219 0.891292 0.114420
O O2 0.177878 0.781915 0.132828
O O3 0.289884 0.833485 0.957519
O O4 0.646063 0.569025 0.841781
O O5 0.699514 0.670507 0.862505
O O6 0.540537 0.612125 0.029779
O O7 0.500000 0.061594 0.750000
O O8 0.000000 0.043619 0.750000
O O9 0.250000 0.000000 0.599003
O O10 0.750000 0.500000 0.201943
O O11 0.653515 0.723420 0.526398
#
# Coordination Sequence:
#
# PCOD9420979 Si02
#       5
#     8   8   8   4   8
#     4  10  19  33  56  81 106 136 184 236 276 326
#     4  10  21  40  63  84 119 160 191 236 300 342
#     4  10  21  36  51  72 110 149 181 224 279 337
#     4  12  26  40  60  92 122 150 204 248 274 348
#     4   8  16  32  55  79 106 141 176 223 280 335
#
# _framework density 23.438859999999998
#
# number of rings (size 3 to 8) (size 9 to 14) (size 15 to 20)
#    0.000    2.222    0.000    2.667    0.000    3.556 
#    2.000    0.000    2.444    0.000    0.000    0.000 
#    0.000    0.000    0.000    0.000    0.000    0.000 
#
# Total GULP energy -200639.057058 kJ/mol
# GULP energy per Si atom -5573.307140 kJ/mol
# Density = 2.338551 g / cm^3
# Si number density = 23.438860 Si / 1000 Ang^3
#
#
#
# Elastic Constant Matrix: (Units=GPa)
#
#
# Indices 1 2 3 4 5 6 
#
# 1 90.0565 -5.0256 -2.7692 0.0000 0.0000 0.0000
# 2 -5.0256 184.5732 12.5725 0.0000 0.0000 0.0000
# 3 -2.7692 12.5725 6.7681 0.0000 0.0000 0.0000
# 4 0.0000 0.0000 0.0000 36.6740 0.0000 0.0000
# 5 0.0000 0.0000 0.0000 0.0000 19.8998 0.0000
# 6 0.0000 0.0000 0.0000 0.0000 0.0000 27.7282
#
#
#
# Elastic Compliance Matrix: (Units=1/GPa)
#
#
# Indices 1 2 3 4 5 6 
#
# 1 0.011246 -0.000008 0.004617 0.000000 0.000000 0.000000
# 2 -0.000008 0.006203 -0.011526 0.000000 0.000000 0.000000
# 3 0.004617 -0.011526 0.171051 0.000000 0.000000 0.000000
# 4 0.000000 0.000000 0.000000 0.027267 0.000000 0.000000
# 5 0.000000 0.000000 0.000000 0.000000 0.050252 0.000000
# 6 0.000000 0.000000 0.000000 0.000000 0.000000 0.036064
#
#
# Mechanical properties :
#
#
# Convention : Reuss Voigt Hill
#
# Bulk Modulus (GPa) = 5.72527 32.32812 19.02670
# Shear Modulus (GPa) = 13.36403 35.30174 24.33288
#
# Velocity S-wave (km/s) = 2.39040 3.88509 3.22552
# Velocity P-wave (km/s) = 3.17280 5.82646 4.69118
#
# Compressibility (1/GPa) = 0.17466432
#
# Stress axis : x y z
#
# Youngs Moduli (GPa) = 88.92331 161.21834 5.84622
#
# Poissons Ratio (x) = 0.00133 -0.02699
# Poissons Ratio (y) = 0.00074 0.06738
# Poissons Ratio (z) = -0.41052 1.85815
#
# Static dielectric constant tensor:
#      x y z
#    x 1.830360 0.000000 0.000000 
#    y 0.000000 2.069490 0.000000 
#    z 0.000000 0.000000 2.045790 
# 
# From -- ./inp_files/6350.got.cif
#   From: 2010.05.17/outbox.cif.g08.bks.cpg/sg54_4_cif.got.tgz:6350.got - 2010.06.03 13:09:01.
