data_PCOD9420940
_publ_section_title
;
Structure prediction by ZEFSAII (Michael W. Deem and Ramdas Pophale) SiO2 
 PCOD9420940
Probable space group: P C C A
;
_chemical_formula_sum "Si O2"
_cell_formula_units_Z 52
_cell_length_a 26.345532
_cell_length_b 10.451294
_cell_length_c 9.287909
_cell_angle_alpha 90.000000
_cell_angle_beta 90.000000
_cell_angle_gamma 90.000000
_cell_volume 2557.378380
_symmetry_space_group_name_H-M "P C C A"
_symmetry_group_IT_number 54
_symmetry_cell_setting 'orthorhombic'
loop_
_space_group_symop_operation_xyz
x,y,z
1/2-x,-y,z
1/2+x,-y,1/2-z
-x,y,1/2-z
-x,-y,-z
1/2+x,y,-z
1/2-x,y,1/2+z
x,-y,1/2+z
loop_
_atom_site_type_symbol
_atom_site_label
_atom_site_fract_x
_atom_site_fract_y
_atom_site_fract_z
Si Si1 0.250000 0.000000 0.038314
Si Si2 0.203700 0.843204 0.779355
Si Si3 0.398153 0.718229 0.383206
Si Si4 0.781398 0.614979 0.254832
Si Si5 0.975629 0.315194 0.890499
Si Si6 0.158056 0.531152 0.491923
Si Si7 0.942851 0.392556 0.373599
O O1 0.208215 0.055675 0.149192
O O2 0.272309 0.104285 0.928201
O O3 0.146659 0.805275 0.821599
O O4 0.241392 0.728687 0.726480
O O5 0.427706 0.751232 0.531041
O O6 0.371316 0.580901 0.408036
O O7 0.442426 0.690826 0.269321
O O8 0.750000 0.500000 0.185225
O O9 0.806204 0.549888 0.396758
O O10 0.821055 0.631997 0.125713
O O11 0.956407 0.458396 0.847961
O O12 0.000000 0.252306 0.750000
O O13 0.021044 0.340177 0.002585
O O14 0.115878 0.606267 0.580444
#
# Coordination Sequence:
#
# PCOD9420940 Si02
#       7
#     4   8   8   8   8   8   8
#     4  10  26  48  64  82 118 168 220 266 312 352
#     4  11  24  44  65  87 122 163 216 265 307 374
#     4  11  21  35  57  84 119 161 207 245 304 367
#     4  12  23  34  57  92 132 161 195 252 316 371
#     4  10  20  33  52  82 130 170 199 239 296 384
#     4  11  21  32  49  90 128 164 196 233 304 376
#     4  10  19  33  51  81 127 173 202 229 290 382
#
# _framework density 20.333324000000001
#
# number of rings (size 3 to 8) (size 9 to 14) (size 15 to 20)
#    0.000    1.231    3.077    4.615    6.462    0.000 
#    0.000    0.000    0.000    0.000    0.000    7.538 
#    0.000    0.000    0.000    0.000    0.000    0.000 
#
# Total GULP energy -289869.795917 kJ/mol
# GULP energy per Si atom -5574.419152 kJ/mol
# Density = 2.028704 g / cm^3
# Si number density = 20.333324 Si / 1000 Ang^3
#
#
#
# Elastic Constant Matrix: (Units=GPa)
#
#
# Indices 1 2 3 4 5 6 
#
# 1 98.1876 13.6993 47.0840 0.0000 0.0000 0.0000
# 2 13.6993 26.8247 14.7448 0.0000 0.0000 0.0000
# 3 47.0840 14.7448 108.9004 0.0000 0.0000 0.0000
# 4 0.0000 0.0000 0.0000 24.3444 0.0000 0.0000
# 5 0.0000 0.0000 0.0000 0.0000 27.0746 0.0000
# 6 0.0000 0.0000 0.0000 0.0000 0.0000 13.6462
#
#
#
# Elastic Compliance Matrix: (Units=1/GPa)
#
#
# Indices 1 2 3 4 5 6 
#
# 1 0.013215 -0.003898 -0.005186 0.000000 0.000000 0.000000
# 2 -0.003898 0.041427 -0.003924 0.000000 0.000000 0.000000
# 3 -0.005186 -0.003924 0.011956 0.000000 0.000000 0.000000
# 4 0.000000 0.000000 0.000000 0.041077 0.000000 0.000000
# 5 0.000000 0.000000 0.000000 0.000000 0.036935 0.000000
# 6 0.000000 0.000000 0.000000 0.000000 0.000000 0.073281
#
#
# Mechanical properties :
#
#
# Convention : Reuss Voigt Hill
#
# Bulk Modulus (GPa) = 24.64129 42.77435 33.70782
# Shear Modulus (GPa) = 19.42243 23.57200 21.49721
#
# Velocity S-wave (km/s) = 3.09399 3.40851 3.25505
# Velocity P-wave (km/s) = 4.99086 6.04755 5.54443
#
# Compressibility (1/GPa) = 0.04058228
#
# Stress axis : x y z
#
# Youngs Moduli (GPa) = 75.66983 24.13903 83.63924
#
# Poissons Ratio (x) = 0.09411 0.43375
# Poissons Ratio (y) = 0.29500 0.32816
# Poissons Ratio (z) = 0.39242 0.09471
#
# Static dielectric constant tensor:
#      x y z
#    x 1.986950 0.000000 0.000000 
#    y 0.000000 1.712700 0.000000 
#    z 0.000000 0.000000 1.851950 
# 
# From -- ./inp_files/5546.got.cif
#   From: 2010.05.17/outbox.cif.g08.bks.cpg/sg54_3_cif.got.tgz:5546.got - 2010.06.03 13:09:01.
