data_PCOD9420938
_publ_section_title
;
Structure prediction by ZEFSAII (Michael W. Deem and Ramdas Pophale) SiO2 
 PCOD9420938
Probable space group: P C C A
;
_chemical_formula_sum "Si O2"
_cell_formula_units_Z 40
_cell_length_a 16.279995
_cell_length_b 5.391320
_cell_length_c 19.393559
_cell_angle_alpha 90.000000
_cell_angle_beta 90.000000
_cell_angle_gamma 90.000000
_cell_volume 1702.185524
_symmetry_space_group_name_H-M "P C C A"
_symmetry_group_IT_number 54
_symmetry_cell_setting 'orthorhombic'
loop_
_space_group_symop_operation_xyz
x,y,z
1/2-x,-y,z
1/2+x,-y,1/2-z
-x,y,1/2-z
-x,-y,-z
1/2+x,y,-z
1/2-x,y,1/2+z
x,-y,1/2+z
loop_
_atom_site_type_symbol
_atom_site_label
_atom_site_fract_x
_atom_site_fract_y
_atom_site_fract_z
Si Si1 0.343572 0.416628 0.774329
Si Si2 0.695680 0.247025 0.027432
Si Si3 0.016915 0.202876 0.331142
Si Si4 0.048292 0.299933 0.865966
Si Si5 0.802503 0.248186 0.371880
O O1 0.250000 0.500000 0.784844
O O2 0.381521 0.221693 0.829071
O O3 0.403656 0.647789 0.792849
O O4 0.351547 0.301854 0.698286
O O5 0.750000 0.500000 0.033093
O O6 0.618569 0.272401 0.077785
O O7 0.750000 0.000000 0.041370
O O8 0.663565 0.217793 0.948714
O O9 0.996475 0.448850 0.373522
O O10 0.000000 0.217404 0.250000
O O11 0.993233 0.942054 0.361639
O O12 0.750000 0.500000 0.376796
O O13 0.750000 0.000000 0.357957
#
# Coordination Sequence:
#
# PCOD9420938 Si02
#       5
#     8   8   8   8   8
#     4   9  21  32  56  82 106 133 181 224 266 311
#     4  10  19  33  51  80 115 140 169 219 280 326
#     4  10  22  36  52  76 109 144 177 223 271 317
#     4  10  21  31  56  76 103 140 176 222 260 316
#     4   9  19  32  50  76 114 143 165 215 279 324
#
# _framework density 23.499199999999998
#
# number of rings (size 3 to 8) (size 9 to 14) (size 15 to 20)
#    1.200    1.200    0.000    2.400    8.400    0.000 
#    0.000    0.000    0.000    2.400    0.000    0.000 
#    0.000    0.000    0.000    0.000    0.000    0.000 
#
# Total GULP energy -222822.260789 kJ/mol
# GULP energy per Si atom -5570.556520 kJ/mol
# Density = 2.344572 g / cm^3
# Si number density = 23.499200 Si / 1000 Ang^3
#
#
#
# Elastic Constant Matrix: (Units=GPa)
#
#
# Indices 1 2 3 4 5 6 
#
# 1 49.4670 18.2255 15.1590 0.0000 0.0000 0.0000
# 2 18.2255 186.2078 31.2696 0.0000 0.0000 0.0000
# 3 15.1590 31.2696 92.2981 0.0000 0.0000 0.0000
# 4 0.0000 0.0000 0.0000 22.4714 0.0000 0.0000
# 5 0.0000 0.0000 0.0000 0.0000 41.6105 0.0000
# 6 0.0000 0.0000 0.0000 0.0000 0.0000 21.1141
#
#
#
# Elastic Compliance Matrix: (Units=1/GPa)
#
#
# Indices 1 2 3 4 5 6 
#
# 1 0.021738 -0.001620 -0.003021 0.000000 0.000000 0.000000
# 2 -0.001620 0.005815 -0.001704 0.000000 0.000000 0.000000
# 3 -0.003021 -0.001704 0.011908 0.000000 0.000000 0.000000
# 4 0.000000 0.000000 0.000000 0.044501 0.000000 0.000000
# 5 0.000000 0.000000 0.000000 0.000000 0.024032 0.000000
# 6 0.000000 0.000000 0.000000 0.000000 0.000000 0.047362
#
#
# Mechanical properties :
#
#
# Convention : Reuss Voigt Hill
#
# Bulk Modulus (GPa) = 37.35506 50.80902 44.08204
# Shear Modulus (GPa) = 28.25319 34.59380 31.42350
#
# Velocity S-wave (km/s) = 3.47119 3.84099 3.66076
# Velocity P-wave (km/s) = 5.65653 6.42958 6.05540
#
# Compressibility (1/GPa) = 0.02677013
#
# Stress axis : x y z
#
# Youngs Moduli (GPa) = 46.00165 171.96668 83.97741
#
# Poissons Ratio (x) = 0.27864 0.25372
# Poissons Ratio (y) = 0.07454 0.14309
# Poissons Ratio (z) = 0.13899 0.29303
#
# Static dielectric constant tensor:
#      x y z
#    x 1.996220 0.000000 0.000000 
#    y 0.000000 1.948390 0.000000 
#    z 0.000000 0.000000 1.860410 
# 
# From -- ./inp_files/21777.got.cif
#   From: 2010.05.17/outbox.cif.g08.bks.cpg/sg54_11_cif.got.tgz:21777.got - 2010.06.03 13:09:01.
