data_PCOD9420587
_publ_section_title
;
Structure prediction by ZEFSAII (Michael W. Deem and Ramdas Pophale) SiO2 
 PCOD9420587
Probable space group: P C C A
;
_chemical_formula_sum "Si O2"
_cell_formula_units_Z 64
_cell_length_a 9.383351
_cell_length_b 20.770869
_cell_length_c 14.078629
_cell_angle_alpha 90.000000
_cell_angle_beta 90.000000
_cell_angle_gamma 90.000000
_cell_volume 2743.929782
_symmetry_space_group_name_H-M "P C C A"
_symmetry_group_IT_number 54
_symmetry_cell_setting 'orthorhombic'
loop_
_space_group_symop_operation_xyz
x,y,z
1/2-x,-y,z
1/2+x,-y,1/2-z
-x,y,1/2-z
-x,-y,-z
1/2+x,y,-z
1/2-x,y,1/2+z
x,-y,1/2+z
loop_
_atom_site_type_symbol
_atom_site_label
_atom_site_fract_x
_atom_site_fract_y
_atom_site_fract_z
Si Si1 0.556183 0.062502 0.384596
Si Si2 0.703529 0.724533 0.681361
Si Si3 0.608359 0.705126 0.883706
Si Si4 0.227783 0.167229 0.070045
Si Si5 0.131177 0.377362 0.436588
Si Si6 0.370138 0.545075 0.035999
Si Si7 0.497822 0.077422 0.610903
Si Si8 0.726766 0.131733 0.154457
O O1 0.676960 0.115530 0.373108
O O2 0.532121 0.065230 0.499293
O O3 0.415358 0.090484 0.335474
O O4 0.581742 0.988149 0.361082
O O5 0.663360 0.689350 0.779047
O O6 0.554982 0.728358 0.623136
O O7 0.820229 0.683106 0.626509
O O8 0.738099 0.798858 0.703462
O O9 0.708931 0.762538 0.919577
O O10 0.612376 0.646980 0.955732
O O11 0.073959 0.147801 0.108721
O O12 0.229840 0.150220 0.958388
O O13 0.272053 0.423262 0.451468
O O14 0.973028 0.403957 0.409256
O O15 0.250000 0.500000 0.086520
O O16 0.500000 0.500000 0.000000
O O17 0.639870 0.085984 0.670674
#
# Coordination Sequence:
#
# PCOD9420587 Si02
#       8
#     8   8   8   8   8   8   8   8
#     4   9  16  29  47  74 104 153 200 250 319 397
#     4  11  23  38  61  93 129 171 211 258 318 381
#     4  11  23  38  61  93 129 169 212 258 318 380
#     4  10  18  31  53  77 114 153 199 262 321 376
#     4  11  20  40  70  96 133 172 209 254 304 367
#     4   9  20  38  68 104 132 169 210 246 298 356
#     4   9  18  27  47  76 106 143 205 262 316 384
#     4  10  18  31  53  77 114 152 198 258 321 376
#
# _framework density 23.324210999999998
#
# number of rings (size 3 to 8) (size 9 to 14) (size 15 to 20)
#    0.000    2.000    3.750    0.750    0.000    4.000 
#    0.000    2.500    0.000   15.750    0.000    0.000 
#    0.000    0.000    0.000    0.000    0.000    0.000 
#
# Total GULP energy -357111.187899 kJ/mol
# GULP energy per Si atom -5579.862311 kJ/mol
# Density = 2.327112 g / cm^3
# Si number density = 23.324211 Si / 1000 Ang^3
#
#
#
# Elastic Constant Matrix: (Units=GPa)
#
#
# Indices 1 2 3 4 5 6 
#
# 1 121.6403 37.9054 15.9591 0.0000 0.0000 0.0000
# 2 37.9054 92.9377 15.7162 0.0000 0.0000 0.0000
# 3 15.9591 15.7162 52.6144 0.0000 0.0000 0.0000
# 4 0.0000 0.0000 0.0000 9.0703 0.0000 0.0000
# 5 0.0000 0.0000 0.0000 0.0000 20.5503 0.0000
# 6 0.0000 0.0000 0.0000 0.0000 0.0000 48.9546
#
#
#
# Elastic Compliance Matrix: (Units=1/GPa)
#
#
# Indices 1 2 3 4 5 6 
#
# 1 0.009583 -0.003599 -0.001832 0.000000 0.000000 0.000000
# 2 -0.003599 0.012684 -0.002697 0.000000 0.000000 0.000000
# 3 -0.001832 -0.002697 0.020367 0.000000 0.000000 0.000000
# 4 0.000000 0.000000 0.000000 0.110250 0.000000 0.000000
# 5 0.000000 0.000000 0.000000 0.000000 0.048661 0.000000
# 6 0.000000 0.000000 0.000000 0.000000 0.000000 0.020427
#
#
# Mechanical properties :
#
#
# Convention : Reuss Voigt Hill
#
# Bulk Modulus (GPa) = 37.90909 45.15041 41.52975
# Shear Modulus (GPa) = 20.24128 28.88915 24.56522
#
# Velocity S-wave (km/s) = 2.94908 3.52318 3.24884
# Velocity P-wave (km/s) = 5.28058 5.99585 5.64954
#
# Compressibility (1/GPa) = 0.02637890
#
# Stress axis : x y z
#
# Youngs Moduli (GPa) = 104.35495 78.84114 49.09789
#
# Poissons Ratio (x) = 0.28372 0.08993
# Poissons Ratio (y) = 0.37553 0.13243
# Poissons Ratio (z) = 0.19115 0.21265
#
# Static dielectric constant tensor:
#      x y z
#    x 1.948620 0.000000 0.000000 
#    y 0.000000 1.906240 0.000000 
#    z 0.000000 0.000000 1.968010 
# 
# From -- ./inp_files/11934.got.cif
#   From: 2010.05.17/outbox.cif.g08.bks.cpg/sg54_6_cif.got.tgz:11934.got - 2010.06.03 13:09:01.
