data_PCOD9420756
_publ_section_title
;
Structure prediction by ZEFSAII (Michael W. Deem and Ramdas Pophale) SiO2 
 PCOD9420756
Probable space group: P C C A
;
_chemical_formula_sum "Si O2"
_cell_formula_units_Z 48
_cell_length_a 13.436494
_cell_length_b 5.377759
_cell_length_c 28.552598
_cell_angle_alpha 90.000000
_cell_angle_beta 90.000000
_cell_angle_gamma 90.000000
_cell_volume 2063.160095
_symmetry_space_group_name_H-M "P C C A"
_symmetry_group_IT_number 54
_symmetry_cell_setting 'orthorhombic'
loop_
_space_group_symop_operation_xyz
x,y,z
1/2-x,-y,z
1/2+x,-y,1/2-z
-x,y,1/2-z
-x,-y,-z
1/2+x,y,-z
1/2-x,y,1/2+z
x,-y,1/2+z
loop_
_atom_site_type_symbol
_atom_site_label
_atom_site_fract_x
_atom_site_fract_y
_atom_site_fract_z
Si Si1 0.084456 0.191015 0.659072
Si Si2 0.618888 0.366114 0.131095
Si Si3 0.897531 0.298102 0.280374
Si Si4 0.750000 0.000000 0.584936
Si Si5 0.250000 0.500000 0.785792
Si Si6 0.860478 0.364871 0.037038
Si Si7 0.813917 0.249747 0.940503
O O1 0.100000 0.445401 0.688989
O O2 0.140954 0.197158 0.609934
O O3 0.969022 0.184004 0.644306
O O4 0.106918 0.943534 0.687367
O O5 0.718524 0.223308 0.116718
O O6 0.654415 0.476285 0.180219
O O7 0.589749 0.513596 0.083209
O O8 0.796939 0.298605 0.249367
O O9 0.000000 0.288117 0.250000
O O10 0.658955 0.083158 0.553592
O O11 0.750000 0.500000 0.033518
O O12 0.890128 0.328866 0.982943
O O13 0.750000 0.500000 0.934583
O O14 0.750000 0.000000 0.953836
#
# Coordination Sequence:
#
# PCOD9420756 Si02
#       7
#     8   8   8   4   4   8   8
#     4  12  29  49  69 108 148 184 243 306 364 443
#     4  11  24  43  71 106 139 188 239 308 365 427
#     4  12  29  51  72 106 143 188 248 307 366 438
#     4  10  18  36  68 100 136 180 236 282 354 428
#     4  12  26  48  74 102 138 196 246 310 374 426
#     4   9  19  39  68 105 140 184 243 289 354 442
#     4  11  24  46  74 102 147 199 237 290 368 439
#
# _framework density 23.265283
#
# number of rings (size 3 to 8) (size 9 to 14) (size 15 to 20)
#    0.000    1.000    5.000    1.500    8.167    0.667 
#    0.000    0.833    0.000    0.000    0.000    0.000 
#    0.000    0.000    0.000    0.000    0.000    0.000 
#
# Total GULP energy -267307.005600 kJ/mol
# GULP energy per Si atom -5568.895950 kJ/mol
# Density = 2.321233 g / cm^3
# Si number density = 23.265283 Si / 1000 Ang^3
#
#
#
# Elastic Constant Matrix: (Units=GPa)
#
#
# Indices 1 2 3 4 5 6 
#
# 1 48.2743 18.2868 47.7129 0.0000 0.0000 0.0000
# 2 18.2868 124.3345 77.9844 0.0000 0.0000 0.0000
# 3 47.7129 77.9844 195.2837 0.0000 0.0000 0.0000
# 4 0.0000 0.0000 0.0000 26.2988 0.0000 0.0000
# 5 0.0000 0.0000 0.0000 0.0000 26.5423 0.0000
# 6 0.0000 0.0000 0.0000 0.0000 0.0000 15.4395
#
#
#
# Elastic Compliance Matrix: (Units=1/GPa)
#
#
# Indices 1 2 3 4 5 6 
#
# 1 0.027315 0.000225 -0.006763 0.000000 0.000000 0.000000
# 2 0.000225 0.010732 -0.004341 0.000000 0.000000 0.000000
# 3 -0.006763 -0.004341 0.008507 0.000000 0.000000 0.000000
# 4 0.000000 0.000000 0.000000 0.038025 0.000000 0.000000
# 5 0.000000 0.000000 0.000000 0.000000 0.037676 0.000000
# 6 0.000000 0.000000 0.000000 0.000000 0.000000 0.064769
#
#
# Mechanical properties :
#
#
# Convention : Reuss Voigt Hill
#
# Bulk Modulus (GPa) = 40.33111 72.87342 56.60226
# Shear Modulus (GPa) = 23.03652 28.58334 25.80993
#
# Velocity S-wave (km/s) = 3.15011 3.50892 3.33434
# Velocity P-wave (km/s) = 5.53207 6.91430 6.26144
#
# Compressibility (1/GPa) = 0.02479476
#
# Stress axis : x y z
#
# Youngs Moduli (GPa) = 36.61047 93.17620 117.55479
#
# Poissons Ratio (x) = -0.02094 0.79507
# Poissons Ratio (y) = -0.00823 0.51028
# Poissons Ratio (z) = 0.24761 0.40446
#
# Static dielectric constant tensor:
#      x y z
#    x 1.994410 0.000000 0.000000 
#    y 0.000000 1.964290 0.000000 
#    z 0.000000 0.000000 1.944290 
# 
# From -- ./inp_files/26492.got.cif
#   From: 2010.05.17/outbox.cif.g08.bks.cpg/sg54_14_cif.got.tgz:26492.got - 2010.06.03 13:09:01.
