data_PCOD9420957
_publ_section_title
;
Structure prediction by ZEFSAII (Michael W. Deem and Ramdas Pophale) SiO2 
 PCOD9420957
Probable space group: P C C A
;
_chemical_formula_sum "Si O2"
_cell_formula_units_Z 60
_cell_length_a 13.668479
_cell_length_b 9.450048
_cell_length_c 23.813240
_cell_angle_alpha 90.000000
_cell_angle_beta 90.000000
_cell_angle_gamma 90.000000
_cell_volume 3075.903408
_symmetry_space_group_name_H-M "P C C A"
_symmetry_group_IT_number 54
_symmetry_cell_setting 'orthorhombic'
loop_
_space_group_symop_operation_xyz
x,y,z
1/2-x,-y,z
1/2+x,-y,1/2-z
-x,y,1/2-z
-x,-y,-z
1/2+x,y,-z
1/2-x,y,1/2+z
x,-y,1/2+z
loop_
_atom_site_type_symbol
_atom_site_label
_atom_site_fract_x
_atom_site_fract_y
_atom_site_fract_z
Si Si1 0.709634 0.343515 0.934192
Si Si2 0.186208 0.139607 0.744606
Si Si3 0.500000 0.739386 0.250000
Si Si4 0.683004 0.366421 0.805812
Si Si5 0.536988 0.993816 0.333462
Si Si6 0.400983 0.826177 0.978882
Si Si7 0.170723 0.876343 0.364625
Si Si8 0.879023 0.900653 0.446593
O O1 0.750000 0.500000 0.948709
O O2 0.662584 0.361631 0.872174
O O3 0.796113 0.221378 0.938695
O O4 0.625814 0.289849 0.975560
O O5 0.248083 0.232819 0.703302
O O6 0.087871 0.089924 0.714390
O O7 0.183142 0.207997 0.806365
O O8 0.250000 0.000000 0.753832
O O9 0.405380 0.644325 0.238304
O O10 0.511614 0.845107 0.303524
O O11 0.750000 0.500000 0.794356
O O12 0.433680 0.050302 0.354261
O O13 0.606753 0.010679 0.388082
O O14 0.339090 0.795886 0.922762
O O15 0.515510 0.832479 0.962562
O O16 0.367940 0.978888 0.005138
O O17 0.250000 0.000000 0.370881
#
# Coordination Sequence:
#
# PCOD9420957 Si02
#       8
#     8   8   4   8   8   8   8   8
#     4  11  23  41  64  90 128 174 216 262 316 387
#     4  11  19  36  62  91 117 156 206 258 311 381
#     4  12  20  38  60  94 124 160 214 260 326 386
#     4  11  25  42  61  91 129 171 213 265 318 384
#     4  11  19  33  62  92 116 158 205 266 313 375
#     4  10  22  37  60  92 121 161 209 270 320 368
#     4  10  19  33  53  88 126 152 193 261 327 371
#     4  10  21  38  63  95 123 157 215 268 321 375
#
# _framework density 19.506464999999999
#
# number of rings (size 3 to 8) (size 9 to 14) (size 15 to 20)
#    0.000    1.333    4.000    2.800    0.000    0.533 
#    2.400    2.000    0.000    0.000    0.000    0.000 
#    0.000    0.000    0.000    0.000    0.000    0.000 
#
# Total GULP energy -334227.562571 kJ/mol
# GULP energy per Si atom -5570.459376 kJ/mol
# Density = 1.946207 g / cm^3
# Si number density = 19.506465 Si / 1000 Ang^3
#
#
#
# Elastic Constant Matrix: (Units=GPa)
#
#
# Indices 1 2 3 4 5 6 
#
# 1 101.9186 22.3518 36.1057 0.0000 0.0000 0.0000
# 2 22.3518 58.2865 30.2875 0.0000 0.0000 0.0000
# 3 36.1057 30.2875 100.1019 0.0000 0.0000 0.0000
# 4 0.0000 0.0000 0.0000 25.7150 0.0000 0.0000
# 5 0.0000 0.0000 0.0000 0.0000 30.0149 0.0000
# 6 0.0000 0.0000 0.0000 0.0000 0.0000 21.1295
#
#
#
# Elastic Compliance Matrix: (Units=1/GPa)
#
#
# Indices 1 2 3 4 5 6 
#
# 1 0.011596 -0.002698 -0.003366 0.000000 0.000000 0.000000
# 2 -0.002698 0.020985 -0.005376 0.000000 0.000000 0.000000
# 3 -0.003366 -0.005376 0.012831 0.000000 0.000000 0.000000
# 4 0.000000 0.000000 0.000000 0.038888 0.000000 0.000000
# 5 0.000000 0.000000 0.000000 0.000000 0.033317 0.000000
# 6 0.000000 0.000000 0.000000 0.000000 0.000000 0.047327
#
#
# Mechanical properties :
#
#
# Convention : Reuss Voigt Hill
#
# Bulk Modulus (GPa) = 44.38331 48.64412 46.51372
# Shear Modulus (GPa) = 25.59718 26.80935 26.20327
#
# Velocity S-wave (km/s) = 3.62642 3.71129 3.66910
# Velocity P-wave (km/s) = 6.35115 6.58456 6.46891
#
# Compressibility (1/GPa) = 0.02253099
#
# Stress axis : x y z
#
# Youngs Moduli (GPa) = 86.23729 47.65355 77.93800
#
# Poissons Ratio (x) = 0.12855 0.26236
# Poissons Ratio (y) = 0.23263 0.41902
# Poissons Ratio (z) = 0.29030 0.25620
#
# Static dielectric constant tensor:
#      x y z
#    x 1.709040 0.000000 0.000000 
#    y 0.000000 1.650830 0.000000 
#    z 0.000000 0.000000 1.751830 
# 
# From -- ./inp_files/24483.got.cif
#   From: 2010.05.17/outbox.cif.g08.bks.cpg/sg54_13_cif.got.tgz:24483.got - 2010.06.03 13:09:01.
