data_PCOD9420871
_publ_section_title
;
Structure prediction by ZEFSAII (Michael W. Deem and Ramdas Pophale) SiO2 
 PCOD9420871
Probable space group: P C C A
;
_chemical_formula_sum "Si O2"
_cell_formula_units_Z 36
_cell_length_a 5.045593
_cell_length_b 25.801414
_cell_length_c 11.722798
_cell_angle_alpha 90.000000
_cell_angle_beta 90.000000
_cell_angle_gamma 90.000000
_cell_volume 1526.114098
_symmetry_space_group_name_H-M "P C C A"
_symmetry_group_IT_number 54
_symmetry_cell_setting 'orthorhombic'
loop_
_space_group_symop_operation_xyz
x,y,z
1/2-x,-y,z
1/2+x,-y,1/2-z
-x,y,1/2-z
-x,-y,-z
1/2+x,y,-z
1/2-x,y,1/2+z
x,-y,1/2+z
loop_
_atom_site_type_symbol
_atom_site_label
_atom_site_fract_x
_atom_site_fract_y
_atom_site_fract_z
Si Si1 0.877835 0.776237 0.066761
Si Si2 0.248491 0.334769 0.831345
Si Si3 0.000000 0.967274 0.250000
Si Si4 0.750358 0.555199 0.664808
Si Si5 0.245132 0.886096 0.423183
O O1 0.796429 0.719740 0.108613
O O2 0.795597 0.828756 0.131103
O O3 0.691018 0.779774 0.954157
O O4 0.500000 0.330528 0.750000
O O5 0.260183 0.389448 0.899781
O O6 0.000000 0.340731 0.750000
O O7 0.851530 0.931096 0.158858
O O8 0.750000 0.000000 0.299482
O O9 0.750000 0.500000 0.599899
O O10 0.500000 0.553725 0.750000
O O11 0.000000 0.556235 0.750000
O O12 0.543680 0.889173 0.468871
#
# Coordination Sequence:
#
# PCOD9420871 Si02
#       5
#     8   8   4   8   8
#     4  10  21  38  56  79 113 150 182 224 287 340
#     4  10  19  31  52  82 104 138 188 234 278 326
#     4  12  26  42  66  98 120 156 204 240 290 346
#     4   8  14  25  42  67 101 134 173 225 276 325
#     4  10  23  43  63  89 124 160 195 240 294 345
#
# _framework density 23.589324000000001
#
# number of rings (size 3 to 8) (size 9 to 14) (size 15 to 20)
#    0.000    2.222    0.000    2.667    1.556    2.667 
#    2.000    0.000    0.000    1.333    0.000    0.000 
#    0.000    0.000    0.000    0.000    0.000    0.000 
#
# Total GULP energy -200746.826979 kJ/mol
# GULP energy per Si atom -5576.300749 kJ/mol
# Density = 2.353563 g / cm^3
# Si number density = 23.589324 Si / 1000 Ang^3
#
#
#
# Elastic Constant Matrix: (Units=GPa)
#
#
# Indices 1 2 3 4 5 6 
#
# 1 146.8175 12.4920 5.1771 0.0000 0.0000 0.0000
# 2 12.4920 200.1376 22.4056 0.0000 0.0000 0.0000
# 3 5.1771 22.4056 11.5410 0.0000 0.0000 0.0000
# 4 0.0000 0.0000 0.0000 23.2293 0.0000 0.0000
# 5 0.0000 0.0000 0.0000 0.0000 21.8687 0.0000
# 6 0.0000 0.0000 0.0000 0.0000 0.0000 35.3411
#
#
#
# Elastic Compliance Matrix: (Units=1/GPa)
#
#
# Indices 1 2 3 4 5 6 
#
# 1 0.006922 -0.000108 -0.002896 0.000000 0.000000 0.000000
# 2 -0.000108 0.006386 -0.012349 0.000000 0.000000 0.000000
# 3 -0.002896 -0.012349 0.111921 0.000000 0.000000 0.000000
# 4 0.000000 0.000000 0.000000 0.043049 0.000000 0.000000
# 5 0.000000 0.000000 0.000000 0.000000 0.045727 0.000000
# 6 0.000000 0.000000 0.000000 0.000000 0.000000 0.028296
#
#
# Mechanical properties :
#
#
# Convention : Reuss Voigt Hill
#
# Bulk Modulus (GPa) = 10.57935 48.73839 29.65887
# Shear Modulus (GPa) = 16.41958 37.31591 26.86774
#
# Velocity S-wave (km/s) = 2.64116 3.98162 3.37854
# Velocity P-wave (km/s) = 3.71423 6.46868 5.27443
#
# Compressibility (1/GPa) = 0.09452375
#
# Stress axis : x y z
#
# Youngs Moduli (GPa) = 144.45705 156.59824 8.93489
#
# Poissons Ratio (x) = 0.01689 0.02587
# Poissons Ratio (y) = 0.01558 0.11034
# Poissons Ratio (z) = 0.41833 1.93382
#
# Static dielectric constant tensor:
#      x y z
#    x 1.832960 0.000000 0.000000 
#    y 0.000000 2.073470 0.000000 
#    z 0.000000 0.000000 2.227080 
# 
# From -- ./inp_files/6352.got.cif
#   From: 2010.05.17/outbox.cif.g08.bks.cpg/sg54_4_cif.got.tgz:6352.got - 2010.06.03 13:09:01.
