data_PCOD9420305
_publ_section_title
;
Structure prediction by ZEFSAII (Michael W. Deem and Ramdas Pophale) SiO2 
 PCOD9420305
Probable space group: P C C A
;
_chemical_formula_sum "Si O2"
_cell_formula_units_Z 40
_cell_length_a 25.255084
_cell_length_b 16.497887
_cell_length_c 5.401937
_cell_angle_alpha 90.000000
_cell_angle_beta 90.000000
_cell_angle_gamma 90.000000
_cell_volume 2250.746881
_symmetry_space_group_name_H-M "P C C A"
_symmetry_group_IT_number 54
_symmetry_cell_setting 'orthorhombic'
loop_
_space_group_symop_operation_xyz
x,y,z
1/2-x,-y,z
1/2+x,-y,1/2-z
-x,y,1/2-z
-x,-y,-z
1/2+x,y,-z
1/2-x,y,1/2+z
x,-y,1/2+z
loop_
_atom_site_type_symbol
_atom_site_label
_atom_site_fract_x
_atom_site_fract_y
_atom_site_fract_z
Si Si1 0.898025 0.418400 0.684199
Si Si2 0.939654 0.598955 0.684845
Si Si3 0.311690 0.032834 0.159571
Si Si4 0.716240 0.393199 0.272022
Si Si5 0.782035 0.208633 0.718141
O O1 0.931308 0.501544 0.658508
O O2 0.903569 0.376169 0.418210
O O3 0.837848 0.442265 0.746148
O O4 0.921357 0.370084 0.917454
O O5 0.000000 0.616813 0.750000
O O6 0.313913 0.127497 0.223968
O O7 0.250000 0.000000 0.140520
O O8 0.335071 0.984993 0.391634
O O9 0.746395 0.405776 0.531861
O O10 0.696961 0.299225 0.259262
O O11 0.763245 0.203760 0.432922
#
# Coordination Sequence:
#
# PCOD9420305 Si02
#       5
#     8   8   8   8   8
#     4  10  18  32  48  67  87 110 140 178 215 261
#     4  10  19  33  53  71  84  98 133 183 239 277
#     4  10  14  20  34  52  70  89 136 187 210 220
#     4  10  21  32  42  57  89 125 157 170 194 247
#     4  10  16  25  36  51  73 108 141 181 196 232
#
# _framework density 17.771878000000001
#
# number of rings (size 3 to 8) (size 9 to 14) (size 15 to 20)
#    0.000    2.000    4.000    4.200    0.000    0.000 
#    0.000   12.000    0.000    0.000    0.000    0.000 
#    0.000    0.000    0.000    0.000    0.000   34.000 
#
# Total GULP energy -222706.888181 kJ/mol
# GULP energy per Si atom -5567.672205 kJ/mol
# Density = 1.773143 g / cm^3
# Si number density = 17.771878 Si / 1000 Ang^3
#
#
#
# Elastic Constant Matrix: (Units=GPa)
#
#
# Indices 1 2 3 4 5 6 
#
# 1 31.6151 -1.4455 -11.1166 0.0000 0.0000 0.0000
# 2 -1.4455 47.9305 -8.2189 0.0000 0.0000 0.0000
# 3 -11.1166 -8.2189 92.4957 0.0000 0.0000 0.0000
# 4 0.0000 0.0000 0.0000 3.3086 0.0000 0.0000
# 5 0.0000 0.0000 0.0000 0.0000 20.8574 0.0000
# 6 0.0000 0.0000 0.0000 0.0000 0.0000 1.1449
#
#
#
# Elastic Compliance Matrix: (Units=1/GPa)
#
#
# Indices 1 2 3 4 5 6 
#
# 1 0.033163 0.001710 0.004138 0.000000 0.000000 0.000000
# 2 0.001710 0.021274 0.002096 0.000000 0.000000 0.000000
# 3 0.004138 0.002096 0.011495 0.000000 0.000000 0.000000
# 4 0.000000 0.000000 0.000000 0.302239 0.000000 0.000000
# 5 0.000000 0.000000 0.000000 0.000000 0.047945 0.000000
# 6 0.000000 0.000000 0.000000 0.000000 0.000000 0.873412
#
#
# Mechanical properties :
#
#
# Convention : Reuss Voigt Hill
#
# Bulk Modulus (GPa) = 12.22208 14.49771 13.35990
# Shear Modulus (GPa) = 3.84345 17.91701 10.88023
#
# Velocity S-wave (km/s) = 1.47219 3.17861 2.47698
# Velocity P-wave (km/s) = 3.12761 4.65261 3.96413
#
# Compressibility (1/GPa) = 0.08181913
#
# Stress axis : x y z
#
# Youngs Moduli (GPa) = 30.15366 47.00467 86.99561
#
# Poissons Ratio (x) = -0.08036 -0.35996
# Poissons Ratio (y) = -0.05155 -0.18233
# Poissons Ratio (z) = -0.12477 -0.09852
#
# Static dielectric constant tensor:
#      x y z
#    x 1.584380 0.000000 0.000000 
#    y 0.000000 1.689140 0.000000 
#    z 0.000000 0.000000 1.731760 
# 
# From -- ./inp_files/985.got.cif
#   From: 2010.05.17/outbox.cif.g08.bks.cpg/sg54_1_cif.got.tgz:985.got - 2010.06.03 13:09:01.
