data_PCOD9420421
_publ_section_title
;
Structure prediction by ZEFSAII (Michael W. Deem and Ramdas Pophale) SiO2 
 PCOD9420421
Probable space group: P C C A
;
_chemical_formula_sum "Si O2"
_cell_formula_units_Z 40
_cell_length_a 13.777159
_cell_length_b 22.106044
_cell_length_c 5.495379
_cell_angle_alpha 90.000000
_cell_angle_beta 90.000000
_cell_angle_gamma 90.000000
_cell_volume 1673.664292
_symmetry_space_group_name_H-M "P C C A"
_symmetry_group_IT_number 54
_symmetry_cell_setting 'orthorhombic'
loop_
_space_group_symop_operation_xyz
x,y,z
1/2-x,-y,z
1/2+x,-y,1/2-z
-x,y,1/2-z
-x,-y,-z
1/2+x,y,-z
1/2-x,y,1/2+z
x,-y,1/2+z
loop_
_atom_site_type_symbol
_atom_site_label
_atom_site_fract_x
_atom_site_fract_y
_atom_site_fract_z
Si Si1 0.862016 0.475309 0.376681
Si Si2 0.638532 0.976313 0.865938
Si Si3 0.812153 0.662904 0.890457
Si Si4 0.894639 0.788224 0.982136
Si Si5 0.385001 0.163909 0.016701
O O1 0.750000 0.500000 0.365373
O O2 0.904106 0.494195 0.117454
O O3 0.859020 0.403334 0.402926
O O4 0.631217 0.905782 0.922947
O O5 0.750000 0.000000 0.845702
O O6 0.596329 0.988792 0.599234
O O7 0.741346 0.667455 0.127535
O O8 0.887608 0.717815 0.917148
O O9 0.847247 0.822905 0.754221
O O10 0.850582 0.798083 0.249572
O O11 0.002109 0.816200 0.999095
#
# Coordination Sequence:
#
# PCOD9420421 Si02
#       5
#     8   8   8   8   8
#     4  10  16  30  51  77 122 157 190 244 315 351
#     4  10  21  40  64  95 120 145 187 254 310 354
#     4  12  21  35  55  92 127 152 204 256 302 358
#     4  10  23  40  60  88 114 170 200 240 295 365
#     4  10  21  45  64  82 122 158 205 237 294 376
#
# _framework density 23.899653000000001
#
# number of rings (size 3 to 8) (size 9 to 14) (size 15 to 20)
#    0.000    1.600    4.000    2.400    0.000    0.000 
#   21.600   12.000    0.000    0.000    0.000   16.800 
#    0.000    0.000    0.000    0.000    0.000    0.000 
#
# Total GULP energy -223600.299127 kJ/mol
# GULP energy per Si atom -5590.007478 kJ/mol
# Density = 2.384526 g / cm^3
# Si number density = 23.899653 Si / 1000 Ang^3
#
#
#
# Elastic Constant Matrix: (Units=GPa)
#
#
# Indices 1 2 3 4 5 6 
#
# 1 108.5388 27.4402 24.6708 0.0000 0.0000 0.0000
# 2 27.4402 196.9664 24.5746 0.0000 0.0000 0.0000
# 3 24.6708 24.5746 239.2899 0.0000 0.0000 0.0000
# 4 0.0000 0.0000 0.0000 46.0825 0.0000 0.0000
# 5 0.0000 0.0000 0.0000 0.0000 5.3796 0.0000
# 6 0.0000 0.0000 0.0000 0.0000 0.0000 -37.9474
#
#
#
# Elastic Compliance Matrix: (Units=1/GPa)
#
#
# Indices 1 2 3 4 5 6 
#
# 1 0.009727 -0.001246 -0.000875 0.000000 0.000000 0.000000
# 2 -0.001246 0.005303 -0.000416 0.000000 0.000000 0.000000
# 3 -0.000875 -0.000416 0.004312 0.000000 0.000000 0.000000
# 4 0.000000 0.000000 0.000000 0.021700 0.000000 0.000000
# 5 0.000000 0.000000 0.000000 0.000000 0.185888 0.000000
# 6 0.000000 0.000000 0.000000 0.000000 0.000000 -0.026352
#
#
# Mechanical properties :
#
#
# Convention : Reuss Voigt Hill
#
# Bulk Modulus (GPa) = 70.08852 77.57403 73.83128
# Shear Modulus (GPa) = 23.76344 33.91023 28.83683
#
# Velocity S-wave (km/s) = 3.15667 3.77086 3.47735
# Velocity P-wave (km/s) = 6.53268 7.17550 6.86163
#
# Compressibility (1/GPa) = 0.01426767
#
# Stress axis : x y z
#
# Youngs Moduli (GPa) = 102.80490 188.59019 231.91273
#
# Poissons Ratio (x) = 0.23498 0.20290
# Poissons Ratio (y) = 0.12809 0.09650
# Poissons Ratio (z) = 0.08995 0.07847
#
# Static dielectric constant tensor:
#      x y z
#    x 1.852400 0.000000 0.000000 
#    y 0.000000 1.821240 0.000000 
#    z 0.000000 0.000000 2.051410 
# 
# From -- ./inp_files/930.got.cif
#   From: 2010.05.17/outbox.cif.g08.bks.cpg/sg54_1_cif.got.tgz:930.got - 2010.06.03 13:09:01.
