data_PCOD9420586
_publ_section_title
;
Structure prediction by ZEFSAII (Michael W. Deem and Ramdas Pophale) SiO2 
 PCOD9420586
Probable space group: P C C A
;
_chemical_formula_sum "Si O2"
_cell_formula_units_Z 52
_cell_length_a 10.451935
_cell_length_b 8.812540
_cell_length_c 30.683417
_cell_angle_alpha 90.000000
_cell_angle_beta 90.000000
_cell_angle_gamma 90.000000
_cell_volume 2826.191096
_symmetry_space_group_name_H-M "P C C A"
_symmetry_group_IT_number 54
_symmetry_cell_setting 'orthorhombic'
loop_
_space_group_symop_operation_xyz
x,y,z
1/2-x,-y,z
1/2+x,-y,1/2-z
-x,y,1/2-z
-x,-y,-z
1/2+x,y,-z
1/2-x,y,1/2+z
x,-y,1/2+z
loop_
_atom_site_type_symbol
_atom_site_label
_atom_site_fract_x
_atom_site_fract_y
_atom_site_fract_z
Si Si1 0.761815 0.180894 0.238951
Si Si2 0.375955 0.394684 0.509957
Si Si3 0.000000 0.629949 0.250000
Si Si4 0.631913 0.617764 0.584369
Si Si5 0.971300 0.667488 0.900304
Si Si6 0.624064 0.396303 0.807872
Si Si7 0.215112 0.825609 0.861279
O O1 0.624348 0.264572 0.244057
O O2 0.854045 0.262038 0.273382
O O3 0.810056 0.206426 0.189532
O O4 0.750000 0.000000 0.245913
O O5 0.250000 0.500000 0.515740
O O6 0.500000 0.500000 0.500000
O O7 0.365696 0.308164 0.463682
O O8 0.402369 0.300349 0.553789
O O9 0.016266 0.513831 0.209218
O O10 0.750000 0.500000 0.583400
O O11 0.512933 0.509402 0.594055
O O12 0.661941 0.733001 0.622393
O O13 0.893363 0.671056 0.855766
O O14 0.096140 0.769697 0.890618
O O15 0.750000 0.500000 0.807463
O O16 0.250000 0.000000 0.866064
#
# Coordination Sequence:
#
# PCOD9420586 Si02
#       7
#     8   8   4   8   8   8   8
#     4  10  22  36  52  75 105 141 180 220 272 332
#     4   9  17  31  54  83 108 135 175 223 272 323
#     4  10  20  34  52  74 102 134 174 224 268 308
#     4   8  16  31  52  75  99 130 172 216 256 305
#     4  10  18  31  53  76 103 136 171 220 271 318
#     4  10  20  33  51  76 101 131 173 219 264 316
#     4  10  20  33  50  74 102 138 180 216 260 321
#
# _framework density 18.399322000000002
#
# number of rings (size 3 to 8) (size 9 to 14) (size 15 to 20)
#    0.000    2.462    0.000    3.231    0.000    7.385 
#    0.000    0.769    0.000    0.923    0.000    0.000 
#    0.000    0.000    0.000    0.000    0.000    0.000 
#
# Total GULP energy -289620.889945 kJ/mol
# GULP energy per Si atom -5569.632499 kJ/mol
# Density = 1.835744 g / cm^3
# Si number density = 18.399322 Si / 1000 Ang^3
#
#
#
# Elastic Constant Matrix: (Units=GPa)
#
#
# Indices 1 2 3 4 5 6 
#
# 1 52.7548 19.5105 19.9175 0.0000 0.0000 0.0000
# 2 19.5105 73.0472 52.8826 0.0000 0.0000 0.0000
# 3 19.9175 52.8826 145.3064 0.0000 0.0000 0.0000
# 4 0.0000 0.0000 0.0000 13.2693 0.0000 0.0000
# 5 0.0000 0.0000 0.0000 0.0000 29.5151 0.0000
# 6 0.0000 0.0000 0.0000 0.0000 0.0000 16.8736
#
#
#
# Elastic Compliance Matrix: (Units=1/GPa)
#
#
# Indices 1 2 3 4 5 6 
#
# 1 0.021173 -0.004826 -0.001146 0.000000 0.000000 0.000000
# 2 -0.004826 0.019687 -0.006503 0.000000 0.000000 0.000000
# 3 -0.001146 -0.006503 0.009406 0.000000 0.000000 0.000000
# 4 0.000000 0.000000 0.000000 0.075362 0.000000 0.000000
# 5 0.000000 0.000000 0.000000 0.000000 0.033881 0.000000
# 6 0.000000 0.000000 0.000000 0.000000 0.000000 0.059264
#
#
# Mechanical properties :
#
#
# Convention : Reuss Voigt Hill
#
# Bulk Modulus (GPa) = 39.50093 50.63664 45.06879
# Shear Modulus (GPa) = 19.82860 23.85144 21.84002
#
# Velocity S-wave (km/s) = 3.28637 3.60435 3.44903
# Velocity P-wave (km/s) = 5.99296 6.70093 6.35681
#
# Compressibility (1/GPa) = 0.02531586
#
# Stress axis : x y z
#
# Youngs Moduli (GPa) = 47.23005 50.79562 106.31615
#
# Poissons Ratio (x) = 0.24511 0.12184
# Poissons Ratio (y) = 0.22791 0.69141
# Poissons Ratio (z) = 0.05413 0.33034
#
# Static dielectric constant tensor:
#      x y z
#    x 1.679240 0.000000 0.000000 
#    y 0.000000 1.615120 0.000000 
#    z 0.000000 0.000000 1.685450 
# 
# From -- ./inp_files/26259.got.cif
#   From: 2010.05.17/outbox.cif.g08.bks.cpg/sg54_14_cif.got.tgz:26259.got - 2010.06.03 13:09:01.
