data_PCOD9420576
_publ_section_title
;
Structure prediction by ZEFSAII (Michael W. Deem and Ramdas Pophale) SiO2 
 PCOD9420576
Probable space group: P C C A
;
_chemical_formula_sum "Si O2"
_cell_formula_units_Z 52
_cell_length_a 8.516745
_cell_length_b 11.604330
_cell_length_c 26.953013
_cell_angle_alpha 90.000000
_cell_angle_beta 90.000000
_cell_angle_gamma 90.000000
_cell_volume 2663.796449
_symmetry_space_group_name_H-M "P C C A"
_symmetry_group_IT_number 54
_symmetry_cell_setting 'orthorhombic'
loop_
_space_group_symop_operation_xyz
x,y,z
1/2-x,-y,z
1/2+x,-y,1/2-z
-x,y,1/2-z
-x,-y,-z
1/2+x,y,-z
1/2-x,y,1/2+z
x,-y,1/2+z
loop_
_atom_site_type_symbol
_atom_site_label
_atom_site_fract_x
_atom_site_fract_y
_atom_site_fract_z
Si Si1 0.683632 0.625879 0.844289
Si Si2 0.329331 0.764722 0.561496
Si Si3 0.728130 0.130888 0.716516
Si Si4 0.985523 0.341732 0.470054
Si Si5 0.750000 0.500000 0.534095
Si Si6 0.414546 0.831574 0.176020
Si Si7 0.750000 0.000000 0.898109
Si Si8 0.000000 0.703154 0.250000
O O1 0.750000 0.500000 0.855898
O O2 0.606921 0.686141 0.892837
O O3 0.826131 0.712668 0.833008
O O4 0.580008 0.629894 0.794105
O O5 0.419659 0.728993 0.511823
O O6 0.142100 0.735594 0.558167
O O7 0.339680 0.900414 0.571951
O O8 0.653665 0.124069 0.771528
O O9 0.598451 0.186703 0.681346
O O10 0.878863 0.210520 0.722752
O O11 0.750000 0.000000 0.699520
O O12 0.866118 0.427502 0.498688
O O13 0.122535 0.413134 0.441011
O O14 0.367842 0.928267 0.136693
#
# Coordination Sequence:
#
# PCOD9420576 Si02
#       8
#     8   8   8   8   4   8   4   4
#     4  10  23  39  61  83 120 160 195 234 297 350
#     4  10  22  37  64  84 116 156 193 241 304 347
#     4  10  18  30  61  82 111 150 198 244 293 328
#     4   9  18  35  58  89 110 152 190 244 294 343
#     4   8  16  30  60  82 116 134 186 248 280 332
#     4   9  19  35  55  84 111 150 197 241 288 343
#     4  10  20  38  56  80 122 150 194 240 292 364
#     4  10  22  38  56  90 120 158 196 238 292 354
#
# _framework density 19.521011000000001
#
# number of rings (size 3 to 8) (size 9 to 14) (size 15 to 20)
#    0.000    2.462    0.769    0.923   10.769    3.077 
#    0.000    6.154    1.692    0.000    0.000    0.000 
#    0.000    0.000    0.000    0.000    0.000    0.000 
#
# Total GULP energy -289608.725694 kJ/mol
# GULP energy per Si atom -5569.398571 kJ/mol
# Density = 1.947658 g / cm^3
# Si number density = 19.521011 Si / 1000 Ang^3
#
#
#
# Elastic Constant Matrix: (Units=GPa)
#
#
# Indices 1 2 3 4 5 6 
#
# 1 86.9013 16.0404 11.4552 0.0000 0.0000 0.0000
# 2 16.0404 98.3245 20.6385 0.0000 0.0000 0.0000
# 3 11.4552 20.6385 60.2936 0.0000 0.0000 0.0000
# 4 0.0000 0.0000 0.0000 12.8444 0.0000 0.0000
# 5 0.0000 0.0000 0.0000 0.0000 34.3805 0.0000
# 6 0.0000 0.0000 0.0000 0.0000 0.0000 2.2340
#
#
#
# Elastic Compliance Matrix: (Units=1/GPa)
#
#
# Indices 1 2 3 4 5 6 
#
# 1 0.012031 -0.001598 -0.001739 0.000000 0.000000 0.000000
# 2 -0.001598 0.011170 -0.003520 0.000000 0.000000 0.000000
# 3 -0.001739 -0.003520 0.018121 0.000000 0.000000 0.000000
# 4 0.000000 0.000000 0.000000 0.077855 0.000000 0.000000
# 5 0.000000 0.000000 0.000000 0.000000 0.029086 0.000000
# 6 0.000000 0.000000 0.000000 0.000000 0.000000 0.447624
#
#
# Mechanical properties :
#
#
# Convention : Reuss Voigt Hill
#
# Bulk Modulus (GPa) = 36.22022 37.97639 37.09831
# Shear Modulus (GPa) = 8.08011 23.05081 15.56546
#
# Velocity S-wave (km/s) = 2.03671 3.44003 2.82684
# Velocity P-wave (km/s) = 4.91179 5.93926 5.44979
#
# Compressibility (1/GPa) = 0.02760889
#
# Stress axis : x y z
#
# Youngs Moduli (GPa) = 83.11553 89.52634 55.18536
#
# Poissons Ratio (x) = 0.14304 0.09596
# Poissons Ratio (y) = 0.13280 0.19425
# Poissons Ratio (z) = 0.14453 0.31512
#
# Static dielectric constant tensor:
#      x y z
#    x 1.713160 0.000000 0.000000 
#    y 0.000000 1.762410 0.000000 
#    z 0.000000 0.000000 1.717890 
# 
# From -- ./inp_files/27890.got.cif
#   From: 2010.05.17/outbox.cif.g08.bks.cpg/sg54_14_cif.got.tgz:27890.got - 2010.06.03 13:09:01.
