data_PCOD9420177
_publ_section_title
;
Structure prediction by ZEFSAII (Michael W. Deem and Ramdas Pophale) SiO2 
 PCOD9420177
Probable space group: P M N A
;
_chemical_formula_sum "Si O2"
_cell_formula_units_Z 64
_cell_length_a 9.000000
_cell_length_b 15.000000
_cell_length_c 24.000000
_cell_angle_alpha 90.000000
_cell_angle_beta 90.000000
_cell_angle_gamma 90.000000
_cell_volume 3240.000000
_symmetry_space_group_name_H-M "P M N A"
_symmetry_group_IT_number 53
_symmetry_cell_setting 'orthorhombic'
loop_
_space_group_symop_operation_xyz
x,y,z
1/2-x,-y,1/2+z
x,-y,-z
1/2-x,y,1/2-z
-x,-y,-z
1/2+x,y,1/2-z
-x,y,z
1/2+x,-y,1/2+z
loop_
_atom_site_type_symbol
_atom_site_label
_atom_site_fract_x
_atom_site_fract_y
_atom_site_fract_z
Si Si1 0.823923 0.716176 0.608526
Si Si2 0.819905 0.430136 0.305063
Si Si3 0.162963 0.440325 0.946780
Si Si4 0.328000 0.849288 0.690532
Si Si5 0.828972 0.056430 0.809426
Si Si6 0.327713 0.610819 0.154035
Si Si7 0.177593 0.198378 0.614762
Si Si8 0.164274 0.757366 0.006063
O O1 0.777202 0.625221 0.639945
O O2 0.772890 0.793085 0.649832
O O3 0.744684 0.739114 0.551416
O O4 0.000000 0.713019 0.600679
O O5 0.750000 0.387466 0.250000
O O6 0.763010 0.532226 0.308397
O O7 0.000000 0.429163 0.301592
O O8 0.301196 0.435354 0.905745
O O9 0.000000 0.465686 0.921844
O O10 0.190017 0.500000 0.000000
O O11 0.148050 0.340286 0.967918
O O12 0.250000 0.843790 0.750000
O O13 0.500000 0.818411 0.691928
O O14 0.328705 0.953006 0.674090
O O15 0.750000 0.064087 0.750000
O O16 0.737820 0.115510 0.851787
O O17 0.000000 0.086593 0.805888
O O18 0.500000 0.619691 0.168108
O O19 0.267038 0.710627 0.146432
O O20 0.239717 0.192888 0.552335
O O21 0.000000 0.203143 0.613401
O O22 0.000000 0.796981 0.998459
#
# Coordination Sequence:
#
# PCOD9420177 Si02
#       8
#     8   8   8   8   8   8   8   8
#     4  11  22  36  56  81 110 146 187 230 277 328
#     4  10  22  37  52  75 108 145 185 228 275 327
#     4   9  17  29  47  72  99 131 174 220 263 308
#     4  10  21  38  60  85 112 142 179 226 278 332
#     4  10  21  38  61  87 113 142 178 222 274 331
#     4   9  19  34  50  72 103 139 177 215 260 313
#     4  10  20  36  58  83 114 149 185 228 275 324
#     4  10  20  34  53  78 110 146 185 228 274 328
#
# _framework density 19.753086
#
# number of rings (size 3 to 8) (size 9 to 14) (size 15 to 20)
#    0.000    2.125    0.000    3.000    0.000    5.750 
#    0.000    1.875    0.000    3.750    0.000    0.000 
#    0.000    0.000    0.000    0.000    0.000    0.000 
#
# Total GULP energy -356409.757474 kJ/mol
# GULP energy per Si atom -5568.902461 kJ/mol
# Density = 1.970813 g / cm^3
# Si number density = 19.753086 Si / 1000 Ang^3
#
#
#
# Elastic Constant Matrix: (Units=GPa)
#
#
# Indices 1 2 3 4 5 6 
#
# 1 29.8394 33.7229 5.6139 0.0000 0.0000 0.0000
# 2 33.7229 22.3392 65.3485 0.0000 0.0000 0.0000
# 3 5.6139 65.3485 55.1156 0.0000 0.0000 0.0000
# 4 0.0000 0.0000 0.0000 -189.7102 0.0000 0.0000
# 5 0.0000 0.0000 0.0000 0.0000 18.5064 0.0000
# 6 0.0000 0.0000 0.0000 0.0000 0.0000 21.7526
#
#
#
# Elastic Compliance Matrix: (Units=1/GPa)
#
#
# Indices 1 2 3 4 5 6 
#
# 1 0.023500 0.011535 -0.016070 0.000000 0.000000 0.000000
# 2 0.011535 -0.012473 0.013614 0.000000 0.000000 0.000000
# 3 -0.016070 0.013614 0.003639 0.000000 0.000000 0.000000
# 4 0.000000 0.000000 0.000000 -0.005271 0.000000 0.000000
# 5 0.000000 0.000000 0.000000 0.000000 0.054035 0.000000
# 6 0.000000 0.000000 0.000000 0.000000 0.000000 0.045972
#
#
# Mechanical properties :
#
#
# Convention : Reuss Voigt Hill
#
# Bulk Modulus (GPa) = 30.46625 35.18501 32.82563
# Shear Modulus (GPa) = 48.93045 -29.71632 9.60707
#
# Velocity S-wave (km/s) = 4.98245 -3.88285 2.20774
# Velocity P-wave (km/s) = 6.96827 1.50033 4.81175
#
# Compressibility (1/GPa) = 0.03282320
#
# Stress axis : x y z
#
# Youngs Moduli (GPa) = 42.55336 -80.17337 274.78809
#
# Poissons Ratio (x) = 0.92480 4.41592
# Poissons Ratio (y) = -0.49085 -3.74091
# Poissons Ratio (z) = 0.68384 1.09146
#
# Static dielectric constant tensor:
#      x y z
#    x 1.714340 0.000000 0.000000 
#    y 0.000000 1.756770 0.000000 
#    z 0.000000 0.000000 1.995850 
# 
# From -- ./inp_files/34133.got.cif
#   From: 2010.05.17/outbox.ucp.g08.bks.cvg/sg53_18_cif.got.tgz:34133.got - 2010.06.11 16:32:34.
