data_PCOD9420800
_publ_section_title
;
Structure prediction by ZEFSAII (Michael W. Deem and Ramdas Pophale) SiO2 
 PCOD9420800
Probable space group: P C C A
;
_chemical_formula_sum "Si O2"
_cell_formula_units_Z 56
_cell_length_a 22.151759
_cell_length_b 7.980747
_cell_length_c 13.642810
_cell_angle_alpha 90.000000
_cell_angle_beta 90.000000
_cell_angle_gamma 90.000000
_cell_volume 2411.879421
_symmetry_space_group_name_H-M "P C C A"
_symmetry_group_IT_number 54
_symmetry_cell_setting 'orthorhombic'
loop_
_space_group_symop_operation_xyz
x,y,z
1/2-x,-y,z
1/2+x,-y,1/2-z
-x,y,1/2-z
-x,-y,-z
1/2+x,y,-z
1/2-x,y,1/2+z
x,-y,1/2+z
loop_
_atom_site_type_symbol
_atom_site_label
_atom_site_fract_x
_atom_site_fract_y
_atom_site_fract_z
Si Si1 0.298421 0.353320 0.680879
Si Si2 0.016295 0.191104 0.533348
Si Si3 0.250000 0.000000 0.407408
Si Si4 0.394215 0.692366 0.014830
Si Si5 0.500000 0.649067 0.750000
Si Si6 0.810295 0.153164 0.774035
Si Si7 0.142294 0.926008 0.025488
Si Si8 0.875290 0.475109 0.688214
O O1 0.250000 0.500000 0.661087
O O2 0.353007 0.357529 0.605396
O O3 0.256158 0.191712 0.682769
O O4 0.331737 0.371632 0.785628
O O5 0.087119 0.201426 0.506630
O O6 0.967057 0.305634 0.477357
O O7 0.008175 0.237717 0.649980
O O8 0.000000 0.000000 0.500000
O O9 0.297528 0.077548 0.331567
O O10 0.206969 0.112291 0.476493
O O11 0.376483 0.577923 0.923738
O O12 0.376928 0.886617 0.994462
O O13 0.557038 0.530509 0.728559
O O14 0.849522 0.066267 0.857003
O O15 0.843896 0.325606 0.749404
#
# Coordination Sequence:
#
# PCOD9420800 Si02
#       8
#     8   8   4   8   4   8   8   8
#     4  10  23  40  60  86 125 167 215 259 303 372
#     4   9  20  35  63  90 121 156 200 259 320 381
#     4  12  22  34  58  90 132 158 202 258 320 380
#     4  10  20  41  63  91 121 163 215 255 315 383
#     4  10  18  40  64  84 120 160 206 246 314 382
#     4  11  22  38  58  90 125 163 204 255 321 376
#     4  11  21  38  62  95 126 158 202 267 330 376
#     4  10  21  40  62  85 118 167 206 250 307 372
#
# _framework density 23.218409000000001
#
# number of rings (size 3 to 8) (size 9 to 14) (size 15 to 20)
#    0.000    1.714    2.857    2.143    0.000    1.714 
#    2.571    4.286    0.000    0.857    0.000    0.000 
#    0.000    0.000    0.000    0.000    0.000    0.000 
#
# Total GULP energy -312362.012752 kJ/mol
# GULP energy per Si atom -5577.893085 kJ/mol
# Density = 2.316556 g / cm^3
# Si number density = 23.218409 Si / 1000 Ang^3
#
#
#
# Elastic Constant Matrix: (Units=GPa)
#
#
# Indices 1 2 3 4 5 6 
#
# 1 144.3366 24.1245 61.5664 0.0000 0.0000 0.0000
# 2 24.1245 36.1751 17.2448 0.0000 0.0000 0.0000
# 3 61.5664 17.2448 90.3298 0.0000 0.0000 0.0000
# 4 0.0000 0.0000 0.0000 21.6442 0.0000 0.0000
# 5 0.0000 0.0000 0.0000 0.0000 37.3284 0.0000
# 6 0.0000 0.0000 0.0000 0.0000 0.0000 16.2678
#
#
#
# Elastic Compliance Matrix: (Units=1/GPa)
#
#
# Indices 1 2 3 4 5 6 
#
# 1 0.010233 -0.003850 -0.006240 0.000000 0.000000 0.000000
# 2 -0.003850 0.031859 -0.003458 0.000000 0.000000 0.000000
# 3 -0.006240 -0.003458 0.015984 0.000000 0.000000 0.000000
# 4 0.000000 0.000000 0.000000 0.046202 0.000000 0.000000
# 5 0.000000 0.000000 0.000000 0.000000 0.026789 0.000000
# 6 0.000000 0.000000 0.000000 0.000000 0.000000 0.061471
#
#
# Mechanical properties :
#
#
# Convention : Reuss Voigt Hill
#
# Bulk Modulus (GPa) = 32.27850 52.96811 42.62330
# Shear Modulus (GPa) = 21.74283 26.24180 23.99231
#
# Velocity S-wave (km/s) = 3.06346 3.36551 3.21803
# Velocity P-wave (km/s) = 5.14251 6.16155 5.67495
#
# Compressibility (1/GPa) = 0.03098038
#
# Stress axis : x y z
#
# Youngs Moduli (GPa) = 97.72053 31.38805 62.56410
#
# Poissons Ratio (x) = 0.12084 0.39038
# Poissons Ratio (y) = 0.37621 0.21636
# Poissons Ratio (z) = 0.60975 0.10855
#
# Static dielectric constant tensor:
#      x y z
#    x 1.925840 0.000000 0.000000 
#    y 0.000000 1.977370 0.000000 
#    z 0.000000 0.000000 1.857940 
# 
# From -- ./inp_files/14707.got.cif
#   From: 2010.05.17/outbox.cif.g08.bks.cpg/sg54_8_cif.got.tgz:14707.got - 2010.06.03 13:09:01.
