data_PCOD9420226
_publ_section_title
;
Structure prediction by ZEFSAII (Michael W. Deem and Ramdas Pophale) SiO2 
 PCOD9420226
Probable space group: P M N A
;
_chemical_formula_sum "Si O2"
_cell_formula_units_Z 64
_cell_length_a 24.000000
_cell_length_b 15.000000
_cell_length_c 9.000000
_cell_angle_alpha 90.000000
_cell_angle_beta 90.000000
_cell_angle_gamma 90.000000
_cell_volume 3240.000000
_symmetry_space_group_name_H-M "P M N A"
_symmetry_group_IT_number 53
_symmetry_cell_setting 'orthorhombic'
loop_
_space_group_symop_operation_xyz
x,y,z
1/2-x,-y,1/2+z
x,-y,-z
1/2-x,y,1/2-z
-x,-y,-z
1/2+x,y,1/2-z
-x,y,z
1/2+x,-y,1/2+z
loop_
_atom_site_type_symbol
_atom_site_label
_atom_site_fract_x
_atom_site_fract_y
_atom_site_fract_z
Si Si1 0.636457 0.280505 0.608369
Si Si2 0.302348 0.046059 0.340509
Si Si3 0.858832 0.753226 0.446432
Si Si4 0.262540 0.750217 0.588877
Si Si5 0.096715 0.075333 0.381355
Si Si6 0.438854 0.791711 0.636246
Si Si7 0.933837 0.372184 0.363550
Si Si8 0.436062 0.543508 0.335831
O O1 0.645264 0.239680 0.770006
O O2 0.692772 0.297757 0.515859
O O3 0.602961 0.213195 0.500594
O O4 0.602586 0.370676 0.643858
O O5 0.250000 0.006236 0.250000
O O6 0.286367 0.149771 0.376843
O O7 0.351519 0.041190 0.218872
O O8 0.312713 0.000000 0.500000
O O9 0.796658 0.752022 0.509696
O O10 0.886531 0.841073 0.515991
O O11 0.894745 0.667427 0.505672
O O12 0.250000 0.708235 0.750000
O O13 0.062463 0.124487 0.248691
O O14 0.076766 0.000000 0.500000
O O15 0.500000 0.783312 0.571614
O O16 0.427688 0.703271 0.735046
O O17 0.920137 0.467695 0.287023
O O18 0.000000 0.373944 0.404922
O O19 0.436648 0.500000 0.500000
O O20 0.500000 0.570135 0.301016
#
# Coordination Sequence:
#
# PCOD9420226 Si02
#       8
#     8   8   8   8   8   8   8   8
#     4  12  23  37  63  93 126 166 212 264 315 385
#     4  11  22  37  63  92 119 154 207 267 314 367
#     4  11  24  40  62  92 132 169 209 258 322 390
#     4  11  22  42  62  86 123 174 208 252 319 383
#     4  11  23  40  61  92 126 163 209 265 325 377
#     4  10  20  39  63  89 122 168 214 256 313 383
#     4   9  19  39  67  94 126 164 205 261 321 374
#     4  10  20  37  68 101 125 157 210 270 316 363
#
# _framework density 19.753086
#
# number of rings (size 3 to 8) (size 9 to 14) (size 15 to 20)
#    0.000    1.375    5.000    1.875    1.750    1.750 
#    0.000    1.250    5.500    2.625    0.000    0.000 
#    0.000    0.000    0.000    0.000    0.000    0.000 
#
# Total GULP energy -356998.547102 kJ/mol
# GULP energy per Si atom -5578.102298 kJ/mol
# Density = 1.970813 g / cm^3
# Si number density = 19.753086 Si / 1000 Ang^3
#
#
#
# Elastic Constant Matrix: (Units=GPa)
#
#
# Indices 1 2 3 4 5 6 
#
# 1 59.0512 17.3743 46.0047 0.0000 0.0000 0.0000
# 2 17.3743 75.1510 29.3785 0.0000 0.0000 0.0000
# 3 46.0047 29.3785 148.0224 0.0000 0.0000 0.0000
# 4 0.0000 0.0000 0.0000 24.9793 0.0000 0.0000
# 5 0.0000 0.0000 0.0000 0.0000 1327.9211 0.0000
# 6 0.0000 0.0000 0.0000 0.0000 0.0000 20.9942
#
#
#
# Elastic Compliance Matrix: (Units=1/GPa)
#
#
# Indices 1 2 3 4 5 6 
#
# 1 0.022845 -0.002717 -0.006561 0.000000 0.000000 0.000000
# 2 -0.002717 0.014749 -0.002083 0.000000 0.000000 0.000000
# 3 -0.006561 -0.002083 0.009208 0.000000 0.000000 0.000000
# 4 0.000000 0.000000 0.000000 0.040033 0.000000 0.000000
# 5 0.000000 0.000000 0.000000 0.000000 0.000753 0.000000
# 6 0.000000 0.000000 0.000000 0.000000 0.000000 0.047632
#
#
# Mechanical properties :
#
#
# Convention : Reuss Voigt Hill
#
# Bulk Modulus (GPa) = 41.52640 51.97107 46.74874
# Shear Modulus (GPa) = 30.12607 287.41007 158.76807
#
# Velocity S-wave (km/s) = 3.90953 12.07548 8.97501
# Velocity P-wave (km/s) = 6.43798 14.85902 11.45072
#
# Compressibility (1/GPa) = 0.02408107
#
# Stress axis : x y z
#
# Youngs Moduli (GPa) = 43.77282 67.80170 108.59820
#
# Poissons Ratio (x) = 0.18420 0.71251
# Poissons Ratio (y) = 0.11892 0.22620
# Poissons Ratio (z) = 0.28719 0.14122
#
# Static dielectric constant tensor:
#      x y z
#    x 1.736210 0.000000 0.000000 
#    y 0.000000 1.700870 0.000000 
#    z 0.000000 0.000000 1.701410 
# 
# From -- ./inp_files/11929.got.cif
#   From: 2010.05.17/outbox.ucp.g08.bks.cvg/sg53_6_cif.got.tgz:11929.got - 2010.06.11 16:32:34.
