data_PCOD9420313
_publ_section_title
;
Structure prediction by ZEFSAII (Michael W. Deem and Ramdas Pophale) SiO2 
 PCOD9420313
Probable space group: P C C A
;
_chemical_formula_sum "Si O2"
_cell_formula_units_Z 48
_cell_length_a 13.667640
_cell_length_b 27.740690
_cell_length_c 5.433826
_cell_angle_alpha 90.000000
_cell_angle_beta 90.000000
_cell_angle_gamma 90.000000
_cell_volume 2060.233847
_symmetry_space_group_name_H-M "P C C A"
_symmetry_group_IT_number 54
_symmetry_cell_setting 'orthorhombic'
loop_
_space_group_symop_operation_xyz
x,y,z
1/2-x,-y,z
1/2+x,-y,1/2-z
-x,y,1/2-z
-x,-y,-z
1/2+x,y,-z
1/2-x,y,1/2+z
x,-y,1/2+z
loop_
_atom_site_type_symbol
_atom_site_label
_atom_site_fract_x
_atom_site_fract_y
_atom_site_fract_z
Si Si1 0.135965 0.519283 0.125204
Si Si2 0.311979 0.625459 0.527197
Si Si3 0.138100 0.019114 0.140847
Si Si4 0.615774 0.130514 0.985021
Si Si5 0.394315 0.830650 0.515933
Si Si6 0.185439 0.730093 0.111049
O O1 0.250000 0.500000 0.145348
O O2 0.095068 0.509902 0.394732
O O3 0.132065 0.575616 0.062797
O O4 0.268265 0.624546 0.250213
O O5 0.361743 0.677190 0.573984
O O6 0.131522 0.075057 0.077657
O O7 0.250000 0.000000 0.164856
O O8 0.095365 0.010154 0.410483
O O9 0.650525 0.161878 0.753340
O O10 0.653959 0.140871 0.257959
O O11 0.502135 0.146552 0.000760
O O12 0.388016 0.774593 0.582130
O O13 0.237622 0.733252 0.379789
#
# Coordination Sequence:
#
# PCOD9420313 Si02
#       6
#     8   8   8   8   8   8
#     4  10  14  20  34  55  81 126 176 207 247 314
#     4  10  16  25  39  59  93 131 174 210 263 315
#     4  10  21  40  59  89 118 139 165 208 265 326
#     4  10  21  40  65  82 108 140 180 219 260 315
#     4  10  21  40  57  84 105 142 184 224 261 313
#     4  10  21  35  50  77 109 144 180 225 275 320
#
# _framework density 23.298324999999998
#
# number of rings (size 3 to 8) (size 9 to 14) (size 15 to 20)
#    0.000    2.000    3.333    2.000    0.000    0.000 
#   18.000   10.000    0.000    0.000    0.000    0.000 
#    0.000    0.000    0.000   18.000    0.000    0.000 
#
# Total GULP energy -267946.605004 kJ/mol
# GULP energy per Si atom -5582.220938 kJ/mol
# Density = 2.324530 g / cm^3
# Si number density = 23.298325 Si / 1000 Ang^3
#
#
#
# Elastic Constant Matrix: (Units=GPa)
#
#
# Indices 1 2 3 4 5 6 
#
# 1 82.6280 10.1493 2.1998 0.0000 0.0000 0.0000
# 2 10.1493 169.2086 -20.6222 0.0000 0.0000 0.0000
# 3 2.1998 -20.6222 161.4914 0.0000 0.0000 0.0000
# 4 0.0000 0.0000 0.0000 41.3815 0.0000 0.0000
# 5 0.0000 0.0000 0.0000 0.0000 4.5300 0.0000
# 6 0.0000 0.0000 0.0000 0.0000 0.0000 5.0724
#
#
#
# Elastic Compliance Matrix: (Units=1/GPa)
#
#
# Indices 1 2 3 4 5 6 
#
# 1 0.012203 -0.000764 -0.000264 0.000000 0.000000 0.000000
# 2 -0.000764 0.006051 0.000783 0.000000 0.000000 0.000000
# 3 -0.000264 0.000783 0.006296 0.000000 0.000000 0.000000
# 4 0.000000 0.000000 0.000000 0.024165 0.000000 0.000000
# 5 0.000000 0.000000 0.000000 0.000000 0.220749 0.000000
# 6 0.000000 0.000000 0.000000 0.000000 0.000000 0.197146
#
#
# Mechanical properties :
#
#
# Convention : Reuss Voigt Hill
#
# Bulk Modulus (GPa) = 41.56150 44.08689 42.82420
# Shear Modulus (GPa) = 10.52363 38.30351 24.41357
#
# Velocity S-wave (km/s) = 2.12761 4.05908 3.24059
# Velocity P-wave (km/s) = 4.89011 6.39782 5.69409
#
# Compressibility (1/GPa) = 0.02406073
#
# Stress axis : x y z
#
# Youngs Moduli (GPa) = 81.94494 165.25809 158.83408
#
# Poissons Ratio (x) = 0.12628 0.04190
# Poissons Ratio (y) = 0.06262 -0.12439
# Poissons Ratio (z) = 0.02162 -0.12942
#
# Static dielectric constant tensor:
#      x y z
#    x 1.834980 0.000000 0.000000 
#    y 0.000000 1.843870 0.000000 
#    z 0.000000 0.000000 1.961060 
# 
# From -- ./inp_files/1022.got.cif
#   From: 2010.05.17/outbox.cif.g08.bks.cpg/sg54_1_cif.got.tgz:1022.got - 2010.06.03 13:09:01.
