data_PCOD9420423
_publ_section_title
;
Structure prediction by ZEFSAII (Michael W. Deem and Ramdas Pophale) SiO2 
 PCOD9420423
Probable space group: P C C A
;
_chemical_formula_sum "Si O2"
_cell_formula_units_Z 32
_cell_length_a 15.460201
_cell_length_b 17.597413
_cell_length_c 5.353144
_cell_angle_alpha 90.000000
_cell_angle_beta 90.000000
_cell_angle_gamma 90.000000
_cell_volume 1456.373905
_symmetry_space_group_name_H-M "P C C A"
_symmetry_group_IT_number 54
_symmetry_cell_setting 'orthorhombic'
loop_
_space_group_symop_operation_xyz
x,y,z
1/2-x,-y,z
1/2+x,-y,1/2-z
-x,y,1/2-z
-x,-y,-z
1/2+x,y,-z
1/2-x,y,1/2+z
x,-y,1/2+z
loop_
_atom_site_type_symbol
_atom_site_label
_atom_site_fract_x
_atom_site_fract_y
_atom_site_fract_z
Si Si1 0.216199 0.414537 0.842703
Si Si2 0.054557 0.338457 0.000450
Si Si3 0.307187 0.795024 0.065187
Si Si4 0.849302 0.968694 0.012771
O O1 0.250000 0.500000 0.807211
O O2 0.227485 0.378850 0.568252
O O3 0.118966 0.408156 0.937454
O O4 0.117443 0.267000 0.047666
O O5 0.000000 0.324804 0.750000
O O6 0.000000 0.352361 0.250000
O O7 0.245333 0.787646 0.823247
O O8 0.345082 0.880220 0.050338
O O9 0.750000 0.000000 0.038375
O O10 0.889371 0.985955 0.281599
#
# Coordination Sequence:
#
# PCOD9420423 Si02
#       4
#     8   8   8   8
#     4  10  21  43  70  95 123 160 212 260 292 363
#     4  12  26  43  61  93 137 168 197 251 324 381
#     4  12  21  36  65  92 118 168 216 263 301 364
#     4  10  16  30  52  91 116 143 207 278 301 332
#
# _framework density 21.972377999999999
#
# number of rings (size 3 to 8) (size 9 to 14) (size 15 to 20)
#    0.000    1.000    5.000    4.500    0.000    0.000 
#    0.000   15.000    0.000    4.500    0.000    0.000 
#    0.000    0.000    0.000    0.000    0.000    0.000 
#
# Total GULP energy -178845.032261 kJ/mol
# GULP energy per Si atom -5588.907258 kJ/mol
# Density = 2.192237 g / cm^3
# Si number density = 21.972378 Si / 1000 Ang^3
#
#
#
# Elastic Constant Matrix: (Units=GPa)
#
#
# Indices 1 2 3 4 5 6 
#
# 1 63.5964 13.5709 11.2095 0.0000 0.0000 0.0000
# 2 13.5709 86.2965 -18.4690 0.0000 0.0000 0.0000
# 3 11.2095 -18.4690 164.3590 0.0000 0.0000 0.0000
# 4 0.0000 0.0000 0.0000 26.1917 0.0000 0.0000
# 5 0.0000 0.0000 0.0000 0.0000 35.7708 0.0000
# 6 0.0000 0.0000 0.0000 0.0000 0.0000 7.3744
#
#
#
# Elastic Compliance Matrix: (Units=1/GPa)
#
#
# Indices 1 2 3 4 5 6 
#
# 1 0.016606 -0.002924 -0.001461 0.000000 0.000000 0.000000
# 2 -0.002924 0.012388 0.001592 0.000000 0.000000 0.000000
# 3 -0.001461 0.001592 0.006363 0.000000 0.000000 0.000000
# 4 0.000000 0.000000 0.000000 0.038180 0.000000 0.000000
# 5 0.000000 0.000000 0.000000 0.000000 0.027956 0.000000
# 6 0.000000 0.000000 0.000000 0.000000 0.000000 0.135605
#
#
# Mechanical properties :
#
#
# Convention : Reuss Voigt Hill
#
# Bulk Modulus (GPa) = 33.59151 36.31941 34.95546
# Shear Modulus (GPa) = 19.79350 34.39673 27.09512
#
# Velocity S-wave (km/s) = 3.00465 3.96087 3.51543
# Velocity P-wave (km/s) = 5.23053 6.12238 5.69394
#
# Compressibility (1/GPa) = 0.02976942
#
# Stress axis : x y z
#
# Youngs Moduli (GPa) = 60.22041 80.72064 157.16528
#
# Poissons Ratio (x) = 0.23603 0.22964
# Poissons Ratio (y) = 0.17609 -0.25013
# Poissons Ratio (z) = 0.08799 -0.12847
#
# Static dielectric constant tensor:
#      x y z
#    x 1.556840 0.000000 0.000000 
#    y 0.000000 1.876630 0.000000 
#    z 0.000000 0.000000 1.879580 
# 
# From -- ./inp_files/386.got.cif
#   From: 2010.05.17/outbox.cif.g08.bks.cpg/sg54_1_cif.got.tgz:386.got - 2010.06.03 13:09:01.
