data_PCOD9420345
_publ_section_title
;
Structure prediction by ZEFSAII (Michael W. Deem and Ramdas Pophale) SiO2 
 PCOD9420345
Probable space group: P C C A
;
_chemical_formula_sum "Si O2"
_cell_formula_units_Z 56
_cell_length_a 22.101869
_cell_length_b 24.942646
_cell_length_c 5.442077
_cell_angle_alpha 90.000000
_cell_angle_beta 90.000000
_cell_angle_gamma 90.000000
_cell_volume 3000.103280
_symmetry_space_group_name_H-M "P C C A"
_symmetry_group_IT_number 54
_symmetry_cell_setting 'orthorhombic'
loop_
_space_group_symop_operation_xyz
x,y,z
1/2-x,-y,z
1/2+x,-y,1/2-z
-x,y,1/2-z
-x,-y,-z
1/2+x,y,-z
1/2-x,y,1/2+z
x,-y,1/2+z
loop_
_atom_site_type_symbol
_atom_site_label
_atom_site_fract_x
_atom_site_fract_y
_atom_site_fract_z
Si Si1 0.570696 0.807660 0.523990
Si Si2 0.067903 0.850897 0.978065
Si Si3 0.564581 0.351638 0.689484
Si Si4 0.068735 0.977934 0.975029
Si Si5 0.225337 0.438990 0.472515
Si Si6 0.084473 0.466932 0.439537
Si Si7 0.929147 0.685120 0.189805
O O1 0.596862 0.822460 0.258300
O O2 0.500192 0.826349 0.501049
O O3 0.575261 0.745600 0.594054
O O4 0.596821 0.839225 0.757507
O O5 0.065073 0.914354 0.939163
O O6 0.500000 0.323560 0.750000
O O7 0.550500 0.410983 0.590722
O O8 0.598432 0.323482 0.462134
O O9 0.593653 0.351435 0.962196
O O10 0.097085 0.005753 0.736010
O O11 0.000000 0.000000 0.000000
O O12 0.250000 0.500000 0.490591
O O13 0.244306 0.413568 0.731722
O O14 0.154182 0.447091 0.438661
O O15 0.073452 0.496699 0.698008
O O16 0.000000 0.673400 0.250000
#
# Coordination Sequence:
#
# PCOD9420345 Si02
#       7
#     8   8   8   8   8   8   8
#     4  10  16  24  38  52  62  82 114 170 194 218
#     4  10  17  22  34  55  62  79 124 154 197 235
#     4  10  23  34  44  62  82 110 136 158 190 246
#     4  10  16  23  29  40  68  94 103 133 188 256
#     4  10  16  30  49  74  87 104 123 155 189 225
#     4  12  21  33  52  67  88 108 132 157 187 228
#     4  10  18  32  45  54  75  98 130 165 208 226
#
# _framework density 18.666025999999999
#
# number of rings (size 3 to 8) (size 9 to 14) (size 15 to 20)
#    0.000    1.714    4.286    6.000    4.000    0.571 
#    0.000    0.000    0.000    0.000    0.000    0.000 
#    0.000    0.000    0.000    0.000    0.000    0.000 
#
# Total GULP energy -311847.699339 kJ/mol
# GULP energy per Si atom -5568.708917 kJ/mol
# Density = 1.862354 g / cm^3
# Si number density = 18.666026 Si / 1000 Ang^3
#
#
#
# Elastic Constant Matrix: (Units=GPa)
#
#
# Indices 1 2 3 4 5 6 
#
# 1 15.0211 -1.8774 -1.8199 0.0000 0.0000 0.0000
# 2 -1.8774 87.7424 38.7123 0.0000 0.0000 0.0000
# 3 -1.8199 38.7123 212.3359 0.0000 0.0000 0.0000
# 4 0.0000 0.0000 0.0000 30.5178 0.0000 0.0000
# 5 0.0000 0.0000 0.0000 0.0000 5.9935 0.0000
# 6 0.0000 0.0000 0.0000 0.0000 0.0000 -1.6610
#
#
#
# Elastic Compliance Matrix: (Units=1/GPa)
#
#
# Indices 1 2 3 4 5 6 
#
# 1 0.066774 0.001279 0.000339 0.000000 0.000000 0.000000
# 2 0.001279 0.012418 -0.002253 0.000000 0.000000 0.000000
# 3 0.000339 -0.002253 0.005123 0.000000 0.000000 0.000000
# 4 0.000000 0.000000 0.000000 0.032768 0.000000 0.000000
# 5 0.000000 0.000000 0.000000 0.000000 0.166848 0.000000
# 6 0.000000 0.000000 0.000000 0.000000 0.000000 -0.602047
#
#
# Mechanical properties :
#
#
# Convention : Reuss Voigt Hill
#
# Bulk Modulus (GPa) = 12.04156 42.79216 27.41686
# Shear Modulus (GPa) = -17.29121 25.64235 4.17557
#
# Velocity S-wave (km/s) = -3.04690 3.71043 1.49728
# Velocity P-wave (km/s) = 2.43167 6.42894 4.20822
#
# Compressibility (1/GPa) = 0.08304570
#
# Stress axis : x y z
#
# Youngs Moduli (GPa) = 14.97593 80.52530 195.19025
#
# Poissons Ratio (x) = -0.10300 -0.06619
# Poissons Ratio (y) = -0.01916 0.43979
# Poissons Ratio (z) = -0.00508 0.18143
#
# Static dielectric constant tensor:
#      x y z
#    x 1.310180 0.000000 0.000000 
#    y 0.000000 1.618680 0.000000 
#    z 0.000000 0.000000 1.824670 
# 
# From -- ./inp_files/1718.got.cif
#   From: 2010.05.17/outbox.cif.g08.bks.cpg/sg54_1_cif.got.tgz:1718.got - 2010.06.03 13:09:01.
