data_PCOD9420738
_publ_section_title
;
Structure prediction by ZEFSAII (Michael W. Deem and Ramdas Pophale) SiO2 
 PCOD9420738
Probable space group: P C C A
;
_chemical_formula_sum "Si O2"
_cell_formula_units_Z 48
_cell_length_a 19.158986
_cell_length_b 8.524096
_cell_length_c 16.855509
_cell_angle_alpha 90.000000
_cell_angle_beta 90.000000
_cell_angle_gamma 90.000000
_cell_volume 2752.724347
_symmetry_space_group_name_H-M "P C C A"
_symmetry_group_IT_number 54
_symmetry_cell_setting 'orthorhombic'
loop_
_space_group_symop_operation_xyz
x,y,z
1/2-x,-y,z
1/2+x,-y,1/2-z
-x,y,1/2-z
-x,-y,-z
1/2+x,y,-z
1/2-x,y,1/2+z
x,-y,1/2+z
loop_
_atom_site_type_symbol
_atom_site_label
_atom_site_fract_x
_atom_site_fract_y
_atom_site_fract_z
Si Si1 0.930412 0.625614 0.712832
Si Si2 0.814041 0.205016 0.645185
Si Si3 0.559419 0.609617 0.571422
Si Si4 0.323147 0.406200 0.195606
Si Si5 0.838875 0.841894 0.606035
Si Si6 0.407978 0.678634 0.540302
O O1 0.956195 0.504972 0.645249
O O2 0.880445 0.529090 0.771287
O O3 0.885054 0.756774 0.671382
O O4 0.000000 0.693624 0.750000
O O5 0.874181 0.292065 0.597341
O O6 0.813824 0.274830 0.734846
O O7 0.737866 0.235118 0.608482
O O8 0.829242 0.021172 0.632474
O O9 0.489867 0.711741 0.557676
O O10 0.582923 0.493940 0.500447
O O11 0.250000 0.500000 0.183437
O O12 0.357657 0.334731 0.116268
O O13 0.875290 0.800497 0.522547
#
# Coordination Sequence:
#
# PCOD9420738 Si02
#       6
#     8   8   8   8   8   8
#     4  10  18  36  58  83 114 153 194 238 282 339
#     4  10  22  40  58  80 116 162 191 227 290 364
#     4   9  20  36  59  83 117 147 191 242 289 340
#     4  11  21  36  62  88 109 145 200 248 276 332
#     4  10  22  40  56  81 123 159 188 228 300 354
#     4  10  21  36  59  89 112 144 191 250 291 334
#
# _framework density 17.437270000000002
#
# number of rings (size 3 to 8) (size 9 to 14) (size 15 to 20)
#    0.000    2.000    3.333    0.000    2.333    0.667 
#    3.000    5.000    0.000    0.000    0.000    0.000 
#    0.000    0.000    0.000    0.000    0.000    0.000 
#
# Total GULP energy -267446.679770 kJ/mol
# GULP energy per Si atom -5571.805829 kJ/mol
# Density = 1.739758 g / cm^3
# Si number density = 17.437270 Si / 1000 Ang^3
#
#
#
# Elastic Constant Matrix: (Units=GPa)
#
#
# Indices 1 2 3 4 5 6 
#
# 1 157.6545 43.4042 53.8745 0.0000 0.0000 0.0000
# 2 43.4042 38.7081 25.3806 0.0000 0.0000 0.0000
# 3 53.8745 25.3806 59.3587 0.0000 0.0000 0.0000
# 4 0.0000 0.0000 0.0000 11.3467 0.0000 0.0000
# 5 0.0000 0.0000 0.0000 0.0000 32.0500 0.0000
# 6 0.0000 0.0000 0.0000 0.0000 0.0000 23.1537
#
#
#
# Elastic Compliance Matrix: (Units=1/GPa)
#
#
# Indices 1 2 3 4 5 6 
#
# 1 0.010654 -0.007790 -0.006339 0.000000 0.000000 0.000000
# 2 -0.007790 0.041595 -0.010715 0.000000 0.000000 0.000000
# 3 -0.006339 -0.010715 0.027181 0.000000 0.000000 0.000000
# 4 0.000000 0.000000 0.000000 0.088132 0.000000 0.000000
# 5 0.000000 0.000000 0.000000 0.000000 0.031201 0.000000
# 6 0.000000 0.000000 0.000000 0.000000 0.000000 0.043190
#
#
# Mechanical properties :
#
#
# Convention : Reuss Voigt Hill
#
# Bulk Modulus (GPa) = 33.62135 55.67111 44.64623
# Shear Modulus (GPa) = 16.58078 22.18089 19.38083
#
# Velocity S-wave (km/s) = 3.08698 3.57043 3.33747
# Velocity P-wave (km/s) = 5.65943 6.99951 6.36484
#
# Compressibility (1/GPa) = 0.02974300
#
# Stress axis : x y z
#
# Youngs Moduli (GPa) = 93.86374 24.04119 36.79031
#
# Poissons Ratio (x) = 0.18728 0.23320
# Poissons Ratio (y) = 0.73121 0.39420
# Poissons Ratio (z) = 0.59496 0.25760
#
# Static dielectric constant tensor:
#      x y z
#    x 1.606140 0.000000 0.000000 
#    y 0.000000 1.591760 0.000000 
#    z 0.000000 0.000000 1.608630 
# 
# From -- ./inp_files/14142.got.cif
#   From: 2010.05.17/outbox.cif.g08.bks.cpg/sg54_8_cif.got.tgz:14142.got - 2010.06.03 13:09:01.
