data_PCOD9420455
_publ_section_title
;
Structure prediction by ZEFSAII (Michael W. Deem and Ramdas Pophale) SiO2 
 PCOD9420455
Probable space group: P C C A
;
_chemical_formula_sum "Si O2"
_cell_formula_units_Z 28
_cell_length_a 5.332993
_cell_length_b 8.506936
_cell_length_c 29.389154
_cell_angle_alpha 90.000000
_cell_angle_beta 90.000000
_cell_angle_gamma 90.000000
_cell_volume 1333.310391
_symmetry_space_group_name_H-M "P C C A"
_symmetry_group_IT_number 54
_symmetry_cell_setting 'orthorhombic'
loop_
_space_group_symop_operation_xyz
x,y,z
1/2-x,-y,z
1/2+x,-y,1/2-z
-x,y,1/2-z
-x,-y,-z
1/2+x,y,-z
1/2-x,y,1/2+z
x,-y,1/2+z
loop_
_atom_site_type_symbol
_atom_site_label
_atom_site_fract_x
_atom_site_fract_y
_atom_site_fract_z
Si Si1 0.000000 0.602156 0.250000
Si Si2 0.999748 0.319654 0.480289
Si Si3 0.502060 0.395118 0.874881
Si Si4 0.342900 0.173169 0.797476
O O1 0.250000 0.500000 0.239332
O O2 0.100107 0.717347 0.288822
O O3 0.750083 0.244289 0.500143
O O4 0.000000 0.500000 0.500000
O O5 0.998900 0.329214 0.426142
O O6 0.250000 0.500000 0.870011
O O7 0.493957 0.258945 0.837195
O O8 0.750000 0.500000 0.869826
O O9 0.500000 0.167048 0.750000
O O10 0.250000 0.000000 0.808889
#
# Coordination Sequence:
#
# PCOD9420455 Si02
#       4
#     4   8   8   8
#     4  12  26  46  72  98 124 172 238 294 334 394
#     4  10  16  35  60  95 135 166 205 283 352 388
#     4  12  25  38  69 106 128 173 238 287 326 408
#     4  12  29  48  67  94 146 192 225 279 360 415
#
# _framework density 21.000360000000001
#
# number of rings (size 3 to 8) (size 9 to 14) (size 15 to 20)
#    0.000    0.571    8.571    0.857    8.000    0.000 
#    0.000    0.000    0.000    1.714    0.000    0.000 
#    0.000    0.000    0.000    0.000    0.000    0.000 
#
# Total GULP energy -156525.973284 kJ/mol
# GULP energy per Si atom -5590.213332 kJ/mol
# Density = 2.095256 g / cm^3
# Si number density = 21.000360 Si / 1000 Ang^3
#
#
#
# Elastic Constant Matrix: (Units=GPa)
#
#
# Indices 1 2 3 4 5 6 
#
# 1 205.4457 65.2959 60.4103 0.0000 0.0000 0.0000
# 2 65.2959 104.7885 65.1383 0.0000 0.0000 0.0000
# 3 60.4103 65.1383 197.9512 0.0000 0.0000 0.0000
# 4 0.0000 0.0000 0.0000 3.1640 0.0000 0.0000
# 5 0.0000 0.0000 0.0000 0.0000 31.7112 0.0000
# 6 0.0000 0.0000 0.0000 0.0000 0.0000 17.2001
#
#
#
# Elastic Compliance Matrix: (Units=1/GPa)
#
#
# Indices 1 2 3 4 5 6 
#
# 1 0.006163 -0.003358 -0.000776 0.000000 0.000000 0.000000
# 2 -0.003358 0.013827 -0.003525 0.000000 0.000000 0.000000
# 3 -0.000776 -0.003525 0.006448 0.000000 0.000000 0.000000
# 4 0.000000 0.000000 0.000000 0.316059 0.000000 0.000000
# 5 0.000000 0.000000 0.000000 0.000000 0.031535 0.000000
# 6 0.000000 0.000000 0.000000 0.000000 0.000000 0.058139
#
#
# Mechanical properties :
#
#
# Convention : Reuss Voigt Hill
#
# Bulk Modulus (GPa) = 89.92500 98.87494 94.39997
# Shear Modulus (GPa) = 11.08168 31.57112 21.32640
#
# Velocity S-wave (km/s) = 2.29964 3.88153 3.19019
# Velocity P-wave (km/s) = 7.06858 8.20201 7.65630
#
# Compressibility (1/GPa) = 0.01112038
#
# Stress axis : x y z
#
# Youngs Moduli (GPa) = 162.26333 72.32391 155.07557
#
# Poissons Ratio (x) = 0.24286 0.12030
# Poissons Ratio (y) = 0.54487 0.54665
# Poissons Ratio (z) = 0.12588 0.25495
#
# Static dielectric constant tensor:
#      x y z
#    x 1.789290 0.000000 0.000000 
#    y 0.000000 1.720280 0.000000 
#    z 0.000000 0.000000 1.755780 
# 
# From -- ./inp_files/26802.got.cif
#   From: 2010.05.17/outbox.cif.g08.bks.cpg/sg54_14_cif.got.tgz:26802.got - 2010.06.03 13:09:01.
