data_PCOD9420641
_publ_section_title
;
Structure prediction by ZEFSAII (Michael W. Deem and Ramdas Pophale) SiO2 
 PCOD9420641
Probable space group: P C C A
;
_chemical_formula_sum "Si O2"
_cell_formula_units_Z 56
_cell_length_a 23.717243
_cell_length_b 6.121656
_cell_length_c 21.083009
_cell_angle_alpha 90.000000
_cell_angle_beta 90.000000
_cell_angle_gamma 90.000000
_cell_volume 3061.016839
_symmetry_space_group_name_H-M "P C C A"
_symmetry_group_IT_number 54
_symmetry_cell_setting 'orthorhombic'
loop_
_space_group_symop_operation_xyz
x,y,z
1/2-x,-y,z
1/2+x,-y,1/2-z
-x,y,1/2-z
-x,-y,-z
1/2+x,y,-z
1/2-x,y,1/2+z
x,-y,1/2+z
loop_
_atom_site_type_symbol
_atom_site_label
_atom_site_fract_x
_atom_site_fract_y
_atom_site_fract_z
Si Si1 0.472904 0.286857 0.947612
Si Si2 0.690714 0.112563 0.982300
Si Si3 0.579731 0.050769 0.674664
Si Si4 0.306583 0.886841 0.383996
Si Si5 0.000000 0.334070 0.250000
Si Si6 0.750000 0.500000 0.542557
Si Si7 0.425395 0.962051 0.561892
Si Si8 0.996994 0.330479 0.638671
O O1 0.444181 0.172764 0.887389
O O2 0.480139 0.537108 0.925537
O O3 0.533093 0.164720 0.954339
O O4 0.434052 0.217988 0.006331
O O5 0.708362 0.360086 0.997810
O O6 0.750000 0.000000 0.963014
O O7 0.675603 0.018471 0.052338
O O8 0.638140 0.051324 0.938223
O O9 0.645707 0.088043 0.668045
O O10 0.551596 0.175230 0.733070
O O11 0.555605 0.806581 0.666659
O O12 0.287918 0.653487 0.412188
O O13 0.250000 0.000000 0.360210
O O14 0.986708 0.489182 0.309593
O O15 0.453103 0.839689 0.622246
#
# Coordination Sequence:
#
# PCOD9420641 Si02
#       8
#     8   8   8   8   4   4   8   8
#     4   9  19  30  49  81 109 146 173 209 277 327
#     4   9  18  31  48  76 112 152 180 213 263 321
#     4  10  19  36  52  78 114 137 182 233 270 337
#     4   9  18  32  50  78 109 146 175 217 269 327
#     4  10  22  36  54  80 102 140 188 236 294 324
#     4   8  18  32  48  74 110 152 184 200 268 330
#     4  10  18  33  49  80 116 139 182 224 257 338
#     4  10  21  35  55  78 103 148 179 225 287 332
#
# _framework density 18.294573
#
# number of rings (size 3 to 8) (size 9 to 14) (size 15 to 20)
#    0.000    2.857    1.429    0.857    0.000    6.857 
#    0.000    0.000    0.000    0.000    0.000   32.000 
#    0.000    0.000    0.000    0.000    0.000    0.000 
#
# Total GULP energy -311868.852017 kJ/mol
# GULP energy per Si atom -5569.086643 kJ/mol
# Density = 1.825293 g / cm^3
# Si number density = 18.294573 Si / 1000 Ang^3
#
#
#
# Elastic Constant Matrix: (Units=GPa)
#
#
# Indices 1 2 3 4 5 6 
#
# 1 136.5215 42.7679 23.2163 0.0000 0.0000 0.0000
# 2 42.7679 107.6770 22.8212 0.0000 0.0000 0.0000
# 3 23.2163 22.8212 37.1476 0.0000 0.0000 0.0000
# 4 0.0000 0.0000 0.0000 29.0415 0.0000 0.0000
# 5 0.0000 0.0000 0.0000 0.0000 24.9705 0.0000
# 6 0.0000 0.0000 0.0000 0.0000 0.0000 8.6511
#
#
#
# Elastic Compliance Matrix: (Units=1/GPa)
#
#
# Indices 1 2 3 4 5 6 
#
# 1 0.008823 -0.002685 -0.003865 0.000000 0.000000 0.000000
# 2 -0.002685 0.011495 -0.005383 0.000000 0.000000 0.000000
# 3 -0.003865 -0.005383 0.032642 0.000000 0.000000 0.000000
# 4 0.000000 0.000000 0.000000 0.034433 0.000000 0.000000
# 5 0.000000 0.000000 0.000000 0.000000 0.040047 0.000000
# 6 0.000000 0.000000 0.000000 0.000000 0.000000 0.115592
#
#
# Mechanical properties :
#
#
# Convention : Reuss Voigt Hill
#
# Bulk Modulus (GPa) = 34.37205 50.99522 42.68364
# Shear Modulus (GPa) = 18.07686 25.36868 21.72277
#
# Velocity S-wave (km/s) = 3.14682 3.72785 3.44959
# Velocity P-wave (km/s) = 5.65970 6.81647 6.26484
#
# Compressibility (1/GPa) = 0.02909341
#
# Stress axis : x y z
#
# Youngs Moduli (GPa) = 113.33613 86.99749 30.63535
#
# Poissons Ratio (x) = 0.23363 0.11839
# Poissons Ratio (y) = 0.30436 0.16492
# Poissons Ratio (z) = 0.43800 0.46833
#
# Static dielectric constant tensor:
#      x y z
#    x 1.679010 0.000000 0.000000 
#    y 0.000000 1.699230 0.000000 
#    z 0.000000 0.000000 1.653290 
# 
# From -- ./inp_files/24762.got.cif
#   From: 2010.05.17/outbox.cif.g08.bks.cpg/sg54_13_cif.got.tgz:24762.got - 2010.06.03 13:09:01.
