data_PCOD9420529
_publ_section_title
;
Structure prediction by ZEFSAII (Michael W. Deem and Ramdas Pophale) SiO2 
 PCOD9420529
Probable space group: P C C A
;
_chemical_formula_sum "Si O2"
_cell_formula_units_Z 48
_cell_length_a 19.157184
_cell_length_b 8.385026
_cell_length_c 14.076651
_cell_angle_alpha 90.000000
_cell_angle_beta 90.000000
_cell_angle_gamma 90.000000
_cell_volume 2261.181520
_symmetry_space_group_name_H-M "P C C A"
_symmetry_group_IT_number 54
_symmetry_cell_setting 'orthorhombic'
loop_
_space_group_symop_operation_xyz
x,y,z
1/2-x,-y,z
1/2+x,-y,1/2-z
-x,y,1/2-z
-x,-y,-z
1/2+x,y,-z
1/2-x,y,1/2+z
x,-y,1/2+z
loop_
_atom_site_type_symbol
_atom_site_label
_atom_site_fract_x
_atom_site_fract_y
_atom_site_fract_z
Si Si1 0.860388 0.998636 0.359076
Si Si2 0.156498 0.763551 0.809738
Si Si3 0.936677 0.516297 0.183997
Si Si4 0.807419 0.720315 0.231331
Si Si5 0.004171 0.164548 0.865491
Si Si6 0.850517 0.059144 0.565848
O O1 0.814159 0.865491 0.306133
O O2 0.832186 0.071248 0.456141
O O3 0.929557 0.903469 0.392718
O O4 0.873406 0.135379 0.280045
O O5 0.102347 0.638776 0.853988
O O6 0.226463 0.674814 0.773158
O O7 0.176020 0.895997 0.887421
O O8 0.874070 0.604482 0.243386
O O9 0.972378 0.651538 0.117958
O O10 0.000000 0.461795 0.250000
O O11 0.822908 0.794561 0.127798
O O12 0.000000 0.152686 0.750000
O O13 0.066472 0.063266 0.910509
#
# Coordination Sequence:
#
# PCOD9420529 Si02
#       6
#     8   8   8   8   8   8
#     4  11  20  37  62  91 119 153 196 247 297 348
#     4  11  23  35  62  93 112 153 209 237 285 365
#     4  10  20  39  63  79 119 162 193 241 293 349
#     4  10  21  40  59  85 126 157 186 247 304 340
#     4  10  17  38  60  81 123 156 185 244 304 333
#     4  10  21  35  61  90 119 153 194 244 296 350
#
# _framework density 21.22784
#
# number of rings (size 3 to 8) (size 9 to 14) (size 15 to 20)
#    0.000    1.667    6.667    3.000    2.333    2.667 
#    0.000    4.167    0.000    6.000    0.000    0.000 
#    0.000    0.000    0.000    0.000    0.000    0.000 
#
# Total GULP energy -267425.632524 kJ/mol
# GULP energy per Si atom -5571.367344 kJ/mol
# Density = 2.117952 g / cm^3
# Si number density = 21.227840 Si / 1000 Ang^3
#
#
#
# Elastic Constant Matrix: (Units=GPa)
#
#
# Indices 1 2 3 4 5 6 
#
# 1 101.5361 19.1552 -22.3669 0.0000 0.0000 0.0000
# 2 19.1552 48.9775 2.9302 0.0000 0.0000 0.0000
# 3 -22.3669 2.9302 90.5901 0.0000 0.0000 0.0000
# 4 0.0000 0.0000 0.0000 3.0293 0.0000 0.0000
# 5 0.0000 0.0000 0.0000 0.0000 9.8334 0.0000
# 6 0.0000 0.0000 0.0000 0.0000 0.0000 42.2296
#
#
#
# Elastic Compliance Matrix: (Units=1/GPa)
#
#
# Indices 1 2 3 4 5 6 
#
# 1 0.011373 -0.004625 0.002958 0.000000 0.000000 0.000000
# 2 -0.004625 0.022338 -0.001864 0.000000 0.000000 0.000000
# 3 0.002958 -0.001864 0.011829 0.000000 0.000000 0.000000
# 4 0.000000 0.000000 0.000000 0.330114 0.000000 0.000000
# 5 0.000000 0.000000 0.000000 0.000000 0.101694 0.000000
# 6 0.000000 0.000000 0.000000 0.000000 0.000000 0.023680
#
#
# Mechanical properties :
#
#
# Convention : Reuss Voigt Hill
#
# Bulk Modulus (GPa) = 25.98995 26.72675 26.35835
# Shear Modulus (GPa) = 9.59847 27.11081 18.35464
#
# Velocity S-wave (km/s) = 2.12872 3.57758 2.94368
# Velocity P-wave (km/s) = 4.27923 5.44823 4.89873
#
# Compressibility (1/GPa) = 0.03847641
#
# Stress axis : x y z
#
# Youngs Moduli (GPa) = 87.92981 44.76706 84.53613
#
# Poissons Ratio (x) = 0.20704 -0.25002
# Poissons Ratio (y) = 0.40666 0.15761
# Poissons Ratio (z) = -0.26006 0.08346
#
# Static dielectric constant tensor:
#      x y z
#    x 1.856020 0.000000 0.000000 
#    y 0.000000 1.814520 0.000000 
#    z 0.000000 0.000000 1.729660 
# 
# From -- ./inp_files/14557.got.cif
#   From: 2010.05.17/outbox.cif.g08.bks.cpg/sg54_8_cif.got.tgz:14557.got - 2010.06.03 13:09:01.
