data_PCOD9420125
_publ_section_title
;
Structure prediction by ZEFSAII (Michael W. Deem and Ramdas Pophale) SiO2 
 PCOD9420125
Probable space group: P M N A
;
_chemical_formula_sum "Si O2"
_cell_formula_units_Z 56
_cell_length_a 9.000000
_cell_length_b 15.000000
_cell_length_c 21.000000
_cell_angle_alpha 90.000000
_cell_angle_beta 90.000000
_cell_angle_gamma 90.000000
_cell_volume 2835.000000
_symmetry_space_group_name_H-M "P M N A"
_symmetry_group_IT_number 53
_symmetry_cell_setting 'orthorhombic'
loop_
_space_group_symop_operation_xyz
x,y,z
1/2-x,-y,1/2+z
x,-y,-z
1/2-x,y,1/2-z
-x,-y,-z
1/2+x,y,1/2-z
-x,y,z
1/2+x,-y,1/2+z
loop_
_atom_site_type_symbol
_atom_site_label
_atom_site_fract_x
_atom_site_fract_y
_atom_site_fract_z
Si Si1 0.165474 0.345507 0.378994
Si Si2 0.832978 0.521916 0.084078
Si Si3 0.824475 0.181881 0.182183
Si Si4 0.834044 0.666237 0.195025
Si Si5 0.677838 0.987211 0.320709
Si Si6 0.676832 0.817675 0.124015
Si Si7 0.333937 0.673081 0.023712
O O1 0.234753 0.442897 0.387729
O O2 0.265702 0.274138 0.344447
O O3 0.154877 0.307096 0.450168
O O4 0.000000 0.350887 0.351050
O O5 0.841100 0.599600 0.136734
O O6 0.761800 0.583205 0.029078
O O7 0.000000 0.490075 0.071267
O O8 0.750000 0.172662 0.250000
O O9 0.000000 0.186416 0.187285
O O10 0.788348 0.085741 0.151026
O O11 0.750000 0.614714 0.250000
O O12 0.733468 0.750943 0.178718
O O13 0.000000 0.694188 0.211677
O O14 0.750000 0.977919 0.250000
O O15 0.500000 0.978384 0.314048
O O16 0.742226 0.910388 0.365359
O O17 0.500000 0.829546 0.125430
O O18 0.719233 0.759916 0.061541
O O19 0.500000 0.651606 0.049406
#
# Coordination Sequence:
#
# PCOD9420125 Si02
#       7
#     8   8   8   8   8   8   8
#     4  11  22  37  58  80 106 141 179 221 267 316
#     4  10  21  35  53  78 107 141 182 226 269 316
#     4  10  22  40  60  82 108 138 176 221 265 314
#     4  10  20  33  49  73 106 140 175 216 263 315
#     4  10  20  35  56  81 108 139 176 217 263 315
#     4  10  19  33  54  78 107 141 176 215 260 313
#     4   9  20  37  55  79 109 142 180 219 263 316
#
# _framework density 19.753086
#
# number of rings (size 3 to 8) (size 9 to 14) (size 15 to 20)
#    0.000    2.000    0.000    3.429    0.000    7.429 
#    0.000    2.143    0.000    4.286    0.000    0.000 
#    0.000    0.000    0.000    0.000    0.000    0.000 
#
# Total GULP energy -311804.630262 kJ/mol
# GULP energy per Si atom -5567.939826 kJ/mol
# Density = 1.970813 g / cm^3
# Si number density = 19.753086 Si / 1000 Ang^3
#
#
#
# Elastic Constant Matrix: (Units=GPa)
#
#
# Indices 1 2 3 4 5 6 
#
# 1 76.0011 57.1355 8.6899 0.0000 0.0000 0.0000
# 2 57.1355 119.7837 13.6582 0.0000 0.0000 0.0000
# 3 8.6899 13.6582 11.1669 0.0000 0.0000 0.0000
# 4 0.0000 0.0000 0.0000 27.9892 0.0000 0.0000
# 5 0.0000 0.0000 0.0000 0.0000 19.0023 0.0000
# 6 0.0000 0.0000 0.0000 0.0000 0.0000 53.7993
#
#
#
# Elastic Compliance Matrix: (Units=1/GPa)
#
#
# Indices 1 2 3 4 5 6 
#
# 1 0.020723 -0.009350 -0.004691 0.000000 0.000000 0.000000
# 2 -0.009350 0.013920 -0.009749 0.000000 0.000000 0.000000
# 3 -0.004691 -0.009749 0.105125 0.000000 0.000000 0.000000
# 4 0.000000 0.000000 0.000000 0.035728 0.000000 0.000000
# 5 0.000000 0.000000 0.000000 0.000000 0.052625 0.000000
# 6 0.000000 0.000000 0.000000 0.000000 0.000000 0.018588
#
#
# Mechanical properties :
#
#
# Convention : Reuss Voigt Hill
#
# Bulk Modulus (GPa) = 10.84734 40.65764 25.75249
# Shear Modulus (GPa) = 15.38377 28.65605 22.01991
#
# Velocity S-wave (km/s) = 2.79373 3.81295 3.34242
# Velocity P-wave (km/s) = 3.98873 6.32554 5.28784
#
# Compressibility (1/GPa) = 0.09218846
#
# Stress axis : x y z
#
# Youngs Moduli (GPa) = 48.25583 71.84036 9.51245
#
# Poissons Ratio (x) = 0.67169 0.04462
# Poissons Ratio (y) = 0.45118 0.09274
# Poissons Ratio (z) = 0.22635 0.70040
#
# Static dielectric constant tensor:
#      x y z
#    x 1.738140 0.000000 0.000000 
#    y 0.000000 1.681460 0.000000 
#    z 0.000000 0.000000 7.312390 
# 
# From -- ./inp_files/30847.got.cif
#   From: 2010.05.17/outbox.ucp.g08.bks.cvg/sg53_16_cif.got.tgz:30847.got - 2010.06.11 16:32:34.
