data_PCOD9420486
_publ_section_title
;
Structure prediction by ZEFSAII (Michael W. Deem and Ramdas Pophale) SiO2 
 PCOD9420486
Probable space group: P C C A
;
_chemical_formula_sum "Si O2"
_cell_formula_units_Z 36
_cell_length_a 5.740173
_cell_length_b 13.739023
_cell_length_c 18.060846
_cell_angle_alpha 90.000000
_cell_angle_beta 90.000000
_cell_angle_gamma 90.000000
_cell_volume 1424.357221
_symmetry_space_group_name_H-M "P C C A"
_symmetry_group_IT_number 54
_symmetry_cell_setting 'orthorhombic'
loop_
_space_group_symop_operation_xyz
x,y,z
1/2-x,-y,z
1/2+x,-y,1/2-z
-x,y,1/2-z
-x,-y,-z
1/2+x,y,-z
1/2-x,y,1/2+z
x,-y,1/2+z
loop_
_atom_site_type_symbol
_atom_site_label
_atom_site_fract_x
_atom_site_fract_y
_atom_site_fract_z
Si Si1 0.756248 0.613381 0.841192
Si Si2 0.758473 0.316689 0.673378
Si Si3 0.750000 0.000000 0.877863
Si Si4 0.109497 0.840673 0.001977
Si Si5 0.864871 0.898548 0.667073
O O1 0.750000 0.500000 0.859980
O O2 0.748514 0.626867 0.751645
O O3 0.507877 0.660985 0.864537
O O4 0.009016 0.656963 0.864211
O O5 0.742263 0.202298 0.690746
O O6 0.864096 0.921294 0.820771
O O7 0.620580 0.923206 0.933748
O O8 0.118382 0.892539 0.922718
O O9 0.359807 0.787583 0.000586
O O10 0.750000 0.000000 0.682531
#
# Coordination Sequence:
#
# PCOD9420486 Si02
#       5
#     8   8   4   8   8
#     4  10  20  42  60  75 102 129 169 239 289 316
#     4  10  21  32  58  84  99 134 181 214 265 329
#     4  10  18  32  48  68 110 160 180 202 254 282
#     4  10  17  30  47  67  98 153 181 203 244 285
#     4  11  20  31  48  77 117 146 176 216 241 302
#
# _framework density 25.274557999999999
#
# number of rings (size 3 to 8) (size 9 to 14) (size 15 to 20)
#    0.000    1.778    3.333    4.667    3.111    0.000 
#    0.000    4.444    0.000    0.000    0.000    0.000 
#    0.000  120.889    0.000    0.000    0.000    0.000 
#
# Total GULP energy -200513.911876 kJ/mol
# GULP energy per Si atom -5569.830885 kJ/mol
# Density = 2.521703 g / cm^3
# Si number density = 25.274558 Si / 1000 Ang^3
#
#
#
# Elastic Constant Matrix: (Units=GPa)
#
#
# Indices 1 2 3 4 5 6 
#
# 1 271.7904 70.8290 9.8567 0.0000 0.0000 0.0000
# 2 70.8290 150.5903 17.9196 0.0000 0.0000 0.0000
# 3 9.8567 17.9196 33.7589 0.0000 0.0000 0.0000
# 4 0.0000 0.0000 0.0000 -9.0475 0.0000 0.0000
# 5 0.0000 0.0000 0.0000 0.0000 -46.4747 0.0000
# 6 0.0000 0.0000 0.0000 0.0000 0.0000 30.2483
#
#
#
# Elastic Compliance Matrix: (Units=1/GPa)
#
#
# Indices 1 2 3 4 5 6 
#
# 1 0.004194 -0.001950 -0.000189 0.000000 0.000000 0.000000
# 2 -0.001950 0.007995 -0.003674 0.000000 0.000000 0.000000
# 3 -0.000189 -0.003674 0.031628 0.000000 0.000000 0.000000
# 4 0.000000 0.000000 0.000000 -0.110527 0.000000 0.000000
# 5 0.000000 0.000000 0.000000 0.000000 -0.021517 0.000000
# 6 0.000000 0.000000 0.000000 0.000000 0.000000 0.033060
#
#
# Mechanical properties :
#
#
# Convention : Reuss Voigt Hill
#
# Bulk Modulus (GPa) = 31.06677 72.59448 51.83062
# Shear Modulus (GPa) = -152.39343 18.78082 -66.80630
#
# Velocity S-wave (km/s) = -7.77342 2.72889 -5.14681
# Velocity P-wave (km/s) = 8.26134 6.22205 3.84291
#
# Compressibility (1/GPa) = 0.03218874
#
# Stress axis : x y z
#
# Youngs Moduli (GPa) = 238.41195 125.07699 31.61800
#
# Poissons Ratio (x) = 0.24393 0.00599
# Poissons Ratio (y) = 0.46497 0.11618
# Poissons Ratio (z) = 0.04516 0.45959
#
# Static dielectric constant tensor:
#      x y z
#    x 2.706720 0.000000 0.000000 
#    y 0.000000 1.566520 0.000000 
#    z 0.000000 0.000000 2.089130 
# 
# From -- ./inp_files/22699.got.cif
#   From: 2010.05.17/outbox.cif.g08.bks.cpg/sg54_12_cif.got.tgz:22699.got - 2010.06.03 13:09:01.
