data_PCOD9420822
_publ_section_title
;
Structure prediction by ZEFSAII (Michael W. Deem and Ramdas Pophale) SiO2 
 PCOD9420822
Probable space group: P C C A
;
_chemical_formula_sum "Si O2"
_cell_formula_units_Z 52
_cell_length_a 29.315067
_cell_length_b 10.963316
_cell_length_c 8.587032
_cell_angle_alpha 90.000000
_cell_angle_beta 90.000000
_cell_angle_gamma 90.000000
_cell_volume 2759.789161
_symmetry_space_group_name_H-M "P C C A"
_symmetry_group_IT_number 54
_symmetry_cell_setting 'orthorhombic'
loop_
_space_group_symop_operation_xyz
x,y,z
1/2-x,-y,z
1/2+x,-y,1/2-z
-x,y,1/2-z
-x,-y,-z
1/2+x,y,-z
1/2-x,y,1/2+z
x,-y,1/2+z
loop_
_atom_site_type_symbol
_atom_site_label
_atom_site_fract_x
_atom_site_fract_y
_atom_site_fract_z
Si Si1 0.702959 0.947607 0.452444
Si Si2 0.869557 0.152139 0.964256
Si Si3 0.142571 0.761002 0.368194
Si Si4 0.934187 0.917472 0.996566
Si Si5 0.500000 0.006273 0.750000
Si Si6 0.798765 0.249546 0.187160
Si Si7 0.722054 0.375629 0.999009
O O1 0.677983 0.867558 0.582764
O O2 0.707641 0.869027 0.295529
O O3 0.750000 0.000000 0.507061
O O4 0.671425 0.062090 0.419748
O O5 0.875727 0.230779 0.807698
O O6 0.908761 0.051432 0.000253
O O7 0.847881 0.231985 0.104000
O O8 0.100347 0.805791 0.476294
O O9 0.174670 0.644337 0.405511
O O10 0.962186 0.914202 0.837758
O O11 0.972096 0.923692 0.130113
O O12 0.792271 0.352928 0.319810
O O13 0.759844 0.277363 0.059594
O O14 0.750000 0.500000 0.014505
#
# Coordination Sequence:
#
# PCOD9420822 Si02
#       7
#     8   8   8   8   4   8   8
#     4  10  19  30  46  74 107 145 183 220 268 335
#     4  11  20  32  50  78 112 149 188 227 270 352
#     4  10  20  33  52  75 107 149 192 233 283 342
#     4  10  20  34  53  84 119 160 189 233 283 367
#     4  10  20  34  54  80 124 160 190 230 296 358
#     4  11  23  34  52  75 105 150 191 234 287 333
#     4  11  23  39  55  74 105 148 200 255 292 325
#
# _framework density 18.842017999999999
#
# number of rings (size 3 to 8) (size 9 to 14) (size 15 to 20)
#    0.000    1.538    1.538    6.000    4.308    2.462 
#    0.000    0.769    0.000    0.000    0.000    0.000 
#    0.000    7.385    0.000    0.308    0.000    0.000 
#
# Total GULP energy -289626.415933 kJ/mol
# GULP energy per Si atom -5569.738768 kJ/mol
# Density = 1.879913 g / cm^3
# Si number density = 18.842018 Si / 1000 Ang^3
#
#
#
# Elastic Constant Matrix: (Units=GPa)
#
#
# Indices 1 2 3 4 5 6 
#
# 1 83.9008 16.9754 17.1251 0.0000 0.0000 0.0000
# 2 16.9754 55.2024 12.3293 0.0000 0.0000 0.0000
# 3 17.1251 12.3293 88.4610 0.0000 0.0000 0.0000
# 4 0.0000 0.0000 0.0000 10.4790 0.0000 0.0000
# 5 0.0000 0.0000 0.0000 0.0000 21.1408 0.0000
# 6 0.0000 0.0000 0.0000 0.0000 0.0000 23.3731
#
#
#
# Elastic Compliance Matrix: (Units=1/GPa)
#
#
# Indices 1 2 3 4 5 6 
#
# 1 0.013054 -0.003561 -0.002031 0.000000 0.000000 0.000000
# 2 -0.003561 0.019668 -0.002052 0.000000 0.000000 0.000000
# 3 -0.002031 -0.002052 0.011984 0.000000 0.000000 0.000000
# 4 0.000000 0.000000 0.000000 0.095429 0.000000 0.000000
# 5 0.000000 0.000000 0.000000 0.000000 0.047302 0.000000
# 6 0.000000 0.000000 0.000000 0.000000 0.000000 0.042784
#
#
# Mechanical properties :
#
#
# Convention : Reuss Voigt Hill
#
# Bulk Modulus (GPa) = 33.99177 35.60264 34.79720
# Shear Modulus (GPa) = 19.58375 23.07421 21.32898
#
# Velocity S-wave (km/s) = 3.22742 3.50325 3.36816
# Velocity P-wave (km/s) = 5.65401 5.94138 5.79948
#
# Compressibility (1/GPa) = 0.02941889
#
# Stress axis : x y z
#
# Youngs Moduli (GPa) = 76.60629 50.84294 83.44765
#
# Poissons Ratio (x) = 0.18103 0.16947
# Poissons Ratio (y) = 0.27277 0.17123
# Poissons Ratio (z) = 0.15557 0.10433
#
# Static dielectric constant tensor:
#      x y z
#    x 1.690260 0.000000 0.000000 
#    y 0.000000 1.718050 0.000000 
#    z 0.000000 0.000000 1.748630 
# 
# From -- ./inp_files/5917.got.cif
#   From: 2010.05.17/outbox.cif.g08.bks.cpg/sg54_3_cif.got.tgz:5917.got - 2010.06.03 13:09:01.
