data_PCOD9420045
_publ_section_title
;
Structure prediction by ZEFSAII (Michael W. Deem and Ramdas Pophale) SiO2 
 PCOD9420045
Probable space group: P M N A
;
_chemical_formula_sum "Si O2"
_cell_formula_units_Z 64
_cell_length_a 7.368904
_cell_length_b 17.601202
_cell_length_c 24.875762
_cell_angle_alpha 90.000000
_cell_angle_beta 90.000000
_cell_angle_gamma 90.000000
_cell_volume 3226.425332
_symmetry_space_group_name_H-M "P M N A"
_symmetry_group_IT_number 53
_symmetry_cell_setting 'orthorhombic'
loop_
_space_group_symop_operation_xyz
x,y,z
1/2-x,-y,1/2+z
x,-y,-z
1/2-x,y,1/2-z
-x,-y,-z
1/2+x,y,1/2-z
-x,y,z
1/2+x,-y,1/2+z
loop_
_atom_site_type_symbol
_atom_site_label
_atom_site_fract_x
_atom_site_fract_y
_atom_site_fract_z
Si Si1 0.278181 0.774375 0.371199
Si Si2 0.778890 0.531252 0.088221
Si Si3 0.278190 0.358583 0.411692
Si Si4 0.720573 0.682312 0.473890
Si Si5 0.283913 0.091750 0.313904
Si Si6 0.717351 0.741111 0.686497
Si Si7 0.284526 0.624447 0.311655
Si Si8 0.282533 0.073932 0.685973
O O1 0.500000 0.776421 0.371126
O O2 0.221921 0.745325 0.430366
O O3 0.218848 0.707155 0.330717
O O4 0.215012 0.855156 0.348846
O O5 0.718299 0.445454 0.079898
O O6 0.724171 0.598776 0.047960
O O7 0.720036 0.560989 0.146821
O O8 0.000000 0.529317 0.085526
O O9 0.500000 0.359901 0.410729
O O10 0.223666 0.310884 0.464357
O O11 0.217340 0.321786 0.355623
O O12 0.500000 0.682950 0.472745
O O13 0.250000 0.090610 0.250000
O O14 0.500000 0.092041 0.323850
O O15 0.213574 0.174735 0.330281
O O16 0.213375 0.009369 0.332055
O O17 0.750000 0.727460 0.750000
O O18 0.500000 0.743553 0.681477
O O19 0.250000 0.608726 0.250000
O O20 0.500000 0.626993 0.319104
O O21 0.250000 0.084818 0.750000
O O22 0.500000 0.072078 0.680150
#
# Coordination Sequence:
#
# PCOD9420045 Si02
#       8
#     8   8   8   8   8   8   8   8
#     4   8  14  23  35  53  76 100 124 153 188 221
#     4   8  14  23  35  53  75  98 125 158 191 218
#     4   9  15  23  38  57  75  97 126 158 187 219
#     4   8  13  22  36  54  76  99 124 156 191 221
#     4   8  14  24  37  53  75 101 125 151 182 216
#     4   9  17  28  41  59  81 101 123 153 189 225
#     4   9  16  25  36  52  77 103 124 149 184 225
#     4   9  15  23  37  56  77 101 128 154 182 219
#
# _framework density 19.836193999999999
#
# number of rings (size 3 to 8) (size 9 to 14) (size 15 to 20)
#    0.000    3.500    0.000    2.250    0.000    2.000 
#    0.000    0.000    0.000    0.750    0.000    9.625 
#    0.000    5.000    0.000   18.375    0.000   12.750 
#
# Total GULP energy -356472.163016 kJ/mol
# GULP energy per Si atom -5569.877547 kJ/mol
# Density = 1.979105 g / cm^3
# Si number density = 19.836194 Si / 1000 Ang^3
#
#
#
# Elastic Constant Matrix: (Units=GPa)
#
#
# Indices 1 2 3 4 5 6 
#
# 1 70.4255 3.0996 -2.6113 0.0000 0.0000 0.0000
# 2 3.0996 90.2027 44.2820 0.0000 0.0000 0.0000
# 3 -2.6113 44.2820 113.0832 0.0000 0.0000 0.0000
# 4 0.0000 0.0000 0.0000 17.1757 0.0000 0.0000
# 5 0.0000 0.0000 0.0000 0.0000 8.4337 0.0000
# 6 0.0000 0.0000 0.0000 0.0000 0.0000 -7.1602
#
#
#
# Elastic Compliance Matrix: (Units=1/GPa)
#
#
# Indices 1 2 3 4 5 6 
#
# 1 0.014259 -0.000807 0.000645 0.000000 0.000000 0.000000
# 2 -0.000807 0.013770 -0.005411 0.000000 0.000000 0.000000
# 3 0.000645 -0.005411 0.010977 0.000000 0.000000 0.000000
# 4 0.000000 0.000000 0.000000 0.058222 0.000000 0.000000
# 5 0.000000 0.000000 0.000000 0.000000 0.118572 0.000000
# 6 0.000000 0.000000 0.000000 0.000000 0.000000 -0.139662
#
#
# Mechanical properties :
#
#
# Convention : Reuss Voigt Hill
#
# Bulk Modulus (GPa) = 35.89252 40.36134 38.12693
# Shear Modulus (GPa) = 51.77637 18.95261 35.36449
#
# Velocity S-wave (km/s) = 5.11455 3.09440 4.22693
# Velocity P-wave (km/s) = 7.28093 5.75835 6.56393
#
# Compressibility (1/GPa) = 0.02786096
#
# Stress axis : x y z
#
# Youngs Moduli (GPa) = 70.13204 72.62099 91.10158
#
# Poissons Ratio (x) = 0.05858 -0.05877
# Poissons Ratio (y) = 0.05657 0.49294
# Poissons Ratio (z) = -0.04525 0.39294
#
# Static dielectric constant tensor:
#      x y z
#    x 1.787120 0.000000 0.000000 
#    y 0.000000 1.721000 0.000000 
#    z 0.000000 0.000000 1.690600 
# 
# From -- ./inp_files/31251.got.cif
#   From: 2010.05.17/outbox.cif.g08.bks.cpg/sg53_16_cif.got.tgz:31251.got - 2010.06.03 12:45:16.
