data_PCOD9420412
_publ_section_title
;
Structure prediction by ZEFSAII (Michael W. Deem and Ramdas Pophale) SiO2 
 PCOD9420412
Probable space group: P C C A
;
_chemical_formula_sum "Si O2"
_cell_formula_units_Z 56
_cell_length_a 15.997929
_cell_length_b 25.606792
_cell_length_c 5.476691
_cell_angle_alpha 90.000000
_cell_angle_beta 90.000000
_cell_angle_gamma 90.000000
_cell_volume 2243.557359
_symmetry_space_group_name_H-M "P C C A"
_symmetry_group_IT_number 54
_symmetry_cell_setting 'orthorhombic'
loop_
_space_group_symop_operation_xyz
x,y,z
1/2-x,-y,z
1/2+x,-y,1/2-z
-x,y,1/2-z
-x,-y,-z
1/2+x,y,-z
1/2-x,y,1/2+z
x,-y,1/2+z
loop_
_atom_site_type_symbol
_atom_site_label
_atom_site_fract_x
_atom_site_fract_y
_atom_site_fract_z
Si Si1 0.468974 0.181771 0.500303
Si Si2 0.466851 0.302083 0.496919
Si Si3 0.599264 0.525378 0.230588
Si Si4 0.798118 0.859724 0.905193
Si Si5 0.792981 0.612520 0.569825
Si Si6 0.726184 0.273953 0.049571
Si Si7 0.346606 0.978752 0.055323
O O1 0.500000 0.156561 0.750000
O O2 0.501053 0.241836 0.497129
O O3 0.369547 0.181534 0.521728
O O4 0.500000 0.156983 0.250000
O O5 0.500000 0.328366 0.250000
O O6 0.367139 0.296334 0.475957
O O7 0.500000 0.324531 0.750000
O O8 0.500000 0.519626 0.250000
O O9 0.631443 0.508348 0.498086
O O10 0.624080 0.583882 0.156206
O O11 0.729451 0.857797 0.121856
O O12 0.840468 0.916600 0.939564
O O13 0.768943 0.597133 0.293871
O O14 0.787881 0.675252 0.565667
O O15 0.740978 0.246147 0.306997
O O16 0.250000 0.000000 0.054284
O O17 0.385176 0.999336 0.804215
#
# Coordination Sequence:
#
# PCOD9420412 Si02
#       7
#     8   8   8   8   8   8   8
#     4  10  23  41  57  82 123 158 182 233 304 359
#     4  10  21  40  64  85 114 159 198 228 288 369
#     4  10  21  37  58  83 113 155 201 237 275 339
#     4  12  21  33  59  90 108 147 202 245 285 337
#     4  10  21  37  55  84 118 150 187 237 296 332
#     4  10  21  38  60  89 122 150 189 250 301 342
#     4  10  16  30  49  78 107 143 184 244 281 328
#
# _framework density 24.960362
#
# number of rings (size 3 to 8) (size 9 to 14) (size 15 to 20)
#    0.000    1.714    2.857    2.571    0.000    2.857 
#    0.000    8.571    0.000    2.571    0.000    0.000 
#    0.000    0.000    0.000    0.000    0.000    0.000 
#
# Total GULP energy -312995.712972 kJ/mol
# GULP energy per Si atom -5589.209160 kJ/mol
# Density = 2.490355 g / cm^3
# Si number density = 24.960362 Si / 1000 Ang^3
#
#
#
# Elastic Constant Matrix: (Units=GPa)
#
#
# Indices 1 2 3 4 5 6 
#
# 1 49.4226 -13.7034 45.3563 0.0000 0.0000 0.0000
# 2 -13.7034 66.0418 15.2188 0.0000 0.0000 0.0000
# 3 45.3563 15.2188 294.6960 0.0000 0.0000 0.0000
# 4 0.0000 0.0000 0.0000 9.0622 0.0000 0.0000
# 5 0.0000 0.0000 0.0000 0.0000 36.1764 0.0000
# 6 0.0000 0.0000 0.0000 0.0000 0.0000 4.4205
#
#
#
# Elastic Compliance Matrix: (Units=1/GPa)
#
#
# Indices 1 2 3 4 5 6 
#
# 1 0.025976 0.006387 -0.004328 0.000000 0.000000 0.000000
# 2 0.006387 0.016895 -0.001856 0.000000 0.000000 0.000000
# 3 -0.004328 -0.001856 0.004155 0.000000 0.000000 0.000000
# 4 0.000000 0.000000 0.000000 0.110349 0.000000 0.000000
# 5 0.000000 0.000000 0.000000 0.000000 0.027642 0.000000
# 6 0.000000 0.000000 0.000000 0.000000 0.000000 0.226216
#
#
# Mechanical properties :
#
#
# Convention : Reuss Voigt Hill
#
# Bulk Modulus (GPa) = 21.08177 55.98933 38.53555
# Shear Modulus (GPa) = 11.71954 34.15107 22.93530
#
# Velocity S-wave (km/s) = 2.16921 3.70295 3.03457
# Velocity P-wave (km/s) = 3.83906 6.38455 5.26786
#
# Compressibility (1/GPa) = 0.04743434
#
# Stress axis : x y z
#
# Youngs Moduli (GPa) = 38.49640 59.18962 240.65950
#
# Poissons Ratio (x) = -0.37806 1.04154
# Poissons Ratio (y) = -0.24589 0.44656
# Poissons Ratio (z) = 0.16661 0.10983
#
# Static dielectric constant tensor:
#      x y z
#    x 1.986480 0.000000 0.000000 
#    y 0.000000 2.022610 0.000000 
#    z 0.000000 0.000000 2.069870 
# 
# From -- ./inp_files/757.got.cif
#   From: 2010.05.17/outbox.cif.g08.bks.cpg/sg54_1_cif.got.tgz:757.got - 2010.06.03 13:09:01.
