data_PCOD9420442
_publ_section_title
;
Structure prediction by ZEFSAII (Michael W. Deem and Ramdas Pophale) SiO2 
 PCOD9420442
Probable space group: P C C A
;
_chemical_formula_sum "Si O2"
_cell_formula_units_Z 44
_cell_length_a 15.112160
_cell_length_b 9.002516
_cell_length_c 17.590693
_cell_angle_alpha 90.000000
_cell_angle_beta 90.000000
_cell_angle_gamma 90.000000
_cell_volume 2393.169141
_symmetry_space_group_name_H-M "P C C A"
_symmetry_group_IT_number 54
_symmetry_cell_setting 'orthorhombic'
loop_
_space_group_symop_operation_xyz
x,y,z
1/2-x,-y,z
1/2+x,-y,1/2-z
-x,y,1/2-z
-x,-y,-z
1/2+x,y,-z
1/2-x,y,1/2+z
x,-y,1/2+z
loop_
_atom_site_type_symbol
_atom_site_label
_atom_site_fract_x
_atom_site_fract_y
_atom_site_fract_z
Si Si1 0.044373 0.656598 0.975001
Si Si2 0.630090 0.241035 0.369554
Si Si3 0.143016 0.731073 0.504358
Si Si4 0.500000 0.343632 0.250000
Si Si5 0.750000 0.500000 0.892198
Si Si6 0.647117 0.527042 0.641346
Si Si7 0.750000 0.000000 0.930366
O O1 0.107915 0.614202 0.905653
O O2 0.098861 0.720054 0.045188
O O3 0.000000 0.500000 0.000000
O O4 0.956812 0.755519 0.965084
O O5 0.548478 0.245364 0.313221
O O6 0.693810 0.378660 0.347103
O O7 0.682885 0.089775 0.376827
O O8 0.186831 0.599768 0.554657
O O9 0.143906 0.665672 0.418855
O O10 0.199672 0.878173 0.518660
O O11 0.424296 0.438562 0.293137
O O12 0.750000 0.500000 0.661894
#
# Coordination Sequence:
#
# PCOD9420442 Si02
#       7
#     8   8   8   4   4   8   4
#     4  10  17  35  63  89 114 142 196 264 294 338
#     4  11  21  38  59  88 119 155 197 242 297 356
#     4  10  17  35  60  93 113 143 195 256 298 339
#     4  12  24  36  56  84 130 164 188 236 308 366
#     4  10  16  32  64  86 114 140 192 254 288 342
#     4  11  20  37  61  94 120 151 199 255 306 353
#     4  10  24  36  62  88 110 158 208 244 298 354
#
# _framework density 18.385663999999998
#
# number of rings (size 3 to 8) (size 9 to 14) (size 15 to 20)
#    0.000    1.455    8.182    1.091    1.273    0.727 
#    0.000    0.909    4.000    2.182    0.000    0.000 
#    0.000    0.000    0.000    0.000    0.000    0.000 
#
# Total GULP energy -245274.908925 kJ/mol
# GULP energy per Si atom -5574.429748 kJ/mol
# Density = 1.834382 g / cm^3
# Si number density = 18.385664 Si / 1000 Ang^3
#
#
#
# Elastic Constant Matrix: (Units=GPa)
#
#
# Indices 1 2 3 4 5 6 
#
# 1 154.3009 44.1148 55.2888 0.0000 0.0000 0.0000
# 2 44.1148 81.6219 26.9382 0.0000 0.0000 0.0000
# 3 55.2888 26.9382 84.8907 0.0000 0.0000 0.0000
# 4 0.0000 0.0000 0.0000 -5.6073 0.0000 0.0000
# 5 0.0000 0.0000 0.0000 0.0000 35.8744 0.0000
# 6 0.0000 0.0000 0.0000 0.0000 0.0000 36.9541
#
#
#
# Elastic Compliance Matrix: (Units=1/GPa)
#
#
# Indices 1 2 3 4 5 6 
#
# 1 0.009206 -0.003347 -0.004933 0.000000 0.000000 0.000000
# 2 -0.003347 0.014902 -0.002549 0.000000 0.000000 0.000000
# 3 -0.004933 -0.002549 0.015802 0.000000 0.000000 0.000000
# 4 0.000000 0.000000 0.000000 -0.178338 0.000000 0.000000
# 5 0.000000 0.000000 0.000000 0.000000 0.027875 0.000000
# 6 0.000000 0.000000 0.000000 0.000000 0.000000 0.027061
#
#
# Mechanical properties :
#
#
# Convention : Reuss Voigt Hill
#
# Bulk Modulus (GPa) = 54.79308 63.72192 59.25750
# Shear Modulus (GPa) = -89.68420 26.40900 -31.63760
#
# Velocity S-wave (km/s) = -6.99180 3.79409 -4.15272
# Velocity P-wave (km/s) = 5.94253 7.34351 3.05070
#
# Compressibility (1/GPa) = 0.01825048
#
# Stress axis : x y z
#
# Youngs Moduli (GPa) = 108.63048 67.10563 63.28425
#
# Poissons Ratio (x) = 0.22462 0.31220
# Poissons Ratio (y) = 0.36361 0.16130
# Poissons Ratio (z) = 0.53591 0.17104
#
# Static dielectric constant tensor:
#      x y z
#    x 1.730380 0.000000 0.000000 
#    y 0.000000 1.629070 0.000000 
#    z 0.000000 0.000000 1.649320 
# 
# From -- ./inp_files/17942.got.cif
#   From: 2010.05.17/outbox.cif.g08.bks.cpg/sg54_9_cif.got.tgz:17942.got - 2010.06.03 13:09:01.
