data_PCOD9420761
_publ_section_title
;
Structure prediction by ZEFSAII (Michael W. Deem and Ramdas Pophale) SiO2 
 PCOD9420761
Probable space group: P C C A
;
_chemical_formula_sum "Si O2"
_cell_formula_units_Z 36
_cell_length_a 16.404259
_cell_length_b 6.969050
_cell_length_c 11.587532
_cell_angle_alpha 90.000000
_cell_angle_beta 90.000000
_cell_angle_gamma 90.000000
_cell_volume 1324.711006
_symmetry_space_group_name_H-M "P C C A"
_symmetry_group_IT_number 54
_symmetry_cell_setting 'orthorhombic'
loop_
_space_group_symop_operation_xyz
x,y,z
1/2-x,-y,z
1/2+x,-y,1/2-z
-x,y,1/2-z
-x,-y,-z
1/2+x,y,-z
1/2-x,y,1/2+z
x,-y,1/2+z
loop_
_atom_site_type_symbol
_atom_site_label
_atom_site_fract_x
_atom_site_fract_y
_atom_site_fract_z
Si Si1 0.611500 0.226204 0.148907
Si Si2 0.750000 0.000000 0.006788
Si Si3 0.388021 0.809042 0.264203
Si Si4 0.498867 0.777736 0.044483
Si Si5 0.718818 0.692045 0.837178
O O1 0.648877 0.361755 0.246560
O O2 0.589753 0.034311 0.220262
O O3 0.684930 0.137235 0.070309
O O4 0.540212 0.313480 0.070405
O O5 0.801829 0.142422 0.926016
O O6 0.435550 0.747686 0.149521
O O7 0.417908 0.730118 0.388230
O O8 0.293623 0.777204 0.238215
O O9 0.500000 0.000000 0.000000
O O10 0.750000 0.500000 0.897046
#
# Coordination Sequence:
#
# PCOD9420761 Si02
#       5
#     8   4   8   8   8
#     4  11  19  38  62  88 120 162 212 254 313 374
#     4  12  20  40  62  86 124 166 208 260 316 372
#     4  10  18  37  57  91 123 159 206 263 306 373
#     4   9  19  32  63  88 119 164 208 249 317 380
#     4  12  24  37  61  95 127 160 209 266 311 373
#
# _framework density 27.175736000000001
#
# number of rings (size 3 to 8) (size 9 to 14) (size 15 to 20)
#    0.000    1.333    6.667    0.000    0.000    0.889 
#    0.000    1.111    0.000   24.000    0.000    0.000 
#    0.000    0.000    0.000    0.000    0.000    0.000 
#
# Total GULP energy -201268.404880 kJ/mol
# GULP energy per Si atom -5590.789024 kJ/mol
# Density = 2.711388 g / cm^3
# Si number density = 27.175736 Si / 1000 Ang^3
#
#
#
# Elastic Constant Matrix: (Units=GPa)
#
#
# Indices 1 2 3 4 5 6 
#
# 1 79.1546 -17.8701 44.8751 0.0000 0.0000 0.0000
# 2 -17.8701 84.2962 24.3974 0.0000 0.0000 0.0000
# 3 44.8751 24.3974 102.6474 0.0000 0.0000 0.0000
# 4 0.0000 0.0000 0.0000 23.6469 0.0000 0.0000
# 5 0.0000 0.0000 0.0000 0.0000 84.4234 0.0000
# 6 0.0000 0.0000 0.0000 0.0000 0.0000 21.6187
#
#
#
# Elastic Compliance Matrix: (Units=1/GPa)
#
#
# Indices 1 2 3 4 5 6 
#
# 1 0.020341 0.007394 -0.010650 0.000000 0.000000 0.000000
# 2 0.007394 0.015427 -0.006899 0.000000 0.000000 0.000000
# 3 -0.010650 -0.006899 0.016038 0.000000 0.000000 0.000000
# 4 0.000000 0.000000 0.000000 0.042289 0.000000 0.000000
# 5 0.000000 0.000000 0.000000 0.000000 0.011845 0.000000
# 6 0.000000 0.000000 0.000000 0.000000 0.000000 0.046256
#
#
# Mechanical properties :
#
#
# Convention : Reuss Voigt Hill
#
# Bulk Modulus (GPa) = 31.75023 40.98925 36.36974
# Shear Modulus (GPa) = 27.32166 40.25084 33.78625
#
# Velocity S-wave (km/s) = 3.17420 3.85272 3.52980
# Velocity P-wave (km/s) = 5.01425 5.90822 5.47950
#
# Compressibility (1/GPa) = 0.03149584
#
# Stress axis : x y z
#
# Youngs Moduli (GPa) = 49.16254 64.81988 62.35226
#
# Poissons Ratio (x) = -0.47931 0.66405
# Poissons Ratio (y) = -0.36353 0.43020
# Poissons Ratio (z) = 0.52358 0.44722
#
# Static dielectric constant tensor:
#      x y z
#    x 2.216440 0.000000 0.000000 
#    y 0.000000 2.144230 0.000000 
#    z 0.000000 0.000000 2.130770 
# 
# From -- ./inp_files/9348.got.cif
#   From: 2010.05.17/outbox.cif.g08.bks.cpg/sg54_5_cif.got.tgz:9348.got - 2010.06.03 13:09:01.
