data_PCOD9420237
_publ_section_title
;
Structure prediction by ZEFSAII (Michael W. Deem and Ramdas Pophale) SiO2 
 PCOD9420237
Probable space group: P M N A
;
_chemical_formula_sum "Si O2"
_cell_formula_units_Z 48
_cell_length_a 9.000000
_cell_length_b 30.000000
_cell_length_c 9.000000
_cell_angle_alpha 90.000000
_cell_angle_beta 90.000000
_cell_angle_gamma 90.000000
_cell_volume 2430.000000
_symmetry_space_group_name_H-M "P M N A"
_symmetry_group_IT_number 53
_symmetry_cell_setting 'orthorhombic'
loop_
_space_group_symop_operation_xyz
x,y,z
1/2-x,-y,1/2+z
x,-y,-z
1/2-x,y,1/2-z
-x,-y,-z
1/2+x,y,1/2-z
-x,y,z
1/2+x,-y,1/2+z
loop_
_atom_site_type_symbol
_atom_site_label
_atom_site_fract_x
_atom_site_fract_y
_atom_site_fract_z
Si Si1 0.500000 0.951928 0.074273
Si Si2 0.821393 0.812131 0.407300
Si Si3 0.500000 0.048304 0.573821
Si Si4 0.321645 0.709552 0.094738
Si Si5 0.821717 0.542937 0.407712
Si Si6 0.250290 0.104723 0.425002
Si Si7 0.678336 0.372036 0.094277
O O1 0.500000 0.956603 0.250212
O O2 0.374588 0.921540 0.009427
O O3 0.500000 0.000000 0.000000
O O4 0.750000 0.825928 0.250000
O O5 0.780898 0.760731 0.433520
O O6 0.760326 0.843628 0.535310
O O7 0.000000 0.815881 0.399005
O O8 0.375181 0.078956 0.509134
O O9 0.500000 0.000000 0.500000
O O10 0.250000 0.695707 0.250000
O O11 0.500000 0.707375 0.108647
O O12 0.273906 0.675757 0.967991
O O13 0.774608 0.500000 0.500000
O O14 0.750000 0.539768 0.250000
O O15 0.776821 0.589024 0.483132
O O16 0.000000 0.542540 0.397635
O O17 0.250000 0.097714 0.250000
O O18 0.750000 0.381533 0.250000
O O19 0.500000 0.372259 0.106455
#
# Coordination Sequence:
#
# PCOD9420237 Si02
#       7
#     4   8   4   8   8   8   8
#     4  12  24  44  66  88 120 156 194 238 287 342
#     4  10  21  39  62  88 118 155 195 240 291 349
#     4  12  26  44  66  92 120 156 196 238 287 348
#     4   9  19  36  58  84 114 149 193 239 287 345
#     4  10  21  36  55  82 114 150 195 245 297 355
#     4  12  25  41  62  91 122 155 193 239 290 345
#     4  10  21  36  55  81 115 154 195 244 294 349
#
# _framework density 19.753086
#
# number of rings (size 3 to 8) (size 9 to 14) (size 15 to 20)
#    0.000    1.500    0.833    4.500    1.167    2.333 
#    0.000    0.000    0.000    0.000    0.000    0.000 
#    0.000    0.000    0.000    0.000    0.000    0.000 
#
# Total GULP energy -267268.431932 kJ/mol
# GULP energy per Si atom -5568.092332 kJ/mol
# Density = 1.970813 g / cm^3
# Si number density = 19.753086 Si / 1000 Ang^3
#
#
#
# Elastic Constant Matrix: (Units=GPa)
#
#
# Indices 1 2 3 4 5 6 
#
# 1 54.2917 30.3907 40.2496 0.0000 0.0000 0.0000
# 2 30.3907 74.2242 75.9144 0.0000 0.0000 0.0000
# 3 40.2496 75.9144 188.8797 0.0000 0.0000 0.0000
# 4 0.0000 0.0000 0.0000 39.3310 0.0000 0.0000
# 5 0.0000 0.0000 0.0000 0.0000 32.2143 0.0000
# 6 0.0000 0.0000 0.0000 0.0000 0.0000 -40.1341
#
#
#
# Elastic Compliance Matrix: (Units=1/GPa)
#
#
# Indices 1 2 3 4 5 6 
#
# 1 0.024335 -0.007913 -0.002005 0.000000 0.000000 0.000000
# 2 -0.007913 0.025450 -0.008542 0.000000 0.000000 0.000000
# 3 -0.002005 -0.008542 0.009155 0.000000 0.000000 0.000000
# 4 0.000000 0.000000 0.000000 0.025425 0.000000 0.000000
# 5 0.000000 0.000000 0.000000 0.000000 0.031042 0.000000
# 6 0.000000 0.000000 0.000000 0.000000 0.000000 -0.024916
#
#
# Mechanical properties :
#
#
# Convention : Reuss Voigt Hill
#
# Bulk Modulus (GPa) = 45.41664 67.83389 56.62527
# Shear Modulus (GPa) = 37.10533 17.67162 27.38848
#
# Velocity S-wave (km/s) = 4.33882 2.99427 3.72767
# Velocity P-wave (km/s) = 6.93848 6.80953 6.87431
#
# Compressibility (1/GPa) = 0.02201836
#
# Stress axis : x y z
#
# Youngs Moduli (GPa) = 41.09294 39.29342 109.22867
#
# Poissons Ratio (x) = 0.31092 0.21905
# Poissons Ratio (y) = 0.32516 0.93308
# Poissons Ratio (z) = 0.08241 0.33566
#
# Static dielectric constant tensor:
#      x y z
#    x 1.661990 0.000000 0.000000 
#    y 0.000000 1.681680 0.000000 
#    z 0.000000 0.000000 1.630050 
# 
# From -- ./inp_files/6852.got.cif
#   From: 2010.05.17/outbox.ucp.g08.bks.cvg/sg53_4_cif.got.tgz:6852.got - 2010.06.11 16:32:34.
