data_PCOD9420037
_publ_section_title
;
Structure prediction by ZEFSAII (Michael W. Deem and Ramdas Pophale) SiO2 
 PCOD9420037
Probable space group: P M N A
;
_chemical_formula_sum "Si O2"
_cell_formula_units_Z 40
_cell_length_a 7.342746
_cell_length_b 15.944755
_cell_length_c 13.336912
_cell_angle_alpha 90.000000
_cell_angle_beta 90.000000
_cell_angle_gamma 90.000000
_cell_volume 1561.462797
_symmetry_space_group_name_H-M "P M N A"
_symmetry_group_IT_number 53
_symmetry_cell_setting 'orthorhombic'
loop_
_space_group_symop_operation_xyz
x,y,z
1/2-x,-y,1/2+z
x,-y,-z
1/2-x,y,1/2-z
-x,-y,-z
1/2+x,y,1/2-z
-x,y,z
1/2+x,-y,1/2+z
loop_
_atom_site_type_symbol
_atom_site_label
_atom_site_fract_x
_atom_site_fract_y
_atom_site_fract_z
Si Si1 0.792703 0.480868 0.381285
Si Si2 0.277811 0.879767 0.922451
Si Si3 0.782532 0.338911 0.644179
Si Si4 0.277503 0.300624 0.080381
Si Si5 0.216506 0.061041 0.639224
O O1 0.804540 0.500000 0.500000
O O2 0.703009 0.566906 0.346117
O O3 0.712761 0.387816 0.370711
O O4 0.000000 0.476560 0.342137
O O5 0.500000 0.878796 0.920066
O O6 0.218218 0.789923 0.880240
O O7 0.215865 0.964692 0.868402
O O8 0.220984 0.890754 0.039460
O O9 0.750000 0.294141 0.750000
O O10 0.722949 0.302844 0.537573
O O11 0.000000 0.346061 0.633986
O O12 0.500000 0.304188 0.083845
O O13 0.250000 0.095014 0.750000
O O14 0.000000 0.057802 0.627712
#
# Coordination Sequence:
#
# PCOD9420037 Si02
#       5
#     8   8   8   8   8
#     4   7  11  21  37  55  73  97 131 164 189 221
#     4   8  15  28  45  64  86 114 146 177 211 255
#     4   9  16  25  39  60  83 105 132 168 207 244
#     4   8  13  24  43  61  76 102 142 176 197 231
#     4   9  17  30  47  66  88 113 142 176 215 258
#
# _framework density 25.617004000000001
#
# number of rings (size 3 to 8) (size 9 to 14) (size 15 to 20)
#    0.000    3.800    0.000    3.600    0.000    0.800 
#    0.000    3.000    0.000    6.600    0.000    0.000 
#    0.000    0.000    0.000    0.000    0.000    0.000 
#
# Total GULP energy -223039.214950 kJ/mol
# GULP energy per Si atom -5575.980374 kJ/mol
# Density = 2.555870 g / cm^3
# Si number density = 25.617004 Si / 1000 Ang^3
#
#
#
# Elastic Constant Matrix: (Units=GPa)
#
#
# Indices 1 2 3 4 5 6 
#
# 1 99.4926 6.0516 -7.9765 0.0000 0.0000 0.0000
# 2 6.0516 176.7127 -7.2765 0.0000 0.0000 0.0000
# 3 -7.9765 -7.2765 90.1523 0.0000 0.0000 0.0000
# 4 0.0000 0.0000 0.0000 -5.6689 0.0000 0.0000
# 5 0.0000 0.0000 0.0000 0.0000 10.3479 0.0000
# 6 0.0000 0.0000 0.0000 0.0000 0.0000 -19.6615
#
#
#
# Elastic Compliance Matrix: (Units=1/GPa)
#
#
# Indices 1 2 3 4 5 6 
#
# 1 0.010140 -0.000311 0.000872 0.000000 0.000000 0.000000
# 2 -0.000311 0.005687 0.000432 0.000000 0.000000 0.000000
# 3 0.000872 0.000432 0.011204 0.000000 0.000000 0.000000
# 4 0.000000 0.000000 0.000000 -0.176401 0.000000 0.000000
# 5 0.000000 0.000000 0.000000 0.000000 0.096638 0.000000
# 6 0.000000 0.000000 0.000000 0.000000 0.000000 -0.050861
#
#
# Mechanical properties :
#
#
# Convention : Reuss Voigt Hill
#
# Bulk Modulus (GPa) = 34.46389 38.66163 36.56276
# Shear Modulus (GPa) = -52.13522 22.04077 -15.04723
#
# Velocity S-wave (km/s) = -4.51619 2.93643 -2.42625
# Velocity P-wave (km/s) = 3.70296 5.15963 2.54066
#
# Compressibility (1/GPa) = 0.02901588
#
# Stress axis : x y z
#
# Youngs Moduli (GPa) = 98.62082 175.82930 89.25130
#
# Poissons Ratio (x) = 0.05474 -0.07783
# Poissons Ratio (y) = 0.03070 -0.03851
# Poissons Ratio (z) = -0.08600 -0.07587
#
# Static dielectric constant tensor:
#      x y z
#    x 1.986100 0.000000 0.000000 
#    y 0.000000 2.031880 0.000000 
#    z 0.000000 0.000000 2.029110 
# 
# From -- ./inp_files/14796.got.cif
#   From: 2010.05.17/outbox.cif.g08.bks.cpg/sg53_8_cif.got.tgz:14796.got - 2010.06.03 12:45:16.
