data_PCOD9420375
_publ_section_title
;
Structure prediction by ZEFSAII (Michael W. Deem and Ramdas Pophale) SiO2 
 PCOD9420375
Probable space group: P C C A
;
_chemical_formula_sum "Si O2"
_cell_formula_units_Z 24
_cell_length_a 5.037537
_cell_length_b 7.071998
_cell_length_c 30.549527
_cell_angle_alpha 90.000000
_cell_angle_beta 90.000000
_cell_angle_gamma 90.000000
_cell_volume 1088.340695
_symmetry_space_group_name_H-M "P C C A"
_symmetry_group_IT_number 54
_symmetry_cell_setting 'orthorhombic'
loop_
_space_group_symop_operation_xyz
x,y,z
1/2-x,-y,z
1/2+x,-y,1/2-z
-x,y,1/2-z
-x,-y,-z
1/2+x,y,-z
1/2-x,y,1/2+z
x,-y,1/2+z
loop_
_atom_site_type_symbol
_atom_site_label
_atom_site_fract_x
_atom_site_fract_y
_atom_site_fract_z
Si Si1 0.500000 0.862310 0.250000
Si Si2 0.260992 0.227278 0.889002
Si Si3 0.250000 0.500000 0.468374
Si Si4 0.743739 0.771375 0.835568
O O1 0.369249 0.734996 0.211989
O O2 0.250000 0.000000 0.264866
O O3 0.216452 0.323938 0.935316
O O4 0.548404 0.288979 0.872146
O O5 0.046525 0.283457 0.851741
O O6 0.250000 0.000000 0.892765
O O7 0.500000 0.500000 0.500000
O O8 0.750000 0.000000 0.835286
#
# Coordination Sequence:
#
# PCOD9420375 Si02
#       4
#     4   8   4   8
#     4  10  16  26  50  88 124 152 194 234 264 328
#     4  10  21  38  59  84 115 150 187 232 287 343
#     4  12  26  42  62  86 110 146 194 246 304 356
#     4   9  17  31  54  85 118 153 189 226 274 330
#
# _framework density 22.051918000000001
#
# number of rings (size 3 to 8) (size 9 to 14) (size 15 to 20)
#    0.000    2.000    0.000    7.000    0.000    1.333 
#    0.000    0.000    0.000    4.000    0.000    9.333 
#    0.000    0.000    0.000    0.000    0.000    0.000 
#
# Total GULP energy -133963.803048 kJ/mol
# GULP energy per Si atom -5581.825127 kJ/mol
# Density = 2.200173 g / cm^3
# Si number density = 22.051918 Si / 1000 Ang^3
#
#
#
# Elastic Constant Matrix: (Units=GPa)
#
#
# Indices 1 2 3 4 5 6 
#
# 1 136.8080 0.8145 45.7230 0.0000 0.0000 0.0000
# 2 0.8145 85.2155 21.0970 0.0000 0.0000 0.0000
# 3 45.7230 21.0970 157.6373 0.0000 0.0000 0.0000
# 4 0.0000 0.0000 0.0000 86.8327 0.0000 0.0000
# 5 0.0000 0.0000 0.0000 0.0000 24.2992 0.0000
# 6 0.0000 0.0000 0.0000 0.0000 0.0000 6.7667
#
#
#
# Elastic Compliance Matrix: (Units=1/GPa)
#
#
# Indices 1 2 3 4 5 6 
#
# 1 0.008117 0.000523 -0.002424 0.000000 0.000000 0.000000
# 2 0.000523 0.012171 -0.001780 0.000000 0.000000 0.000000
# 3 -0.002424 -0.001780 0.007285 0.000000 0.000000 0.000000
# 4 0.000000 0.000000 0.000000 0.011516 0.000000 0.000000
# 5 0.000000 0.000000 0.000000 0.000000 0.041154 0.000000
# 6 0.000000 0.000000 0.000000 0.000000 0.000000 0.147783
#
#
# Mechanical properties :
#
#
# Convention : Reuss Voigt Hill
#
# Bulk Modulus (GPa) = 49.48436 57.21442 53.34939
# Shear Modulus (GPa) = 20.65044 44.38148 32.51596
#
# Velocity S-wave (km/s) = 3.06346 4.49106 3.84411
# Velocity P-wave (km/s) = 5.91622 7.27286 6.62933
#
# Compressibility (1/GPa) = 0.02020841
#
# Stress axis : x y z
#
# Youngs Moduli (GPa) = 123.20441 82.16426 137.26671
#
# Poissons Ratio (x) = -0.04294 0.33276
# Poissons Ratio (y) = -0.06438 0.24439
# Poissons Ratio (z) = 0.29867 0.14629
#
# Static dielectric constant tensor:
#      x y z
#    x 1.795420 0.000000 0.000000 
#    y 0.000000 1.865980 0.000000 
#    z 0.000000 0.000000 1.801910 
# 
# From -- ./inp_files/22555.got.cif
#   From: 2010.05.17/outbox.cif.g08.bks.cpg/sg54_12_cif.got.tgz:22555.got - 2010.06.03 13:09:01.
