data_PCOD9420840
_publ_section_title
;
Structure prediction by ZEFSAII (Michael W. Deem and Ramdas Pophale) SiO2 
 PCOD9420840
Probable space group: P C C A
;
_chemical_formula_sum "Si O2"
_cell_formula_units_Z 60
_cell_length_a 27.231323
_cell_length_b 21.339738
_cell_length_c 5.225588
_cell_angle_alpha 90.000000
_cell_angle_beta 90.000000
_cell_angle_gamma 90.000000
_cell_volume 3036.637775
_symmetry_space_group_name_H-M "P C C A"
_symmetry_group_IT_number 54
_symmetry_cell_setting 'orthorhombic'
loop_
_space_group_symop_operation_xyz
x,y,z
1/2-x,-y,z
1/2+x,-y,1/2-z
-x,y,1/2-z
-x,-y,-z
1/2+x,y,-z
1/2-x,y,1/2+z
x,-y,1/2+z
loop_
_atom_site_type_symbol
_atom_site_label
_atom_site_fract_x
_atom_site_fract_y
_atom_site_fract_z
Si Si1 0.572048 0.339872 0.130982
Si Si2 0.880670 0.286748 0.154541
Si Si3 0.439475 0.526574 0.100092
Si Si4 0.553090 0.171503 0.619457
Si Si5 0.676812 0.471942 0.778506
Si Si6 0.000000 0.755818 0.250000
Si Si7 0.717259 0.342697 0.576013
Si Si8 0.443576 0.025830 0.964721
O O1 0.590422 0.321939 0.417872
O O2 0.526521 0.293971 0.065997
O O3 0.612733 0.323673 0.920229
O O4 0.556945 0.410252 0.066634
O O5 0.903983 0.218085 0.203035
O O6 0.823695 0.288609 0.087727
O O7 0.457984 0.525235 0.394029
O O8 0.381045 0.518577 0.164323
O O9 0.500000 0.183508 0.750000
O O10 0.542409 0.197216 0.335587
O O11 0.559600 0.097509 0.621217
O O12 0.696620 0.522228 0.569288
O O13 0.687627 0.407045 0.635758
O O14 0.743471 0.340183 0.303845
O O15 0.420970 0.983746 0.742548
O O16 0.500000 0.000000 0.000000
#
# Coordination Sequence:
#
# PCOD9420840 Si02
#       8
#     8   8   8   8   8   4   8   8
#     4  11  21  37  57  77 110 136 193 233 292 335
#     4  11  24  38  58  83 112 149 196 232 280 348
#     4  10  20  34  54  75  98 135 174 229 292 347
#     4  11  20  35  58  86 122 158 190 225 271 332
#     4  10  21  34  55  79 102 129 172 226 296 375
#     4  10  22  34  54  84 108 154 192 244 266 334
#     4  12  25  40  58  77 111 144 184 239 296 342
#     4  10  19  30  51  82 125 159 180 210 267 325
#
# _framework density 19.758693999999998
#
# number of rings (size 3 to 8) (size 9 to 14) (size 15 to 20)
#    0.000    1.333    4.000    3.200    3.733    1.600 
#    0.000    0.667    0.000    0.000    0.000    0.000 
#    0.000    3.200    0.000    0.000    0.000    0.000 
#
# Total GULP energy -334344.883119 kJ/mol
# GULP energy per Si atom -5572.414719 kJ/mol
# Density = 1.971372 g / cm^3
# Si number density = 19.758694 Si / 1000 Ang^3
#
#
#
# Elastic Constant Matrix: (Units=GPa)
#
#
# Indices 1 2 3 4 5 6 
#
# 1 43.0897 10.1401 6.3238 0.0000 0.0000 0.0000
# 2 10.1401 90.3540 15.4138 0.0000 0.0000 0.0000
# 3 6.3238 15.4138 98.3950 0.0000 0.0000 0.0000
# 4 0.0000 0.0000 0.0000 19.0618 0.0000 0.0000
# 5 0.0000 0.0000 0.0000 0.0000 27.9557 0.0000
# 6 0.0000 0.0000 0.0000 0.0000 0.0000 14.7187
#
#
#
# Elastic Compliance Matrix: (Units=1/GPa)
#
#
# Indices 1 2 3 4 5 6 
#
# 1 0.023963 -0.002493 -0.001150 0.000000 0.000000 0.000000
# 2 -0.002493 0.011631 -0.001662 0.000000 0.000000 0.000000
# 3 -0.001150 -0.001662 0.010497 0.000000 0.000000 0.000000
# 4 0.000000 0.000000 0.000000 0.052461 0.000000 0.000000
# 5 0.000000 0.000000 0.000000 0.000000 0.035771 0.000000
# 6 0.000000 0.000000 0.000000 0.000000 0.000000 0.067941
#
#
# Mechanical properties :
#
#
# Convention : Reuss Voigt Hill
#
# Bulk Modulus (GPa) = 28.18322 32.84380 30.51351
# Shear Modulus (GPa) = 22.25191 25.67797 23.96494
#
# Velocity S-wave (km/s) = 3.35951 3.60888 3.48642
# Velocity P-wave (km/s) = 5.41692 5.83300 5.62881
#
# Compressibility (1/GPa) = 0.03548211
#
# Stress axis : x y z
#
# Youngs Moduli (GPa) = 41.73129 85.97815 95.26241
#
# Poissons Ratio (x) = 0.21436 0.10951
# Poissons Ratio (y) = 0.10404 0.15830
# Poissons Ratio (z) = 0.04797 0.14288
#
# Static dielectric constant tensor:
#      x y z
#    x 1.175930 0.000000 0.000000 
#    y 0.000000 1.704310 0.000000 
#    z 0.000000 0.000000 -9.733030 
# 
# From -- ./inp_files/2227.got.cif
#   From: 2010.05.17/outbox.cif.g08.bks.cpg/sg54_2_cif.got.tgz:2227.got - 2010.06.03 13:09:01.
