data_PCOD9420128
_publ_section_title
;
Structure prediction by ZEFSAII (Michael W. Deem and Ramdas Pophale) SiO2 
 PCOD9420128
Probable space group: P M N A
;
_chemical_formula_sum "Si O2"
_cell_formula_units_Z 48
_cell_length_a 9.000000
_cell_length_b 15.000000
_cell_length_c 18.000000
_cell_angle_alpha 90.000000
_cell_angle_beta 90.000000
_cell_angle_gamma 90.000000
_cell_volume 2430.000000
_symmetry_space_group_name_H-M "P M N A"
_symmetry_group_IT_number 53
_symmetry_cell_setting 'orthorhombic'
loop_
_space_group_symop_operation_xyz
x,y,z
1/2-x,-y,1/2+z
x,-y,-z
1/2-x,y,1/2-z
-x,-y,-z
1/2+x,y,1/2-z
-x,y,z
1/2+x,-y,1/2+z
loop_
_atom_site_type_symbol
_atom_site_label
_atom_site_fract_x
_atom_site_fract_y
_atom_site_fract_z
Si Si1 0.177420 0.300198 0.956015
Si Si2 0.678174 0.392188 0.090267
Si Si3 0.179552 0.906936 0.039869
Si Si4 0.323345 0.436286 0.669244
Si Si5 0.320955 0.779312 0.668647
Si Si6 0.176722 0.975032 0.829545
O O1 0.226528 0.196852 0.968668
O O2 0.195531 0.342466 0.874311
O O3 0.000000 0.303833 0.974095
O O4 0.266269 0.369065 0.007781
O O5 0.500000 0.396380 0.095128
O O6 0.749720 0.481499 0.124078
O O7 0.743076 0.305288 0.132432
O O8 0.000000 0.905044 0.028138
O O9 0.214325 0.937958 0.123668
O O10 0.230859 0.000000 0.000000
O O11 0.250000 0.433367 0.750000
O O12 0.500000 0.453551 0.674770
O O13 0.250000 0.785108 0.750000
O O14 0.500000 0.767491 0.669857
O O15 0.288782 0.877574 0.633694
O O16 0.250000 0.978078 0.750000
O O17 0.000000 0.973337 0.821024
#
# Coordination Sequence:
#
# PCOD9420128 Si02
#       6
#     8   8   8   8   8   8
#     4  10  22  40  62  87 116 153 194 236 284 340
#     4  12  24  38  59  86 116 150 191 240 293 345
#     4   9  17  33  58  85 112 147 192 234 275 330
#     4  11  24  42  63  87 117 152 192 235 283 341
#     4  10  19  33  54  82 117 154 194 240 291 345
#     4   9  18  32  53  80 111 149 189 233 284 340
#
# _framework density 19.753086
#
# number of rings (size 3 to 8) (size 9 to 14) (size 15 to 20)
#    0.000    1.833    0.000    4.500    0.000    7.333 
#    0.000    0.833    0.000    2.000    0.000    0.000 
#    0.000    0.000    0.000    0.000    0.000    0.000 
#
# Total GULP energy -267584.829455 kJ/mol
# GULP energy per Si atom -5574.683947 kJ/mol
# Density = 1.970813 g / cm^3
# Si number density = 19.753086 Si / 1000 Ang^3
#
#
#
# Elastic Constant Matrix: (Units=GPa)
#
#
# Indices 1 2 3 4 5 6 
#
# 1 79.8508 45.6683 40.1607 0.0000 0.0000 0.0000
# 2 45.6683 124.2124 62.5363 0.0000 0.0000 0.0000
# 3 40.1607 62.5363 92.2029 0.0000 0.0000 0.0000
# 4 0.0000 0.0000 0.0000 45.4335 0.0000 0.0000
# 5 0.0000 0.0000 0.0000 0.0000 27.7709 0.0000
# 6 0.0000 0.0000 0.0000 0.0000 0.0000 21.4754
#
#
#
# Elastic Compliance Matrix: (Units=1/GPa)
#
#
# Indices 1 2 3 4 5 6 
#
# 1 0.017180 -0.003871 -0.004858 0.000000 0.000000 0.000000
# 2 -0.003871 0.013097 -0.007197 0.000000 0.000000 0.000000
# 3 -0.004858 -0.007197 0.017843 0.000000 0.000000 0.000000
# 4 0.000000 0.000000 0.000000 0.022010 0.000000 0.000000
# 5 0.000000 0.000000 0.000000 0.000000 0.036009 0.000000
# 6 0.000000 0.000000 0.000000 0.000000 0.000000 0.046565
#
#
# Mechanical properties :
#
#
# Convention : Reuss Voigt Hill
#
# Bulk Modulus (GPa) = 61.46661 65.88852 63.67757
# Shear Modulus (GPa) = 26.31857 28.79603 27.55730
#
# Velocity S-wave (km/s) = 3.65413 3.82226 3.73914
# Velocity P-wave (km/s) = 6.99919 7.27379 7.13781
#
# Compressibility (1/GPa) = 0.01626900
#
# Stress axis : x y z
#
# Youngs Moduli (GPa) = 58.20583 76.35074 56.04401
#
# Poissons Ratio (x) = 0.29554 0.27225
# Poissons Ratio (y) = 0.22531 0.40336
# Poissons Ratio (z) = 0.28276 0.54952
#
# Static dielectric constant tensor:
#      x y z
#    x 1.655100 0.000000 0.000000 
#    y 0.000000 1.691940 0.000000 
#    z 0.000000 0.000000 1.821280 
# 
# From -- ./inp_files/26263.got.cif
#   From: 2010.05.17/outbox.ucp.g08.bks.cvg/sg53_14_cif.got.tgz:26263.got - 2010.06.11 16:32:34.
