data_PCOD9420085
_publ_section_title
;
Structure prediction by ZEFSAII (Michael W. Deem and Ramdas Pophale) SiO2 
 PCOD9420085
Probable space group: P M N A
;
_chemical_formula_sum "Si O2"
_cell_formula_units_Z 64
_cell_length_a 9.000000
_cell_length_b 15.000000
_cell_length_c 30.000000
_cell_angle_alpha 90.000000
_cell_angle_beta 90.000000
_cell_angle_gamma 90.000000
_cell_volume 4050.000000
_symmetry_space_group_name_H-M "P M N A"
_symmetry_group_IT_number 53
_symmetry_cell_setting 'orthorhombic'
loop_
_space_group_symop_operation_xyz
x,y,z
1/2-x,-y,1/2+z
x,-y,-z
1/2-x,y,1/2-z
-x,-y,-z
1/2+x,y,1/2-z
-x,y,z
1/2+x,-y,1/2+z
loop_
_atom_site_type_symbol
_atom_site_label
_atom_site_fract_x
_atom_site_fract_y
_atom_site_fract_z
Si Si1 0.820747 0.624316 0.795932
Si Si2 0.824633 0.196162 0.458618
Si Si3 0.332441 0.983026 0.553139
Si Si4 0.180119 0.426984 0.704428
Si Si5 0.679613 0.495156 0.948327
Si Si6 0.179772 0.334199 0.613164
Si Si7 0.822855 0.341827 0.103732
Si Si8 0.178891 0.163940 0.562319
O O1 0.750000 0.662186 0.750000
O O2 0.749241 0.525730 0.800451
O O3 0.786893 0.670345 0.843609
O O4 0.000000 0.618410 0.791037
O O5 0.778099 0.099011 0.441377
O O6 0.735088 0.264789 0.428590
O O7 0.788284 0.197391 0.511638
O O8 0.000000 0.212957 0.454520
O O9 0.500000 0.964081 0.568854
O O10 0.340388 0.000000 0.500000
O O11 0.262961 0.072823 0.571789
O O12 0.250000 0.390031 0.750000
O O13 0.225065 0.370174 0.661245
O O14 0.000000 0.432449 0.707028
O O15 0.500000 0.503612 0.947502
O O16 0.723147 0.402295 0.925809
O O17 0.747529 0.570311 0.916719
O O18 0.726167 0.500000 0.000000
O O19 0.226811 0.237112 0.597980
O O20 0.000000 0.333850 0.613592
O O21 0.000000 0.350079 0.100812
O O22 0.000000 0.150974 0.563612
#
# Coordination Sequence:
#
# PCOD9420085 Si02
#       8
#     8   8   8   8   8   8   8   8
#     4  10  20  33  49  68  91 121 158 200 244 286
#     4  10  19  31  50  71  94 127 164 198 230 278
#     4   9  17  30  47  69  97 125 154 193 242 284
#     4  10  18  30  48  67  90 120 156 199 244 281
#     4  10  19  32  48  65  91 130 170 198 225 272
#     4   9  17  29  46  68  92 122 158 197 234 272
#     4  11  22  33  46  69  99 127 157 198 245 287
#     4   9  17  31  49  70  94 123 163 199 230 276
#
# _framework density 15.802469
#
# number of rings (size 3 to 8) (size 9 to 14) (size 15 to 20)
#    0.000    2.250    1.250    3.375    0.000    5.750 
#    0.000    1.875    0.000    0.000    0.000    0.875 
#    0.000    4.000    0.000    0.000    0.000    0.000 
#
# Total GULP energy -356582.365441 kJ/mol
# GULP energy per Si atom -5571.599460 kJ/mol
# Density = 1.576650 g / cm^3
# Si number density = 15.802469 Si / 1000 Ang^3
#
#
#
# Elastic Constant Matrix: (Units=GPa)
#
#
# Indices 1 2 3 4 5 6 
#
# 1 29.8176 -11.6019 7.9428 0.0000 0.0000 0.0000
# 2 -11.6019 18.5602 -19.0890 0.0000 0.0000 0.0000
# 3 7.9428 -19.0890 43.9204 0.0000 0.0000 0.0000
# 4 0.0000 0.0000 0.0000 6.9808 0.0000 0.0000
# 5 0.0000 0.0000 0.0000 0.0000 17.6895 0.0000
# 6 0.0000 0.0000 0.0000 0.0000 0.0000 5.2224
#
#
#
# Elastic Compliance Matrix: (Units=1/GPa)
#
#
# Indices 1 2 3 4 5 6 
#
# 1 0.045641 0.036241 0.007497 0.000000 0.000000 0.000000
# 2 0.036241 0.126208 0.048299 0.000000 0.000000 0.000000
# 3 0.007497 0.048299 0.042405 0.000000 0.000000 0.000000
# 4 0.000000 0.000000 0.000000 0.143249 0.000000 0.000000
# 5 0.000000 0.000000 0.000000 0.000000 0.056531 0.000000
# 6 0.000000 0.000000 0.000000 0.000000 0.000000 0.191482
#
#
# Mechanical properties :
#
#
# Convention : Reuss Voigt Hill
#
# Bulk Modulus (GPa) = 2.51048 5.20024 3.85536
# Shear Modulus (GPa) = 9.02173 13.64831 11.33502
#
# Velocity S-wave (km/s) = 2.39196 2.94204 2.68114
# Velocity P-wave (km/s) = 3.03657 3.85210 3.46839
#
# Compressibility (1/GPa) = 0.39832953
#
# Stress axis : x y z
#
# Youngs Moduli (GPa) = 21.90997 7.92342 23.58224
#
# Poissons Ratio (x) = -0.28715 -0.17680
# Poissons Ratio (y) = -0.79404 -1.13901
# Poissons Ratio (z) = -0.16426 -0.38270
#
# Static dielectric constant tensor:
#      x y z
#    x 1.535660 0.000000 0.000000 
#    y 0.000000 1.552520 0.000000 
#    z 0.000000 0.000000 1.531470 
# 
# From -- ./inp_files/38468.got.cif
#   From: 2010.05.17/outbox.ucp.g08.bks.cvg/sg53_20_cif.got.tgz:38468.got - 2010.06.11 16:32:34.
