data_PCOD9420291
_publ_section_title
;
Structure prediction by ZEFSAII (Michael W. Deem and Ramdas Pophale) SiO2 
 PCOD9420291
Probable space group: P M N A
;
_chemical_formula_sum "Si O2"
_cell_formula_units_Z 48
_cell_length_a 18.000000
_cell_length_b 12.000000
_cell_length_c 12.000000
_cell_angle_alpha 90.000000
_cell_angle_beta 90.000000
_cell_angle_gamma 90.000000
_cell_volume 2592.000000
_symmetry_space_group_name_H-M "P M N A"
_symmetry_group_IT_number 53
_symmetry_cell_setting 'orthorhombic'
loop_
_space_group_symop_operation_xyz
x,y,z
1/2-x,-y,1/2+z
x,-y,-z
1/2-x,y,1/2-z
-x,-y,-z
1/2+x,y,1/2-z
-x,y,z
1/2+x,-y,1/2+z
loop_
_atom_site_type_symbol
_atom_site_label
_atom_site_fract_x
_atom_site_fract_y
_atom_site_fract_z
Si Si1 0.909979 0.001987 0.128403
Si Si2 0.585844 0.766999 0.747214
Si Si3 0.176887 0.603570 0.330600
Si Si4 0.810041 0.356647 0.410487
Si Si5 0.361445 0.625247 0.551525
Si Si6 0.411117 0.246525 0.665749
O O1 0.889432 0.116039 0.190641
O O2 0.000000 0.004378 0.125039
O O3 0.888980 0.883031 0.182357
O O4 0.883918 0.000000 0.000000
O O5 0.500000 0.777477 0.785486
O O6 0.642976 0.734782 0.844731
O O7 0.588077 0.670567 0.651892
O O8 0.250000 0.609128 0.250000
O O9 0.183730 0.652558 0.455417
O O10 0.161492 0.474362 0.359448
O O11 0.115385 0.671817 0.263349
O O12 0.721081 0.362912 0.397418
O O13 0.370991 0.500000 0.500000
O O14 0.374953 0.707191 0.447764
O O15 0.500000 0.251171 0.652660
#
# Coordination Sequence:
#
# PCOD9420291 Si02
#       6
#     8   8   8   8   8   8
#     4   9  18  38  62  88 124 164 201 256 322 354
#     4  11  23  38  62  95 128 161 210 260 307 373
#     4  11  21  41  61  87 125 171 206 246 313 386
#     4  11  23  39  63  87 128 174 201 246 321 380
#     4  12  21  37  63  89 123 164 203 253 314 370
#     4  11  22  37  65  95 120 157 212 266 307 360
#
# _framework density 18.518519000000001
#
# number of rings (size 3 to 8) (size 9 to 14) (size 15 to 20)
#    0.000    1.167    5.000    3.000    0.000    4.000 
#    0.000    4.167    3.667    3.000    0.000    0.000 
#    0.000    0.000    0.000    0.000    0.000    0.000 
#
# Total GULP energy -267761.473352 kJ/mol
# GULP energy per Si atom -5578.364028 kJ/mol
# Density = 1.847637 g / cm^3
# Si number density = 18.518519 Si / 1000 Ang^3
#
#
#
# Elastic Constant Matrix: (Units=GPa)
#
#
# Indices 1 2 3 4 5 6 
#
# 1 48.8038 52.3811 29.1833 0.0000 0.0000 0.0000
# 2 52.3811 118.3587 56.3926 0.0000 0.0000 0.0000
# 3 29.1833 56.3926 118.4497 0.0000 0.0000 0.0000
# 4 0.0000 0.0000 0.0000 31.4973 0.0000 0.0000
# 5 0.0000 0.0000 0.0000 0.0000 39.7067 0.0000
# 6 0.0000 0.0000 0.0000 0.0000 0.0000 -273.3564
#
#
#
# Elastic Compliance Matrix: (Units=1/GPa)
#
#
# Indices 1 2 3 4 5 6 
#
# 1 0.039328 -0.016541 -0.001815 0.000000 0.000000 0.000000
# 2 -0.016541 0.017884 -0.004439 0.000000 0.000000 0.000000
# 3 -0.001815 -0.004439 0.011003 0.000000 0.000000 0.000000
# 4 0.000000 0.000000 0.000000 0.031749 0.000000 0.000000
# 5 0.000000 0.000000 0.000000 0.000000 0.025185 0.000000
# 6 0.000000 0.000000 0.000000 0.000000 0.000000 -0.003658
#
#
# Mechanical properties :
#
#
# Convention : Reuss Voigt Hill
#
# Bulk Modulus (GPa) = 44.19634 62.39180 53.29407
# Shear Modulus (GPa) = 28.63319 -30.58681 -0.97681
#
# Velocity S-wave (km/s) = 3.93643 -4.06850 -0.72706
# Velocity P-wave (km/s) = 6.67671 3.41971 5.30438
#
# Compressibility (1/GPa) = 0.02262631
#
# Stress axis : x y z
#
# Youngs Moduli (GPa) = 25.42688 55.91502 90.88417
#
# Poissons Ratio (x) = 0.92487 0.16494
# Poissons Ratio (y) = 0.42058 0.40346
# Poissons Ratio (z) = 0.04615 0.24822
#
# Static dielectric constant tensor:
#      x y z
#    x 1.664540 0.000000 0.000000 
#    y 0.000000 1.657760 0.000000 
#    z 0.000000 0.000000 1.649800 
# 
# From -- ./inp_files/16903.got.cif
#   From: 2010.05.17/outbox.ucp.g08.bks.cvg/sg53_9_cif.got.tgz:16903.got - 2010.06.11 16:32:34.
