data_PCOD9420801
_publ_section_title
;
Structure prediction by ZEFSAII (Michael W. Deem and Ramdas Pophale) SiO2 
 PCOD9420801
Probable space group: P C C A
;
_chemical_formula_sum "Si O2"
_cell_formula_units_Z 48
_cell_length_a 15.408011
_cell_length_b 8.825526
_cell_length_c 18.353676
_cell_angle_alpha 90.000000
_cell_angle_beta 90.000000
_cell_angle_gamma 90.000000
_cell_volume 2495.802637
_symmetry_space_group_name_H-M "P C C A"
_symmetry_group_IT_number 54
_symmetry_cell_setting 'orthorhombic'
loop_
_space_group_symop_operation_xyz
x,y,z
1/2-x,-y,z
1/2+x,-y,1/2-z
-x,y,1/2-z
-x,-y,-z
1/2+x,y,-z
1/2-x,y,1/2+z
x,-y,1/2+z
loop_
_atom_site_type_symbol
_atom_site_label
_atom_site_fract_x
_atom_site_fract_y
_atom_site_fract_z
Si Si1 0.651429 0.200377 0.047874
Si Si2 0.345684 0.152110 0.917032
Si Si3 0.514537 0.357421 0.947929
Si Si4 0.224213 0.165125 0.250026
Si Si5 0.924008 0.641265 0.791295
Si Si6 0.337542 0.402754 0.313600
O O1 0.756973 0.202490 0.041244
O O2 0.630829 0.317546 0.114194
O O3 0.633568 0.024000 0.066769
O O4 0.590894 0.254207 0.982247
O O5 0.426280 0.260218 0.935850
O O6 0.318723 0.158785 0.831370
O O7 0.545052 0.414109 0.868971
O O8 0.500000 0.500000 0.000000
O O9 0.157474 0.250224 0.198964
O O10 0.307648 0.269413 0.260053
O O11 0.250000 0.000000 0.226123
O O12 0.898135 0.512716 0.732894
O O13 0.000000 0.731447 0.750000
O O14 0.250000 0.500000 0.331485
#
# Coordination Sequence:
#
# PCOD9420801 Si02
#       6
#     8   8   8   8   8   8
#     4  10  21  40  69  91 123 169 218 259 322 387
#     4  10  20  42  68  91 123 173 214 260 323 395
#     4  12  26  41  62  96 134 172 213 265 325 386
#     4  10  18  40  67  90 117 163 217 259 320 379
#     4  11  22  39  61  92 130 160 210 267 317 378
#     4   9  19  36  63  89 120 161 211 258 312 382
#
# _framework density 19.232289999999999
#
# number of rings (size 3 to 8) (size 9 to 14) (size 15 to 20)
#    0.000    1.667    5.000    1.500    4.667    0.000 
#   12.000    4.167    0.000    0.000    0.000    0.000 
#    0.000    0.000    0.000    0.000    0.000    0.000 
#
# Total GULP energy -267710.766558 kJ/mol
# GULP energy per Si atom -5577.307637 kJ/mol
# Density = 1.918852 g / cm^3
# Si number density = 19.232290 Si / 1000 Ang^3
#
#
#
# Elastic Constant Matrix: (Units=GPa)
#
#
# Indices 1 2 3 4 5 6 
#
# 1 88.1044 38.1881 50.2921 0.0000 0.0000 0.0000
# 2 38.1881 114.7552 37.1512 0.0000 0.0000 0.0000
# 3 50.2921 37.1512 87.9168 0.0000 0.0000 0.0000
# 4 0.0000 0.0000 0.0000 2.6694 0.0000 0.0000
# 5 0.0000 0.0000 0.0000 0.0000 32.0000 0.0000
# 6 0.0000 0.0000 0.0000 0.0000 0.0000 20.2934
#
#
#
# Elastic Compliance Matrix: (Units=1/GPa)
#
#
# Indices 1 2 3 4 5 6 
#
# 1 0.017718 -0.003029 -0.008855 0.000000 0.000000 0.000000
# 2 -0.003029 0.010613 -0.002752 0.000000 0.000000 0.000000
# 3 -0.008855 -0.002752 0.017603 0.000000 0.000000 0.000000
# 4 0.000000 0.000000 0.000000 0.374623 0.000000 0.000000
# 5 0.000000 0.000000 0.000000 0.000000 0.031250 0.000000
# 6 0.000000 0.000000 0.000000 0.000000 0.000000 0.049277
#
#
# Mechanical properties :
#
#
# Convention : Reuss Voigt Hill
#
# Bulk Modulus (GPa) = 60.02068 60.22658 60.12363
# Shear Modulus (GPa) = 9.32991 22.00220 15.66605
#
# Velocity S-wave (km/s) = 2.20493 3.38601 2.85716
# Velocity P-wave (km/s) = 6.14478 6.83155 6.49725
#
# Compressibility (1/GPa) = 0.01666092
#
# Stress axis : x y z
#
# Youngs Moduli (GPa) = 56.43951 94.22207 56.80869
#
# Poissons Ratio (x) = 0.28543 0.50306
# Poissons Ratio (y) = 0.17097 0.15633
# Poissons Ratio (z) = 0.49979 0.25929
#
# Static dielectric constant tensor:
#      x y z
#    x 1.574260 0.000000 0.000000 
#    y 0.000000 1.688610 0.000000 
#    z 0.000000 0.000000 1.662070 
# 
# From -- ./inp_files/18030.got.cif
#   From: 2010.05.17/outbox.cif.g08.bks.cpg/sg54_10_cif.got.tgz:18030.got - 2010.06.03 13:09:01.
