data_PCOD9420046
_publ_section_title
;
Structure prediction by ZEFSAII (Michael W. Deem and Ramdas Pophale) SiO2 
 PCOD9420046
Probable space group: P M N A
;
_chemical_formula_sum "Si O2"
_cell_formula_units_Z 48
_cell_length_a 7.421207
_cell_length_b 33.789301
_cell_length_c 9.165963
_cell_angle_alpha 90.000000
_cell_angle_beta 90.000000
_cell_angle_gamma 90.000000
_cell_volume 2298.433024
_symmetry_space_group_name_H-M "P M N A"
_symmetry_group_IT_number 53
_symmetry_cell_setting 'orthorhombic'
loop_
_space_group_symop_operation_xyz
x,y,z
1/2-x,-y,1/2+z
x,-y,-z
1/2-x,y,1/2-z
-x,-y,-z
1/2+x,y,1/2-z
-x,y,z
1/2+x,-y,1/2+z
loop_
_atom_site_type_symbol
_atom_site_label
_atom_site_fract_x
_atom_site_fract_y
_atom_site_fract_z
Si Si1 0.284156 0.295825 0.577315
Si Si2 0.215622 0.374305 0.077617
Si Si3 0.715612 0.125033 0.575433
Si Si4 0.784392 0.460815 0.077675
Si Si5 0.784381 0.210115 0.924581
Si Si6 0.715850 0.960705 0.422732
O O1 0.250000 0.298338 0.750000
O O2 0.500000 0.295213 0.555931
O O3 0.212328 0.335215 0.500834
O O4 0.215340 0.252855 0.522778
O O5 0.250000 0.371345 0.250000
O O6 0.284439 0.417565 0.028122
O O7 0.000000 0.374786 0.055402
O O8 0.750000 0.124966 0.750000
O O9 0.500000 0.125191 0.554398
O O10 0.785198 0.167573 0.519302
O O11 0.784654 0.082284 0.522946
O O12 0.750000 0.463683 0.250000
O O13 0.000000 0.460307 0.055262
O O14 0.712109 0.500000 0.000000
O O15 0.750000 0.210191 0.750000
O O16 0.000000 0.209950 0.945573
O O17 0.750000 0.963320 0.250000
O O18 0.500000 0.960111 0.443967
O O19 0.787443 0.000000 0.500000
#
# Coordination Sequence:
#
# PCOD9420046 Si02
#       6
#     8   8   8   8   8   8
#     4   9  17  28  43  65  89 110 136 172 211 248
#     4   9  18  32  47  63  86 116 146 173 204 246
#     4   8  13  22  37  56  77 102 132 165 201 241
#     4   9  18  32  48  66  88 113 142 176 211 247
#     4   8  13  22  37  57  80 104 130 164 205 243
#     4   9  17  28  42  61  83 107 137 171 206 246
#
# _framework density 20.883793000000001
#
# number of rings (size 3 to 8) (size 9 to 14) (size 15 to 20)
#    0.000    3.333    0.000    0.000    0.000    2.000 
#    0.000    0.000    0.000    1.000    0.000    0.000 
#    0.000    0.000    0.000    0.000    0.000    0.000 
#
# Total GULP energy -267207.628402 kJ/mol
# GULP energy per Si atom -5566.825592 kJ/mol
# Density = 2.083626 g / cm^3
# Si number density = 20.883793 Si / 1000 Ang^3
#
#
#
# Elastic Constant Matrix: (Units=GPa)
#
#
# Indices 1 2 3 4 5 6 
#
# 1 75.0149 17.1869 -5.3970 0.0000 0.0000 0.0000
# 2 17.1869 324.4669 64.5081 0.0000 0.0000 0.0000
# 3 -5.3970 64.5081 18.3411 0.0000 0.0000 0.0000
# 4 0.0000 0.0000 0.0000 -32.0603 0.0000 0.0000
# 5 0.0000 0.0000 0.0000 0.0000 12.5283 0.0000
# 6 0.0000 0.0000 0.0000 0.0000 0.0000 -30.8723
#
#
#
# Elastic Compliance Matrix: (Units=1/GPa)
#
#
# Indices 1 2 3 4 5 6 
#
# 1 0.016661 -0.006175 0.026622 0.000000 0.000000 0.000000
# 2 -0.006175 0.012537 -0.045910 0.000000 0.000000 0.000000
# 3 0.026622 -0.045910 0.223827 0.000000 0.000000 0.000000
# 4 0.000000 0.000000 0.000000 -0.031191 0.000000 0.000000
# 5 0.000000 0.000000 0.000000 0.000000 0.079819 0.000000
# 6 0.000000 0.000000 0.000000 0.000000 0.000000 -0.032391
#
#
# Mechanical properties :
#
#
# Convention : Reuss Voigt Hill
#
# Bulk Modulus (GPa) = 4.94808 63.37986 34.16397
# Shear Modulus (GPa) = 12.90142 12.68745 12.79443
#
# Velocity S-wave (km/s) = 2.48820 2.46748 2.47786
# Velocity P-wave (km/s) = 3.26026 6.20747 4.95792
#
# Compressibility (1/GPa) = 0.20209859
#
# Stress axis : x y z
#
# Youngs Moduli (GPa) = 60.02085 79.76684 4.46773
#
# Poissons Ratio (x) = 0.49259 -0.11894
# Poissons Ratio (y) = 0.37065 0.20511
# Poissons Ratio (z) = -1.59788 3.66208
#
# Static dielectric constant tensor:
#      x y z
#    x 1.751010 0.000000 0.000000 
#    y 0.000000 1.865770 0.000000 
#    z 0.000000 0.000000 1.632560 
# 
# From -- ./inp_files/14119.got.cif
#   From: 2010.05.17/outbox.cif.g08.bks.cpg/sg53_8_cif.got.tgz:14119.got - 2010.06.03 12:45:16.
