data_PCOD9420522
_publ_section_title
;
Structure prediction by ZEFSAII (Michael W. Deem and Ramdas Pophale) SiO2 
 PCOD9420522
Probable space group: P C C A
;
_chemical_formula_sum "Si O2"
_cell_formula_units_Z 64
_cell_length_a 14.533873
_cell_length_b 7.738622
_cell_length_c 23.799923
_cell_angle_alpha 90.000000
_cell_angle_beta 90.000000
_cell_angle_gamma 90.000000
_cell_volume 2676.828494
_symmetry_space_group_name_H-M "P C C A"
_symmetry_group_IT_number 54
_symmetry_cell_setting 'orthorhombic'
loop_
_space_group_symop_operation_xyz
x,y,z
1/2-x,-y,z
1/2+x,-y,1/2-z
-x,y,1/2-z
-x,-y,-z
1/2+x,y,-z
1/2-x,y,1/2+z
x,-y,1/2+z
loop_
_atom_site_type_symbol
_atom_site_label
_atom_site_fract_x
_atom_site_fract_y
_atom_site_fract_z
Si Si1 0.906690 0.523519 0.119525
Si Si2 0.403636 0.623145 0.142392
Si Si3 0.142415 0.977597 0.758445
Si Si4 0.517122 0.008669 0.840720
Si Si5 0.608277 0.568525 0.241771
Si Si6 0.630671 0.650886 0.009853
Si Si7 0.041836 0.826531 0.450433
Si Si8 0.322487 0.737608 0.031706
O O1 0.866750 0.514516 0.182184
O O2 0.871806 0.373738 0.077338
O O3 0.018616 0.506844 0.119905
O O4 0.893939 0.704201 0.088636
O O5 0.355158 0.533014 0.195424
O O6 0.469498 0.784382 0.159815
O O7 0.336532 0.714384 0.098162
O O8 0.126839 0.771943 0.762567
O O9 0.250000 0.000000 0.765645
O O10 0.103585 0.047305 0.698445
O O11 0.073278 0.047691 0.805942
O O12 0.504627 0.950001 0.904557
O O13 0.500000 0.529589 0.250000
O O14 0.644090 0.454767 0.987654
O O15 0.718241 0.753826 0.987406
O O16 0.537648 0.728049 0.985019
O O17 0.112641 0.875734 0.500177
#
# Coordination Sequence:
#
# PCOD9420522 Si02
#       8
#     8   8   8   8   8   8   8   8
#     4  10  17  36  61  82 109 155 193 236 287 349
#     4  10  17  37  62  79 111 151 196 233 279 353
#     4  10  19  38  60  79 114 159 189 231 296 355
#     4  10  22  38  55  89 115 148 195 243 288 352
#     4   9  17  33  60  83 101 146 201 228 271 351
#     4  10  20  35  58  82 116 156 196 238 292 350
#     4  11  21  36  56  87 120 148 189 249 305 328
#     4  10  20  36  58  83 113 159 200 233 289 358
#
# _framework density 23.908891000000001
#
# number of rings (size 3 to 8) (size 9 to 14) (size 15 to 20)
#    0.000    2.000    6.250    0.750    0.000    3.500 
#    6.750    0.000    0.000    6.000    0.000    0.000 
#    0.000    0.000    0.000    0.000    0.000    0.000 
#
# Total GULP energy -356756.362315 kJ/mol
# GULP energy per Si atom -5574.318161 kJ/mol
# Density = 2.385447 g / cm^3
# Si number density = 23.908891 Si / 1000 Ang^3
#
#
#
# Elastic Constant Matrix: (Units=GPa)
#
#
# Indices 1 2 3 4 5 6 
#
# 1 128.5917 0.7536 38.3020 0.0000 0.0000 0.0000
# 2 0.7536 26.8175 8.5162 0.0000 0.0000 0.0000
# 3 38.3020 8.5162 167.1369 0.0000 0.0000 0.0000
# 4 0.0000 0.0000 0.0000 29.3898 0.0000 0.0000
# 5 0.0000 0.0000 0.0000 0.0000 5.5647 0.0000
# 6 0.0000 0.0000 0.0000 0.0000 0.0000 10.1631
#
#
#
# Elastic Compliance Matrix: (Units=1/GPa)
#
#
# Indices 1 2 3 4 5 6 
#
# 1 0.008350 0.000379 -0.001933 0.000000 0.000000 0.000000
# 2 0.000379 0.037920 -0.002019 0.000000 0.000000 0.000000
# 3 -0.001933 -0.002019 0.006529 0.000000 0.000000 0.000000
# 4 0.000000 0.000000 0.000000 0.034025 0.000000 0.000000
# 5 0.000000 0.000000 0.000000 0.000000 0.179703 0.000000
# 6 0.000000 0.000000 0.000000 0.000000 0.000000 0.098396
#
#
# Mechanical properties :
#
#
# Convention : Reuss Voigt Hill
#
# Bulk Modulus (GPa) = 21.90430 46.40995 34.15713
# Shear Modulus (GPa) = 12.91038 27.35514 20.13276
#
# Velocity S-wave (km/s) = 2.32627 3.38618 2.90498
# Velocity P-wave (km/s) = 4.04930 5.89420 5.05660
#
# Compressibility (1/GPa) = 0.04565313
#
# Stress axis : x y z
#
# Youngs Moduli (GPa) = 119.75980 26.37160 153.16425
#
# Poissons Ratio (x) = -0.01000 0.29605
# Poissons Ratio (y) = -0.04541 0.30924
# Poissons Ratio (z) = 0.23148 0.05324
#
# Static dielectric constant tensor:
#      x y z
#    x 1.921910 0.000000 0.000000 
#    y 0.000000 1.990430 0.000000 
#    z 0.000000 0.000000 2.063740 
# 
# From -- ./inp_files/24510.got.cif
#   From: 2010.05.17/outbox.cif.g08.bks.cpg/sg54_13_cif.got.tgz:24510.got - 2010.06.03 13:09:01.
