data_PCOD9420870
_publ_section_title
;
Structure prediction by ZEFSAII (Michael W. Deem and Ramdas Pophale) SiO2 
 PCOD9420870
Probable space group: P C C A
;
_chemical_formula_sum "Si O2"
_cell_formula_units_Z 48
_cell_length_a 9.479728
_cell_length_b 7.118920
_cell_length_c 27.335588
_cell_angle_alpha 90.000000
_cell_angle_beta 90.000000
_cell_angle_gamma 90.000000
_cell_volume 1844.753781
_symmetry_space_group_name_H-M "P C C A"
_symmetry_group_IT_number 54
_symmetry_cell_setting 'orthorhombic'
loop_
_space_group_symop_operation_xyz
x,y,z
1/2-x,-y,z
1/2+x,-y,1/2-z
-x,y,1/2-z
-x,-y,-z
1/2+x,y,-z
1/2-x,y,1/2+z
x,-y,1/2+z
loop_
_atom_site_type_symbol
_atom_site_label
_atom_site_fract_x
_atom_site_fract_y
_atom_site_fract_z
Si Si1 0.876663 0.130884 0.461886
Si Si2 0.802551 0.257052 0.870935
Si Si3 0.726117 0.721660 0.139966
Si Si4 0.458545 0.634388 0.194126
Si Si5 0.444545 0.772643 0.939412
Si Si6 0.488479 0.819770 0.804395
O O1 0.803280 0.218032 0.414971
O O2 0.927819 0.274685 0.503334
O O3 0.750000 0.000000 0.483505
O O4 0.996596 0.985774 0.444536
O O5 0.694840 0.328405 0.828641
O O6 0.893385 0.103432 0.840985
O O7 0.938813 0.333258 0.905043
O O8 0.750000 0.500000 0.147595
O O9 0.567959 0.739279 0.158163
O O10 0.793421 0.761816 0.087104
O O11 0.832877 0.831139 0.175152
O O12 0.500000 0.687133 0.250000
O O13 0.477257 0.406338 0.194428
O O14 0.500000 0.888942 0.750000
#
# Coordination Sequence:
#
# PCOD9420870 Si02
#       6
#     8   8   8   8   8   8
#     4   9  19  36  59  79  98 135 190 232 270 331
#     4  10  19  32  55  83 108 136 182 235 273 316
#     4   9  18  31  50  79 111 141 177 222 272 325
#     4  10  19  31  51  80 112 146 181 216 264 333
#     4   9  19  36  56  78 105 141 182 227 276 332
#     4   9  17  32  53  78 110 146 181 219 270 330
#
# _framework density 26.019731
#
# number of rings (size 3 to 8) (size 9 to 14) (size 15 to 20)
#    0.000    2.667    0.000    1.500    0.000    6.667 
#    0.000    1.667    0.000   34.000    0.000    0.000 
#    0.000    0.000    0.000    0.000    0.000    0.000 
#
# Total GULP energy -267465.234841 kJ/mol
# GULP energy per Si atom -5572.192393 kJ/mol
# Density = 2.596051 g / cm^3
# Si number density = 26.019731 Si / 1000 Ang^3
#
#
#
# Elastic Constant Matrix: (Units=GPa)
#
#
# Indices 1 2 3 4 5 6 
#
# 1 193.4736 41.0665 70.9201 0.0000 0.0000 0.0000
# 2 41.0665 79.7977 23.2790 0.0000 0.0000 0.0000
# 3 70.9201 23.2790 195.1307 0.0000 0.0000 0.0000
# 4 0.0000 0.0000 0.0000 1058.9742 0.0000 0.0000
# 5 0.0000 0.0000 0.0000 0.0000 -5.8024 0.0000
# 6 0.0000 0.0000 0.0000 0.0000 0.0000 32.6626
#
#
#
# Elastic Compliance Matrix: (Units=1/GPa)
#
#
# Indices 1 2 3 4 5 6 
#
# 1 0.006498 -0.002751 -0.002034 0.000000 0.000000 0.000000
# 2 -0.002751 0.014148 -0.000688 0.000000 0.000000 0.000000
# 3 -0.002034 -0.000688 0.005946 0.000000 0.000000 0.000000
# 4 0.000000 0.000000 0.000000 0.000944 0.000000 0.000000
# 5 0.000000 0.000000 0.000000 0.000000 -0.172343 0.000000
# 6 0.000000 0.000000 0.000000 0.000000 0.000000 0.030616
#
#
# Mechanical properties :
#
#
# Convention : Reuss Voigt Hill
#
# Bulk Modulus (GPa) = 63.90936 82.10368 73.00652
# Shear Modulus (GPa) = -51.00466 239.37598 94.18566
#
# Velocity S-wave (km/s) = -4.43225 9.60196 6.02299
# Velocity P-wave (km/s) = 1.25616 12.43194 8.74572
#
# Compressibility (1/GPa) = 0.01564716
#
# Stress axis : x y z
#
# Youngs Moduli (GPa) = 153.89448 70.68092 168.18218
#
# Poissons Ratio (x) = 0.19443 0.34200
# Poissons Ratio (y) = 0.42334 0.11572
# Poissons Ratio (z) = 0.31295 0.04863
#
# Static dielectric constant tensor:
#      x y z
#    x 2.096760 0.000000 0.000000 
#    y 0.000000 2.248300 0.000000 
#    z 0.000000 0.000000 2.090820 
# 
# From -- ./inp_files/23504.got.cif
#   From: 2010.05.17/outbox.cif.g08.bks.cpg/sg54_12_cif.got.tgz:23504.got - 2010.06.03 13:09:01.
