data_PCOD9420374
_publ_section_title
;
Structure prediction by ZEFSAII (Michael W. Deem and Ramdas Pophale) SiO2 
 PCOD9420374
Probable space group: P C C A
;
_chemical_formula_sum "Si O2"
_cell_formula_units_Z 36
_cell_length_a 5.282265
_cell_length_b 21.183414
_cell_length_c 14.552968
_cell_angle_alpha 90.000000
_cell_angle_beta 90.000000
_cell_angle_gamma 90.000000
_cell_volume 1628.424821
_symmetry_space_group_name_H-M "P C C A"
_symmetry_group_IT_number 54
_symmetry_cell_setting 'orthorhombic'
loop_
_space_group_symop_operation_xyz
x,y,z
1/2-x,-y,z
1/2+x,-y,1/2-z
-x,y,1/2-z
-x,-y,-z
1/2+x,y,-z
1/2-x,y,1/2+z
x,-y,1/2+z
loop_
_atom_site_type_symbol
_atom_site_label
_atom_site_fract_x
_atom_site_fract_y
_atom_site_fract_z
Si Si1 0.478245 0.627199 0.361519
Si Si2 0.001950 0.027937 0.605411
Si Si3 0.250000 0.500000 0.812414
Si Si4 0.483532 0.306142 0.140456
Si Si5 0.497561 0.828276 0.941394
O O1 0.500000 0.631828 0.250000
O O2 0.366361 0.556837 0.372178
O O3 0.754059 0.649362 0.394146
O O4 0.258251 0.673312 0.395722
O O5 0.017757 0.103131 0.604235
O O6 0.250000 0.000000 0.649195
O O7 0.750000 0.000000 0.646924
O O8 0.000000 0.000000 0.500000
O O9 0.500000 0.520041 0.750000
O O10 0.500000 0.314212 0.250000
O O11 0.443627 0.232942 0.119034
O O12 0.212350 0.825844 0.979999
#
# Coordination Sequence:
#
# PCOD9420374 Si02
#       5
#     8   8   4   8   8
#     4   9  17  31  49  74 106 139 170 213 265 308
#     4  10  16  30  49  75  97 123 163 224 269 288
#     4  10  16  26  50  80 102 132 182 228 256 302
#     4  10  21  35  50  74 113 144 164 207 275 323
#     4  12  21  33  55  81 100 135 182 219 255 313
#
# _framework density 22.107253
#
# number of rings (size 3 to 8) (size 9 to 14) (size 15 to 20)
#    0.000    1.778    4.444    4.667    0.000    0.000 
#    0.000    0.000    0.000    1.333    0.000   15.556 
#    0.000    0.000    0.000    0.000    0.000    0.000 
#
# Total GULP energy -200824.730438 kJ/mol
# GULP energy per Si atom -5578.464734 kJ/mol
# Density = 2.205694 g / cm^3
# Si number density = 22.107253 Si / 1000 Ang^3
#
#
#
# Elastic Constant Matrix: (Units=GPa)
#
#
# Indices 1 2 3 4 5 6 
#
# 1 161.9236 67.2804 5.1454 0.0000 0.0000 0.0000
# 2 67.2804 187.1875 9.7347 0.0000 0.0000 0.0000
# 3 5.1454 9.7347 50.8235 0.0000 0.0000 0.0000
# 4 0.0000 0.0000 0.0000 24.2347 0.0000 0.0000
# 5 0.0000 0.0000 0.0000 0.0000 -16.7134 0.0000
# 6 0.0000 0.0000 0.0000 0.0000 0.0000 40.9860
#
#
#
# Elastic Compliance Matrix: (Units=1/GPa)
#
#
# Indices 1 2 3 4 5 6 
#
# 1 0.007263 -0.002598 -0.000238 0.000000 0.000000 0.000000
# 2 -0.002598 0.006325 -0.000949 0.000000 0.000000 0.000000
# 3 -0.000238 -0.000949 0.019882 0.000000 0.000000 0.000000
# 4 0.000000 0.000000 0.000000 0.041263 0.000000 0.000000
# 5 0.000000 0.000000 0.000000 0.000000 -0.059832 0.000000
# 6 0.000000 0.000000 0.000000 0.000000 0.000000 0.024399
#
#
# Mechanical properties :
#
#
# Convention : Reuss Voigt Hill
#
# Bulk Modulus (GPa) = 38.60805 62.69505 50.65155
# Shear Modulus (GPa) = 90.08744 30.88641 60.48692
#
# Velocity S-wave (km/s) = 6.39051 3.74186 5.23642
# Velocity P-wave (km/s) = 8.48254 6.86219 7.71502
#
# Compressibility (1/GPa) = 0.02590133
#
# Stress axis : x y z
#
# Youngs Moduli (GPa) = 137.68734 158.09289 50.29759
#
# Poissons Ratio (x) = 0.41074 0.01195
# Poissons Ratio (y) = 0.35773 0.04771
# Poissons Ratio (z) = 0.03272 0.14995
#
# Static dielectric constant tensor:
#      x y z
#    x 1.811280 0.000000 0.000000 
#    y 0.000000 1.863520 0.000000 
#    z 0.000000 0.000000 1.832230 
# 
# From -- ./inp_files/19676.got.cif
#   From: 2010.05.17/outbox.cif.g08.bks.cpg/sg54_10_cif.got.tgz:19676.got - 2010.06.03 13:09:01.
