data_PCOD9420083
_publ_section_title
;
Structure prediction by ZEFSAII (Michael W. Deem and Ramdas Pophale) SiO2 
 PCOD9420083
Probable space group: P M N A
;
_chemical_formula_sum "Si O2"
_cell_formula_units_Z 56
_cell_length_a 9.000000
_cell_length_b 18.000000
_cell_length_c 21.000000
_cell_angle_alpha 90.000000
_cell_angle_beta 90.000000
_cell_angle_gamma 90.000000
_cell_volume 3402.000000
_symmetry_space_group_name_H-M "P M N A"
_symmetry_group_IT_number 53
_symmetry_cell_setting 'orthorhombic'
loop_
_space_group_symop_operation_xyz
x,y,z
1/2-x,-y,1/2+z
x,-y,-z
1/2-x,y,1/2-z
-x,-y,-z
1/2+x,y,1/2-z
-x,y,z
1/2+x,-y,1/2+z
loop_
_atom_site_type_symbol
_atom_site_label
_atom_site_fract_x
_atom_site_fract_y
_atom_site_fract_z
Si Si1 0.828660 0.338039 0.943664
Si Si2 0.174976 0.740492 0.684104
Si Si3 0.332172 0.371600 0.405098
Si Si4 0.669997 0.018054 0.575973
Si Si5 0.667580 0.483830 0.923691
Si Si6 0.320232 0.826100 0.464378
Si Si7 0.323105 0.128580 0.098292
O O1 0.725535 0.400788 0.914022
O O2 0.778695 0.253300 0.935954
O O3 0.000000 0.346205 0.922599
O O4 0.828261 0.352761 0.019897
O O5 0.250000 0.721837 0.750000
O O6 0.220286 0.681135 0.631312
O O7 0.225316 0.819890 0.656530
O O8 0.000000 0.742207 0.692254
O O9 0.500000 0.359190 0.382551
O O10 0.280818 0.456036 0.396380
O O11 0.500000 0.010837 0.597987
O O12 0.719624 0.103261 0.578953
O O13 0.669797 0.000000 0.500000
O O14 0.771269 0.955724 0.606538
O O15 0.500000 0.494631 0.900379
O O16 0.665710 0.500000 0.000000
O O17 0.500000 0.826941 0.472330
O O18 0.249462 0.839102 0.533669
O O19 0.500000 0.132614 0.091465
#
# Coordination Sequence:
#
# PCOD9420083 Si02
#       7
#     8   8   8   8   8   8   8
#     4   9  16  26  42  63  87 116 149 178 210 257
#     4  11  23  35  47  64  85 113 151 191 227 263
#     4  10  18  30  47  62  82 114 148 183 222 260
#     4   8  15  26  41  59  82 113 146 174 208 257
#     4   9  17  27  40  60  87 115 144 178 215 258
#     4   9  16  27  42  62  87 117 148 176 209 257
#     4  10  19  29  42  60  84 111 143 183 223 258
#
# _framework density 16.460905
#
# number of rings (size 3 to 8) (size 9 to 14) (size 15 to 20)
#    0.000    2.571    1.429    2.571    0.000    7.143 
#    0.000    0.000    0.000    0.000    0.000    0.000 
#    0.000    1.143    0.000    7.429    0.000    6.286 
#
# Total GULP energy -311837.901909 kJ/mol
# GULP energy per Si atom -5568.533963 kJ/mol
# Density = 1.642344 g / cm^3
# Si number density = 16.460905 Si / 1000 Ang^3
#
#
#
# Elastic Constant Matrix: (Units=GPa)
#
#
# Indices 1 2 3 4 5 6 
#
# 1 13.6156 10.3476 1.4273 0.0000 0.0000 0.0000
# 2 10.3476 105.9219 -7.6209 0.0000 0.0000 0.0000
# 3 1.4273 -7.6209 5.0720 0.0000 0.0000 0.0000
# 4 0.0000 0.0000 0.0000 -0.5025 0.0000 0.0000
# 5 0.0000 0.0000 0.0000 0.0000 30.3744 0.0000
# 6 0.0000 0.0000 0.0000 0.0000 0.0000 51.0177
#
#
#
# Elastic Compliance Matrix: (Units=1/GPa)
#
#
# Indices 1 2 3 4 5 6 
#
# 1 0.086489 -0.011437 -0.041522 0.000000 0.000000 0.000000
# 2 -0.011437 0.012098 0.021395 0.000000 0.000000 0.000000
# 3 -0.041522 0.021395 0.240993 0.000000 0.000000 0.000000
# 4 0.000000 0.000000 0.000000 -1.990131 0.000000 0.000000
# 5 0.000000 0.000000 0.000000 0.000000 0.032922 0.000000
# 6 0.000000 0.000000 0.000000 0.000000 0.000000 0.019601
#
#
# Mechanical properties :
#
#
# Convention : Reuss Voigt Hill
#
# Bulk Modulus (GPa) = 3.61725 14.76860 9.19293
# Shear Modulus (GPa) = -3.46560 24.20830 10.37135
#
# Velocity S-wave (km/s) = -1.45256 3.83907 2.51282
# Velocity P-wave (km/s) = 0.78165 5.35189 3.74378
#
# Compressibility (1/GPa) = 0.27645281
#
# Stress axis : x y z
#
# Youngs Moduli (GPa) = 11.56213 82.66133 4.14949
#
# Poissons Ratio (x) = 0.94537 0.17230
# Poissons Ratio (y) = 0.13223 -0.08878
# Poissons Ratio (z) = 0.48009 -1.76858
#
# Static dielectric constant tensor:
#      x y z
#    x 1.554100 0.000000 0.000000 
#    y 0.000000 1.597880 0.000000 
#    z 0.000000 0.000000 1.500740 
# 
# From -- ./inp_files/31065.got.cif
#   From: 2010.05.17/outbox.ucp.g08.bks.cvg/sg53_16_cif.got.tgz:31065.got - 2010.06.11 16:32:34.
