data_PCOD9420953
_publ_section_title
;
Structure prediction by ZEFSAII (Michael W. Deem and Ramdas Pophale) SiO2 
 PCOD9420953
Probable space group: P C C A
;
_chemical_formula_sum "Si O2"
_cell_formula_units_Z 48
_cell_length_a 16.838647
_cell_length_b 7.521094
_cell_length_c 14.902091
_cell_angle_alpha 90.000000
_cell_angle_beta 90.000000
_cell_angle_gamma 90.000000
_cell_volume 1887.276014
_symmetry_space_group_name_H-M "P C C A"
_symmetry_group_IT_number 54
_symmetry_cell_setting 'orthorhombic'
loop_
_space_group_symop_operation_xyz
x,y,z
1/2-x,-y,z
1/2+x,-y,1/2-z
-x,y,1/2-z
-x,-y,-z
1/2+x,y,-z
1/2-x,y,1/2+z
x,-y,1/2+z
loop_
_atom_site_type_symbol
_atom_site_label
_atom_site_fract_x
_atom_site_fract_y
_atom_site_fract_z
Si Si1 0.328932 0.275108 0.870757
Si Si2 0.666225 0.764959 0.842926
Si Si3 0.496638 0.385718 0.090117
Si Si4 0.505925 0.243869 0.650821
Si Si5 0.834621 0.190027 0.341654
Si Si6 0.658703 0.689562 0.632353
O O1 0.412960 0.186919 0.898674
O O2 0.334906 0.257699 0.761830
O O3 0.240359 0.212332 0.896377
O O4 0.332615 0.483018 0.895841
O O5 0.589354 0.696529 0.894273
O O6 0.754364 0.724129 0.880914
O O7 0.659946 0.697740 0.740648
O O8 0.667323 0.977790 0.838322
O O9 0.513218 0.543378 0.160877
O O10 0.571313 0.253704 0.100380
O O11 0.500000 0.500000 0.000000
O O12 0.500000 0.157543 0.750000
O O13 0.418004 0.227760 0.610953
#
# Coordination Sequence:
#
# PCOD9420953 Si02
#       6
#     8   8   8   8   8   8
#     4   8  15  29  51  77 103 132 170 217 273 327
#     4  10  19  33  53  80 109 136 178 229 277 328
#     4  11  22  34  49  76 108 145 185 220 268 333
#     4   9  17  33  54  76 102 135 174 223 279 332
#     4   9  18  31  54  83 105 133 175 225 279 331
#     4   9  17  32  53  75 105 139 174 226 275 320
#
# _framework density 25.433481
#
# number of rings (size 3 to 8) (size 9 to 14) (size 15 to 20)
#    0.000    2.667    0.000    3.500    0.000    6.000 
#    0.000    7.500    0.000    0.000    0.000   23.333 
#    0.000    0.000    0.000    0.000    0.000    0.000 
#
# Total GULP energy -267568.074765 kJ/mol
# GULP energy per Si atom -5574.334891 kJ/mol
# Density = 2.537559 g / cm^3
# Si number density = 25.433481 Si / 1000 Ang^3
#
#
#
# Elastic Constant Matrix: (Units=GPa)
#
#
# Indices 1 2 3 4 5 6 
#
# 1 349.8914 19.3476 26.6691 0.0000 0.0000 0.0000
# 2 19.3476 64.3653 -13.7570 0.0000 0.0000 0.0000
# 3 26.6691 -13.7570 80.3570 0.0000 0.0000 0.0000
# 4 0.0000 0.0000 0.0000 -63.7115 0.0000 0.0000
# 5 0.0000 0.0000 0.0000 0.0000 -19.8559 0.0000
# 6 0.0000 0.0000 0.0000 0.0000 0.0000 12.7441
#
#
#
# Elastic Compliance Matrix: (Units=1/GPa)
#
#
# Indices 1 2 3 4 5 6 
#
# 1 0.003014 -0.001162 -0.001199 0.000000 0.000000 0.000000
# 2 -0.001162 0.016575 0.003223 0.000000 0.000000 0.000000
# 3 -0.001199 0.003223 0.013394 0.000000 0.000000 0.000000
# 4 0.000000 0.000000 0.000000 -0.015696 0.000000 0.000000
# 5 0.000000 0.000000 0.000000 0.000000 -0.050363 0.000000
# 6 0.000000 0.000000 0.000000 0.000000 0.000000 0.078468
#
#
# Mechanical properties :
#
#
# Convention : Reuss Voigt Hill
#
# Bulk Modulus (GPa) = 28.81317 62.12590 45.46954
# Shear Modulus (GPa) = 90.51948 16.65894 53.58921
#
# Velocity S-wave (km/s) = 5.97226 2.56207 4.59522
# Velocity P-wave (km/s) = 7.67533 5.76473 6.78759
#
# Compressibility (1/GPa) = 0.03470635
#
# Stress axis : x y z
#
# Youngs Moduli (GPa) = 331.81857 60.33340 74.65878
#
# Poissons Ratio (x) = 0.07012 0.08953
# Poissons Ratio (y) = 0.38563 -0.24064
# Poissons Ratio (z) = 0.39790 -0.19447
#
# Static dielectric constant tensor:
#      x y z
#    x 2.235010 0.000000 0.000000 
#    y 0.000000 2.120130 0.000000 
#    z 0.000000 0.000000 1.971580 
# 
# From -- ./inp_files/18507.got.cif
#   From: 2010.05.17/outbox.cif.g08.bks.cpg/sg54_10_cif.got.tgz:18507.got - 2010.06.03 13:09:01.
