data_PCOD9420359
_publ_section_title
;
Structure prediction by ZEFSAII (Michael W. Deem and Ramdas Pophale) SiO2 
 PCOD9420359
Probable space group: P C C A
;
_chemical_formula_sum "Si O2"
_cell_formula_units_Z 48
_cell_length_a 18.836460
_cell_length_b 23.750193
_cell_length_c 5.459622
_cell_angle_alpha 90.000000
_cell_angle_beta 90.000000
_cell_angle_gamma 90.000000
_cell_volume 2442.468694
_symmetry_space_group_name_H-M "P C C A"
_symmetry_group_IT_number 54
_symmetry_cell_setting 'orthorhombic'
loop_
_space_group_symop_operation_xyz
x,y,z
1/2-x,-y,z
1/2+x,-y,1/2-z
-x,y,1/2-z
-x,-y,-z
1/2+x,y,-z
1/2-x,y,1/2+z
x,-y,1/2+z
loop_
_atom_site_type_symbol
_atom_site_label
_atom_site_fract_x
_atom_site_fract_y
_atom_site_fract_z
Si Si1 0.417787 0.313651 0.252217
Si Si2 0.222356 0.436191 0.257477
Si Si3 0.420288 0.385703 0.752127
Si Si4 0.835347 0.798678 0.300892
Si Si5 0.330437 0.976794 0.284561
Si Si6 0.172622 0.843877 0.699467
O O1 0.500000 0.291776 0.250000
O O2 0.410461 0.348630 0.505220
O O3 0.358738 0.265071 0.244724
O O4 0.410939 0.350230 0.003249
O O5 0.250000 0.500000 0.260628
O O6 0.248643 0.408586 0.509256
O O7 0.138258 0.433826 0.250322
O O8 0.500000 0.407804 0.750000
O O9 0.864682 0.816569 0.565577
O O10 0.751316 0.815002 0.316481
O O11 0.861829 0.832708 0.063630
O O12 0.323061 0.910125 0.249134
O O13 0.250000 0.000000 0.301155
O O14 0.363924 0.994734 0.543585
#
# Coordination Sequence:
#
# PCOD9420359 Si02
#       6
#     8   8   8   8   8   8
#     4  10  21  37  57  78 107 144 192 229 260 317
#     4  10  21  40  60  88 123 146 181 234 284 327
#     4  10  21  40  60  83 112 152 191 231 273 328
#     4  10  18  32  45  68 103 136 168 211 273 313
#     4  10  16  25  41  63  94 132 170 205 255 322
#     4  10  19  30  45  70 109 132 163 218 270 339
#
# _framework density 19.652249999999999
#
# number of rings (size 3 to 8) (size 9 to 14) (size 15 to 20)
#    0.000    2.000    0.000    7.000    0.000    0.000 
#   18.000    3.333    0.000    0.000    0.000    0.000 
#    0.000   49.333    0.000    0.000    0.000    0.000 
#
# Total GULP energy -267394.990089 kJ/mol
# GULP energy per Si atom -5570.728960 kJ/mol
# Density = 1.960752 g / cm^3
# Si number density = 19.652250 Si / 1000 Ang^3
#
#
#
# Elastic Constant Matrix: (Units=GPa)
#
#
# Indices 1 2 3 4 5 6 
#
# 1 68.3697 41.7512 -0.2007 0.0000 0.0000 0.0000
# 2 41.7512 45.5273 -15.0052 0.0000 0.0000 0.0000
# 3 -0.2007 -15.0052 145.4000 0.0000 0.0000 0.0000
# 4 0.0000 0.0000 0.0000 -95.5083 0.0000 0.0000
# 5 0.0000 0.0000 0.0000 0.0000 5.4138 0.0000
# 6 0.0000 0.0000 0.0000 0.0000 0.0000 3.4877
#
#
#
# Elastic Compliance Matrix: (Units=1/GPa)
#
#
# Indices 1 2 3 4 5 6 
#
# 1 0.034756 -0.032979 -0.003355 0.000000 0.000000 0.000000
# 2 -0.032979 0.054031 0.005530 0.000000 0.000000 0.000000
# 3 -0.003355 0.005530 0.007444 0.000000 0.000000 0.000000
# 4 0.000000 0.000000 0.000000 -0.010470 0.000000 0.000000
# 5 0.000000 0.000000 0.000000 0.000000 0.184712 0.000000
# 6 0.000000 0.000000 0.000000 0.000000 0.000000 0.286724
#
#
# Mechanical properties :
#
#
# Convention : Reuss Voigt Hill
#
# Bulk Modulus (GPa) = 28.88264 34.70972 31.79618
# Shear Modulus (GPa) = 7.93217 -1.80458 3.06379
#
# Velocity S-wave (km/s) = 2.01123 -0.95930 1.24996
# Velocity P-wave (km/s) = 4.48577 4.05873 4.27758
#
# Compressibility (1/GPa) = 0.03462287
#
# Stress axis : x y z
#
# Youngs Moduli (GPa) = 28.77229 18.50783 134.34193
#
# Poissons Ratio (x) = 0.61037 0.45078
# Poissons Ratio (y) = 0.94888 -0.74298
# Poissons Ratio (z) = 0.09654 -0.10236
#
# Static dielectric constant tensor:
#      x y z
#    x 1.646270 0.000000 0.000000 
#    y 0.000000 1.674520 0.000000 
#    z 0.000000 0.000000 1.815220 
# 
# From -- ./inp_files/1348.got.cif
#   From: 2010.05.17/outbox.cif.g08.bks.cpg/sg54_1_cif.got.tgz:1348.got - 2010.06.03 13:09:01.
