data_PCOD9420181
_publ_section_title
;
Structure prediction by ZEFSAII (Michael W. Deem and Ramdas Pophale) SiO2 
 PCOD9420181
Probable space group: P M N A
;
_chemical_formula_sum "Si O2"
_cell_formula_units_Z 64
_cell_length_a 9.000000
_cell_length_b 18.000000
_cell_length_c 21.000000
_cell_angle_alpha 90.000000
_cell_angle_beta 90.000000
_cell_angle_gamma 90.000000
_cell_volume 3402.000000
_symmetry_space_group_name_H-M "P M N A"
_symmetry_group_IT_number 53
_symmetry_cell_setting 'orthorhombic'
loop_
_space_group_symop_operation_xyz
x,y,z
1/2-x,-y,1/2+z
x,-y,-z
1/2-x,y,1/2-z
-x,-y,-z
1/2+x,y,1/2-z
-x,y,z
1/2+x,-y,1/2+z
loop_
_atom_site_type_symbol
_atom_site_label
_atom_site_fract_x
_atom_site_fract_y
_atom_site_fract_z
Si Si1 0.830092 0.293937 0.692220
Si Si2 0.820254 0.444355 0.634249
Si Si3 0.322952 0.365475 0.513709
Si Si4 0.178532 0.767296 0.680703
Si Si5 0.820090 0.934971 0.679095
Si Si6 0.319183 0.043981 0.936082
Si Si7 0.173615 0.216117 0.556233
Si Si8 0.679188 0.390899 0.119017
O O1 0.750000 0.255247 0.750000
O O2 0.769160 0.376995 0.679666
O O3 0.821817 0.246851 0.628208
O O4 0.000000 0.302586 0.710156
O O5 0.749334 0.417554 0.567834
O O6 0.786615 0.529637 0.652759
O O7 0.000000 0.561516 0.371756
O O8 0.500000 0.366769 0.518838
O O9 0.264270 0.280001 0.519503
O O10 0.263530 0.395554 0.447322
O O11 0.250000 0.766534 0.750000
O O12 0.216139 0.850390 0.654460
O O13 0.223270 0.689050 0.648486
O O14 0.000000 0.765311 0.684488
O O15 0.750000 0.944295 0.750000
O O16 0.000000 0.938758 0.685175
O O17 0.773301 0.997340 0.627120
O O18 0.500000 0.045383 0.934034
O O19 0.273594 0.130647 0.942653
O O20 0.275068 0.000000 0.000000
O O21 0.000000 0.217775 0.534477
O O22 0.500000 0.388944 0.110170
#
# Coordination Sequence:
#
# PCOD9420181 Si02
#       8
#     8   8   8   8   8   8   8   8
#     4   9  18  32  50  73 101 136 173 214 259 310
#     4   9  19  36  53  73 103 138 179 220 263 315
#     4  11  22  34  51  77 107 137 173 217 268 321
#     4   9  19  34  53  77 106 139 177 217 260 313
#     4   9  18  34  55  81 110 144 183 222 270 325
#     4   9  18  32  57  87 109 135 183 237 272 312
#     4   9  19  36  55  76 105 139 177 218 262 318
#     4  10  20  34  55  77 100 139 181 217 261 316
#
# _framework density 18.812463000000001
#
# number of rings (size 3 to 8) (size 9 to 14) (size 15 to 20)
#    0.000    2.625    0.000    2.250    1.750    5.500 
#    0.000    0.625    0.000    0.750    0.000    0.000 
#    0.000    0.000    0.000    0.000    0.000    0.000 
#
# Total GULP energy -356382.560403 kJ/mol
# GULP energy per Si atom -5568.477506 kJ/mol
# Density = 1.876965 g / cm^3
# Si number density = 18.812463 Si / 1000 Ang^3
#
#
#
# Elastic Constant Matrix: (Units=GPa)
#
#
# Indices 1 2 3 4 5 6 
#
# 1 0.4957 13.6397 7.4442 0.0000 0.0000 0.0000
# 2 13.6397 132.0712 16.0483 0.0000 0.0000 0.0000
# 3 7.4442 16.0483 40.2309 0.0000 0.0000 0.0000
# 4 0.0000 0.0000 0.0000 -2.1394 0.0000 0.0000
# 5 0.0000 0.0000 0.0000 0.0000 21.3942 0.0000
# 6 0.0000 0.0000 0.0000 0.0000 0.0000 14.7290
#
#
#
# Elastic Compliance Matrix: (Units=1/GPa)
#
#
# Indices 1 2 3 4 5 6 
#
# 1 -0.559382 0.047496 0.084560 0.000000 0.000000 0.000000
# 2 0.047496 0.003925 -0.010354 0.000000 0.000000 0.000000
# 3 0.084560 -0.010354 0.013340 0.000000 0.000000 0.000000
# 4 0.000000 0.000000 0.000000 -0.467423 0.000000 0.000000
# 5 0.000000 0.000000 0.000000 0.000000 0.046742 0.000000
# 6 0.000000 0.000000 0.000000 0.000000 0.000000 0.067893
#
#
# Mechanical properties :
#
#
# Convention : Reuss Voigt Hill
#
# Bulk Modulus (GPa) = -3.34767 27.45137 12.05185
# Shear Modulus (GPa) = -4.03916 15.84112 5.90098
#
# Velocity S-wave (km/s) = -1.46688 2.90497 1.77301
# Velocity P-wave (km/s) = 2.15693 5.08680 3.25755
#
# Compressibility (1/GPa) = -0.29871481
#
# Stress axis : x y z
#
# Youngs Moduli (GPa) = -1.78769 254.79791 74.96168
#
# Poissons Ratio (x) = -12.10176 -6.33874
# Poissons Ratio (y) = 0.08491 0.77615
# Poissons Ratio (z) = 0.15117 2.63817
#
# Static dielectric constant tensor:
#      x y z
#    x 1.628400 0.000000 0.000000 
#    y 0.000000 1.684390 0.000000 
#    z 0.000000 0.000000 1.678740 
# 
# From -- ./inp_files/31109.got.cif
#   From: 2010.05.17/outbox.ucp.g08.bks.cvg/sg53_16_cif.got.tgz:31109.got - 2010.06.11 16:32:34.
