data_PCOD9420645
_publ_section_title
;
Structure prediction by ZEFSAII (Michael W. Deem and Ramdas Pophale) SiO2 
 PCOD9420645
Probable space group: P C C A
;
_chemical_formula_sum "Si O2"
_cell_formula_units_Z 44
_cell_length_a 15.280996
_cell_length_b 5.642465
_cell_length_c 22.855662
_cell_angle_alpha 90.000000
_cell_angle_beta 90.000000
_cell_angle_gamma 90.000000
_cell_volume 1970.671976
_symmetry_space_group_name_H-M "P C C A"
_symmetry_group_IT_number 54
_symmetry_cell_setting 'orthorhombic'
loop_
_space_group_symop_operation_xyz
x,y,z
1/2-x,-y,z
1/2+x,-y,1/2-z
-x,y,1/2-z
-x,-y,-z
1/2+x,y,-z
1/2-x,y,1/2+z
x,-y,1/2+z
loop_
_atom_site_type_symbol
_atom_site_label
_atom_site_fract_x
_atom_site_fract_y
_atom_site_fract_z
Si Si1 0.598238 0.585505 0.279034
Si Si2 0.468671 0.569355 0.095277
Si Si3 0.087772 0.247042 0.977004
Si Si4 0.750000 0.500000 0.575115
Si Si5 0.367591 0.122795 0.886267
Si Si6 0.895766 0.907423 0.234887
O O1 0.500000 0.593836 0.250000
O O2 0.591514 0.539632 0.348587
O O3 0.636357 0.846147 0.264527
O O4 0.641398 0.347352 0.253447
O O5 0.503029 0.341063 0.059186
O O6 0.555404 0.687811 0.121636
O O7 0.431059 0.742301 0.045396
O O8 0.166940 0.427382 0.963458
O O9 0.117661 0.002627 0.948494
O O10 0.779228 0.726913 0.612360
O O11 0.381030 0.941639 0.833857
O O12 0.000000 0.897270 0.250000
#
# Coordination Sequence:
#
# PCOD9420645 Si02
#       6
#     8   8   8   4   8   8
#     4  10  18  33  52  92 122 155 183 245 307 369
#     4  10  20  34  59  91 123 152 205 261 319 380
#     4  10  21  37  57  87 119 158 207 258 322 376
#     4  10  24  38  56  86 118 166 214 260 322 378
#     4  11  20  37  59  88 122 166 206 268 316 380
#     4  10  19  31  58  86 125 151 194 242 306 366
#
# _framework density 22.32741
#
# number of rings (size 3 to 8) (size 9 to 14) (size 15 to 20)
#    0.000    1.818    3.636    3.273    2.545    0.000 
#    0.000    0.000    0.000    1.091    0.000    0.000 
#    0.000    0.000    0.000    0.000    0.000    0.000 
#
# Total GULP energy -245693.657766 kJ/mol
# GULP energy per Si atom -5583.946767 kJ/mol
# Density = 2.227659 g / cm^3
# Si number density = 22.327410 Si / 1000 Ang^3
#
#
#
# Elastic Constant Matrix: (Units=GPa)
#
#
# Indices 1 2 3 4 5 6 
#
# 1 42.4811 5.6520 15.5204 0.0000 0.0000 0.0000
# 2 5.6520 130.6878 21.6980 0.0000 0.0000 0.0000
# 3 15.5204 21.6980 128.9973 0.0000 0.0000 0.0000
# 4 0.0000 0.0000 0.0000 2.7099 0.0000 0.0000
# 5 0.0000 0.0000 0.0000 0.0000 7.6706 0.0000
# 6 0.0000 0.0000 0.0000 0.0000 0.0000 25.0078
#
#
#
# Elastic Compliance Matrix: (Units=1/GPa)
#
#
# Indices 1 2 3 4 5 6 
#
# 1 0.024666 -0.000591 -0.002868 0.000000 0.000000 0.000000
# 2 -0.000591 0.007886 -0.001255 0.000000 0.000000 0.000000
# 3 -0.002868 -0.001255 0.008308 0.000000 0.000000 0.000000
# 4 0.000000 0.000000 0.000000 0.369024 0.000000 0.000000
# 5 0.000000 0.000000 0.000000 0.000000 0.130368 0.000000
# 6 0.000000 0.000000 0.000000 0.000000 0.000000 0.039988
#
#
# Mechanical properties :
#
#
# Convention : Reuss Voigt Hill
#
# Bulk Modulus (GPa) = 31.81482 43.10079 37.45780
# Shear Modulus (GPa) = 8.33130 24.36402 16.34766
#
# Velocity S-wave (km/s) = 1.93378 3.30694 2.70882
# Velocity P-wave (km/s) = 4.38933 5.82469 5.15719
#
# Compressibility (1/GPa) = 0.03143190
#
# Stress axis : x y z
#
# Youngs Moduli (GPa) = 40.54096 126.81027 120.36039
#
# Poissons Ratio (x) = 0.07489 0.34525
# Poissons Ratio (y) = 0.02394 0.15110
# Poissons Ratio (z) = 0.11629 0.15920
#
# Static dielectric constant tensor:
#      x y z
#    x 1.877610 0.000000 0.000000 
#    y 0.000000 1.890560 0.000000 
#    z 0.000000 0.000000 1.804300 
# 
# From -- ./inp_files/24571.got.cif
#   From: 2010.05.17/outbox.cif.g08.bks.cpg/sg54_13_cif.got.tgz:24571.got - 2010.06.03 13:09:01.
