data_PCOD9420444
_publ_section_title
;
Structure prediction by ZEFSAII (Michael W. Deem and Ramdas Pophale) SiO2 
 PCOD9420444
Probable space group: P C C A
;
_chemical_formula_sum "Si O2"
_cell_formula_units_Z 60
_cell_length_a 27.814178
_cell_length_b 20.557750
_cell_length_c 5.168812
_cell_angle_alpha 90.000000
_cell_angle_beta 90.000000
_cell_angle_gamma 90.000000
_cell_volume 2955.510770
_symmetry_space_group_name_H-M "P C C A"
_symmetry_group_IT_number 54
_symmetry_cell_setting 'orthorhombic'
loop_
_space_group_symop_operation_xyz
x,y,z
1/2-x,-y,z
1/2+x,-y,1/2-z
-x,y,1/2-z
-x,-y,-z
1/2+x,y,-z
1/2-x,y,1/2+z
x,-y,1/2+z
loop_
_atom_site_type_symbol
_atom_site_label
_atom_site_fract_x
_atom_site_fract_y
_atom_site_fract_z
Si Si1 0.779624 0.832674 0.738869
Si Si2 0.836988 0.957658 0.699455
Si Si3 0.000000 0.871894 0.250000
Si Si4 0.858136 0.227349 0.879955
Si Si5 0.717009 0.322317 0.128109
Si Si6 0.407006 0.129845 0.487945
Si Si7 0.953068 0.768368 0.642739
Si Si8 0.695670 0.527977 0.559680
O O1 0.761692 0.819226 0.027350
O O2 0.792567 0.908750 0.729546
O O3 0.825278 0.794097 0.624345
O O4 0.881655 0.914075 0.798205
O O5 0.836936 0.984641 0.409887
O O6 0.975939 0.825138 0.464316
O O7 0.046544 0.906761 0.369137
O O8 0.827507 0.276922 0.707342
O O9 0.871190 0.160370 0.726094
O O10 0.908320 0.258608 0.978630
O O11 0.758127 0.313543 0.348197
O O12 0.699883 0.397218 0.134760
O O13 0.427857 0.194664 0.620598
O O14 0.000000 0.730485 0.750000
O O15 0.750000 0.500000 0.520674
O O16 0.672227 0.514742 0.283872
#
# Coordination Sequence:
#
# PCOD9420444 Si02
#       8
#     8   8   4   8   8   8   8   8
#     4  12  25  42  60  80 113 151 190 242 295 343
#     4  12  26  42  63  84 108 149 200 244 289 355
#     4   8  18  34  64  86 110 150 186 224 316 392
#     4  11  23  36  58  89 120 152 193 247 307 355
#     4  12  23  34  54  86 124 165 209 241 284 345
#     4  10  20  40  60  84 117 150 185 248 312 370
#     4   9  18  36  63  84 111 151 188 232 308 379
#     4  10  16  33  52  73 112 169 206 243 274 324
#
# _framework density 20.30106
#
# number of rings (size 3 to 8) (size 9 to 14) (size 15 to 20)
#    0.000    1.333    4.000    3.200    3.733    1.600 
#    0.000    0.667    0.000    0.000    0.000    0.000 
#    0.000    1.067    0.000    0.000    0.000    0.000 
#
# Total GULP energy -334928.307931 kJ/mol
# GULP energy per Si atom -5582.138466 kJ/mol
# Density = 2.025485 g / cm^3
# Si number density = 20.301060 Si / 1000 Ang^3
#
#
#
# Elastic Constant Matrix: (Units=GPa)
#
#
# Indices 1 2 3 4 5 6 
#
# 1 98.1131 19.1932 26.4086 0.0000 0.0000 0.0000
# 2 19.1932 56.9217 -2.6584 0.0000 0.0000 0.0000
# 3 26.4086 -2.6584 95.0528 0.0000 0.0000 0.0000
# 4 0.0000 0.0000 0.0000 23.1713 0.0000 0.0000
# 5 0.0000 0.0000 0.0000 0.0000 33.5056 0.0000
# 6 0.0000 0.0000 0.0000 0.0000 0.0000 8.8741
#
#
#
# Elastic Compliance Matrix: (Units=1/GPa)
#
#
# Indices 1 2 3 4 5 6 
#
# 1 0.011935 -0.004185 -0.003433 0.000000 0.000000 0.000000
# 2 -0.004185 0.019058 0.001696 0.000000 0.000000 0.000000
# 3 -0.003433 0.001696 0.011522 0.000000 0.000000 0.000000
# 4 0.000000 0.000000 0.000000 0.043157 0.000000 0.000000
# 5 0.000000 0.000000 0.000000 0.000000 0.029846 0.000000
# 6 0.000000 0.000000 0.000000 0.000000 0.000000 0.112687
#
#
# Mechanical properties :
#
#
# Convention : Reuss Voigt Hill
#
# Bulk Modulus (GPa) = 32.60414 37.33050 34.96732
# Shear Modulus (GPa) = 19.97825 26.91982 23.44904
#
# Velocity S-wave (km/s) = 3.14044 3.64542 3.40231
# Velocity P-wave (km/s) = 5.40786 6.01225 5.71805
#
# Compressibility (1/GPa) = 0.03067095
#
# Stress axis : x y z
#
# Youngs Moduli (GPa) = 83.78750 52.47086 86.79299
#
# Poissons Ratio (x) = 0.21957 0.29795
# Poissons Ratio (y) = 0.35062 -0.14717
# Poissons Ratio (z) = 0.28764 -0.08897
#
# Static dielectric constant tensor:
#      x y z
#    x 1.954280 0.000000 0.000000 
#    y 0.000000 1.738100 0.000000 
#    z 0.000000 0.000000 1.853050 
# 
# From -- ./inp_files/1705.got.cif
#   From: 2010.05.17/outbox.cif.g08.bks.cpg/sg54_1_cif.got.tgz:1705.got - 2010.06.03 13:09:01.
