data_PCOD9420722
_publ_section_title
;
Structure prediction by ZEFSAII (Michael W. Deem and Ramdas Pophale) SiO2 
 PCOD9420722
Probable space group: P C C A
;
_chemical_formula_sum "Si O2"
_cell_formula_units_Z 40
_cell_length_a 13.862264
_cell_length_b 22.168627
_cell_length_c 5.506740
_cell_angle_alpha 90.000000
_cell_angle_beta 90.000000
_cell_angle_gamma 90.000000
_cell_volume 1692.261732
_symmetry_space_group_name_H-M "P C C A"
_symmetry_group_IT_number 54
_symmetry_cell_setting 'orthorhombic'
loop_
_space_group_symop_operation_xyz
x,y,z
1/2-x,-y,z
1/2+x,-y,1/2-z
-x,y,1/2-z
-x,-y,-z
1/2+x,y,-z
1/2-x,y,1/2+z
x,-y,1/2+z
loop_
_atom_site_type_symbol
_atom_site_label
_atom_site_fract_x
_atom_site_fract_y
_atom_site_fract_z
Si Si1 0.640790 0.788505 0.872023
Si Si2 0.110558 0.023416 0.017468
Si Si3 0.108478 0.475642 0.518782
Si Si4 0.689525 0.650358 0.899327
Si Si5 0.136484 0.163452 0.128443
O O1 0.597836 0.802639 0.609365
O O2 0.645760 0.717128 0.912241
O O3 0.596228 0.819506 0.108354
O O4 0.750637 0.815592 0.856721
O O5 0.122232 0.092940 0.084759
O O6 0.150734 0.013699 0.746889
O O7 0.000000 0.000000 0.000000
O O8 0.150667 0.489672 0.252627
O O9 0.116212 0.404985 0.573031
O O10 0.000000 0.500000 0.500000
O O11 0.759642 0.645410 0.135051
#
# Coordination Sequence:
#
# PCOD9420722 Si02
#       5
#     8   8   8   8   8
#     4  10  19  35  55  92 115 150 190 245 314 350
#     4  10  21  37  57  80 113 157 202 242 289 357
#     4  10  23  42  62  87 132 175 208 252 316 381
#     4  12  21  37  65  98 127 156 217 267 312 378
#     4  10  18  35  58  81 123 147 188 244 299 362
#
# _framework density 23.637007000000001
#
# number of rings (size 3 to 8) (size 9 to 14) (size 15 to 20)
#    0.000    1.600    4.000    2.400    0.000    2.400 
#    0.000   12.000    0.000   28.800    0.000    0.000 
#    0.000    0.000    0.000    0.000    0.000    0.000 
#
# Total GULP energy -223569.945190 kJ/mol
# GULP energy per Si atom -5589.248630 kJ/mol
# Density = 2.358321 g / cm^3
# Si number density = 23.637007 Si / 1000 Ang^3
#
#
#
# Elastic Constant Matrix: (Units=GPa)
#
#
# Indices 1 2 3 4 5 6 
#
# 1 83.4047 27.5366 25.2355 0.0000 0.0000 0.0000
# 2 27.5366 205.1333 30.9200 0.0000 0.0000 0.0000
# 3 25.2355 30.9200 241.1478 0.0000 0.0000 0.0000
# 4 0.0000 0.0000 0.0000 48.0617 0.0000 0.0000
# 5 0.0000 0.0000 0.0000 0.0000 6.3114 0.0000
# 6 0.0000 0.0000 0.0000 0.0000 0.0000 -179.6633
#
#
#
# Elastic Compliance Matrix: (Units=1/GPa)
#
#
# Indices 1 2 3 4 5 6 
#
# 1 0.012849 -0.001552 -0.001146 0.000000 0.000000 0.000000
# 2 -0.001552 0.005158 -0.000499 0.000000 0.000000 0.000000
# 3 -0.001146 -0.000499 0.004331 0.000000 0.000000 0.000000
# 4 0.000000 0.000000 0.000000 0.020807 0.000000 0.000000
# 5 0.000000 0.000000 0.000000 0.000000 0.158443 0.000000
# 6 0.000000 0.000000 0.000000 0.000000 0.000000 -0.005566
#
#
# Mechanical properties :
#
#
# Convention : Reuss Voigt Hill
#
# Bulk Modulus (GPa) = 62.71732 77.45220 70.08476
# Shear Modulus (GPa) = 24.06974 4.67487 14.37231
#
# Velocity S-wave (km/s) = 3.19455 1.40786 2.46853
# Velocity P-wave (km/s) = 6.34019 5.95661 6.15139
#
# Compressibility (1/GPa) = 0.01594456
#
# Stress axis : x y z
#
# Youngs Moduli (GPa) = 77.82836 193.85695 230.90970
#
# Poissons Ratio (x) = 0.30089 0.26453
# Poissons Ratio (y) = 0.12080 0.11522
# Poissons Ratio (z) = 0.08916 0.09673
#
# Static dielectric constant tensor:
#      x y z
#    x 1.873760 0.000000 0.000000 
#    y 0.000000 1.817810 0.000000 
#    z 0.000000 0.000000 2.043580 
# 
# From -- ./inp_files/936.got.cif
#   From: 2010.05.17/outbox.cif.g08.bks.cpg/sg54_1_cif.got.tgz:936.got - 2010.06.03 13:09:01.
