data_PCOD9420969
_publ_section_title
;
Structure prediction by ZEFSAII (Michael W. Deem and Ramdas Pophale) SiO2 
 PCOD9420969
Probable space group: P C C A
;
_chemical_formula_sum "Si O2"
_cell_formula_units_Z 64
_cell_length_a 27.895935
_cell_length_b 15.098899
_cell_length_c 8.776770
_cell_angle_alpha 90.000000
_cell_angle_beta 90.000000
_cell_angle_gamma 90.000000
_cell_volume 3696.757137
_symmetry_space_group_name_H-M "P C C A"
_symmetry_group_IT_number 54
_symmetry_cell_setting 'orthorhombic'
loop_
_space_group_symop_operation_xyz
x,y,z
1/2-x,-y,z
1/2+x,-y,1/2-z
-x,y,1/2-z
-x,-y,-z
1/2+x,y,-z
1/2-x,y,1/2+z
x,-y,1/2+z
loop_
_atom_site_type_symbol
_atom_site_label
_atom_site_fract_x
_atom_site_fract_y
_atom_site_fract_z
Si Si1 0.028565 0.197182 0.087873
Si Si2 0.934875 0.870702 0.438789
Si Si3 0.304598 0.591565 0.100238
Si Si4 0.536471 0.461687 0.375968
Si Si5 0.292992 0.604301 0.463468
Si Si6 0.909625 0.645059 0.851094
Si Si7 0.892358 0.687937 0.502671
Si Si8 0.942177 0.964493 0.753938
O O1 0.056005 0.288312 0.056674
O O2 0.063997 0.115210 0.123925
O O3 0.000000 0.212056 0.250000
O O4 0.989626 0.164617 0.965032
O O5 0.904330 0.782463 0.433606
O O6 0.925481 0.927228 0.592892
O O7 0.925399 0.939592 0.304835
O O8 0.295288 0.593080 0.281357
O O9 0.259330 0.635675 0.016530
O O10 0.303262 0.491177 0.039227
O O11 0.357376 0.631416 0.075252
O O12 0.500000 0.425620 0.250000
O O13 0.500000 0.500000 0.500000
O O14 0.566781 0.548485 0.325959
O O15 0.573087 0.387671 0.433954
O O16 0.336921 0.664453 0.515219
O O17 0.902988 0.688034 0.684172
O O18 0.000000 0.974236 0.750000
#
# Coordination Sequence:
#
# PCOD9420969 Si02
#       8
#     8   8   8   8   8   8   8   8
#     4   9  15  29  51  77 103 137 183 208 254 322
#     4  10  19  33  55  76 110 140 177 226 264 324
#     4  10  20  34  58  75 104 140 179 231 263 318
#     4  12  23  34  50  74 114 156 185 211 248 312
#     4  10  20  36  56  78 104 137 185 224 276 307
#     4  11  19  35  54  78 102 153 186 211 266 325
#     4  11  21  36  55  78 110 146 186 222 267 320
#     4   9  17  31  54  75 102 140 179 218 272 307
#
# _framework density 17.312470999999999
#
# number of rings (size 3 to 8) (size 9 to 14) (size 15 to 20)
#    0.000    2.000    5.000    4.125    0.000    0.500 
#    2.250    1.250    0.000    0.000    0.000    0.875 
#    0.000    0.000    0.000    0.000    0.000    0.000 
#
# Total GULP energy -356916.584795 kJ/mol
# GULP energy per Si atom -5576.821637 kJ/mol
# Density = 1.727307 g / cm^3
# Si number density = 17.312471 Si / 1000 Ang^3
#
#
#
# Elastic Constant Matrix: (Units=GPa)
#
#
# Indices 1 2 3 4 5 6 
#
# 1 86.8691 39.2186 15.8196 0.0000 0.0000 0.0000
# 2 39.2186 110.6625 14.8282 0.0000 0.0000 0.0000
# 3 15.8196 14.8282 27.7258 0.0000 0.0000 0.0000
# 4 0.0000 0.0000 0.0000 16.4920 0.0000 0.0000
# 5 0.0000 0.0000 0.0000 0.0000 13.9459 0.0000
# 6 0.0000 0.0000 0.0000 0.0000 0.0000 15.0622
#
#
#
# Elastic Compliance Matrix: (Units=1/GPa)
#
#
# Indices 1 2 3 4 5 6 
#
# 1 0.014570 -0.004362 -0.005980 0.000000 0.000000 0.000000
# 2 -0.004362 0.011040 -0.003415 0.000000 0.000000 0.000000
# 3 -0.005980 -0.003415 0.041306 0.000000 0.000000 0.000000
# 4 0.000000 0.000000 0.000000 0.060635 0.000000 0.000000
# 5 0.000000 0.000000 0.000000 0.000000 0.071705 0.000000
# 6 0.000000 0.000000 0.000000 0.000000 0.000000 0.066391
#
#
# Mechanical properties :
#
#
# Convention : Reuss Voigt Hill
#
# Bulk Modulus (GPa) = 25.38039 40.55447 32.96743
# Shear Modulus (GPa) = 16.32396 19.45943 17.89170
#
# Velocity S-wave (km/s) = 3.07400 3.35627 3.21823
# Velocity P-wave (km/s) = 5.22411 6.20445 5.73527
#
# Compressibility (1/GPa) = 0.03940050
#
# Stress axis : x y z
#
# Youngs Moduli (GPa) = 68.63391 90.57877 24.20942
#
# Poissons Ratio (x) = 0.39513 0.14478
# Poissons Ratio (y) = 0.29940 0.08269
# Poissons Ratio (z) = 0.41045 0.30936
#
# Static dielectric constant tensor:
#      x y z
#    x 1.626530 0.000000 0.000000 
#    y 0.000000 1.613210 0.000000 
#    z 0.000000 0.000000 1.182960 
# 
# From -- ./inp_files/6008.got.cif
#   From: 2010.05.17/outbox.cif.g08.bks.cpg/sg54_4_cif.got.tgz:6008.got - 2010.06.03 13:09:01.
