data_PCOD9420958
_publ_section_title
;
Structure prediction by ZEFSAII (Michael W. Deem and Ramdas Pophale) SiO2 
 PCOD9420958
Probable space group: P C C A
;
_chemical_formula_sum "Si O2"
_cell_formula_units_Z 56
_cell_length_a 5.175152
_cell_length_b 36.475629
_cell_length_c 16.974802
_cell_angle_alpha 90.000000
_cell_angle_beta 90.000000
_cell_angle_gamma 90.000000
_cell_volume 3204.281165
_symmetry_space_group_name_H-M "P C C A"
_symmetry_group_IT_number 54
_symmetry_cell_setting 'orthorhombic'
loop_
_space_group_symop_operation_xyz
x,y,z
1/2-x,-y,z
1/2+x,-y,1/2-z
-x,y,1/2-z
-x,-y,-z
1/2+x,y,-z
1/2-x,y,1/2+z
x,-y,1/2+z
loop_
_atom_site_type_symbol
_atom_site_label
_atom_site_fract_x
_atom_site_fract_y
_atom_site_fract_z
Si Si1 0.284573 0.900304 0.554878
Si Si2 0.719635 0.458099 0.446589
Si Si3 0.283512 0.740556 0.554962
Si Si4 0.750403 0.598016 0.804049
Si Si5 0.808537 0.179527 0.448363
Si Si6 0.749922 0.683454 0.304301
Si Si7 0.250105 0.042900 0.695981
O O1 0.558635 0.903266 0.510594
O O2 0.251663 0.859359 0.591409
O O3 0.254091 0.930984 0.620748
O O4 0.750000 0.500000 0.416951
O O5 0.442917 0.453539 0.488104
O O6 0.751425 0.429074 0.377450
O O7 0.556919 0.737522 0.510294
O O8 0.251389 0.781556 0.591283
O O9 0.253933 0.710005 0.621165
O O10 0.500000 0.591894 0.750000
O O11 0.749861 0.640710 0.829595
O O12 0.000000 0.592109 0.750000
O O13 0.604544 0.179508 0.521820
O O14 0.500000 0.689603 0.250000
O O15 0.000000 0.689533 0.250000
O O16 0.500000 0.049405 0.750000
O O17 0.000000 0.049316 0.750000
O O18 0.250000 0.000000 0.672027
#
# Coordination Sequence:
#
# PCOD9420958 Si02
#       7
#     8   8   8   8   8   8   8
#     4  10  19  33  54  76  98 128 168 209 244 288
#     4  10  21  36  54  78 106 132 164 211 256 292
#     4  10  19  33  54  76  98 132 173 203 241 302
#     4  10  21  36  54  75 102 137 171 204 247 301
#     4   8  16  30  48  72 100 126 158 205 250 286
#     4  10  21  36  51  74 107 134 163 210 257 288
#     4  10  21  36  51  71 103 135 161 200 253 299
#
# _framework density 17.476618999999999
#
# number of rings (size 3 to 8) (size 9 to 14) (size 15 to 20)
#    0.000    2.286    0.000    2.571    0.000    2.286 
#    0.000    1.429    0.000    0.000    0.000    0.000 
#    0.000    0.000    0.000    0.000    0.000    0.000 
#
# Total GULP energy -312361.004389 kJ/mol
# GULP energy per Si atom -5577.875078 kJ/mol
# Density = 1.743684 g / cm^3
# Si number density = 17.476619 Si / 1000 Ang^3
#
#
#
# Elastic Constant Matrix: (Units=GPa)
#
#
# Indices 1 2 3 4 5 6 
#
# 1 99.8803 19.0210 5.4442 0.0000 0.0000 0.0000
# 2 19.0210 129.3664 72.5737 0.0000 0.0000 0.0000
# 3 5.4442 72.5737 53.2011 0.0000 0.0000 0.0000
# 4 0.0000 0.0000 0.0000 -125.8072 0.0000 0.0000
# 5 0.0000 0.0000 0.0000 0.0000 6.6980 0.0000
# 6 0.0000 0.0000 0.0000 0.0000 0.0000 40.1567
#
#
#
# Elastic Compliance Matrix: (Units=1/GPa)
#
#
# Indices 1 2 3 4 5 6 
#
# 1 0.010538 -0.004024 0.004410 0.000000 0.000000 0.000000
# 2 -0.004024 0.034468 -0.046608 0.000000 0.000000 0.000000
# 3 0.004410 -0.046608 0.081925 0.000000 0.000000 0.000000
# 4 0.000000 0.000000 0.000000 -0.007949 0.000000 0.000000
# 5 0.000000 0.000000 0.000000 0.000000 0.149299 0.000000
# 6 0.000000 0.000000 0.000000 0.000000 0.000000 0.024902
#
#
# Mechanical properties :
#
#
# Convention : Reuss Voigt Hill
#
# Bulk Modulus (GPa) = 28.99478 52.94730 40.97104
# Shear Modulus (GPa) = 12.59059 -3.42991 4.58034
#
# Velocity S-wave (km/s) = 2.68698 -1.40244 1.62066
# Velocity P-wave (km/s) = 5.12378 5.26682 5.19579
#
# Compressibility (1/GPa) = 0.03448897
#
# Stress axis : x y z
#
# Youngs Moduli (GPa) = 94.89614 29.01217 12.20630
#
# Poissons Ratio (x) = 0.11673 -0.05383
# Poissons Ratio (y) = 0.38183 0.56891
# Poissons Ratio (z) = -0.41853 1.35219
#
# Static dielectric constant tensor:
#      x y z
#    x 1.584580 0.000000 0.000000 
#    y 0.000000 1.617560 0.000000 
#    z 0.000000 0.000000 1.527340 
# 
# From -- ./inp_files/10979.got.cif
#   From: 2010.05.17/outbox.cif.g08.bks.cpg/sg54_6_cif.got.tgz:10979.got - 2010.06.03 13:09:01.
