data_PCOD9420162
_publ_section_title
;
Structure prediction by ZEFSAII (Michael W. Deem and Ramdas Pophale) SiO2 
 PCOD9420162
Probable space group: P M N A
;
_chemical_formula_sum "Si O2"
_cell_formula_units_Z 48
_cell_length_a 18.000000
_cell_length_b 9.000000
_cell_length_c 15.000000
_cell_angle_alpha 90.000000
_cell_angle_beta 90.000000
_cell_angle_gamma 90.000000
_cell_volume 2430.000000
_symmetry_space_group_name_H-M "P M N A"
_symmetry_group_IT_number 53
_symmetry_cell_setting 'orthorhombic'
loop_
_space_group_symop_operation_xyz
x,y,z
1/2-x,-y,1/2+z
x,-y,-z
1/2-x,y,1/2-z
-x,-y,-z
1/2+x,y,1/2-z
-x,y,z
1/2+x,-y,1/2+z
loop_
_atom_site_type_symbol
_atom_site_label
_atom_site_fract_x
_atom_site_fract_y
_atom_site_fract_z
Si Si1 0.913304 0.019789 0.754062
Si Si2 0.180596 0.886821 0.080506
Si Si3 0.086551 0.859459 0.567177
Si Si4 0.588680 0.394498 0.581467
Si Si5 0.414052 0.371818 0.783425
Si Si6 0.189527 0.351406 0.549608
O O1 0.850696 0.023947 0.832388
O O2 0.915191 0.191765 0.722616
O O3 0.000000 0.985647 0.782359
O O4 0.895419 0.917382 0.667659
O O5 0.113927 0.772370 0.059610
O O6 0.250058 0.770055 0.086133
O O7 0.195368 0.000000 0.000000
O O8 0.139100 0.735975 0.523151
O O9 0.000000 0.810876 0.567747
O O10 0.091342 0.000000 0.500000
O O11 0.612427 0.500000 0.500000
O O12 0.500000 0.400878 0.585986
O O13 0.612849 0.425931 0.684717
O O14 0.500000 0.420784 0.797564
O O15 0.360776 0.404174 0.866515
O O16 0.219374 0.500000 0.500000
#
# Coordination Sequence:
#
# PCOD9420162 Si02
#       6
#     8   8   8   8   8   8
#     4   9  19  38  68  95 116 156 213 266 320 375
#     4  11  24  41  61  89 124 167 214 264 319 380
#     4  10  19  38  67  94 123 158 209 270 317 376
#     4   9  19  39  66  91 121 162 213 266 318 378
#     4   9  18  36  63  90 117 164 214 254 313 376
#     4  12  25  40  58  90 133 173 213 255 321 395
#
# _framework density 19.753086
#
# number of rings (size 3 to 8) (size 9 to 14) (size 15 to 20)
#    0.000    2.000    1.667    3.000    0.000    5.333 
#    3.000    0.000    0.000    0.000    0.000    0.000 
#    0.000    0.000    0.000    0.000    0.000    0.000 
#
# Total GULP energy -267702.405346 kJ/mol
# GULP energy per Si atom -5577.133445 kJ/mol
# Density = 1.970813 g / cm^3
# Si number density = 19.753086 Si / 1000 Ang^3
#
#
#
# Elastic Constant Matrix: (Units=GPa)
#
#
# Indices 1 2 3 4 5 6 
#
# 1 91.4124 26.7756 68.0262 0.0000 0.0000 0.0000
# 2 26.7756 50.1734 46.0230 0.0000 0.0000 0.0000
# 3 68.0262 46.0230 150.5290 0.0000 0.0000 0.0000
# 4 0.0000 0.0000 0.0000 41.5328 0.0000 0.0000
# 5 0.0000 0.0000 0.0000 0.0000 25.5470 0.0000
# 6 0.0000 0.0000 0.0000 0.0000 0.0000 18.8990
#
#
#
# Elastic Compliance Matrix: (Units=1/GPa)
#
#
# Indices 1 2 3 4 5 6 
#
# 1 0.016756 -0.002774 -0.006724 0.000000 0.000000 0.000000
# 2 -0.002774 0.028158 -0.007356 0.000000 0.000000 0.000000
# 3 -0.006724 -0.007356 0.011931 0.000000 0.000000 0.000000
# 4 0.000000 0.000000 0.000000 0.024077 0.000000 0.000000
# 5 0.000000 0.000000 0.000000 0.000000 0.039144 0.000000
# 6 0.000000 0.000000 0.000000 0.000000 0.000000 0.052913
#
#
# Mechanical properties :
#
#
# Convention : Reuss Voigt Hill
#
# Bulk Modulus (GPa) = 43.21957 63.75160 53.48558
# Shear Modulus (GPa) = 23.32103 27.28175 25.30139
#
# Velocity S-wave (km/s) = 3.43975 3.72040 3.58283
# Velocity P-wave (km/s) = 6.14030 7.12737 6.65217
#
# Compressibility (1/GPa) = 0.02313767
#
# Stress axis : x y z
#
# Youngs Moduli (GPa) = 59.68074 35.51337 83.81651
#
# Poissons Ratio (x) = 0.09852 0.56359
# Poissons Ratio (y) = 0.16556 0.61652
# Poissons Ratio (z) = 0.40130 0.26122
#
# Static dielectric constant tensor:
#      x y z
#    x 1.744600 0.000000 0.000000 
#    y 0.000000 1.685950 0.000000 
#    z 0.000000 0.000000 1.714960 
# 
# From -- ./inp_files/23636.got.cif
#   From: 2010.05.17/outbox.ucp.g08.bks.cvg/sg53_12_cif.got.tgz:23636.got - 2010.06.11 16:32:34.
