data_PCOD9420920
_publ_section_title
;
Structure prediction by ZEFSAII (Michael W. Deem and Ramdas Pophale) SiO2 
 PCOD9420920
Probable space group: P C C A
;
_chemical_formula_sum "Si O2"
_cell_formula_units_Z 48
_cell_length_a 13.068502
_cell_length_b 11.755107
_cell_length_c 15.245353
_cell_angle_alpha 90.000000
_cell_angle_beta 90.000000
_cell_angle_gamma 90.000000
_cell_volume 2342.016120
_symmetry_space_group_name_H-M "P C C A"
_symmetry_group_IT_number 54
_symmetry_cell_setting 'orthorhombic'
loop_
_space_group_symop_operation_xyz
x,y,z
1/2-x,-y,z
1/2+x,-y,1/2-z
-x,y,1/2-z
-x,-y,-z
1/2+x,y,-z
1/2-x,y,1/2+z
x,-y,1/2+z
loop_
_atom_site_type_symbol
_atom_site_label
_atom_site_fract_x
_atom_site_fract_y
_atom_site_fract_z
Si Si1 0.886282 0.200711 0.793638
Si Si2 0.028861 0.121591 0.536882
Si Si3 0.624490 0.493426 0.705532
Si Si4 0.642095 0.560915 0.887081
Si Si5 0.128732 0.677691 0.940999
Si Si6 0.650992 0.270118 0.117587
O O1 0.901482 0.114012 0.874257
O O2 0.849843 0.314321 0.843227
O O3 0.818709 0.197639 0.705358
O O4 0.000000 0.209525 0.750000
O O5 0.082347 0.200926 0.464626
O O6 0.929579 0.194676 0.565370
O O7 0.000000 0.000000 0.500000
O O8 0.750000 0.500000 0.712159
O O9 0.588502 0.494096 0.806752
O O10 0.602221 0.381727 0.650033
O O11 0.602221 0.611487 0.653874
O O12 0.750000 0.500000 0.902762
O O13 0.597415 0.589309 0.982083
O O14 0.251209 0.695202 0.938794
#
# Coordination Sequence:
#
# PCOD9420920 Si02
#       6
#     8   8   8   8   8   8
#     4   8  16  32  54  76 102 144 187 228 283 337
#     4  10  21  35  55  81 111 146 195 244 279 330
#     4   8  15  28  49  79 110 140 178 226 281 343
#     4   9  15  26  48  77 109 138 169 216 271 336
#     4  10  19  32  54  82 111 148 185 227 285 341
#     4   9  17  33  57  81 109 144 185 231 288 348
#
# _framework density 20.495161
#
# number of rings (size 3 to 8) (size 9 to 14) (size 15 to 20)
#    0.000    3.000    0.000    2.500    0.000    1.333 
#    0.000    3.333    0.000   48.000    0.000    0.000 
#    0.000    0.000    0.000    0.000    0.000    0.000 
#
# Total GULP energy -267283.801640 kJ/mol
# GULP energy per Si atom -5568.412534 kJ/mol
# Density = 2.044851 g / cm^3
# Si number density = 20.495161 Si / 1000 Ang^3
#
#
#
# Elastic Constant Matrix: (Units=GPa)
#
#
# Indices 1 2 3 4 5 6 
#
# 1 44.2033 27.3475 23.5833 0.0000 0.0000 0.0000
# 2 27.3475 83.3758 43.5853 0.0000 0.0000 0.0000
# 3 23.5833 43.5853 97.1280 0.0000 0.0000 0.0000
# 4 0.0000 0.0000 0.0000 25.7817 0.0000 0.0000
# 5 0.0000 0.0000 0.0000 0.0000 29.9197 0.0000
# 6 0.0000 0.0000 0.0000 0.0000 0.0000 22.8982
#
#
#
# Elastic Compliance Matrix: (Units=1/GPa)
#
#
# Indices 1 2 3 4 5 6 
#
# 1 0.029349 -0.007710 -0.003666 0.000000 0.000000 0.000000
# 2 -0.007710 0.017695 -0.006069 0.000000 0.000000 0.000000
# 3 -0.003666 -0.006069 0.013909 0.000000 0.000000 0.000000
# 4 0.000000 0.000000 0.000000 0.038787 0.000000 0.000000
# 5 0.000000 0.000000 0.000000 0.000000 0.033423 0.000000
# 6 0.000000 0.000000 0.000000 0.000000 0.000000 0.043671
#
#
# Mechanical properties :
#
#
# Convention : Reuss Voigt Hill
#
# Bulk Modulus (GPa) = 38.36784 45.97103 42.16944
# Shear Modulus (GPa) = 22.68484 24.39933 23.54208
#
# Velocity S-wave (km/s) = 3.33053 3.45409 3.39287
# Velocity P-wave (km/s) = 5.79232 6.19569 5.99740
#
# Compressibility (1/GPa) = 0.02606350
#
# Stress axis : x y z
#
# Youngs Moduli (GPa) = 34.07307 56.51288 71.89542
#
# Poissons Ratio (x) = 0.43570 0.26359
# Poissons Ratio (y) = 0.26270 0.43630
# Poissons Ratio (z) = 0.12492 0.34295
#
# Static dielectric constant tensor:
#      x y z
#    x 1.869360 0.000000 0.000000 
#    y 0.000000 1.688090 0.000000 
#    z 0.000000 0.000000 1.826680 
# 
# From -- ./inp_files/13401.got.cif
#   From: 2010.05.17/outbox.cif.g08.bks.cpg/sg54_7_cif.got.tgz:13401.got - 2010.06.03 13:09:01.
