data_PCOD9420713
_publ_section_title
;
Structure prediction by ZEFSAII (Michael W. Deem and Ramdas Pophale) SiO2 
 PCOD9420713
Probable space group: P C C A
;
_chemical_formula_sum "Si O2"
_cell_formula_units_Z 36
_cell_length_a 9.423959
_cell_length_b 8.656906
_cell_length_c 17.005066
_cell_angle_alpha 90.000000
_cell_angle_beta 90.000000
_cell_angle_gamma 90.000000
_cell_volume 1387.312859
_symmetry_space_group_name_H-M "P C C A"
_symmetry_group_IT_number 54
_symmetry_cell_setting 'orthorhombic'
loop_
_space_group_symop_operation_xyz
x,y,z
1/2-x,-y,z
1/2+x,-y,1/2-z
-x,y,1/2-z
-x,-y,-z
1/2+x,y,-z
1/2-x,y,1/2+z
x,-y,1/2+z
loop_
_atom_site_type_symbol
_atom_site_label
_atom_site_fract_x
_atom_site_fract_y
_atom_site_fract_z
Si Si1 0.370069 0.751451 0.009038
Si Si2 0.750000 0.500000 0.247521
Si Si3 0.556010 0.950385 0.635125
Si Si4 0.250000 0.000000 0.120103
Si Si5 0.500000 0.696250 0.750000
Si Si6 0.863898 0.299869 0.109005
O O1 0.446141 0.875547 0.951533
O O2 0.265498 0.665155 0.950106
O O3 0.269850 0.849827 0.066493
O O4 0.489181 0.670690 0.062017
O O5 0.627180 0.402114 0.290433
O O6 0.843320 0.393418 0.188715
O O7 0.397230 0.992726 0.664797
O O8 0.585998 0.804332 0.690028
O O9 0.634886 0.114132 0.627938
#
# Coordination Sequence:
#
# PCOD9420713 Si02
#       6
#     8   4   8   4   4   8
#     4  11  18  39  71 108 134 169 223 304 354 420
#     4  12  30  50  64 102 148 198 228 300 348 440
#     4  11  22  41  72 101 134 187 239 290 339 424
#     4  10  18  34  68 116 128 156 230 310 348 394
#     4  12  30  50  68  90 146 194 250 282 344 428
#     4  11  23  42  75 104 145 171 233 294 375 411
#
# _framework density 25.949445999999998
#
# number of rings (size 3 to 8) (size 9 to 14) (size 15 to 20)
#    0.000    0.889    6.667    1.333    0.000    7.111 
#    0.000    0.000    0.000    0.000    0.000    0.000 
#    0.000    0.000    0.000    0.000    0.000    0.000 
#
# Total GULP energy -201197.966877 kJ/mol
# GULP energy per Si atom -5588.832413 kJ/mol
# Density = 2.589038 g / cm^3
# Si number density = 25.949446 Si / 1000 Ang^3
#
#
#
# Elastic Constant Matrix: (Units=GPa)
#
#
# Indices 1 2 3 4 5 6 
#
# 1 145.8204 43.5345 15.8806 0.0000 0.0000 0.0000
# 2 43.5345 92.2328 32.1168 0.0000 0.0000 0.0000
# 3 15.8806 32.1168 48.6498 0.0000 0.0000 0.0000
# 4 0.0000 0.0000 0.0000 25.3849 0.0000 0.0000
# 5 0.0000 0.0000 0.0000 0.0000 31.9292 0.0000
# 6 0.0000 0.0000 0.0000 0.0000 0.0000 24.9517
#
#
#
# Elastic Compliance Matrix: (Units=1/GPa)
#
#
# Indices 1 2 3 4 5 6 
#
# 1 0.007984 -0.003715 -0.000154 0.000000 0.000000 0.000000
# 2 -0.003715 0.015807 -0.009223 0.000000 0.000000 0.000000
# 3 -0.000154 -0.009223 0.026694 0.000000 0.000000 0.000000
# 4 0.000000 0.000000 0.000000 0.039394 0.000000 0.000000
# 5 0.000000 0.000000 0.000000 0.000000 0.031319 0.000000
# 6 0.000000 0.000000 0.000000 0.000000 0.000000 0.040077
#
#
# Mechanical properties :
#
#
# Convention : Reuss Voigt Hill
#
# Bulk Modulus (GPa) = 41.14872 52.19629 46.67251
# Shear Modulus (GPa) = 25.56798 29.46455 27.51626
#
# Velocity S-wave (km/s) = 3.14235 3.37331 3.25988
# Velocity P-wave (km/s) = 5.39050 5.94396 5.67398
#
# Compressibility (1/GPa) = 0.02430209
#
# Stress axis : x y z
#
# Youngs Moduli (GPa) = 125.25792 63.26332 37.46210
#
# Poissons Ratio (x) = 0.23501 0.00576
# Poissons Ratio (y) = 0.46530 0.34550
# Poissons Ratio (z) = 0.01925 0.58345
#
# Static dielectric constant tensor:
#      x y z
#    x 2.138770 0.000000 0.000000 
#    y 0.000000 2.112300 0.000000 
#    z 0.000000 0.000000 2.099970 
# 
# From -- ./inp_files/20187.got.cif
#   From: 2010.05.17/outbox.cif.g08.bks.cpg/sg54_11_cif.got.tgz:20187.got - 2010.06.03 13:09:01.
