data_PCOD9420621
_publ_section_title
;
Structure prediction by ZEFSAII (Michael W. Deem and Ramdas Pophale) SiO2 
 PCOD9420621
Probable space group: P C C A
;
_chemical_formula_sum "Si O2"
_cell_formula_units_Z 44
_cell_length_a 8.536988
_cell_length_b 18.139695
_cell_length_c 13.732590
_cell_angle_alpha 90.000000
_cell_angle_beta 90.000000
_cell_angle_gamma 90.000000
_cell_volume 2126.606346
_symmetry_space_group_name_H-M "P C C A"
_symmetry_group_IT_number 54
_symmetry_cell_setting 'orthorhombic'
loop_
_space_group_symop_operation_xyz
x,y,z
1/2-x,-y,z
1/2+x,-y,1/2-z
-x,y,1/2-z
-x,-y,-z
1/2+x,y,-z
1/2-x,y,1/2+z
x,-y,1/2+z
loop_
_atom_site_type_symbol
_atom_site_label
_atom_site_fract_x
_atom_site_fract_y
_atom_site_fract_z
Si Si1 0.500675 0.396991 0.549064
Si Si2 0.750000 0.500000 0.937863
Si Si3 0.836099 0.163803 0.693888
Si Si4 0.509014 0.083119 0.034557
Si Si5 0.234008 0.293275 0.951537
Si Si6 0.207870 0.830336 0.605556
O O1 0.371471 0.442342 0.611629
O O2 0.628850 0.452056 0.502393
O O3 0.607403 0.330748 0.587491
O O4 0.395182 0.356487 0.467470
O O5 0.861841 0.095420 0.620300
O O6 0.819427 0.232826 0.623857
O O7 0.706996 0.166712 0.778087
O O8 0.000000 0.171080 0.750000
O O9 0.344683 0.112385 0.075168
O O10 0.554489 0.137663 0.946163
O O11 0.500000 0.000000 0.000000
O O12 0.249231 0.248366 0.054602
#
# Coordination Sequence:
#
# PCOD9420621 Si02
#       6
#     8   4   8   8   8   8
#     4   9  16  29  51  81 111 141 182 222 264 321
#     4   8  16  28  48  84 112 140 184 216 256 328
#     4   9  19  35  54  79 109 140 181 228 274 327
#     4  10  20  37  57  77 108 146 181 224 276 326
#     4  10  18  32  55  80 106 142 183 227 275 319
#     4  10  20  37  56  80 110 139 182 231 272 324
#
# _framework density 20.690242000000001
#
# number of rings (size 3 to 8) (size 9 to 14) (size 15 to 20)
#    0.000    2.545    0.000    3.818    0.000    0.000 
#    0.000   28.182    0.000    0.000    0.000  168.000 
#    0.000    0.000    0.000    0.000    0.000    0.000 
#
# Total GULP energy -244962.047704 kJ/mol
# GULP energy per Si atom -5567.319266 kJ/mol
# Density = 2.064315 g / cm^3
# Si number density = 20.690242 Si / 1000 Ang^3
#
#
#
# Elastic Constant Matrix: (Units=GPa)
#
#
# Indices 1 2 3 4 5 6 
#
# 1 70.8748 38.5935 11.9292 0.0000 0.0000 0.0000
# 2 38.5935 116.3836 28.7925 0.0000 0.0000 0.0000
# 3 11.9292 28.7925 92.8865 0.0000 0.0000 0.0000
# 4 0.0000 0.0000 0.0000 1.3258 0.0000 0.0000
# 5 0.0000 0.0000 0.0000 0.0000 19.6532 0.0000
# 6 0.0000 0.0000 0.0000 0.0000 0.0000 36.1431
#
#
#
# Elastic Compliance Matrix: (Units=1/GPa)
#
#
# Indices 1 2 3 4 5 6 
#
# 1 0.017238 -0.005598 -0.000479 0.000000 0.000000 0.000000
# 2 -0.005598 0.011124 -0.002729 0.000000 0.000000 0.000000
# 3 -0.000479 -0.002729 0.011673 0.000000 0.000000 0.000000
# 4 0.000000 0.000000 0.000000 0.754274 0.000000 0.000000
# 5 0.000000 0.000000 0.000000 0.000000 0.050882 0.000000
# 6 0.000000 0.000000 0.000000 0.000000 0.000000 0.027668
#
#
# Mechanical properties :
#
#
# Convention : Reuss Voigt Hill
#
# Bulk Modulus (GPa) = 44.59547 48.75281 46.67414
# Shear Modulus (GPa) = 5.56827 24.81307 15.19067
#
# Velocity S-wave (km/s) = 1.64228 3.46680 2.71254
# Velocity P-wave (km/s) = 5.01964 6.29597 5.69368
#
# Compressibility (1/GPa) = 0.02242380
#
# Stress axis : x y z
#
# Youngs Moduli (GPa) = 58.01083 89.89792 85.66581
#
# Poissons Ratio (x) = 0.50324 0.04101
# Poissons Ratio (y) = 0.32474 0.23380
# Poissons Ratio (z) = 0.02777 0.24535
#
# Static dielectric constant tensor:
#      x y z
#    x 1.827150 0.000000 0.000000 
#    y 0.000000 1.784560 0.000000 
#    z 0.000000 0.000000 1.803610 
# 
# From -- ./inp_files/11658.got.cif
#   From: 2010.05.17/outbox.cif.g08.bks.cpg/sg54_6_cif.got.tgz:11658.got - 2010.06.03 13:09:01.
