data_PCOD9420123
_publ_section_title
;
Structure prediction by ZEFSAII (Michael W. Deem and Ramdas Pophale) SiO2 
 PCOD9420123
Probable space group: P M N A
;
_chemical_formula_sum "Si O2"
_cell_formula_units_Z 56
_cell_length_a 9.000000
_cell_length_b 15.000000
_cell_length_c 21.000000
_cell_angle_alpha 90.000000
_cell_angle_beta 90.000000
_cell_angle_gamma 90.000000
_cell_volume 2835.000000
_symmetry_space_group_name_H-M "P M N A"
_symmetry_group_IT_number 53
_symmetry_cell_setting 'orthorhombic'
loop_
_space_group_symop_operation_xyz
x,y,z
1/2-x,-y,1/2+z
x,-y,-z
1/2-x,y,1/2-z
-x,-y,-z
1/2+x,y,1/2-z
-x,y,z
1/2+x,-y,1/2+z
loop_
_atom_site_type_symbol
_atom_site_label
_atom_site_fract_x
_atom_site_fract_y
_atom_site_fract_z
Si Si1 0.327825 0.818181 0.877721
Si Si2 0.662460 0.327448 0.305175
Si Si3 0.323521 0.328226 0.620604
Si Si4 0.829056 0.526975 0.914707
Si Si5 0.680832 0.010272 0.925401
Si Si6 0.327581 0.323735 0.007454
Si Si7 0.820260 0.158737 0.681495
O O1 0.500000 0.824546 0.859579
O O2 0.238710 0.763687 0.825688
O O3 0.320570 0.753809 0.939739
O O4 0.273551 0.917033 0.892853
O O5 0.750000 0.374572 0.250000
O O6 0.500000 0.307178 0.282021
O O7 0.660551 0.396479 0.362025
O O8 0.500000 0.324501 0.632894
O O9 0.276685 0.433298 0.616039
O O10 0.280356 0.297246 0.549556
O O11 0.238706 0.258741 0.665819
O O12 0.729626 0.580850 0.965882
O O13 0.000000 0.510697 0.935483
O O14 0.500000 0.013397 0.928064
O O15 0.722723 0.092550 0.878151
O O16 0.729261 0.000000 0.000000
O O17 0.500000 0.330830 0.986985
O O18 0.750000 0.131363 0.750000
O O19 0.000000 0.158431 0.685672
#
# Coordination Sequence:
#
# PCOD9420123 Si02
#       7
#     8   8   8   8   8   8   8
#     4   9  18  34  56  82 111 142 176 216 270 333
#     4  10  20  35  53  75 105 139 179 224 272 326
#     4  11  22  37  57  80 111 152 193 233 282 337
#     4   9  20  36  53  77 111 150 189 235 288 338
#     4   9  18  36  63  90 115 147 189 237 289 346
#     4  10  19  32  55  87 118 147 184 231 282 340
#     4  11  24  42  62  85 116 153 196 246 299 358
#
# _framework density 19.753086
#
# number of rings (size 3 to 8) (size 9 to 14) (size 15 to 20)
#    0.000    2.143    0.000    3.000    0.000    7.429 
#    0.000    4.286    0.000    3.000    0.000    0.000 
#    0.000    0.000    0.000    0.000    0.000    0.000 
#
# Total GULP energy -311907.601624 kJ/mol
# GULP energy per Si atom -5569.778600 kJ/mol
# Density = 1.970813 g / cm^3
# Si number density = 19.753086 Si / 1000 Ang^3
#
#
#
# Elastic Constant Matrix: (Units=GPa)
#
#
# Indices 1 2 3 4 5 6 
#
# 1 50.4192 21.9749 22.2094 0.0000 0.0000 0.0000
# 2 21.9749 120.2493 29.7548 0.0000 0.0000 0.0000
# 3 22.2094 29.7548 83.4085 0.0000 0.0000 0.0000
# 4 0.0000 0.0000 0.0000 27.0209 0.0000 0.0000
# 5 0.0000 0.0000 0.0000 0.0000 26.6882 0.0000
# 6 0.0000 0.0000 0.0000 0.0000 0.0000 20.4346
#
#
#
# Elastic Compliance Matrix: (Units=1/GPa)
#
#
# Indices 1 2 3 4 5 6 
#
# 1 0.023417 -0.003001 -0.005165 0.000000 0.000000 0.000000
# 2 -0.003001 0.009506 -0.002592 0.000000 0.000000 0.000000
# 3 -0.005165 -0.002592 0.014289 0.000000 0.000000 0.000000
# 4 0.000000 0.000000 0.000000 0.037008 0.000000 0.000000
# 5 0.000000 0.000000 0.000000 0.000000 0.037470 0.000000
# 6 0.000000 0.000000 0.000000 0.000000 0.000000 0.048937
#
#
# Mechanical properties :
#
#
# Convention : Reuss Voigt Hill
#
# Bulk Modulus (GPa) = 38.91653 44.66170 41.78911
# Shear Modulus (GPa) = 24.91188 26.83793 25.87490
#
# Velocity S-wave (km/s) = 3.55514 3.69001 3.62320
# Velocity P-wave (km/s) = 6.04949 6.38858 6.22135
#
# Compressibility (1/GPa) = 0.02569602
#
# Stress axis : x y z
#
# Youngs Moduli (GPa) = 42.70439 105.19797 69.98395
#
# Poissons Ratio (x) = 0.31574 0.36144
# Poissons Ratio (y) = 0.12817 0.18139
# Poissons Ratio (z) = 0.22055 0.27266
#
# Static dielectric constant tensor:
#      x y z
#    x 1.714400 0.000000 0.000000 
#    y 0.000000 1.678590 0.000000 
#    z 0.000000 0.000000 1.807030 
# 
# From -- ./inp_files/30829.got.cif
#   From: 2010.05.17/outbox.ucp.g08.bks.cvg/sg53_16_cif.got.tgz:30829.got - 2010.06.11 16:32:34.
