data_PCOD9420431
_publ_section_title
;
Structure prediction by ZEFSAII (Michael W. Deem and Ramdas Pophale) SiO2 
 PCOD9420431
Probable space group: P C C A
;
_chemical_formula_sum "Si O2"
_cell_formula_units_Z 60
_cell_length_a 27.470850
_cell_length_b 21.792491
_cell_length_c 5.323994
_cell_angle_alpha 90.000000
_cell_angle_beta 90.000000
_cell_angle_gamma 90.000000
_cell_volume 3187.252938
_symmetry_space_group_name_H-M "P C C A"
_symmetry_group_IT_number 54
_symmetry_cell_setting 'orthorhombic'
loop_
_space_group_symop_operation_xyz
x,y,z
1/2-x,-y,z
1/2+x,-y,1/2-z
-x,y,1/2-z
-x,-y,-z
1/2+x,y,-z
1/2-x,y,1/2+z
x,-y,1/2+z
loop_
_atom_site_type_symbol
_atom_site_label
_atom_site_fract_x
_atom_site_fract_y
_atom_site_fract_z
Si Si1 0.571440 0.335381 0.129756
Si Si2 0.881539 0.289397 0.149292
Si Si3 0.445159 0.475425 0.458658
Si Si4 0.554671 0.173331 0.632823
Si Si5 0.694409 0.523939 0.905660
Si Si6 0.000000 0.761197 0.250000
Si Si7 0.781793 0.337912 0.012644
Si Si8 0.440863 0.966175 0.259043
O O1 0.589693 0.318399 0.409842
O O2 0.527416 0.287765 0.070950
O O3 0.610616 0.326142 0.908638
O O4 0.554660 0.405033 0.119656
O O5 0.904912 0.222923 0.205158
O O6 0.825812 0.291523 0.064237
O O7 0.500000 0.500000 0.500000
O O8 0.422828 0.514838 0.232877
O O9 0.500000 0.180079 0.750000
O O10 0.541565 0.193222 0.348933
O O11 0.571033 0.104413 0.682495
O O12 0.750000 0.500000 0.866876
O O13 0.673465 0.519019 0.625238
O O14 0.695766 0.593152 0.006059
O O15 0.744456 0.332057 0.244084
O O16 0.500000 0.968788 0.250000
O O17 0.424213 0.008827 0.489664
#
# Coordination Sequence:
#
# PCOD9420431 Si02
#       8
#     8   8   8   8   8   4   8   8
#     4  11  22  39  54  78 108 141 193 233 268 345
#     4  11  25  39  57  88 109 144 192 230 274 349
#     4  10  20  34  54  71  94 139 183 230 285 320
#     4  10  20  35  56  80 119 156 189 224 271 316
#     4  10  16  31  55  79  92 128 164 205 280 356
#     4  10  20  32  56  76 104 162 188 220 278 318
#     4  12  22  39  62  81 108 139 174 235 297 343
#     4   9  19  30  49  78 113 152 192 225 258 307
#
# _framework density 18.824988000000001
#
# number of rings (size 3 to 8) (size 9 to 14) (size 15 to 20)
#    0.000    1.600    4.000    2.400    4.667    3.200 
#    0.000    4.000    0.000    0.000    0.000    0.000 
#    0.000    3.200    0.000    0.000    0.000    0.000 
#
# Total GULP energy -334622.942792 kJ/mol
# GULP energy per Si atom -5577.049047 kJ/mol
# Density = 1.878214 g / cm^3
# Si number density = 18.824988 Si / 1000 Ang^3
#
#
#
# Elastic Constant Matrix: (Units=GPa)
#
#
# Indices 1 2 3 4 5 6 
#
# 1 37.2787 20.2679 5.0224 0.0000 0.0000 0.0000
# 2 20.2679 133.2750 31.3632 0.0000 0.0000 0.0000
# 3 5.0224 31.3632 113.9671 0.0000 0.0000 0.0000
# 4 0.0000 0.0000 0.0000 17.3981 0.0000 0.0000
# 5 0.0000 0.0000 0.0000 0.0000 15.3684 0.0000
# 6 0.0000 0.0000 0.0000 0.0000 0.0000 12.4209
#
#
#
# Elastic Compliance Matrix: (Units=1/GPa)
#
#
# Indices 1 2 3 4 5 6 
#
# 1 0.029243 -0.004431 -0.000069 0.000000 0.000000 0.000000
# 2 -0.004431 0.008694 -0.002197 0.000000 0.000000 0.000000
# 3 -0.000069 -0.002197 0.009382 0.000000 0.000000 0.000000
# 4 0.000000 0.000000 0.000000 0.057477 0.000000 0.000000
# 5 0.000000 0.000000 0.000000 0.000000 0.065069 0.000000
# 6 0.000000 0.000000 0.000000 0.000000 0.000000 0.080510
#
#
# Mechanical properties :
#
#
# Convention : Reuss Voigt Hill
#
# Bulk Modulus (GPa) = 29.47716 44.20311 36.84013
# Shear Modulus (GPa) = 18.17661 24.22863 21.20262
#
# Velocity S-wave (km/s) = 3.11071 3.59143 3.35968
# Velocity P-wave (km/s) = 5.34739 6.38200 5.88747
#
# Compressibility (1/GPa) = 0.03392457
#
# Stress axis : x y z
#
# Youngs Moduli (GPa) = 34.19583 115.01915 106.58466
#
# Poissons Ratio (x) = 0.50964 0.00739
# Poissons Ratio (y) = 0.15152 0.23420
# Poissons Ratio (z) = 0.00237 0.25274
#
# Static dielectric constant tensor:
#      x y z
#    x 1.555900 0.000000 0.000000 
#    y 0.000000 1.633640 0.000000 
#    z 0.000000 0.000000 1.859890 
# 
# From -- ./inp_files/2228.got.cif
#   From: 2010.05.17/outbox.cif.g08.bks.cpg/sg54_2_cif.got.tgz:2228.got - 2010.06.03 13:09:01.
