data_PCOD9420328
_publ_section_title
;
Structure prediction by ZEFSAII (Michael W. Deem and Ramdas Pophale) SiO2 
 PCOD9420328
Probable space group: P C C A
;
_chemical_formula_sum "Si O2"
_cell_formula_units_Z 64
_cell_length_a 14.008405
_cell_length_b 35.706608
_cell_length_c 5.387439
_cell_angle_alpha 90.000000
_cell_angle_beta 90.000000
_cell_angle_gamma 90.000000
_cell_volume 2694.757261
_symmetry_space_group_name_H-M "P C C A"
_symmetry_group_IT_number 54
_symmetry_cell_setting 'orthorhombic'
loop_
_space_group_symop_operation_xyz
x,y,z
1/2-x,-y,z
1/2+x,-y,1/2-z
-x,y,1/2-z
-x,-y,-z
1/2+x,y,-z
1/2-x,y,1/2+z
x,-y,1/2+z
loop_
_atom_site_type_symbol
_atom_site_label
_atom_site_fract_x
_atom_site_fract_y
_atom_site_fract_z
Si Si1 0.151526 0.784128 0.595083
Si Si2 0.889017 0.014061 0.191269
Si Si3 0.110006 0.515410 0.200499
Si Si4 0.850242 0.129409 0.510436
Si Si5 0.370011 0.244995 0.099209
Si Si6 0.863629 0.902218 0.513967
Si Si7 0.687725 0.592003 0.960791
Si Si8 0.186238 0.324842 0.559572
O O1 0.167733 0.826419 0.503244
O O2 0.094242 0.764544 0.373395
O O3 0.254840 0.763969 0.624765
O O4 0.103613 0.780399 0.864025
O O5 0.880391 0.054212 0.060634
O O6 0.000000 0.005359 0.250000
O O7 0.849283 0.013460 0.474774
O O8 0.151050 0.510716 0.479526
O O9 0.119610 0.557116 0.093353
O O10 0.000000 0.505455 0.250000
O O11 0.748811 0.107988 0.506134
O O12 0.900314 0.118253 0.257774
O O13 0.899299 0.114764 0.757530
O O14 0.380983 0.288754 0.043143
O O15 0.763926 0.589661 0.732741
O O16 0.642546 0.633519 0.946048
O O17 0.256485 0.322195 0.320722
#
# Coordination Sequence:
#
# PCOD9420328 Si02
#       8
#     8   8   8   8   8   8   8   8
#     4  10  16  23  39  59  90 128 156 182 214 276
#     4  10  21  37  54  70  87 114 156 201 239 276
#     4  10  21  37  55  74  99 134 177 220 263 322
#     4  10  19  30  43  70 100 128 151 182 231 286
#     4  10  14  22  36  56  83 127 158 184 216 271
#     4  10  18  32  48  65  95 124 147 187 232 281
#     4  10  21  32  50  75 105 137 166 217 274 317
#     4  10  16  27  38  61  95 128 158 198 245 288
#
# _framework density 23.749821000000001
#
# number of rings (size 3 to 8) (size 9 to 14) (size 15 to 20)
#    0.000    2.000    2.500    5.250    0.000    1.500 
#    0.000    7.500    0.000    0.000    0.000    0.000 
#    0.000    6.000    0.000    1.250    0.000    0.000 
#
# Total GULP energy -357200.231702 kJ/mol
# GULP energy per Si atom -5581.253620 kJ/mol
# Density = 2.369577 g / cm^3
# Si number density = 23.749821 Si / 1000 Ang^3
#
#
#
# Elastic Constant Matrix: (Units=GPa)
#
#
# Indices 1 2 3 4 5 6 
#
# 1 69.4381 -13.4270 6.2925 0.0000 0.0000 0.0000
# 2 -13.4270 137.6441 35.3735 0.0000 0.0000 0.0000
# 3 6.2925 35.3735 219.2914 0.0000 0.0000 0.0000
# 4 0.0000 0.0000 0.0000 44.6710 0.0000 0.0000
# 5 0.0000 0.0000 0.0000 0.0000 -15.3189 0.0000
# 6 0.0000 0.0000 0.0000 0.0000 0.0000 47.0505
#
#
#
# Elastic Compliance Matrix: (Units=1/GPa)
#
#
# Indices 1 2 3 4 5 6 
#
# 1 0.014776 0.001617 -0.000685 0.000000 0.000000 0.000000
# 2 0.001617 0.007756 -0.001298 0.000000 0.000000 0.000000
# 3 -0.000685 -0.001298 0.004789 0.000000 0.000000 0.000000
# 4 0.000000 0.000000 0.000000 0.022386 0.000000 0.000000
# 5 0.000000 0.000000 0.000000 0.000000 -0.065279 0.000000
# 6 0.000000 0.000000 0.000000 0.000000 0.000000 0.021254
#
#
# Mechanical properties :
#
#
# Convention : Reuss Voigt Hill
#
# Bulk Modulus (GPa) = 37.60603 53.65015 45.62809
# Shear Modulus (GPa) = 327.30323 41.82284 184.56303
#
# Velocity S-wave (km/s) = 11.75211 4.20095 8.82497
# Velocity P-wave (km/s) = 14.14277 6.79481 11.09476
#
# Compressibility (1/GPa) = 0.02659148
#
# Stress axis : x y z
#
# Youngs Moduli (GPa) = 67.67670 128.92651 208.80732
#
# Poissons Ratio (x) = -0.20853 0.14301
# Poissons Ratio (y) = -0.10946 0.27094
# Poissons Ratio (z) = 0.04635 0.16729
#
# Static dielectric constant tensor:
#      x y z
#    x 1.992680 0.000000 0.000000 
#    y 0.000000 1.901070 0.000000 
#    z 0.000000 0.000000 1.991700 
# 
# From -- ./inp_files/1099.got.cif
#   From: 2010.05.17/outbox.cif.g08.bks.cpg/sg54_1_cif.got.tgz:1099.got - 2010.06.03 13:09:01.
