data_PCOD9420223
_publ_section_title
;
Structure prediction by ZEFSAII (Michael W. Deem and Ramdas Pophale) SiO2 
 PCOD9420223
Probable space group: P M N A
;
_chemical_formula_sum "Si O2"
_cell_formula_units_Z 48
_cell_length_a 9.000000
_cell_length_b 9.000000
_cell_length_c 30.000000
_cell_angle_alpha 90.000000
_cell_angle_beta 90.000000
_cell_angle_gamma 90.000000
_cell_volume 2430.000000
_symmetry_space_group_name_H-M "P M N A"
_symmetry_group_IT_number 53
_symmetry_cell_setting 'orthorhombic'
loop_
_space_group_symop_operation_xyz
x,y,z
1/2-x,-y,1/2+z
x,-y,-z
1/2-x,y,1/2-z
-x,-y,-z
1/2+x,y,1/2-z
-x,y,z
1/2+x,-y,1/2+z
loop_
_atom_site_type_symbol
_atom_site_label
_atom_site_fract_x
_atom_site_fract_y
_atom_site_fract_z
Si Si1 0.168266 0.857704 0.469101
Si Si2 0.825115 0.670600 0.879534
Si Si3 0.333400 0.629404 0.965216
Si Si4 0.823371 0.833113 0.297183
Si Si5 0.675733 0.518410 0.796679
Si Si6 0.823856 0.021340 0.882486
O O1 0.247559 0.749014 0.503810
O O2 0.252947 0.893818 0.424230
O O3 0.000000 0.802107 0.458325
O O4 0.151901 0.000000 0.500000
O O5 0.756030 0.587646 0.921790
O O6 0.745348 0.614452 0.835614
O O7 0.000000 0.646371 0.875926
O O8 0.796893 0.845277 0.887544
O O9 0.500000 0.682986 0.951704
O O10 0.351416 0.500000 0.000000
O O11 0.750000 0.873289 0.250000
O O12 0.795775 0.657059 0.304663
O O13 0.751287 0.922892 0.337310
O O14 0.000000 0.856445 0.295410
O O15 0.750000 0.558363 0.750000
O O16 0.500000 0.539858 0.794366
O O17 0.000000 0.046063 0.880678
#
# Coordination Sequence:
#
# PCOD9420223 Si02
#       6
#     8   8   8   8   8   8
#     4  10  20  37  60  84 115 156 198 241 292 346
#     4  11  24  40  59  87 122 159 200 242 291 349
#     4  10  22  39  59  85 118 155 198 246 294 349
#     4  10  22  41  65  91 119 152 194 242 295 353
#     4  10  22  41  65  90 118 153 194 242 296 352
#     4  11  24  39  59  88 122 159 198 242 292 348
#
# _framework density 19.753086
#
# number of rings (size 3 to 8) (size 9 to 14) (size 15 to 20)
#    0.000    1.667    1.667    2.000    2.333    6.000 
#    0.000    0.000    0.000    0.000    0.000    0.000 
#    0.000    0.000    0.000    0.000    0.000    0.000 
#
# Total GULP energy -267809.278524 kJ/mol
# GULP energy per Si atom -5579.359969 kJ/mol
# Density = 1.970813 g / cm^3
# Si number density = 19.753086 Si / 1000 Ang^3
#
#
#
# Elastic Constant Matrix: (Units=GPa)
#
#
# Indices 1 2 3 4 5 6 
#
# 1 40.5955 18.3469 41.5337 0.0000 0.0000 0.0000
# 2 18.3469 14.5873 26.0038 0.0000 0.0000 0.0000
# 3 41.5337 26.0038 119.4856 0.0000 0.0000 0.0000
# 4 0.0000 0.0000 0.0000 75.5271 0.0000 0.0000
# 5 0.0000 0.0000 0.0000 0.0000 50.7147 0.0000
# 6 0.0000 0.0000 0.0000 0.0000 0.0000 18.2199
#
#
#
# Elastic Compliance Matrix: (Units=1/GPa)
#
#
# Indices 1 2 3 4 5 6 
#
# 1 0.060774 -0.063360 -0.007336 0.000000 0.000000 0.000000
# 2 -0.063360 0.178063 -0.016728 0.000000 0.000000 0.000000
# 3 -0.007336 -0.016728 0.014560 0.000000 0.000000 0.000000
# 4 0.000000 0.000000 0.000000 0.013240 0.000000 0.000000
# 5 0.000000 0.000000 0.000000 0.000000 0.019718 0.000000
# 6 0.000000 0.000000 0.000000 0.000000 0.000000 0.054885
#
#
# Mechanical properties :
#
#
# Convention : Reuss Voigt Hill
#
# Bulk Modulus (GPa) = 12.73096 38.49301 25.61198
# Shear Modulus (GPa) = 9.22045 34.81128 22.01587
#
# Velocity S-wave (km/s) = 2.16287 4.20255 3.34211
# Velocity P-wave (km/s) = 3.56319 6.56338 5.28083
#
# Compressibility (1/GPa) = 0.07854869
#
# Stress axis : x y z
#
# Youngs Moduli (GPa) = 16.45429 5.61598 68.68211
#
# Poissons Ratio (x) = 0.35583 0.50387
# Poissons Ratio (y) = 1.04255 1.14891
# Poissons Ratio (z) = 0.12071 0.09394
#
# Static dielectric constant tensor:
#      x y z
#    x 1.704870 0.000000 0.000000 
#    y 0.000000 1.694640 0.000000 
#    z 0.000000 0.000000 1.637120 
# 
# From -- ./inp_files/37744.got.cif
#   From: 2010.05.17/outbox.ucp.g08.bks.cvg/sg53_19_cif.got.tgz:37744.got - 2010.06.11 16:32:34.
