data_PCOD9420492
_publ_section_title
;
Structure prediction by ZEFSAII (Michael W. Deem and Ramdas Pophale) SiO2 
 PCOD9420492
Probable space group: P C C A
;
_chemical_formula_sum "Si O2"
_cell_formula_units_Z 64
_cell_length_a 8.493333
_cell_length_b 19.985653
_cell_length_c 18.553054
_cell_angle_alpha 90.000000
_cell_angle_beta 90.000000
_cell_angle_gamma 90.000000
_cell_volume 3149.284555
_symmetry_space_group_name_H-M "P C C A"
_symmetry_group_IT_number 54
_symmetry_cell_setting 'orthorhombic'
loop_
_space_group_symop_operation_xyz
x,y,z
1/2-x,-y,z
1/2+x,-y,1/2-z
-x,y,1/2-z
-x,-y,-z
1/2+x,y,-z
1/2-x,y,1/2+z
x,-y,1/2+z
loop_
_atom_site_type_symbol
_atom_site_label
_atom_site_fract_x
_atom_site_fract_y
_atom_site_fract_z
Si Si1 0.431600 0.385052 0.667731
Si Si2 0.435279 0.344151 0.169647
Si Si3 0.521120 0.747742 0.099735
Si Si4 0.504469 0.149926 0.481367
Si Si5 0.174991 0.202742 0.645948
Si Si6 0.211888 0.923257 0.918463
Si Si7 0.328889 0.840031 0.287078
Si Si8 0.067929 0.522096 0.331462
O O1 0.500000 0.378487 0.750000
O O2 0.245965 0.369722 0.671512
O O3 0.513497 0.330550 0.616214
O O4 0.469410 0.459191 0.639562
O O5 0.500000 0.335030 0.250000
O O6 0.430928 0.269379 0.138880
O O7 0.536167 0.404804 0.135170
O O8 0.350202 0.775250 0.123632
O O9 0.646808 0.780511 0.154513
O O10 0.534274 0.778390 0.020081
O O11 0.609474 0.148676 0.409438
O O12 0.550525 0.096875 0.542822
O O13 0.333275 0.128451 0.455506
O O14 0.199496 0.177845 0.727512
O O15 0.208674 0.904573 0.834588
O O16 0.250000 0.000000 0.930668
O O17 0.500000 0.847823 0.250000
O O18 0.250000 0.500000 0.329848
O O19 0.000000 0.528547 0.250000
#
# Coordination Sequence:
#
# PCOD9420492 Si02
#       8
#     8   8   8   8   8   8   8   8
#     4  10  17  30  52  76 110 154 198 244 305 354
#     4  10  19  29  48  78 113 146 192 245 301 346
#     4   9  18  36  58  84 113 161 195 245 302 354
#     4  11  22  41  63  89 122 154 208 242 292 364
#     4  10  20  36  58  88 117 151 197 252 299 345
#     4  11  24  43  65  90 122 165 199 244 299 366
#     4   9  20  39  62  87 126 154 196 251 309 356
#     4  10  18  29  43  73 114 154 195 240 296 358
#
# _framework density 20.322075999999999
#
# number of rings (size 3 to 8) (size 9 to 14) (size 15 to 20)
#    0.000    2.000    1.250    5.625    1.750    0.000 
#    4.500    0.000    0.000    0.750    0.000    0.000 
#    0.000    0.000    0.000    0.000    0.000    0.000 
#
# Total GULP energy -356816.657670 kJ/mol
# GULP energy per Si atom -5575.260276 kJ/mol
# Density = 2.027582 g / cm^3
# Si number density = 20.322076 Si / 1000 Ang^3
#
#
#
# Elastic Constant Matrix: (Units=GPa)
#
#
# Indices 1 2 3 4 5 6 
#
# 1 46.3835 6.1738 22.7209 0.0000 0.0000 0.0000
# 2 6.1738 81.7143 34.0956 0.0000 0.0000 0.0000
# 3 22.7209 34.0956 85.0960 0.0000 0.0000 0.0000
# 4 0.0000 0.0000 0.0000 15.4920 0.0000 0.0000
# 5 0.0000 0.0000 0.0000 0.0000 21.1906 0.0000
# 6 0.0000 0.0000 0.0000 0.0000 0.0000 17.3051
#
#
#
# Elastic Compliance Matrix: (Units=1/GPa)
#
#
# Indices 1 2 3 4 5 6 
#
# 1 0.024881 0.001071 -0.007073 0.000000 0.000000 0.000000
# 2 0.001071 0.014741 -0.006192 0.000000 0.000000 0.000000
# 3 -0.007073 -0.006192 0.016121 0.000000 0.000000 0.000000
# 4 0.000000 0.000000 0.000000 0.064549 0.000000 0.000000
# 5 0.000000 0.000000 0.000000 0.000000 0.047191 0.000000
# 6 0.000000 0.000000 0.000000 0.000000 0.000000 0.057787
#
#
# Mechanical properties :
#
#
# Convention : Reuss Voigt Hill
#
# Bulk Modulus (GPa) = 31.89220 37.68607 34.78914
# Shear Modulus (GPa) = 19.22277 20.81111 20.01694
#
# Velocity S-wave (km/s) = 3.07889 3.20357 3.14185
# Velocity P-wave (km/s) = 5.32606 5.68054 5.50615
#
# Compressibility (1/GPa) = 0.03135562
#
# Stress axis : x y z
#
# Youngs Moduli (GPa) = 40.19077 67.84023 62.03140
#
# Poissons Ratio (x) = -0.07267 0.43872
# Poissons Ratio (y) = -0.04305 0.38411
# Poissons Ratio (z) = 0.28425 0.42008
#
# Static dielectric constant tensor:
#      x y z
#    x 1.779140 0.000000 0.000000 
#    y 0.000000 1.756120 0.000000 
#    z 0.000000 0.000000 1.737210 
# 
# From -- ./inp_files/16870.got.cif
#   From: 2010.05.17/outbox.cif.g08.bks.cpg/sg54_9_cif.got.tgz:16870.got - 2010.06.03 13:09:01.
