data_PCOD9420210
_publ_section_title
;
Structure prediction by ZEFSAII (Michael W. Deem and Ramdas Pophale) SiO2 
 PCOD9420210
Probable space group: P M N A
;
_chemical_formula_sum "Si O2"
_cell_formula_units_Z 40
_cell_length_a 9.000000
_cell_length_b 24.000000
_cell_length_c 9.000000
_cell_angle_alpha 90.000000
_cell_angle_beta 90.000000
_cell_angle_gamma 90.000000
_cell_volume 1944.000000
_symmetry_space_group_name_H-M "P M N A"
_symmetry_group_IT_number 53
_symmetry_cell_setting 'orthorhombic'
loop_
_space_group_symop_operation_xyz
x,y,z
1/2-x,-y,1/2+z
x,-y,-z
1/2-x,y,1/2-z
-x,-y,-z
1/2+x,y,1/2-z
-x,y,z
1/2+x,-y,1/2+z
loop_
_atom_site_type_symbol
_atom_site_label
_atom_site_fract_x
_atom_site_fract_y
_atom_site_fract_z
Si Si1 0.667921 0.053619 0.897941
Si Si2 0.336875 0.550402 0.612198
Si Si3 0.177020 0.856711 0.904581
Si Si4 0.680799 0.644447 0.400744
Si Si5 0.178848 0.766256 0.403791
O O1 0.750000 0.036057 0.750000
O O2 0.500000 0.075980 0.873776
O O3 0.772851 0.098379 0.975154
O O4 0.656204 0.000000 0.000000
O O5 0.346368 0.500000 0.500000
O O6 0.250000 0.529444 0.750000
O O7 0.500000 0.567032 0.662428
O O8 0.272471 0.604424 0.533370
O O9 0.250000 0.874122 0.750000
O O10 0.000000 0.851017 0.894467
O O11 0.257532 0.800818 0.959377
O O12 0.750000 0.620379 0.250000
O O13 0.500000 0.647414 0.391524
O O14 0.754382 0.704553 0.417023
O O15 0.250000 0.789410 0.250000
O O16 0.000000 0.766453 0.395980
#
# Coordination Sequence:
#
# PCOD9420210 Si02
#       5
#     8   8   8   8   8
#     4  11  24  42  65  93 125 161 201 245 295 350
#     4  10  22  38  57  83 114 149 190 236 286 344
#     4  12  25  42  63  89 122 158 200 247 297 351
#     4  10  20  36  58  85 116 150 193 240 289 346
#     4  11  22  39  62  88 119 156 198 242 294 350
#
# _framework density 20.576132000000001
#
# number of rings (size 3 to 8) (size 9 to 14) (size 15 to 20)
#    0.000    1.200    0.000    7.800    0.000    6.000 
#    0.000    2.000    0.000    0.000    0.000    0.000 
#    0.000    0.000    0.000    0.000    0.000    0.000 
#
# Total GULP energy -223237.457896 kJ/mol
# GULP energy per Si atom -5580.936447 kJ/mol
# Density = 2.052930 g / cm^3
# Si number density = 20.576132 Si / 1000 Ang^3
#
#
#
# Elastic Constant Matrix: (Units=GPa)
#
#
# Indices 1 2 3 4 5 6 
#
# 1 147.9699 26.6621 54.0110 0.0000 0.0000 0.0000
# 2 26.6621 47.9807 21.0001 0.0000 0.0000 0.0000
# 3 54.0110 21.0001 86.0032 0.0000 0.0000 0.0000
# 4 0.0000 0.0000 0.0000 5.4520 0.0000 0.0000
# 5 0.0000 0.0000 0.0000 0.0000 19.6737 0.0000
# 6 0.0000 0.0000 0.0000 0.0000 0.0000 8.9969
#
#
#
# Elastic Compliance Matrix: (Units=1/GPa)
#
#
# Indices 1 2 3 4 5 6 
#
# 1 0.009106 -0.002863 -0.005020 0.000000 0.000000 0.000000
# 2 -0.002863 0.024236 -0.004120 0.000000 0.000000 0.000000
# 3 -0.005020 -0.004120 0.015786 0.000000 0.000000 0.000000
# 4 0.000000 0.000000 0.000000 0.183420 0.000000 0.000000
# 5 0.000000 0.000000 0.000000 0.000000 0.050829 0.000000
# 6 0.000000 0.000000 0.000000 0.000000 0.000000 0.111149
#
#
# Mechanical properties :
#
#
# Convention : Reuss Voigt Hill
#
# Bulk Modulus (GPa) = 39.80462 53.92223 46.86342
# Shear Modulus (GPa) = 11.71218 18.84322 15.27770
#
# Velocity S-wave (km/s) = 2.38840 3.02947 2.72783
# Velocity P-wave (km/s) = 5.19548 6.20484 5.72246
#
# Compressibility (1/GPa) = 0.02512271
#
# Stress axis : x y z
#
# Youngs Moduli (GPa) = 109.81394 41.26113 63.34776
#
# Poissons Ratio (x) = 0.11814 0.31799
# Poissons Ratio (y) = 0.31442 0.26098
# Poissons Ratio (z) = 0.55124 0.16998
#
# Static dielectric constant tensor:
#      x y z
#    x 1.905570 0.000000 0.000000 
#    y 0.000000 1.741120 0.000000 
#    z 0.000000 0.000000 1.511860 
# 
# From -- ./inp_files/6284.got.cif
#   From: 2010.05.17/outbox.ucp.g08.bks.cvg/sg53_4_cif.got.tgz:6284.got - 2010.06.11 16:32:34.
