data_PCOD9420525
_publ_section_title
;
Structure prediction by ZEFSAII (Michael W. Deem and Ramdas Pophale) SiO2 
 PCOD9420525
Probable space group: P C C A
;
_chemical_formula_sum "Si O2"
_cell_formula_units_Z 40
_cell_length_a 14.166111
_cell_length_b 5.780554
_cell_length_c 22.560775
_cell_angle_alpha 90.000000
_cell_angle_beta 90.000000
_cell_angle_gamma 90.000000
_cell_volume 1847.456057
_symmetry_space_group_name_H-M "P C C A"
_symmetry_group_IT_number 54
_symmetry_cell_setting 'orthorhombic'
loop_
_space_group_symop_operation_xyz
x,y,z
1/2-x,-y,z
1/2+x,-y,1/2-z
-x,y,1/2-z
-x,-y,-z
1/2+x,y,-z
1/2-x,y,1/2+z
x,-y,1/2+z
loop_
_atom_site_type_symbol
_atom_site_label
_atom_site_fract_x
_atom_site_fract_y
_atom_site_fract_z
Si Si1 0.500000 0.617491 0.250000
Si Si2 0.606509 0.677384 0.830753
Si Si3 0.750000 0.000000 0.876873
Si Si4 0.456026 0.068891 0.863745
Si Si5 0.750000 0.000000 0.093127
Si Si6 0.750000 0.500000 0.526706
Si Si7 0.898335 0.686935 0.935786
O O1 0.415592 0.451802 0.229523
O O2 0.530694 0.764932 0.193115
O O3 0.703343 0.813106 0.834556
O O4 0.609820 0.491695 0.882434
O O5 0.522532 0.852573 0.847626
O O6 0.827827 0.894628 0.919863
O O7 0.498852 0.195752 0.923417
O O8 0.348976 0.992156 0.872152
O O9 0.758732 0.251044 0.059778
O O10 0.652178 0.550776 0.489636
#
# Coordination Sequence:
#
# PCOD9420525 Si02
#       7
#     4   8   4   8   4   4   8
#     4  10  22  44  70  96 132 188 234 292 382 428
#     4  10  20  39  70  99 136 172 235 301 351 432
#     4  10  17  36  67 106 138 168 221 311 336 412
#     4  10  25  47  68 101 144 190 237 312 356 450
#     4  12  31  48  71 104 158 190 247 297 370 444
#     4  12  26  46  74 108 144 202 238 298 374 434
#     4  10  21  40  72 102 141 175 244 288 347 436
#
# _framework density 21.651394
#
# number of rings (size 3 to 8) (size 9 to 14) (size 15 to 20)
#    0.000    1.600    2.000    1.200    8.400    1.600 
#    0.000   24.000    0.000    0.000    0.000    0.000 
#    0.000    0.000    0.000    0.000    0.000    0.000 
#
# Total GULP energy -222882.841736 kJ/mol
# GULP energy per Si atom -5572.071043 kJ/mol
# Density = 2.160211 g / cm^3
# Si number density = 21.651394 Si / 1000 Ang^3
#
#
#
# Elastic Constant Matrix: (Units=GPa)
#
#
# Indices 1 2 3 4 5 6 
#
# 1 111.1563 11.6099 17.4107 0.0000 0.0000 0.0000
# 2 11.6099 82.0727 19.4260 0.0000 0.0000 0.0000
# 3 17.4107 19.4260 44.8523 0.0000 0.0000 0.0000
# 4 0.0000 0.0000 0.0000 -18.9545 0.0000 0.0000
# 5 0.0000 0.0000 0.0000 0.0000 26.8796 0.0000
# 6 0.0000 0.0000 0.0000 0.0000 0.0000 646.2641
#
#
#
# Elastic Compliance Matrix: (Units=1/GPa)
#
#
# Indices 1 2 3 4 5 6 
#
# 1 0.009599 -0.000530 -0.003497 0.000000 0.000000 0.000000
# 2 -0.000530 0.013605 -0.005687 0.000000 0.000000 0.000000
# 3 -0.003497 -0.005687 0.026116 0.000000 0.000000 0.000000
# 4 0.000000 0.000000 0.000000 -0.052758 0.000000 0.000000
# 5 0.000000 0.000000 0.000000 0.000000 0.037203 0.000000
# 6 0.000000 0.000000 0.000000 0.000000 0.000000 0.001547
#
#
# Mechanical properties :
#
#
# Convention : Reuss Voigt Hill
#
# Bulk Modulus (GPa) = 33.45251 37.21938 35.33595
# Shear Modulus (GPa) = 77.27454 143.48016 110.37735
#
# Velocity S-wave (km/s) = 5.98062 8.14937 7.14773
# Velocity P-wave (km/s) = 7.94824 10.28480 9.19107
#
# Compressibility (1/GPa) = 0.02989312
#
# Stress axis : x y z
#
# Youngs Moduli (GPa) = 104.17305 73.50049 38.29115
#
# Poissons Ratio (x) = 0.03898 0.13389
# Poissons Ratio (y) = 0.05524 0.21775
# Poissons Ratio (z) = 0.36425 0.41798
#
# Static dielectric constant tensor:
#      x y z
#    x 1.831760 0.000000 0.000000 
#    y 0.000000 1.834100 0.000000 
#    z 0.000000 0.000000 1.792310 
# 
# From -- ./inp_files/24379.got.cif
#   From: 2010.05.17/outbox.cif.g08.bks.cpg/sg54_13_cif.got.tgz:24379.got - 2010.06.03 13:09:01.
