data_PCOD9420476
_publ_section_title
;
Structure prediction by ZEFSAII (Michael W. Deem and Ramdas Pophale) SiO2 
 PCOD9420476
Probable space group: P C C A
;
_chemical_formula_sum "Si O2"
_cell_formula_units_Z 40
_cell_length_a 9.374184
_cell_length_b 8.447306
_cell_length_c 28.133439
_cell_angle_alpha 90.000000
_cell_angle_beta 90.000000
_cell_angle_gamma 90.000000
_cell_volume 2227.791402
_symmetry_space_group_name_H-M "P C C A"
_symmetry_group_IT_number 54
_symmetry_cell_setting 'orthorhombic'
loop_
_space_group_symop_operation_xyz
x,y,z
1/2-x,-y,z
1/2+x,-y,1/2-z
-x,y,1/2-z
-x,-y,-z
1/2+x,y,-z
1/2-x,y,1/2+z
x,-y,1/2+z
loop_
_atom_site_type_symbol
_atom_site_label
_atom_site_fract_x
_atom_site_fract_y
_atom_site_fract_z
Si Si1 0.205791 0.817054 0.541847
Si Si2 0.594930 0.925564 0.703686
Si Si3 0.971702 0.102471 0.110413
Si Si4 0.474523 0.771967 0.948525
Si Si5 0.294782 0.327828 0.367380
O O1 0.358843 0.735481 0.545429
O O2 0.107208 0.766589 0.498211
O O3 0.111117 0.812908 0.589540
O O4 0.250000 0.000000 0.533318
O O5 0.500000 0.907494 0.750000
O O6 0.630412 0.765617 0.675319
O O7 0.750000 0.000000 0.714990
O O8 0.517858 0.034269 0.663686
O O9 0.835293 0.218075 0.112894
O O10 0.953415 0.948701 0.075458
O O11 0.402930 0.655917 0.911060
O O12 0.250000 0.500000 0.351389
#
# Coordination Sequence:
#
# PCOD9420476 Si02
#       5
#     8   8   8   8   8
#     4  10  17  28  51  79 103 132 175 222 260 301
#     4   9  19  35  58  80  99 126 166 215 264 312
#     4   9  18  33  52  75 102 132 170 214 261 304
#     4  10  18  30  51  76 101 137 177 217 256 302
#     4  10  20  36  52  72 106 143 172 208 254 305
#
# _framework density 17.955002
#
# number of rings (size 3 to 8) (size 9 to 14) (size 15 to 20)
#    0.000    2.400    0.000    6.600    0.000    4.000 
#    0.000    9.000    0.000    0.000    0.000    0.000 
#    0.000    0.000    0.000    0.000    0.000    0.000 
#
# Total GULP energy -223040.116755 kJ/mol
# GULP energy per Si atom -5576.002919 kJ/mol
# Density = 1.791414 g / cm^3
# Si number density = 17.955002 Si / 1000 Ang^3
#
#
#
# Elastic Constant Matrix: (Units=GPa)
#
#
# Indices 1 2 3 4 5 6 
#
# 1 139.9632 21.7951 105.1710 0.0000 0.0000 0.0000
# 2 21.7951 24.0575 33.8126 0.0000 0.0000 0.0000
# 3 105.1710 33.8126 137.3219 0.0000 0.0000 0.0000
# 4 0.0000 0.0000 0.0000 2.4027 0.0000 0.0000
# 5 0.0000 0.0000 0.0000 0.0000 45.5224 0.0000
# 6 0.0000 0.0000 0.0000 0.0000 0.0000 8.7713
#
#
#
# Elastic Compliance Matrix: (Units=1/GPa)
#
#
# Indices 1 2 3 4 5 6 
#
# 1 0.017139 0.004468 -0.014226 0.000000 0.000000 0.000000
# 2 0.004468 0.064730 -0.019360 0.000000 0.000000 0.000000
# 3 -0.014226 -0.019360 0.022945 0.000000 0.000000 0.000000
# 4 0.000000 0.000000 0.000000 0.416194 0.000000 0.000000
# 5 0.000000 0.000000 0.000000 0.000000 0.021967 0.000000
# 6 0.000000 0.000000 0.000000 0.000000 0.000000 0.114008
#
#
# Mechanical properties :
#
#
# Convention : Reuss Voigt Hill
#
# Bulk Modulus (GPa) = 21.47022 69.21114 45.34068
# Shear Modulus (GPa) = 6.84233 20.71021 13.77627
#
# Velocity S-wave (km/s) = 1.95425 3.39993 2.77296
# Velocity P-wave (km/s) = 4.13230 7.35142 5.96319
#
# Compressibility (1/GPa) = 0.04657614
#
# Stress axis : x y z
#
# Youngs Moduli (GPa) = 58.34660 15.44885 43.58299
#
# Poissons Ratio (x) = -0.06902 0.62003
# Poissons Ratio (y) = -0.26068 0.84377
# Poissons Ratio (z) = 0.83006 0.29909
#
# Static dielectric constant tensor:
#      x y z
#    x 1.658230 0.000000 0.000000 
#    y 0.000000 1.618290 0.000000 
#    z 0.000000 0.000000 1.587120 
# 
# From -- ./inp_files/23257.got.cif
#   From: 2010.05.17/outbox.cif.g08.bks.cpg/sg54_12_cif.got.tgz:23257.got - 2010.06.03 13:09:01.
