data_PCOD9420302
_publ_section_title
;
Structure prediction by ZEFSAII (Michael W. Deem and Ramdas Pophale) SiO2 
 PCOD9420302
Probable space group: P C C A
;
_chemical_formula_sum "Si O2"
_cell_formula_units_Z 48
_cell_length_a 5.375972
_cell_length_b 29.837504
_cell_length_c 14.069671
_cell_angle_alpha 90.000000
_cell_angle_beta 90.000000
_cell_angle_gamma 90.000000
_cell_volume 2256.853822
_symmetry_space_group_name_H-M "P C C A"
_symmetry_group_IT_number 54
_symmetry_cell_setting 'orthorhombic'
loop_
_space_group_symop_operation_xyz
x,y,z
1/2-x,-y,z
1/2+x,-y,1/2-z
-x,y,1/2-z
-x,-y,-z
1/2+x,y,-z
1/2-x,y,1/2+z
x,-y,1/2+z
loop_
_atom_site_type_symbol
_atom_site_label
_atom_site_fract_x
_atom_site_fract_y
_atom_site_fract_z
Si Si1 0.583061 0.717883 0.938357
Si Si2 0.874409 0.853549 0.607657
Si Si3 0.610537 0.619263 0.939483
Si Si4 0.324751 0.045198 0.938639
Si Si5 0.878608 0.816241 0.386494
Si Si6 0.502651 0.476637 0.362203
O O1 0.595342 0.668556 0.892563
O O2 0.638938 0.762798 0.880762
O O3 0.305659 0.720019 0.983103
O O4 0.813613 0.906104 0.607420
O O5 0.892860 0.833559 0.498439
O O6 0.643327 0.829188 0.654118
O O7 0.139541 0.841995 0.650490
O O8 0.538746 0.576047 0.879083
O O9 0.392776 0.617342 0.020234
O O10 0.250000 0.000000 0.881590
O O11 0.604155 0.043916 0.981699
O O12 0.750000 0.500000 0.400879
O O13 0.500000 0.484350 0.250000
O O14 0.250000 0.500000 0.397979
#
# Coordination Sequence:
#
# PCOD9420302 Si02
#       6
#     8   8   8   8   8   8
#     4  10  16  25  36  54  79 102 123 155 202 249
#     4  10  14  20  29  40  53  80 115 146 184 238
#     4  10  21  32  48  73  98 119 144 182 227 265
#     4  10  16  20  24  33  49  69 100 146 192 226
#     4  10  14  20  31  42  58  83 113 143 179 237
#     4  10  21  37  55  72  93 123 155 182 213 260
#
# _framework density 21.268547999999999
#
# number of rings (size 3 to 8) (size 9 to 14) (size 15 to 20)
#    0.000    2.000    6.667    1.000    0.000    2.000 
#    0.000    0.000    0.000    0.000    0.000    0.000 
#    0.000    0.000    0.000    0.000    0.000    0.000 
#
# Total GULP energy -267306.753682 kJ/mol
# GULP energy per Si atom -5568.890702 kJ/mol
# Density = 2.122014 g / cm^3
# Si number density = 21.268548 Si / 1000 Ang^3
#
#
#
# Elastic Constant Matrix: (Units=GPa)
#
#
# Indices 1 2 3 4 5 6 
#
# 1 128.4038 29.6028 8.5520 0.0000 0.0000 0.0000
# 2 29.6028 170.2675 1.2409 0.0000 0.0000 0.0000
# 3 8.5520 1.2409 40.3906 0.0000 0.0000 0.0000
# 4 0.0000 0.0000 0.0000 -26.7117 0.0000 0.0000
# 5 0.0000 0.0000 0.0000 0.0000 -1.7046 0.0000
# 6 0.0000 0.0000 0.0000 0.0000 0.0000 38.7017
#
#
#
# Elastic Compliance Matrix: (Units=1/GPa)
#
#
# Indices 1 2 3 4 5 6 
#
# 1 0.008228 -0.001418 -0.001699 0.000000 0.000000 0.000000
# 2 -0.001418 0.006119 0.000112 0.000000 0.000000 0.000000
# 3 -0.001699 0.000112 0.025114 0.000000 0.000000 0.000000
# 4 0.000000 0.000000 0.000000 -0.037437 0.000000 0.000000
# 5 0.000000 0.000000 0.000000 0.000000 -0.586655 0.000000
# 6 0.000000 0.000000 0.000000 0.000000 0.000000 0.025839
#
#
# Mechanical properties :
#
#
# Convention : Reuss Voigt Hill
#
# Bulk Modulus (GPa) = 29.89321 46.42816 38.16069
# Shear Modulus (GPa) = -9.23136 22.03482 6.40173
#
# Velocity S-wave (km/s) = -2.08562 3.22223 1.73680
# Velocity P-wave (km/s) = 2.87852 5.97667 4.69076
#
# Compressibility (1/GPa) = 0.03345241
#
# Stress axis : x y z
#
# Youngs Moduli (GPa) = 121.53616 163.42935 39.81778
#
# Poissons Ratio (x) = 0.23177 0.06763
# Poissons Ratio (y) = 0.17236 -0.00447
# Poissons Ratio (z) = 0.20644 -0.01835
#
# Static dielectric constant tensor:
#      x y z
#    x 1.799070 0.000000 0.000000 
#    y 0.000000 1.608200 0.000000 
#    z 0.000000 0.000000 1.684090 
# 
# From -- ./inp_files/15941.got.cif
#   From: 2010.05.17/outbox.cif.g08.bks.cpg/sg54_8_cif.got.tgz:15941.got - 2010.06.03 13:09:01.
