data_PCOD9420625
_publ_section_title
;
Structure prediction by ZEFSAII (Michael W. Deem and Ramdas Pophale) SiO2 
 PCOD9420625
Probable space group: P C C A
;
_chemical_formula_sum "Si O2"
_cell_formula_units_Z 48
_cell_length_a 19.637757
_cell_length_b 9.523889
_cell_length_c 11.898247
_cell_angle_alpha 90.000000
_cell_angle_beta 90.000000
_cell_angle_gamma 90.000000
_cell_volume 2225.303173
_symmetry_space_group_name_H-M "P C C A"
_symmetry_group_IT_number 54
_symmetry_cell_setting 'orthorhombic'
loop_
_space_group_symop_operation_xyz
x,y,z
1/2-x,-y,z
1/2+x,-y,1/2-z
-x,y,1/2-z
-x,-y,-z
1/2+x,y,-z
1/2-x,y,1/2+z
x,-y,1/2+z
loop_
_atom_site_type_symbol
_atom_site_label
_atom_site_fract_x
_atom_site_fract_y
_atom_site_fract_z
Si Si1 0.045125 0.221898 0.533634
Si Si2 0.130451 0.038139 0.376122
Si Si3 0.500000 0.078217 0.250000
Si Si4 0.823343 0.719467 0.760548
Si Si5 0.750000 0.500000 0.390772
Si Si6 0.122114 0.531788 0.942518
Si Si7 0.894205 0.774988 0.997405
O O1 0.106102 0.134601 0.479119
O O2 0.062695 0.381030 0.503550
O O3 0.036661 0.179294 0.661288
O O4 0.972121 0.176591 0.483369
O O5 0.182104 0.131972 0.303534
O O6 0.061423 0.011154 0.303820
O O7 0.148147 0.889627 0.432230
O O8 0.759648 0.634200 0.809693
O O9 0.859611 0.612640 0.672666
O O10 0.865887 0.747558 0.873850
O O11 0.686760 0.470807 0.473200
O O12 0.103677 0.368831 0.931804
#
# Coordination Sequence:
#
# PCOD9420625 Si02
#       7
#     8   8   4   8   4   8   8
#     4  10  20  33  54  87 123 158 196 241 304 378
#     4  10  19  33  56  87 118 156 195 232 293 367
#     4  10  18  32  56  86 128 162 186 244 306 360
#     4  10  21  39  64  84 115 160 197 252 307 350
#     4  10  22  40  62  84 110 156 214 258 300 356
#     4  10  22  38  59  85 116 156 207 252 301 361
#     4  10  20  35  58  92 124 152 196 246 303 375
#
# _framework density 21.570094000000001
#
# number of rings (size 3 to 8) (size 9 to 14) (size 15 to 20)
#    0.000    2.000    0.000    5.000    0.000    7.333 
#    0.000    0.000    0.000   60.000    0.000    0.000 
#    0.000    0.000    0.000    0.000    0.000    0.000 
#
# Total GULP energy -267797.322448 kJ/mol
# GULP energy per Si atom -5579.110884 kJ/mol
# Density = 2.152100 g / cm^3
# Si number density = 21.570094 Si / 1000 Ang^3
#
#
#
# Elastic Constant Matrix: (Units=GPa)
#
#
# Indices 1 2 3 4 5 6 
#
# 1 31.8351 -0.3571 11.7455 0.0000 0.0000 0.0000
# 2 -0.3571 132.6856 42.5201 0.0000 0.0000 0.0000
# 3 11.7455 42.5201 106.9517 0.0000 0.0000 0.0000
# 4 0.0000 0.0000 0.0000 45.6404 0.0000 0.0000
# 5 0.0000 0.0000 0.0000 0.0000 21.2584 0.0000
# 6 0.0000 0.0000 0.0000 0.0000 0.0000 25.6458
#
#
#
# Elastic Compliance Matrix: (Units=1/GPa)
#
#
# Indices 1 2 3 4 5 6 
#
# 1 0.032974 0.001432 -0.004190 0.000000 0.000000 0.000000
# 2 0.001432 0.008699 -0.003616 0.000000 0.000000 0.000000
# 3 -0.004190 -0.003616 0.011248 0.000000 0.000000 0.000000
# 4 0.000000 0.000000 0.000000 0.021910 0.000000 0.000000
# 5 0.000000 0.000000 0.000000 0.000000 0.047040 0.000000
# 6 0.000000 0.000000 0.000000 0.000000 0.000000 0.038993
#
#
# Mechanical properties :
#
#
# Convention : Reuss Voigt Hill
#
# Bulk Modulus (GPa) = 24.89307 42.14326 33.51817
# Shear Modulus (GPa) = 26.73745 33.01317 29.87531
#
# Velocity S-wave (km/s) = 3.52456 3.91641 3.72564
# Velocity P-wave (km/s) = 5.30367 6.32703 5.83782
#
# Compressibility (1/GPa) = 0.04017182
#
# Stress axis : x y z
#
# Youngs Moduli (GPa) = 30.32699 114.95393 88.90733
#
# Poissons Ratio (x) = -0.16456 0.37255
# Poissons Ratio (y) = -0.04342 0.32146
# Poissons Ratio (z) = 0.12708 0.41564
#
# Static dielectric constant tensor:
#      x y z
#    x 1.806630 0.000000 0.000000 
#    y 0.000000 1.845960 0.000000 
#    z 0.000000 0.000000 1.785010 
# 
# From -- ./inp_files/9948.got.cif
#   From: 2010.05.17/outbox.cif.g08.bks.cpg/sg54_5_cif.got.tgz:9948.got - 2010.06.03 13:09:01.
