data_PCOD9420175
_publ_section_title
;
Structure prediction by ZEFSAII (Michael W. Deem and Ramdas Pophale) SiO2 
 PCOD9420175
Probable space group: P M N A
;
_chemical_formula_sum "Si O2"
_cell_formula_units_Z 48
_cell_length_a 9.000000
_cell_length_b 15.000000
_cell_length_c 18.000000
_cell_angle_alpha 90.000000
_cell_angle_beta 90.000000
_cell_angle_gamma 90.000000
_cell_volume 2430.000000
_symmetry_space_group_name_H-M "P M N A"
_symmetry_group_IT_number 53
_symmetry_cell_setting 'orthorhombic'
loop_
_space_group_symop_operation_xyz
x,y,z
1/2-x,-y,1/2+z
x,-y,-z
1/2-x,y,1/2-z
-x,-y,-z
1/2+x,y,1/2-z
-x,y,z
1/2+x,-y,1/2+z
loop_
_atom_site_type_symbol
_atom_site_label
_atom_site_fract_x
_atom_site_fract_y
_atom_site_fract_z
Si Si1 0.822135 0.468483 0.677334
Si Si2 0.323939 0.971639 0.322015
Si Si3 0.176437 0.332709 0.547811
Si Si4 0.178459 0.655282 0.625888
Si Si5 0.821568 0.146776 0.377012
Si Si6 0.675432 0.150355 0.536788
O O1 0.750000 0.426915 0.750000
O O2 0.791717 0.412398 0.603615
O O3 0.761748 0.568857 0.666934
O O4 0.000000 0.471412 0.686000
O O5 0.250000 0.927577 0.250000
O O6 0.500000 0.977201 0.312002
O O7 0.293793 0.919282 0.398117
O O8 0.253209 0.068687 0.331519
O O9 0.204427 0.356872 0.462103
O O10 0.275824 0.247322 0.565211
O O11 0.000000 0.310303 0.553460
O O12 0.230882 0.754116 0.646566
O O13 0.000000 0.655801 0.635742
O O14 0.769798 0.134784 0.462420
O O15 0.000000 0.142525 0.372614
O O16 0.500000 0.146815 0.518724
#
# Coordination Sequence:
#
# PCOD9420175 Si02
#       6
#     8   8   8   8   8   8
#     4  10  20  34  52  76 108 141 173 213 263 318
#     4  11  24  39  55  78 110 146 181 220 269 321
#     4   9  18  34  57  79 100 135 181 223 261 307
#     4   8  16  33  56  79 101 133 178 219 257 307
#     4  10  20  36  60  85 108 139 180 223 268 321
#     4  10  21  37  57  81 109 140 177 224 272 318
#
# _framework density 19.753086
#
# number of rings (size 3 to 8) (size 9 to 14) (size 15 to 20)
#    0.000    2.333    0.000    3.500    0.000    8.667 
#    0.000    9.167    0.000    5.000    0.000    0.000 
#    0.000    0.000    0.000    0.000    0.000    0.000 
#
# Total GULP energy -267837.603060 kJ/mol
# GULP energy per Si atom -5579.950064 kJ/mol
# Density = 1.970813 g / cm^3
# Si number density = 19.753086 Si / 1000 Ang^3
#
#
#
# Elastic Constant Matrix: (Units=GPa)
#
#
# Indices 1 2 3 4 5 6 
#
# 1 9.1889 19.6276 12.9293 0.0000 0.0000 0.0000
# 2 19.6276 58.9396 31.4044 0.0000 0.0000 0.0000
# 3 12.9293 31.4044 42.2842 0.0000 0.0000 0.0000
# 4 0.0000 0.0000 0.0000 -90.3786 0.0000 0.0000
# 5 0.0000 0.0000 0.0000 0.0000 16.0748 0.0000
# 6 0.0000 0.0000 0.0000 0.0000 0.0000 13.7620
#
#
#
# Elastic Compliance Matrix: (Units=1/GPa)
#
#
# Indices 1 2 3 4 5 6 
#
# 1 0.414315 -0.116621 -0.040071 0.000000 0.000000 0.000000
# 2 -0.116621 0.060904 -0.009574 0.000000 0.000000 0.000000
# 3 -0.040071 -0.009574 0.043013 0.000000 0.000000 0.000000
# 4 0.000000 0.000000 0.000000 -0.011065 0.000000 0.000000
# 5 0.000000 0.000000 0.000000 0.000000 0.062209 0.000000
# 6 0.000000 0.000000 0.000000 0.000000 0.000000 0.072664
#
#
# Mechanical properties :
#
#
# Convention : Reuss Voigt Hill
#
# Bulk Modulus (GPa) = 5.38507 26.48171 15.93339
# Shear Modulus (GPa) = 4.82405 -9.01159 -2.09377
#
# Velocity S-wave (km/s) = 1.56444 -2.13823 -1.03067
# Velocity P-wave (km/s) = 2.44855 2.70914 2.58214
#
# Compressibility (1/GPa) = 0.18569858
#
# Stress axis : x y z
#
# Youngs Moduli (GPa) = 2.41362 16.41925 23.24898
#
# Poissons Ratio (x) = 1.91483 0.93162
# Poissons Ratio (y) = 0.28148 0.22258
# Poissons Ratio (z) = 0.09672 0.15720
#
# Static dielectric constant tensor:
#      x y z
#    x 1.656690 0.000000 0.000000 
#    y 0.000000 1.721230 0.000000 
#    z 0.000000 0.000000 1.733920 
# 
# From -- ./inp_files/26185.got.cif
#   From: 2010.05.17/outbox.ucp.g08.bks.cvg/sg53_14_cif.got.tgz:26185.got - 2010.06.11 16:32:34.
