data_PCOD9420098
_publ_section_title
;
Structure prediction by ZEFSAII (Michael W. Deem and Ramdas Pophale) SiO2 
 PCOD9420098
Probable space group: P M N A
;
_chemical_formula_sum "Si O2"
_cell_formula_units_Z 40
_cell_length_a 15.000000
_cell_length_b 12.000000
_cell_length_c 12.000000
_cell_angle_alpha 90.000000
_cell_angle_beta 90.000000
_cell_angle_gamma 90.000000
_cell_volume 2160.000000
_symmetry_space_group_name_H-M "P M N A"
_symmetry_group_IT_number 53
_symmetry_cell_setting 'orthorhombic'
loop_
_space_group_symop_operation_xyz
x,y,z
1/2-x,-y,1/2+z
x,-y,-z
1/2-x,y,1/2-z
-x,-y,-z
1/2+x,y,1/2-z
-x,y,z
1/2+x,-y,1/2+z
loop_
_atom_site_type_symbol
_atom_site_label
_atom_site_fract_x
_atom_site_fract_y
_atom_site_fract_z
Si Si1 0.397264 0.514162 0.867245
Si Si2 0.392684 0.718048 0.241344
Si Si3 0.893323 0.364320 0.991140
Si Si4 0.728305 0.275979 0.132005
Si Si5 0.892766 0.130436 0.534810
O O1 0.500000 0.534590 0.828224
O O2 0.364972 0.396198 0.819759
O O3 0.330979 0.614286 0.840849
O O4 0.400088 0.500000 0.000000
O O5 0.500000 0.720646 0.241170
O O6 0.369902 0.693216 0.370977
O O7 0.367689 0.823242 0.160564
O O8 0.000000 0.343832 0.012052
O O9 0.882595 0.500000 0.000000
O O10 0.821379 0.312071 0.075201
O O11 0.750000 0.218862 0.250000
O O12 0.667457 0.202486 0.049603
O O13 0.000000 0.153348 0.521575
O O14 0.880324 0.000000 0.500000
#
# Coordination Sequence:
#
# PCOD9420098 Si02
#       5
#     8   8   8   8   8
#     4  10  18  32  57  88 121 150 192 249 305 372
#     4   9  18  36  62  89 117 159 202 246 312 374
#     4  10  22  39  58  89 131 167 200 245 311 387
#     4  12  24  37  57  89 123 158 204 248 314 378
#     4  10  22  43  67  90 118 157 210 265 312 364
#
# _framework density 18.518519000000001
#
# number of rings (size 3 to 8) (size 9 to 14) (size 15 to 20)
#    0.000    1.800    2.000    2.400    0.000    4.000 
#    3.600    0.000    0.000    0.600    0.000    0.000 
#    0.000    0.000    0.000    0.000    0.000    0.000 
#
# Total GULP energy -223042.756943 kJ/mol
# GULP energy per Si atom -5576.068924 kJ/mol
# Density = 1.847637 g / cm^3
# Si number density = 18.518519 Si / 1000 Ang^3
#
#
#
# Elastic Constant Matrix: (Units=GPa)
#
#
# Indices 1 2 3 4 5 6 
#
# 1 90.0115 37.5597 43.0508 0.0000 0.0000 0.0000
# 2 37.5597 87.7160 46.8310 0.0000 0.0000 0.0000
# 3 43.0508 46.8310 126.9581 0.0000 0.0000 0.0000
# 4 0.0000 0.0000 0.0000 23.9388 0.0000 0.0000
# 5 0.0000 0.0000 0.0000 0.0000 27.2245 0.0000
# 6 0.0000 0.0000 0.0000 0.0000 0.0000 21.5699
#
#
#
# Elastic Compliance Matrix: (Units=1/GPa)
#
#
# Indices 1 2 3 4 5 6 
#
# 1 0.014547 -0.004477 -0.003281 0.000000 0.000000 0.000000
# 2 -0.004477 0.015574 -0.004227 0.000000 0.000000 0.000000
# 3 -0.003281 -0.004227 0.010548 0.000000 0.000000 0.000000
# 4 0.000000 0.000000 0.000000 0.041773 0.000000 0.000000
# 5 0.000000 0.000000 0.000000 0.000000 0.036732 0.000000
# 6 0.000000 0.000000 0.000000 0.000000 0.000000 0.046361
#
#
# Mechanical properties :
#
#
# Convention : Reuss Voigt Hill
#
# Bulk Modulus (GPa) = 59.88249 62.17431 61.02840
# Shear Modulus (GPa) = 25.63149 26.36291 25.99720
#
# Velocity S-wave (km/s) = 3.72439 3.77715 3.75086
# Velocity P-wave (km/s) = 7.13453 7.25738 7.19621
#
# Compressibility (1/GPa) = 0.01669937
#
# Stress axis : x y z
#
# Youngs Moduli (GPa) = 68.74098 64.20912 94.80098
#
# Poissons Ratio (x) = 0.28748 0.31108
# Poissons Ratio (y) = 0.30777 0.40069
# Poissons Ratio (z) = 0.22557 0.27139
#
# Static dielectric constant tensor:
#      x y z
#    x 1.646540 0.000000 0.000000 
#    y 0.000000 1.622870 0.000000 
#    z 0.000000 0.000000 1.701640 
# 
# From -- ./inp_files/15731.got.cif
#   From: 2010.05.17/outbox.ucp.g08.bks.cvg/sg53_8_cif.got.tgz:15731.got - 2010.06.11 16:32:34.
