data_PCOD9420763
_publ_section_title
;
Structure prediction by ZEFSAII (Michael W. Deem and Ramdas Pophale) SiO2 
 PCOD9420763
Probable space group: P C C A
;
_chemical_formula_sum "Si O2"
_cell_formula_units_Z 48
_cell_length_a 7.926429
_cell_length_b 8.047522
_cell_length_c 32.033708
_cell_angle_alpha 90.000000
_cell_angle_beta 90.000000
_cell_angle_gamma 90.000000
_cell_volume 2043.369746
_symmetry_space_group_name_H-M "P C C A"
_symmetry_group_IT_number 54
_symmetry_cell_setting 'orthorhombic'
loop_
_space_group_symop_operation_xyz
x,y,z
1/2-x,-y,z
1/2+x,-y,1/2-z
-x,y,1/2-z
-x,-y,-z
1/2+x,y,-z
1/2-x,y,1/2+z
x,-y,1/2+z
loop_
_atom_site_type_symbol
_atom_site_label
_atom_site_fract_x
_atom_site_fract_y
_atom_site_fract_z
Si Si1 0.412316 0.108816 0.918476
Si Si2 0.863861 0.192389 0.942368
Si Si3 0.927754 0.791136 0.205695
Si Si4 0.720371 0.685231 0.524176
Si Si5 0.230966 0.796230 0.148846
Si Si6 0.569087 0.826836 0.180053
O O1 0.372671 0.274219 0.943632
O O2 0.404294 0.136273 0.869177
O O3 0.250000 0.000000 0.930395
O O4 0.565898 0.990941 0.930892
O O5 0.774781 0.255326 0.899717
O O6 0.038296 0.288615 0.954522
O O7 0.751042 0.203217 0.983498
O O8 0.735432 0.739241 0.197428
O O9 0.000000 0.738476 0.250000
O O10 0.055041 0.742332 0.168895
O O11 0.935561 0.994440 0.203072
O O12 0.750000 0.500000 0.509352
O O13 0.387374 0.739127 0.177762
O O14 0.250000 0.000000 0.150849
#
# Coordination Sequence:
#
# PCOD9420763 Si02
#       6
#     8   8   8   8   8   8
#     4  10  18  37  60  81 114 165 212 249 303 384
#     4  11  22  40  58  84 115 162 220 257 318 392
#     4  10  19  30  50  84 127 159 189 242 315 381
#     4  11  25  39  58  86 121 157 210 281 334 370
#     4  10  20  34  54  82 115 159 207 250 300 371
#     4  10  19  32  52  79 121 160 200 241 301 367
#
# _framework density 23.490607000000001
#
# number of rings (size 3 to 8) (size 9 to 14) (size 15 to 20)
#    0.000    1.667    5.000    2.000    9.333    2.000 
#    0.000    0.000    0.000    0.000    0.000    0.000 
#    0.000   10.667    0.000    0.500    2.333    0.000 
#
# Total GULP energy -268070.149804 kJ/mol
# GULP energy per Si atom -5584.794788 kJ/mol
# Density = 2.343714 g / cm^3
# Si number density = 23.490607 Si / 1000 Ang^3
#
#
#
# Elastic Constant Matrix: (Units=GPa)
#
#
# Indices 1 2 3 4 5 6 
#
# 1 149.3912 -1.2943 19.6239 0.0000 0.0000 0.0000
# 2 -1.2943 19.6496 7.2232 0.0000 0.0000 0.0000
# 3 19.6239 7.2232 111.2303 0.0000 0.0000 0.0000
# 4 0.0000 0.0000 0.0000 -7.4516 0.0000 0.0000
# 5 0.0000 0.0000 0.0000 0.0000 33.8691 0.0000
# 6 0.0000 0.0000 0.0000 0.0000 0.0000 9.6797
#
#
#
# Elastic Compliance Matrix: (Units=1/GPa)
#
#
# Indices 1 2 3 4 5 6 
#
# 1 0.006869 0.000920 -0.001272 0.000000 0.000000 0.000000
# 2 0.000920 0.052259 -0.003556 0.000000 0.000000 0.000000
# 3 -0.001272 -0.003556 0.009446 0.000000 0.000000 0.000000
# 4 0.000000 0.000000 0.000000 -0.134199 0.000000 0.000000
# 5 0.000000 0.000000 0.000000 0.000000 0.029525 0.000000
# 6 0.000000 0.000000 0.000000 0.000000 0.000000 0.103309
#
#
# Mechanical properties :
#
#
# Convention : Reuss Voigt Hill
#
# Bulk Modulus (GPa) = 16.45858 36.81962 26.63910
# Shear Modulus (GPa) = 52.47868 24.20067 38.33968
#
# Velocity S-wave (km/s) = 4.73168 3.21320 4.04434
# Velocity P-wave (km/s) = 6.07234 5.42903 5.75968
#
# Compressibility (1/GPa) = 0.06075859
#
# Stress axis : x y z
#
# Youngs Moduli (GPa) = 145.58507 19.13528 105.86920
#
# Poissons Ratio (x) = -0.01760 0.13462
# Poissons Ratio (y) = -0.13392 0.37647
# Poissons Ratio (z) = 0.18512 0.06804
#
# Static dielectric constant tensor:
#      x y z
#    x 2.026980 0.000000 0.000000 
#    y 0.000000 1.913360 0.000000 
#    z 0.000000 0.000000 1.837860 
# 
# From -- ./inp_files/27762.got.cif
#   From: 2010.05.17/outbox.cif.g08.bks.cpg/sg54_14_cif.got.tgz:27762.got - 2010.06.03 13:09:01.
