data_PCOD9420705
_publ_section_title
;
Structure prediction by ZEFSAII (Michael W. Deem and Ramdas Pophale) SiO2 
 PCOD9420705
Probable space group: P C C A
;
_chemical_formula_sum "Si O2"
_cell_formula_units_Z 48
_cell_length_a 8.455265
_cell_length_b 8.467997
_cell_length_c 32.007712
_cell_angle_alpha 90.000000
_cell_angle_beta 90.000000
_cell_angle_gamma 90.000000
_cell_volume 2291.725250
_symmetry_space_group_name_H-M "P C C A"
_symmetry_group_IT_number 54
_symmetry_cell_setting 'orthorhombic'
loop_
_space_group_symop_operation_xyz
x,y,z
1/2-x,-y,z
1/2+x,-y,1/2-z
-x,y,1/2-z
-x,-y,-z
1/2+x,y,-z
1/2-x,y,1/2+z
x,-y,1/2+z
loop_
_atom_site_type_symbol
_atom_site_label
_atom_site_fract_x
_atom_site_fract_y
_atom_site_fract_z
Si Si1 0.500000 0.896752 0.750000
Si Si2 0.570003 0.662499 0.948296
Si Si3 0.174532 0.825687 0.599531
Si Si4 0.562859 0.003501 0.547104
Si Si5 0.915400 0.185064 0.305090
Si Si6 0.769486 0.318666 0.224193
Si Si7 0.250000 0.500000 0.976901
O O1 0.386869 0.785065 0.776501
O O2 0.415955 0.014348 0.717444
O O3 0.718549 0.679811 0.916151
O O4 0.407869 0.557981 0.951853
O O5 0.494255 0.832274 0.938354
O O6 0.669298 0.629631 0.991383
O O7 0.147047 0.811878 0.648625
O O8 0.014157 0.851074 0.572586
O O9 0.250000 0.000000 0.592372
O O10 0.750000 0.000000 0.548317
O O11 0.500000 0.000000 0.500000
O O12 0.827975 0.299936 0.272338
O O13 0.097342 0.239303 0.304015
O O14 0.750000 0.500000 0.213659
#
# Coordination Sequence:
#
# PCOD9420705 Si02
#       7
#     4   8   8   8   8   8   4
#     4  10  18  34  62  92 120 162 214 260 310 390
#     4  10  21  36  60  87 117 161 209 257 312 385
#     4  10  21  38  60  90 124 157 206 273 332 363
#     4  11  21  35  60  88 118 157 211 271 317 367
#     4  10  20  37  61  90 121 162 214 261 320 388
#     4  10  20  36  62  92 125 163 211 256 318 399
#     4  10  20  38  62  86 120 168 218 254 302 404
#
# _framework density 20.944918999999999
#
# number of rings (size 3 to 8) (size 9 to 14) (size 15 to 20)
#    0.000    2.000    0.000    7.500    0.000    2.667 
#    1.500    0.000    7.333    0.000    0.000    0.000 
#    0.000    0.000    0.000    0.000    0.000    0.000 
#
# Total GULP energy -267262.896018 kJ/mol
# GULP energy per Si atom -5567.977000 kJ/mol
# Density = 2.089725 g / cm^3
# Si number density = 20.944919 Si / 1000 Ang^3
#
#
#
# Elastic Constant Matrix: (Units=GPa)
#
#
# Indices 1 2 3 4 5 6 
#
# 1 148.0902 50.0820 36.5501 0.0000 0.0000 0.0000
# 2 50.0820 101.7559 14.1464 0.0000 0.0000 0.0000
# 3 36.5501 14.1464 87.7471 0.0000 0.0000 0.0000
# 4 0.0000 0.0000 0.0000 -2.2051 0.0000 0.0000
# 5 0.0000 0.0000 0.0000 0.0000 22.8803 0.0000
# 6 0.0000 0.0000 0.0000 0.0000 0.0000 24.9520
#
#
#
# Elastic Compliance Matrix: (Units=1/GPa)
#
#
# Indices 1 2 3 4 5 6 
#
# 1 0.008831 -0.003923 -0.003046 0.000000 0.000000 0.000000
# 2 -0.003923 0.011795 -0.000268 0.000000 0.000000 0.000000
# 3 -0.003046 -0.000268 0.012708 0.000000 0.000000 0.000000
# 4 0.000000 0.000000 0.000000 -0.453488 0.000000 0.000000
# 5 0.000000 0.000000 0.000000 0.000000 0.043706 0.000000
# 6 0.000000 0.000000 0.000000 0.000000 0.000000 0.040077
#
#
# Mechanical properties :
#
#
# Convention : Reuss Voigt Hill
#
# Bulk Modulus (GPa) = 53.01758 59.90561 56.46160
# Shear Modulus (GPa) = -15.84232 24.91309 4.53538
#
# Velocity S-wave (km/s) = -2.75322 3.45259 1.47312
# Velocity P-wave (km/s) = 3.90651 6.67514 5.46893
#
# Compressibility (1/GPa) = 0.01886167
#
# Stress axis : x y z
#
# Youngs Moduli (GPa) = 113.23553 84.77834 78.68860
#
# Poissons Ratio (x) = 0.33259 0.23969
# Poissons Ratio (y) = 0.44423 0.02105
# Poissons Ratio (z) = 0.34492 0.02268
#
# Static dielectric constant tensor:
#      x y z
#    x 1.838830 0.000000 0.000000 
#    y 0.000000 1.765080 0.000000 
#    z 0.000000 0.000000 1.685410 
# 
# From -- ./inp_files/27827.got.cif
#   From: 2010.05.17/outbox.cif.g08.bks.cpg/sg54_14_cif.got.tgz:27827.got - 2010.06.03 13:09:01.
