data_PCOD9420706
_publ_section_title
;
Structure prediction by ZEFSAII (Michael W. Deem and Ramdas Pophale) SiO2 
 PCOD9420706
Probable space group: P C C A
;
_chemical_formula_sum "Si O2"
_cell_formula_units_Z 48
_cell_length_a 25.762553
_cell_length_b 5.368833
_cell_length_c 14.112412
_cell_angle_alpha 90.000000
_cell_angle_beta 90.000000
_cell_angle_gamma 90.000000
_cell_volume 1951.956074
_symmetry_space_group_name_H-M "P C C A"
_symmetry_group_IT_number 54
_symmetry_cell_setting 'orthorhombic'
loop_
_space_group_symop_operation_xyz
x,y,z
1/2-x,-y,z
1/2+x,-y,1/2-z
-x,y,1/2-z
-x,-y,-z
1/2+x,y,-z
1/2-x,y,1/2+z
x,-y,1/2+z
loop_
_atom_site_type_symbol
_atom_site_label
_atom_site_fract_x
_atom_site_fract_y
_atom_site_fract_z
Si Si1 0.559640 0.067910 0.894160
Si Si2 0.750000 0.500000 0.790819
Si Si3 0.422754 0.379814 0.778196
Si Si4 0.146197 0.744468 0.160522
Si Si5 0.750000 0.000000 0.161072
Si Si6 0.039700 0.276856 0.921016
Si Si7 0.643216 0.011564 0.642664
O O1 0.559007 0.151385 0.785360
O O2 0.614342 0.920969 0.912033
O O3 0.511436 0.886239 0.909898
O O4 0.550873 0.295636 0.967321
O O5 0.801159 0.417110 0.851919
O O6 0.758522 0.744005 0.723139
O O7 0.397706 0.562009 0.702049
O O8 0.464044 0.495965 0.848610
O O9 0.376504 0.292369 0.847771
O O10 0.157319 0.922347 0.250376
O O11 0.801375 0.974059 0.095841
O O12 0.092667 0.138575 0.888564
#
# Coordination Sequence:
#
# PCOD9420706 Si02
#       7
#     8   4   8   8   4   8   8
#     4  10  23  41  62  94 139 178 231 293 358 427
#     4  10  18  34  62  98 132 172 232 292 348 420
#     4  10  20  39  64  96 122 177 233 278 340 434
#     4   9  19  34  60  94 127 168 224 281 342 418
#     4  10  18  34  62  98 132 170 238 294 354 416
#     4  10  23  41  62  93 134 181 228 290 359 421
#     4   9  19  34  60  91 126 169 226 285 342 413
#
# _framework density 24.590717999999999
#
# number of rings (size 3 to 8) (size 9 to 14) (size 15 to 20)
#    0.000    2.333    1.667    0.000    0.000   10.000 
#    0.000    3.333    3.667    1.000    0.000    0.000 
#    0.000    0.000    0.000    0.000    0.333    0.917 
#
# Total GULP energy -267637.726962 kJ/mol
# GULP energy per Si atom -5575.785978 kJ/mol
# Density = 2.453475 g / cm^3
# Si number density = 24.590718 Si / 1000 Ang^3
#
#
#
# Elastic Constant Matrix: (Units=GPa)
#
#
# Indices 1 2 3 4 5 6 
#
# 1 147.7934 29.6930 50.9207 0.0000 0.0000 0.0000
# 2 29.6930 82.9967 28.8621 0.0000 0.0000 0.0000
# 3 50.9207 28.8621 76.4941 0.0000 0.0000 0.0000
# 4 0.0000 0.0000 0.0000 23.1682 0.0000 0.0000
# 5 0.0000 0.0000 0.0000 0.0000 -0.1156 0.0000
# 6 0.0000 0.0000 0.0000 0.0000 0.0000 40.2448
#
#
#
# Elastic Compliance Matrix: (Units=1/GPa)
#
#
# Indices 1 2 3 4 5 6 
#
# 1 0.008899 -0.001293 -0.005436 0.000000 0.000000 0.000000
# 2 -0.001293 0.014056 -0.004443 0.000000 0.000000 0.000000
# 3 -0.005436 -0.004443 0.018368 0.000000 0.000000 0.000000
# 4 0.000000 0.000000 0.000000 0.043163 0.000000 0.000000
# 5 0.000000 0.000000 0.000000 0.000000 -8.650910 0.000000
# 6 0.000000 0.000000 0.000000 0.000000 0.000000 0.024848
#
#
# Mechanical properties :
#
#
# Convention : Reuss Voigt Hill
#
# Bulk Modulus (GPa) = 52.68914 58.47063 55.57988
# Shear Modulus (GPa) = -0.58734 25.84670 12.62968
#
# Velocity S-wave (km/s) = -0.48925 3.24555 2.26872
# Velocity P-wave (km/s) = 4.59933 6.15418 5.43266
#
# Compressibility (1/GPa) = 0.01897924
#
# Stress axis : x y z
#
# Youngs Moduli (GPa) = 112.37326 71.14240 54.44344
#
# Poissons Ratio (x) = 0.09201 0.29595
# Poissons Ratio (y) = 0.14534 0.24187
# Poissons Ratio (z) = 0.61084 0.31606
#
# Static dielectric constant tensor:
#      x y z
#    x 2.150400 0.000000 0.000000 
#    y 0.000000 2.041080 0.000000 
#    z 0.000000 0.000000 1.921240 
# 
# From -- ./inp_files/15207.got.cif
#   From: 2010.05.17/outbox.cif.g08.bks.cpg/sg54_8_cif.got.tgz:15207.got - 2010.06.03 13:09:01.
