data_PCOD9420012
_publ_section_title
;
Structure prediction by ZEFSAII (Michael W. Deem and Ramdas Pophale) SiO2 
 PCOD9420012
Probable space group: P M N A
;
_chemical_formula_sum "Si O2"
_cell_formula_units_Z 32
_cell_length_a 15.342671
_cell_length_b 5.406835
_cell_length_c 16.685444
_cell_angle_alpha 90.000000
_cell_angle_beta 90.000000
_cell_angle_gamma 90.000000
_cell_volume 1384.145855
_symmetry_space_group_name_H-M "P M N A"
_symmetry_group_IT_number 53
_symmetry_cell_setting 'orthorhombic'
loop_
_space_group_symop_operation_xyz
x,y,z
1/2-x,-y,1/2+z
x,-y,-z
1/2-x,y,1/2-z
-x,-y,-z
1/2+x,y,1/2-z
-x,y,z
1/2+x,-y,1/2+z
loop_
_atom_site_type_symbol
_atom_site_label
_atom_site_fract_x
_atom_site_fract_y
_atom_site_fract_z
Si Si1 0.601399 0.493387 0.207872
Si Si2 0.250000 0.791669 0.250000
Si Si3 0.647582 0.250909 0.050571
Si Si4 0.000000 0.752032 0.951113
Si Si5 0.675589 0.788026 0.643593
O O1 0.500000 0.556500 0.226254
O O2 0.671890 0.703547 0.187097
O O3 0.600499 0.292178 0.136707
O O4 0.660469 0.405593 0.284044
O O5 0.306792 0.958065 0.311035
O O6 0.748334 0.254155 0.079596
O O7 0.627905 0.500000 0.000000
O O8 0.628773 0.000000 0.000000
O O9 0.085157 0.769372 0.899100
O O10 0.000000 0.500000 0.000000
O O11 0.000000 0.000000 0.000000
#
# Coordination Sequence:
#
# PCOD9420012 Si02
#       5
#     8   4   8   4   8
#     4  12  27  47  79 110 153 208 272 328 390 480
#     4  12  24  48  78 112 152 208 280 312 398 464
#     4  12  26  48  74 109 158 207 253 325 400 466
#     4  12  30  48  76 124 162 197 258 333 414 484
#     4  12  25  47  76 111 152 212 259 325 395 484
#
# _framework density 23.118953000000001
#
# number of rings (size 3 to 8) (size 9 to 14) (size 15 to 20)
#    0.000    0.000    6.250    3.000    5.250    1.000 
#    0.000    0.000    0.000    0.000    0.000    0.000 
#    0.000    0.000    0.000    0.000    0.000    0.000 
#
# Total GULP energy -178346.853660 kJ/mol
# GULP energy per Si atom -5573.339177 kJ/mol
# Density = 2.306633 g / cm^3
# Si number density = 23.118953 Si / 1000 Ang^3
#
#
#
# Elastic Constant Matrix: (Units=GPa)
#
#
# Indices 1 2 3 4 5 6 
#
# 1 164.3928 -9.5235 -13.0475 0.0000 0.0000 0.0000
# 2 -9.5235 62.6459 -2.6503 0.0000 0.0000 0.0000
# 3 -13.0475 -2.6503 42.9787 0.0000 0.0000 0.0000
# 4 0.0000 0.0000 0.0000 112.1498 0.0000 0.0000
# 5 0.0000 0.0000 0.0000 0.0000-1042.9264 0.0000
# 6 0.0000 0.0000 0.0000 0.0000 0.0000 23.8364
#
#
#
# Elastic Compliance Matrix: (Units=1/GPa)
#
#
# Indices 1 2 3 4 5 6 
#
# 1 0.006300 0.001041 0.001977 0.000000 0.000000 0.000000
# 2 0.001041 0.016177 0.001314 0.000000 0.000000 0.000000
# 3 0.001977 0.001314 0.023948 0.000000 0.000000 0.000000
# 4 0.000000 0.000000 0.000000 0.008917 0.000000 0.000000
# 5 0.000000 0.000000 0.000000 0.000000 -0.000959 0.000000
# 6 0.000000 0.000000 0.000000 0.000000 0.000000 0.041953
#
#
# Mechanical properties :
#
#
# Convention : Reuss Voigt Hill
#
# Bulk Modulus (GPa) = 18.15239 24.39720 21.27480
# Shear Modulus (GPa) = 47.15427 -161.70546 -57.27560
#
# Velocity S-wave (km/s) = 4.52113 -8.37238 -4.98278
# Velocity P-wave (km/s) = 5.92646 9.10421 4.88690
#
# Compressibility (1/GPa) = 0.05508916
#
# Stress axis : x y z
#
# Youngs Moduli (GPa) = 158.72468 61.81759 41.75635
#
# Poissons Ratio (x) = -0.06438 -0.08255
# Poissons Ratio (y) = -0.16530 -0.05486
# Poissons Ratio (z) = -0.31377 -0.08121
#
# Static dielectric constant tensor:
#      x y z
#    x 3.340980 0.000000 0.000000 
#    y 0.000000 2.433310 0.000000 
#    z 0.000000 0.000000 1.724130 
# 
# From -- ./inp_files/27920.got.cif
#   From: 2010.05.17/outbox.cif.g08.bks.cpg/sg53_14_cif.got.tgz:27920.got - 2010.06.03 12:45:16.
