data_PCOD9420783
_publ_section_title
;
Structure prediction by ZEFSAII (Michael W. Deem and Ramdas Pophale) SiO2 
 PCOD9420783
Probable space group: P C C A
;
_chemical_formula_sum "Si O2"
_cell_formula_units_Z 40
_cell_length_a 13.475593
_cell_length_b 8.881944
_cell_length_c 18.295902
_cell_angle_alpha 90.000000
_cell_angle_beta 90.000000
_cell_angle_gamma 90.000000
_cell_volume 2189.826674
_symmetry_space_group_name_H-M "P C C A"
_symmetry_group_IT_number 54
_symmetry_cell_setting 'orthorhombic'
loop_
_space_group_symop_operation_xyz
x,y,z
1/2-x,-y,z
1/2+x,-y,1/2-z
-x,y,1/2-z
-x,-y,-z
1/2+x,y,-z
1/2-x,y,1/2+z
x,-y,1/2+z
loop_
_atom_site_type_symbol
_atom_site_label
_atom_site_fract_x
_atom_site_fract_y
_atom_site_fract_z
Si Si1 0.962118 0.561218 0.671605
Si Si2 0.500000 0.961056 0.750000
Si Si3 0.617763 0.709112 0.833170
Si Si4 0.355756 0.073978 0.037562
Si Si5 0.470665 0.132083 0.896394
Si Si6 0.250000 0.500000 0.764708
O O1 0.985247 0.689974 0.613568
O O2 0.844845 0.537391 0.684570
O O3 0.000000 0.619257 0.750000
O O4 0.026240 0.409494 0.660220
O O5 0.581563 0.849821 0.784608
O O6 0.456249 0.059426 0.816325
O O7 0.640830 0.776973 0.912337
O O8 0.707650 0.628466 0.790187
O O9 0.250000 0.000000 0.044468
O O10 0.436011 0.955647 0.069234
O O11 0.382971 0.106126 0.953809
#
# Coordination Sequence:
#
# PCOD9420783 Si02
#       6
#     8   4   8   8   8   4
#     4  10  20  38  61  94 120 156 209 261 305 362
#     4  10  18  38  64  86 120 158 194 268 310 340
#     4  10  21  37  61  89 127 161 205 261 309 367
#     4  10  24  41  58  89 125 170 205 247 312 384
#     4  10  22  40  62  87 123 159 208 258 305 369
#     4  10  20  34  62  94 118 158 206 258 306 366
#
# _framework density 18.266286000000001
#
# number of rings (size 3 to 8) (size 9 to 14) (size 15 to 20)
#    0.000    2.000    4.000    0.000    5.600    2.400 
#    3.600    2.000    0.000    0.000    0.000    0.000 
#    0.000    0.000    0.000    0.000    0.000    0.000 
#
# Total GULP energy -222937.632944 kJ/mol
# GULP energy per Si atom -5573.440824 kJ/mol
# Density = 1.822471 g / cm^3
# Si number density = 18.266286 Si / 1000 Ang^3
#
#
#
# Elastic Constant Matrix: (Units=GPa)
#
#
# Indices 1 2 3 4 5 6 
#
# 1 66.1759 32.3965 21.4306 0.0000 0.0000 0.0000
# 2 32.3965 97.8491 52.8211 0.0000 0.0000 0.0000
# 3 21.4306 52.8211 107.6835 0.0000 0.0000 0.0000
# 4 0.0000 0.0000 0.0000 12.1899 0.0000 0.0000
# 5 0.0000 0.0000 0.0000 0.0000 8.3242 0.0000
# 6 0.0000 0.0000 0.0000 0.0000 0.0000 3.5604
#
#
#
# Elastic Compliance Matrix: (Units=1/GPa)
#
#
# Indices 1 2 3 4 5 6 
#
# 1 0.018098 -0.005506 -0.000901 0.000000 0.000000 0.000000
# 2 -0.005506 0.015575 -0.006544 0.000000 0.000000 0.000000
# 3 -0.000901 -0.006544 0.012676 0.000000 0.000000 0.000000
# 4 0.000000 0.000000 0.000000 0.082035 0.000000 0.000000
# 5 0.000000 0.000000 0.000000 0.000000 0.120132 0.000000
# 6 0.000000 0.000000 0.000000 0.000000 0.000000 0.280869
#
#
# Mechanical properties :
#
#
# Convention : Reuss Voigt Hill
#
# Bulk Modulus (GPa) = 48.90609 53.88943 51.39776
# Shear Modulus (GPa) = 8.89514 15.81892 12.35703
#
# Velocity S-wave (km/s) = 2.20913 2.94601 2.60377
# Velocity P-wave (km/s) = 5.77400 6.41390 6.10235
#
# Compressibility (1/GPa) = 0.02044735
#
# Stress axis : x y z
#
# Youngs Moduli (GPa) = 55.25362 64.20349 78.88916
#
# Poissons Ratio (x) = 0.35348 0.07110
# Poissons Ratio (y) = 0.30421 0.51628
# Poissons Ratio (z) = 0.04980 0.42017
#
# Static dielectric constant tensor:
#      x y z
#    x 1.630140 0.000000 0.000000 
#    y 0.000000 1.638820 0.000000 
#    z 0.000000 0.000000 1.631240 
# 
# From -- ./inp_files/17131.got.cif
#   From: 2010.05.17/outbox.cif.g08.bks.cpg/sg54_9_cif.got.tgz:17131.got - 2010.06.03 13:09:01.
