data_PCOD9420262
_publ_section_title
;
Structure prediction by ZEFSAII (Michael W. Deem and Ramdas Pophale) SiO2 
 PCOD9420262
Probable space group: P M N A
;
_chemical_formula_sum "Si O2"
_cell_formula_units_Z 56
_cell_length_a 9.000000
_cell_length_b 21.000000
_cell_length_c 15.000000
_cell_angle_alpha 90.000000
_cell_angle_beta 90.000000
_cell_angle_gamma 90.000000
_cell_volume 2835.000000
_symmetry_space_group_name_H-M "P M N A"
_symmetry_group_IT_number 53
_symmetry_cell_setting 'orthorhombic'
loop_
_space_group_symop_operation_xyz
x,y,z
1/2-x,-y,1/2+z
x,-y,-z
1/2-x,y,1/2-z
-x,-y,-z
1/2+x,y,1/2-z
-x,y,z
1/2+x,-y,1/2+z
loop_
_atom_site_type_symbol
_atom_site_label
_atom_site_fract_x
_atom_site_fract_y
_atom_site_fract_z
Si Si1 0.823381 0.044027 0.343189
Si Si2 0.320977 0.907454 0.346179
Si Si3 0.321712 0.286571 0.482735
Si Si4 0.319984 0.658038 0.156016
Si Si5 0.321899 0.622273 0.840032
Si Si6 0.179067 0.483705 0.598534
Si Si7 0.676300 0.156647 0.014300
O O1 0.750000 0.065262 0.250000
O O2 0.807315 0.097801 0.417735
O O3 0.000000 0.030768 0.331437
O O4 0.739105 0.978718 0.367518
O O5 0.250000 0.891620 0.250000
O O6 0.500000 0.906018 0.343050
O O7 0.255887 0.862237 0.422294
O O8 0.500000 0.287149 0.484298
O O9 0.251160 0.298998 0.579509
O O10 0.255657 0.342426 0.421610
O O11 0.256716 0.219493 0.449357
O O12 0.250000 0.676083 0.250000
O O13 0.500000 0.661978 0.155729
O O14 0.272760 0.584445 0.135422
O O15 0.250000 0.648050 0.750000
O O16 0.500000 0.630755 0.843615
O O17 0.289242 0.546860 0.845796
O O18 0.237210 0.500000 0.500000
O O19 0.000000 0.478689 0.592033
O O20 0.500000 0.167902 0.001343
#
# Coordination Sequence:
#
# PCOD9420262 Si02
#       7
#     8   8   8   8   8   8   8
#     4  10  21  38  63  93 125 159 198 245 297 353
#     4  11  22  38  63  94 127 161 199 246 298 354
#     4  12  26  43  61  87 120 160 208 253 302 361
#     4  11  22  40  64  90 122 158 200 249 304 364
#     4  11  22  40  64  90 122 159 201 249 305 362
#     4   9  17  34  62  91 120 156 195 245 305 361
#     4  11  24  42  63  88 121 162 205 250 303 356
#
# _framework density 19.753086
#
# number of rings (size 3 to 8) (size 9 to 14) (size 15 to 20)
#    0.000    1.286    1.429    6.000    0.000    5.143 
#    0.000    7.143    0.000    0.000    0.000    0.000 
#    0.000    0.000    0.000    0.000    0.000    0.000 
#
# Total GULP energy -312975.660552 kJ/mol
# GULP energy per Si atom -5588.851081 kJ/mol
# Density = 1.970813 g / cm^3
# Si number density = 19.753086 Si / 1000 Ang^3
#
#
#
# Elastic Constant Matrix: (Units=GPa)
#
#
# Indices 1 2 3 4 5 6 
#
# 1 142.2472 29.6386 35.4239 0.0000 0.0000 0.0000
# 2 29.6386 34.6540 -1.2290 0.0000 0.0000 0.0000
# 3 35.4239 -1.2290 69.7366 0.0000 0.0000 0.0000
# 4 0.0000 0.0000 0.0000 -11.0929 0.0000 0.0000
# 5 0.0000 0.0000 0.0000 0.0000 26.5951 0.0000
# 6 0.0000 0.0000 0.0000 0.0000 0.0000 27.6215
#
#
#
# Elastic Compliance Matrix: (Units=1/GPa)
#
#
# Indices 1 2 3 4 5 6 
#
# 1 0.010224 -0.008934 -0.005351 0.000000 0.000000 0.000000
# 2 -0.008934 0.036682 0.005185 0.000000 0.000000 0.000000
# 3 -0.005351 0.005185 0.017149 0.000000 0.000000 0.000000
# 4 0.000000 0.000000 0.000000 -0.090148 0.000000 0.000000
# 5 0.000000 0.000000 0.000000 0.000000 0.037601 0.000000
# 6 0.000000 0.000000 0.000000 0.000000 0.000000 0.036204
#
#
# Mechanical properties :
#
#
# Convention : Reuss Voigt Hill
#
# Bulk Modulus (GPa) = 21.80829 41.58944 31.69886
# Shear Modulus (GPa) = 61.57850 20.81170 41.19510
#
# Velocity S-wave (km/s) = 5.58944 3.24943 4.57168
# Velocity P-wave (km/s) = 7.26086 5.93117 6.62944
#
# Compressibility (1/GPa) = 0.04585413
#
# Stress axis : x y z
#
# Youngs Moduli (GPa) = 97.80831 27.26154 58.31199
#
# Poissons Ratio (x) = 0.24356 0.31202
# Poissons Ratio (y) = 0.87383 -0.30233
# Poissons Ratio (z) = 0.52337 -0.14134
#
# Static dielectric constant tensor:
#      x y z
#    x 1.642460 0.000000 0.000000 
#    y 0.000000 1.696390 0.000000 
#    z 0.000000 0.000000 1.757360 
# 
# From -- ./inp_files/20629.got.cif
#   From: 2010.05.17/outbox.ucp.g08.bks.cvg/sg53_11_cif.got.tgz:20629.got - 2010.06.11 16:32:34.
