data_PCOD9420903
_publ_section_title
;
Structure prediction by ZEFSAII (Michael W. Deem and Ramdas Pophale) SiO2 
 PCOD9420903
Probable space group: P C C A
;
_chemical_formula_sum "Si O2"
_cell_formula_units_Z 48
_cell_length_a 24.943164
_cell_length_b 5.264116
_cell_length_c 14.005923
_cell_angle_alpha 90.000000
_cell_angle_beta 90.000000
_cell_angle_gamma 90.000000
_cell_volume 1839.029634
_symmetry_space_group_name_H-M "P C C A"
_symmetry_group_IT_number 54
_symmetry_cell_setting 'orthorhombic'
loop_
_space_group_symop_operation_xyz
x,y,z
1/2-x,-y,z
1/2+x,-y,1/2-z
-x,y,1/2-z
-x,-y,-z
1/2+x,y,-z
1/2-x,y,1/2+z
x,-y,1/2+z
loop_
_atom_site_type_symbol
_atom_site_label
_atom_site_fract_x
_atom_site_fract_y
_atom_site_fract_z
Si Si1 0.545723 0.393282 0.368211
Si Si2 0.215096 0.747726 0.693375
Si Si3 0.428078 0.483872 0.408700
Si Si4 0.282918 0.254336 0.921537
Si Si5 0.594274 0.107714 0.854431
Si Si6 0.891036 0.018430 0.062255
O O1 0.482294 0.354414 0.371507
O O2 0.563356 0.443851 0.478832
O O3 0.558449 0.661271 0.320731
O O4 0.579692 0.171700 0.317761
O O5 0.250000 0.500000 0.664284
O O6 0.207040 0.722314 0.807817
O O7 0.155873 0.798071 0.651117
O O8 0.250000 0.000000 0.675392
O O9 0.382460 0.265587 0.395532
O O10 0.418368 0.770733 0.371550
O O11 0.250000 0.500000 0.952723
O O12 0.250000 0.000000 0.936354
O O13 0.338940 0.180508 0.968547
O O14 0.578810 0.056526 0.965787
#
# Coordination Sequence:
#
# PCOD9420903 Si02
#       6
#     8   8   8   8   8   8
#     4   9  17  30  50  76 105 135 167 206 256 313
#     4  10  21  37  55  74 101 140 179 214 261 320
#     4   9  17  30  50  76 105 135 167 206 256 313
#     4  10  21  37  55  74 101 140 179 214 261 320
#     4  10  19  32  52  78 103 131 171 216 259 302
#     4  10  19  32  52  78 103 131 171 216 259 302
#
# _framework density 26.100722000000001
#
# number of rings (size 3 to 8) (size 9 to 14) (size 15 to 20)
#    0.000    2.333    0.000    3.000    0.000    4.667 
#    0.000    1.667    0.000    6.000    0.000    0.000 
#    0.000    0.000    0.000    0.000    0.000    0.000 
#
# Total GULP energy -267962.751058 kJ/mol
# GULP energy per Si atom -5582.557314 kJ/mol
# Density = 2.604132 g / cm^3
# Si number density = 26.100722 Si / 1000 Ang^3
#
#
#
# Elastic Constant Matrix: (Units=GPa)
#
#
# Indices 1 2 3 4 5 6 
#
# 1 111.5008 66.2460 -7.1541 0.0000 0.0000 0.0000
# 2 66.2460 272.3275 1.5504 0.0000 0.0000 0.0000
# 3 -7.1541 1.5504 74.7226 0.0000 0.0000 0.0000
# 4 0.0000 0.0000 0.0000 6.8637 0.0000 0.0000
# 5 0.0000 0.0000 0.0000 0.0000 22.1456 0.0000
# 6 0.0000 0.0000 0.0000 0.0000 0.0000 24.6850
#
#
#
# Elastic Compliance Matrix: (Units=1/GPa)
#
#
# Indices 1 2 3 4 5 6 
#
# 1 0.010568 -0.002577 0.001065 0.000000 0.000000 0.000000
# 2 -0.002577 0.004301 -0.000336 0.000000 0.000000 0.000000
# 3 0.001065 -0.000336 0.013492 0.000000 0.000000 0.000000
# 4 0.000000 0.000000 0.000000 0.145694 0.000000 0.000000
# 5 0.000000 0.000000 0.000000 0.000000 0.045156 0.000000
# 6 0.000000 0.000000 0.000000 0.000000 0.000000 0.040510
#
#
# Mechanical properties :
#
#
# Convention : Reuss Voigt Hill
#
# Bulk Modulus (GPa) = 40.54252 64.42617 52.48434
# Shear Modulus (GPa) = 18.40690 37.26611 27.83650
#
# Velocity S-wave (km/s) = 2.65849 3.78270 3.26928
# Velocity P-wave (km/s) = 4.99902 6.61934 5.86540
#
# Compressibility (1/GPa) = 0.02466547
#
# Stress axis : x y z
#
# Youngs Moduli (GPa) = 94.62674 232.51557 74.11916
#
# Poissons Ratio (x) = 0.59914 -0.07896
# Poissons Ratio (y) = 0.24383 0.02490
# Poissons Ratio (z) = -0.10080 0.07811
#
# Static dielectric constant tensor:
#      x y z
#    x -18.528920 0.000000 0.000000 
#    y 0.000000 2.136870 0.000000 
#    z 0.000000 0.000000 2.114670 
# 
# From -- ./inp_files/22076.got.cif
#   From: 2010.05.17/outbox.cif.g08.bks.cpg/sg54_12_cif.got.tgz:22076.got - 2010.06.03 13:09:01.
