data_PCOD9420494
_publ_section_title
;
Structure prediction by ZEFSAII (Michael W. Deem and Ramdas Pophale) SiO2 
 PCOD9420494
Probable space group: P C C A
;
_chemical_formula_sum "Si O2"
_cell_formula_units_Z 52
_cell_length_a 15.081413
_cell_length_b 7.697845
_cell_length_c 21.749744
_cell_angle_alpha 90.000000
_cell_angle_beta 90.000000
_cell_angle_gamma 90.000000
_cell_volume 2525.023037
_symmetry_space_group_name_H-M "P C C A"
_symmetry_group_IT_number 54
_symmetry_cell_setting 'orthorhombic'
loop_
_space_group_symop_operation_xyz
x,y,z
1/2-x,-y,z
1/2+x,-y,1/2-z
-x,y,1/2-z
-x,-y,-z
1/2+x,y,-z
1/2-x,y,1/2+z
x,-y,1/2+z
loop_
_atom_site_type_symbol
_atom_site_label
_atom_site_fract_x
_atom_site_fract_y
_atom_site_fract_z
Si Si1 0.315433 0.242379 0.869490
Si Si2 0.174269 0.716903 0.016829
Si Si3 0.515535 0.762924 0.554632
Si Si4 0.500000 0.313628 0.250000
Si Si5 0.503347 0.560200 0.136242
Si Si6 0.638197 0.687150 0.445740
Si Si7 0.631909 0.861466 0.666349
O O1 0.401135 0.355303 0.851266
O O2 0.213107 0.271080 0.849075
O O3 0.335300 0.057052 0.838547
O O4 0.313402 0.246347 0.944169
O O5 0.156520 0.511352 0.030126
O O6 0.263564 0.766180 0.053098
O O7 0.085205 0.808749 0.039963
O O8 0.517749 0.561764 0.576656
O O9 0.576900 0.780009 0.495739
O O10 0.559502 0.856402 0.611928
O O11 0.477548 0.437213 0.192606
O O12 0.417856 0.197194 0.272348
O O13 0.420563 0.679131 0.116032
#
# Coordination Sequence:
#
# PCOD9420494 Si02
#       7
#     8   8   8   4   8   8   8
#     4  11  20  37  62  92 110 155 204 241 300 378
#     4  10  18  29  55  91 126 153 188 237 305 364
#     4  10  17  33  54  87 121 153 183 246 300 350
#     4  10  24  42  58  78 114 158 214 264 292 342
#     4  10  20  37  60  86 112 156 207 244 302 350
#     4  10  17  30  55  89 124 148 187 256 294 354
#     4  10  24  38  58  87 124 154 201 249 302 357
#
# _framework density 20.593869999999999
#
# number of rings (size 3 to 8) (size 9 to 14) (size 15 to 20)
#    0.000    1.846    4.615    0.923    0.000    3.692 
#    0.000    9.231    0.000    0.000    0.000    0.000 
#    0.000    0.000    0.000    0.000    0.000    0.000 
#
# Total GULP energy -289890.459890 kJ/mol
# GULP energy per Si atom -5574.816536 kJ/mol
# Density = 2.054700 g / cm^3
# Si number density = 20.593870 Si / 1000 Ang^3
#
#
#
# Elastic Constant Matrix: (Units=GPa)
#
#
# Indices 1 2 3 4 5 6 
#
# 1 186.2910 36.9929 50.0269 0.0000 0.0000 0.0000
# 2 36.9929 43.1914 19.5579 0.0000 0.0000 0.0000
# 3 50.0269 19.5579 56.6299 0.0000 0.0000 0.0000
# 4 0.0000 0.0000 0.0000 12.3627 0.0000 0.0000
# 5 0.0000 0.0000 0.0000 0.0000 25.4956 0.0000
# 6 0.0000 0.0000 0.0000 0.0000 0.0000 17.0977
#
#
#
# Elastic Compliance Matrix: (Units=1/GPa)
#
#
# Indices 1 2 3 4 5 6 
#
# 1 0.007609 -0.004117 -0.005300 0.000000 0.000000 0.000000
# 2 -0.004117 0.029672 -0.006611 0.000000 0.000000 0.000000
# 3 -0.005300 -0.006611 0.024623 0.000000 0.000000 0.000000
# 4 0.000000 0.000000 0.000000 0.080888 0.000000 0.000000
# 5 0.000000 0.000000 0.000000 0.000000 0.039222 0.000000
# 6 0.000000 0.000000 0.000000 0.000000 0.000000 0.058487
#
#
# Mechanical properties :
#
#
# Convention : Reuss Voigt Hill
#
# Bulk Modulus (GPa) = 33.50136 55.47421 44.48778
# Shear Modulus (GPa) = 17.69867 22.96018 20.32943
#
# Velocity S-wave (km/s) = 2.93476 3.34264 3.14532
# Velocity P-wave (km/s) = 5.27131 6.47251 5.90254
#
# Compressibility (1/GPa) = 0.02984954
#
# Stress axis : x y z
#
# Youngs Moduli (GPa) = 131.42934 33.70134 40.61182
#
# Poissons Ratio (x) = 0.13875 0.21523
# Poissons Ratio (y) = 0.54109 0.26848
# Poissons Ratio (z) = 0.69653 0.22279
#
# Static dielectric constant tensor:
#      x y z
#    x 1.820890 0.000000 0.000000 
#    y 0.000000 1.838320 0.000000 
#    z 0.000000 0.000000 1.703950 
# 
# From -- ./inp_files/21544.got.cif
#   From: 2010.05.17/outbox.cif.g08.bks.cpg/sg54_11_cif.got.tgz:21544.got - 2010.06.03 13:09:01.
