data_PCOD9420571
_publ_section_title
;
Structure prediction by ZEFSAII (Michael W. Deem and Ramdas Pophale) SiO2 
 PCOD9420571
Probable space group: P C C A
;
_chemical_formula_sum "Si O2"
_cell_formula_units_Z 64
_cell_length_a 18.336006
_cell_length_b 8.250081
_cell_length_c 20.362988
_cell_angle_alpha 90.000000
_cell_angle_beta 90.000000
_cell_angle_gamma 90.000000
_cell_volume 3080.381172
_symmetry_space_group_name_H-M "P C C A"
_symmetry_group_IT_number 54
_symmetry_cell_setting 'orthorhombic'
loop_
_space_group_symop_operation_xyz
x,y,z
1/2-x,-y,z
1/2+x,-y,1/2-z
-x,y,1/2-z
-x,-y,-z
1/2+x,y,-z
1/2-x,y,1/2+z
x,-y,1/2+z
loop_
_atom_site_type_symbol
_atom_site_label
_atom_site_fract_x
_atom_site_fract_y
_atom_site_fract_z
Si Si1 0.296364 0.334843 0.163245
Si Si2 0.158400 0.862924 0.627216
Si Si3 0.909189 0.483604 0.176262
Si Si4 0.829020 0.059166 0.743086
Si Si5 0.164375 0.045157 0.497960
Si Si6 0.920718 0.545636 0.834534
Si Si7 0.789964 0.333344 0.083799
Si Si8 0.362796 0.175121 0.381992
O O1 0.250000 0.500000 0.173061
O O2 0.242034 0.209151 0.126011
O O3 0.316324 0.240000 0.229660
O O4 0.374091 0.394901 0.135659
O O5 0.140911 0.988484 0.569953
O O6 0.110300 0.703347 0.629788
O O7 0.146948 0.951887 0.696223
O O8 0.902720 0.464392 0.255650
O O9 0.846563 0.378032 0.141234
O O10 0.899879 0.659707 0.141661
O O11 0.992992 0.446050 0.160506
O O12 0.877098 0.056321 0.679037
O O13 0.750000 0.000000 0.723359
O O14 0.122491 0.925054 0.447640
O O15 0.250000 0.000000 0.495862
O O16 0.166882 0.229144 0.471150
O O17 0.750000 0.500000 0.059637
O O18 0.722665 0.226886 0.111231
#
# Coordination Sequence:
#
# PCOD9420571 Si02
#       8
#     8   8   8   8   8   8   8   8
#     4   9  18  32  57  87 114 155 189 252 305 369
#     4  10  22  36  60  88 125 157 205 254 319 368
#     4  10  21  38  60  89 122 161 211 260 307 371
#     4  10  18  30  54  90 114 149 195 253 304 366
#     4  10  20  39  57  93 129 158 197 259 313 372
#     4  10  21  38  60  86 127 159 209 261 310 363
#     4   9  20  35  63  90 119 161 205 253 309 377
#     4  10  20  34  62  87 123 156 204 258 316 365
#
# _framework density 20.776648999999999
#
# number of rings (size 3 to 8) (size 9 to 14) (size 15 to 20)
#    0.000    2.250    1.250    2.250    7.000    0.000 
#    0.000   25.625    0.000    0.000    0.000    7.000 
#    0.000    0.000    0.000    0.000    0.000    0.000 
#
# Total GULP energy -356426.482236 kJ/mol
# GULP energy per Si atom -5569.163785 kJ/mol
# Density = 2.072936 g / cm^3
# Si number density = 20.776649 Si / 1000 Ang^3
#
#
#
# Elastic Constant Matrix: (Units=GPa)
#
#
# Indices 1 2 3 4 5 6 
#
# 1 67.1757 15.3442 16.9598 0.0000 0.0000 0.0000
# 2 15.3442 72.7235 35.6433 0.0000 0.0000 0.0000
# 3 16.9598 35.6433 82.1572 0.0000 0.0000 0.0000
# 4 0.0000 0.0000 0.0000 7.5343 0.0000 0.0000
# 5 0.0000 0.0000 0.0000 0.0000 4.8861 0.0000
# 6 0.0000 0.0000 0.0000 0.0000 0.0000 9.2211
#
#
#
# Elastic Compliance Matrix: (Units=1/GPa)
#
#
# Indices 1 2 3 4 5 6 
#
# 1 0.015984 -0.002229 -0.002332 0.000000 0.000000 0.000000
# 2 -0.002229 0.017775 -0.007251 0.000000 0.000000 0.000000
# 3 -0.002332 -0.007251 0.015799 0.000000 0.000000 0.000000
# 4 0.000000 0.000000 0.000000 0.132726 0.000000 0.000000
# 5 0.000000 0.000000 0.000000 0.000000 0.204660 0.000000
# 6 0.000000 0.000000 0.000000 0.000000 0.000000 0.108447
#
#
# Mechanical properties :
#
#
# Convention : Reuss Voigt Hill
#
# Bulk Modulus (GPa) = 38.56199 39.77234 39.16716
# Shear Modulus (GPa) = 9.47575 14.60225 12.03900
#
# Velocity S-wave (km/s) = 2.13791 2.65395 2.40979
# Velocity P-wave (km/s) = 4.96938 5.34562 5.16093
#
# Compressibility (1/GPa) = 0.02593227
#
# Stress axis : x y z
#
# Youngs Moduli (GPa) = 62.56083 56.25822 63.29415
#
# Poissons Ratio (x) = 0.12542 0.14763
# Poissons Ratio (y) = 0.13947 0.45897
# Poissons Ratio (z) = 0.14592 0.40795
#
# Static dielectric constant tensor:
#      x y z
#    x 1.743610 0.000000 0.000000 
#    y 0.000000 1.847010 0.000000 
#    z 0.000000 0.000000 1.785220 
# 
# From -- ./inp_files/21957.got.cif
#   From: 2010.05.17/outbox.cif.g08.bks.cpg/sg54_11_cif.got.tgz:21957.got - 2010.06.03 13:09:01.
