data_PCOD9420297
_publ_section_title
;
Structure prediction by ZEFSAII (Michael W. Deem and Ramdas Pophale) SiO2 
 PCOD9420297
Probable space group: P M N A
;
_chemical_formula_sum "Si O2"
_cell_formula_units_Z 48
_cell_length_a 30.000000
_cell_length_b 9.000000
_cell_length_c 9.000000
_cell_angle_alpha 90.000000
_cell_angle_beta 90.000000
_cell_angle_gamma 90.000000
_cell_volume 2430.000000
_symmetry_space_group_name_H-M "P M N A"
_symmetry_group_IT_number 53
_symmetry_cell_setting 'orthorhombic'
loop_
_space_group_symop_operation_xyz
x,y,z
1/2-x,-y,1/2+z
x,-y,-z
1/2-x,y,1/2-z
-x,-y,-z
1/2+x,y,1/2-z
-x,y,z
1/2+x,-y,1/2+z
loop_
_atom_site_type_symbol
_atom_site_label
_atom_site_fract_x
_atom_site_fract_y
_atom_site_fract_z
Si Si1 0.550727 0.723283 0.391525
Si Si2 0.873750 0.886669 0.271700
Si Si3 0.051407 0.608304 0.772592
Si Si4 0.273633 0.649807 0.908838
Si Si5 0.217380 0.128524 0.883453
Si Si6 0.871726 0.217000 0.390688
O O1 0.500000 0.772452 0.365919
O O2 0.585744 0.840384 0.332324
O O3 0.555592 0.685739 0.565591
O O4 0.557328 0.567067 0.304410
O O5 0.828328 0.826706 0.196920
O O6 0.879286 0.818534 0.435822
O O7 0.871925 0.063181 0.298435
O O8 0.089530 0.675270 0.668651
O O9 0.000000 0.631489 0.720734
O O10 0.250000 0.627488 0.750000
O O11 0.321973 0.719421 0.878535
O O12 0.280309 0.500000 0.000000
O O13 0.243453 0.750973 0.017998
O O14 0.250000 0.076917 0.750000
O O15 0.206672 0.000000 0.000000
#
# Coordination Sequence:
#
# PCOD9420297 Si02
#       6
#     8   8   8   8   8   8
#     4   9  21  42  66  98 131 167 218 269 326 397
#     4  11  25  41  65  96 130 175 216 268 323 392
#     4   9  21  42  68  96 131 171 213 270 333 392
#     4  12  28  46  66  96 132 173 220 277 331 395
#     4  12  24  44  69  94 132 175 219 267 331 391
#     4  11  25  44  62  96 135 168 220 268 328 388
#
# _framework density 19.753086
#
# number of rings (size 3 to 8) (size 9 to 14) (size 15 to 20)
#    0.000    1.333    1.667    4.000    7.000    1.333 
#    0.000    5.000    0.000    0.000    0.000    0.000 
#    0.000    0.000    0.000    0.000    0.000    0.000 
#
# Total GULP energy -268394.235661 kJ/mol
# GULP energy per Si atom -5591.546576 kJ/mol
# Density = 1.970813 g / cm^3
# Si number density = 19.753086 Si / 1000 Ang^3
#
#
#
# Elastic Constant Matrix: (Units=GPa)
#
#
# Indices 1 2 3 4 5 6 
#
# 1 102.0214 23.8091 33.7546 0.0000 0.0000 0.0000
# 2 23.8091 37.0334 18.7470 0.0000 0.0000 0.0000
# 3 33.7546 18.7470 73.2925 0.0000 0.0000 0.0000
# 4 0.0000 0.0000 0.0000 40.1727 0.0000 0.0000
# 5 0.0000 0.0000 0.0000 0.0000 59.6203 0.0000
# 6 0.0000 0.0000 0.0000 0.0000 0.0000 -27.8635
#
#
#
# Elastic Compliance Matrix: (Units=1/GPa)
#
#
# Indices 1 2 3 4 5 6 
#
# 1 0.012605 -0.005934 -0.004288 0.000000 0.000000 0.000000
# 2 -0.005934 0.033812 -0.005916 0.000000 0.000000 0.000000
# 3 -0.004288 -0.005916 0.017132 0.000000 0.000000 0.000000
# 4 0.000000 0.000000 0.000000 0.024893 0.000000 0.000000
# 5 0.000000 0.000000 0.000000 0.000000 0.016773 0.000000
# 6 0.000000 0.000000 0.000000 0.000000 0.000000 -0.035889
#
#
# Mechanical properties :
#
#
# Convention : Reuss Voigt Hill
#
# Bulk Modulus (GPa) = 31.97436 40.55207 36.26322
# Shear Modulus (GPa) = 44.63318 23.45500 34.04409
#
# Velocity S-wave (km/s) = 4.75863 3.44962 4.15599
# Velocity P-wave (km/s) = 6.81285 6.03660 6.43644
#
# Compressibility (1/GPa) = 0.03127506
#
# Stress axis : x y z
#
# Youngs Moduli (GPa) = 79.33248 29.57518 58.37102
#
# Poissons Ratio (x) = 0.17549 0.25027
# Poissons Ratio (y) = 0.47072 0.34532
# Poissons Ratio (z) = 0.34014 0.17496
#
# Static dielectric constant tensor:
#      x y z
#    x 1.667910 0.000000 0.000000 
#    y 0.000000 1.719230 0.000000 
#    z 0.000000 0.000000 1.805210 
# 
# From -- ./inp_files/12972.got.cif
#   From: 2010.05.17/outbox.ucp.g08.bks.cvg/sg53_7_cif.got.tgz:12972.got - 2010.06.11 16:32:34.
