data_PCOD9420691
_publ_section_title
;
Structure prediction by ZEFSAII (Michael W. Deem and Ramdas Pophale) SiO2 
 PCOD9420691
Probable space group: P C C A
;
_chemical_formula_sum "Si O2"
_cell_formula_units_Z 48
_cell_length_a 15.821854
_cell_length_b 14.359578
_cell_length_c 9.121923
_cell_angle_alpha 90.000000
_cell_angle_beta 90.000000
_cell_angle_gamma 90.000000
_cell_volume 2072.456633
_symmetry_space_group_name_H-M "P C C A"
_symmetry_group_IT_number 54
_symmetry_cell_setting 'orthorhombic'
loop_
_space_group_symop_operation_xyz
x,y,z
1/2-x,-y,z
1/2+x,-y,1/2-z
-x,y,1/2-z
-x,-y,-z
1/2+x,y,-z
1/2-x,y,1/2+z
x,-y,1/2+z
loop_
_atom_site_type_symbol
_atom_site_label
_atom_site_fract_x
_atom_site_fract_y
_atom_site_fract_z
Si Si1 0.690258 0.314041 0.465580
Si Si2 0.427242 0.212708 0.539361
Si Si3 0.435869 0.036484 0.377129
Si Si4 0.150035 0.634032 0.358838
Si Si5 0.882550 0.165866 0.147098
Si Si6 0.442033 0.551935 0.381961
O O1 0.679438 0.319306 0.292221
O O2 0.774407 0.363397 0.524130
O O3 0.682735 0.210890 0.533973
O O4 0.613956 0.370697 0.541245
O O5 0.392006 0.126962 0.442638
O O6 0.420795 0.304001 0.440167
O O7 0.377387 0.213563 0.693082
O O8 0.523582 0.189149 0.583860
O O9 0.500000 0.066320 0.250000
O O10 0.500000 0.000000 0.500000
O O11 0.380995 0.946167 0.334390
O O12 0.118261 0.530776 0.323108
O O13 0.500000 0.588884 0.250000
O O14 0.500000 0.500000 0.500000
#
# Coordination Sequence:
#
# PCOD9420691 Si02
#       6
#     8   8   8   8   8   8
#     4  12  28  45  68  94 137 174 215 267 329 393
#     4  10  22  37  66  96 134 169 221 268 322 384
#     4  10  18  34  59  97 132 168 217 274 326 374
#     4  12  28  46  66  98 132 179 214 267 331 389
#     4  10  21  39  64  98 131 174 215 272 321 381
#     4  12  27  46  73 103 127 163 219 271 323 387
#
# _framework density 23.160920000000001
#
# number of rings (size 3 to 8) (size 9 to 14) (size 15 to 20)
#    0.000    1.000    5.000    2.500   11.667    1.333 
#    0.000    0.833    0.000    4.000    0.000    0.000 
#    0.000    0.000    0.000    0.000    0.000    0.000 
#
# Total GULP energy -268587.718834 kJ/mol
# GULP energy per Si atom -5595.577476 kJ/mol
# Density = 2.310820 g / cm^3
# Si number density = 23.160920 Si / 1000 Ang^3
#
#
#
# Elastic Constant Matrix: (Units=GPa)
#
#
# Indices 1 2 3 4 5 6 
#
# 1 51.0102 7.4587 7.2352 0.0000 0.0000 0.0000
# 2 7.4587 98.0144 13.9081 0.0000 0.0000 0.0000
# 3 7.2352 13.9081 135.0887 0.0000 0.0000 0.0000
# 4 0.0000 0.0000 0.0000 37.8284 0.0000 0.0000
# 5 0.0000 0.0000 0.0000 0.0000 25.9085 0.0000
# 6 0.0000 0.0000 0.0000 0.0000 0.0000 10.3008
#
#
#
# Elastic Compliance Matrix: (Units=1/GPa)
#
#
# Indices 1 2 3 4 5 6 
#
# 1 0.019938 -0.001386 -0.000925 0.000000 0.000000 0.000000
# 2 -0.001386 0.010450 -0.001002 0.000000 0.000000 0.000000
# 3 -0.000925 -0.001002 0.007555 0.000000 0.000000 0.000000
# 4 0.000000 0.000000 0.000000 0.026435 0.000000 0.000000
# 5 0.000000 0.000000 0.000000 0.000000 0.038597 0.000000
# 6 0.000000 0.000000 0.000000 0.000000 0.000000 0.097080
#
#
# Mechanical properties :
#
#
# Convention : Reuss Voigt Hill
#
# Bulk Modulus (GPa) = 31.93090 37.92416 34.92753
# Shear Modulus (GPa) = 23.02871 31.84164 27.43517
#
# Velocity S-wave (km/s) = 3.15666 3.71185 3.44546
# Velocity P-wave (km/s) = 5.20600 5.89748 5.56249
#
# Compressibility (1/GPa) = 0.03131763
#
# Stress axis : x y z
#
# Youngs Moduli (GPa) = 50.15603 95.69212 132.35876
#
# Poissons Ratio (x) = 0.13262 0.12245
# Poissons Ratio (y) = 0.06951 0.13258
# Poissons Ratio (z) = 0.04640 0.09585
#
# Static dielectric constant tensor:
#      x y z
#    x 1.901670 0.000000 0.000000 
#    y 0.000000 1.949310 0.000000 
#    z 0.000000 0.000000 1.796320 
# 
# From -- ./inp_files/4180.got.cif
#   From: 2010.05.17/outbox.cif.g08.bks.cpg/sg54_3_cif.got.tgz:4180.got - 2010.06.03 13:09:01.
