data_PCOD9420323
_publ_section_title
;
Structure prediction by ZEFSAII (Michael W. Deem and Ramdas Pophale) SiO2 
 PCOD9420323
Probable space group: P C C A
;
_chemical_formula_sum "Si O2"
_cell_formula_units_Z 44
_cell_length_a 5.292946
_cell_length_b 26.458233
_cell_length_c 13.947742
_cell_angle_alpha 90.000000
_cell_angle_beta 90.000000
_cell_angle_gamma 90.000000
_cell_volume 1953.269665
_symmetry_space_group_name_H-M "P C C A"
_symmetry_group_IT_number 54
_symmetry_cell_setting 'orthorhombic'
loop_
_space_group_symop_operation_xyz
x,y,z
1/2-x,-y,z
1/2+x,-y,1/2-z
-x,y,1/2-z
-x,-y,-z
1/2+x,y,-z
1/2-x,y,1/2+z
x,-y,1/2+z
loop_
_atom_site_type_symbol
_atom_site_label
_atom_site_fract_x
_atom_site_fract_y
_atom_site_fract_z
Si Si1 0.166272 0.650220 0.888157
Si Si2 0.496569 0.972363 0.863211
Si Si3 0.895495 0.246516 0.562472
Si Si4 0.161718 0.610806 0.112370
Si Si5 0.860370 0.864855 0.060808
Si Si6 0.750000 0.500000 0.935450
O O1 0.299843 0.704843 0.880204
O O2 0.380100 0.613783 0.847270
O O3 0.884941 0.646025 0.848330
O O4 0.131524 0.630952 0.000320
O O5 0.500000 0.979978 0.750000
O O6 0.449871 0.913213 0.880394
O O7 0.750000 0.000000 0.898404
O O8 0.250000 0.000000 0.902105
O O9 0.682578 0.248966 0.477062
O O10 0.879294 0.190745 0.607477
O O11 0.251518 0.553329 0.117900
O O12 0.569656 0.866974 0.025092
O O13 0.500000 0.500000 0.000000
#
# Coordination Sequence:
#
# PCOD9420323 Si02
#       6
#     8   8   8   8   8   4
#     4  10  14  22  31  42  58  90 122 154 203 249
#     4  10  21  37  55  72  95 127 157 182 220 279
#     4  10  16  25  38  54  79 102 130 168 215 257
#     4  10  16  20  29  40  58  87 124 164 204 243
#     4  10  21  32  48  75  98 119 148 193 236 262
#     4  12  16  20  24  38  56  78 118 170 206 224
#
# _framework density 22.526333999999999
#
# number of rings (size 3 to 8) (size 9 to 14) (size 15 to 20)
#    0.000    1.818    7.273    1.091    0.000    2.182 
#    0.000    0.000    0.000    0.000    0.000    0.000 
#    0.000    0.000    0.000    0.000    0.000    0.000 
#
# Total GULP energy -245109.539386 kJ/mol
# GULP energy per Si atom -5570.671350 kJ/mol
# Density = 2.247506 g / cm^3
# Si number density = 22.526334 Si / 1000 Ang^3
#
#
#
# Elastic Constant Matrix: (Units=GPa)
#
#
# Indices 1 2 3 4 5 6 
#
# 1 144.6283 27.5433 -3.1454 0.0000 0.0000 0.0000
# 2 27.5433 153.4797 -4.7973 0.0000 0.0000 0.0000
# 3 -3.1454 -4.7973 40.1817 0.0000 0.0000 0.0000
# 4 0.0000 0.0000 0.0000 75.1649 0.0000 0.0000
# 5 0.0000 0.0000 0.0000 0.0000 -28.4497 0.0000
# 6 0.0000 0.0000 0.0000 0.0000 0.0000 39.4473
#
#
#
# Elastic Compliance Matrix: (Units=1/GPa)
#
#
# Indices 1 2 3 4 5 6 
#
# 1 0.007166 -0.001273 0.000409 0.000000 0.000000 0.000000
# 2 -0.001273 0.006766 0.000708 0.000000 0.000000 0.000000
# 3 0.000409 0.000708 0.025004 0.000000 0.000000 0.000000
# 4 0.000000 0.000000 0.000000 0.013304 0.000000 0.000000
# 5 0.000000 0.000000 0.000000 0.000000 -0.035150 0.000000
# 6 0.000000 0.000000 0.000000 0.000000 0.000000 0.025350
#
#
# Mechanical properties :
#
#
# Convention : Reuss Voigt Hill
#
# Bulk Modulus (GPa) = 25.89125 41.94345 33.91735
# Shear Modulus (GPa) = 89.88531 38.47843 64.18187
#
# Velocity S-wave (km/s) = 6.32368 4.13747 5.34357
# Velocity P-wave (km/s) = 8.05216 6.44088 7.29117
#
# Compressibility (1/GPa) = 0.03862308
#
# Stress axis : x y z
#
# Youngs Moduli (GPa) = 139.55502 147.79485 39.99439
#
# Poissons Ratio (x) = 0.18817 -0.01635
# Poissons Ratio (y) = 0.17768 -0.02832
# Poissons Ratio (z) = -0.05707 -0.10466
#
# Static dielectric constant tensor:
#      x y z
#    x 1.867610 0.000000 0.000000 
#    y 0.000000 1.677790 0.000000 
#    z 0.000000 0.000000 1.951750 
# 
# From -- ./inp_files/15907.got.cif
#   From: 2010.05.17/outbox.cif.g08.bks.cpg/sg54_8_cif.got.tgz:15907.got - 2010.06.03 13:09:01.
