data_PCOD9420905
_publ_section_title
;
Structure prediction by ZEFSAII (Michael W. Deem and Ramdas Pophale) SiO2 
 PCOD9420905
Probable space group: P C C A
;
_chemical_formula_sum "Si O2"
_cell_formula_units_Z 56
_cell_length_a 14.048923
_cell_length_b 36.014114
_cell_length_c 5.272886
_cell_angle_alpha 90.000000
_cell_angle_beta 90.000000
_cell_angle_gamma 90.000000
_cell_volume 2667.866841
_symmetry_space_group_name_H-M "P C C A"
_symmetry_group_IT_number 54
_symmetry_cell_setting 'orthorhombic'
loop_
_space_group_symop_operation_xyz
x,y,z
1/2-x,-y,z
1/2+x,-y,1/2-z
-x,y,1/2-z
-x,-y,-z
1/2+x,y,-z
1/2-x,y,1/2+z
x,-y,1/2+z
loop_
_atom_site_type_symbol
_atom_site_label
_atom_site_fract_x
_atom_site_fract_y
_atom_site_fract_z
Si Si1 0.813891 0.175707 0.102175
Si Si2 0.434239 0.407927 0.000818
Si Si3 0.064755 0.325654 0.499996
Si Si4 0.106515 0.983792 0.984229
Si Si5 0.810973 0.747308 0.473081
Si Si6 0.142803 0.484720 0.390067
Si Si7 0.683882 0.094510 0.558118
O O1 0.769820 0.176208 0.385767
O O2 0.866615 0.214328 0.039382
O O3 0.862058 0.135654 0.066115
O O4 0.500000 0.408897 0.750000
O O5 0.362669 0.442253 0.976384
O O6 0.500000 0.412412 0.250000
O O7 0.388985 0.366772 0.012224
O O8 0.133685 0.290746 0.489893
O O9 0.000000 0.322300 0.750000
O O10 0.000000 0.324908 0.250000
O O11 0.112889 0.940118 0.936941
O O12 0.150913 0.006210 0.752822
O O13 0.000000 0.000000 0.000000
O O14 0.772393 0.748125 0.185676
O O15 0.250000 0.500000 0.354977
O O16 0.098134 0.509251 0.614099
O O17 0.746841 0.091918 0.302196
#
# Coordination Sequence:
#
# PCOD9420905 Si02
#       7
#     8   8   8   8   8   8   8
#     4   8  16  30  51  77 108 134 169 223 267 313
#     4  10  21  37  57  80 106 148 187 219 267 329
#     4  10  21  38  58  82 121 151 184 232 277 330
#     4  10  21  35  50  68 102 142 167 216 270 317
#     4  10  19  35  58  88 113 147 188 225 281 334
#     4  10  21  37  53  78 109 140 174 233 276 310
#     4  10  19  32  53  79 101 134 181 223 261 312
#
# _framework density 20.990553999999999
#
# number of rings (size 3 to 8) (size 9 to 14) (size 15 to 20)
#    0.000    2.286    0.000    2.571    0.000    3.429 
#    5.143    0.000    6.286    0.000    0.000    0.000 
#    0.000    0.000    0.000    0.000    0.000    0.000 
#
# Total GULP energy -312202.806575 kJ/mol
# GULP energy per Si atom -5575.050117 kJ/mol
# Density = 2.094278 g / cm^3
# Si number density = 20.990554 Si / 1000 Ang^3
#
#
#
# Elastic Constant Matrix: (Units=GPa)
#
#
# Indices 1 2 3 4 5 6 
#
# 1 34.0933 23.2585 -3.1228 0.0000 0.0000 0.0000
# 2 23.2585 189.7395 -4.0065 0.0000 0.0000 0.0000
# 3 -3.1228 -4.0065 150.6005 0.0000 0.0000 0.0000
# 4 0.0000 0.0000 0.0000 33.0075 0.0000 0.0000
# 5 0.0000 0.0000 0.0000 0.0000 5.6521 0.0000
# 6 0.0000 0.0000 0.0000 0.0000 0.0000 1542.9329
#
#
#
# Elastic Compliance Matrix: (Units=1/GPa)
#
#
# Indices 1 2 3 4 5 6 
#
# 1 0.032055 -0.003918 0.000560 0.000000 0.000000 0.000000
# 2 -0.003918 0.005752 0.000072 0.000000 0.000000 0.000000
# 3 0.000560 0.000072 0.006654 0.000000 0.000000 0.000000
# 4 0.000000 0.000000 0.000000 0.030296 0.000000 0.000000
# 5 0.000000 0.000000 0.000000 0.000000 0.176925 0.000000
# 6 0.000000 0.000000 0.000000 0.000000 0.000000 0.000648
#
#
# Mechanical properties :
#
#
# Convention : Reuss Voigt Hill
#
# Bulk Modulus (GPa) = 26.39194 45.18797 35.78995
# Shear Modulus (GPa) = 18.41415 340.20545 179.30980
#
# Velocity S-wave (km/s) = 2.96507 12.74470 9.25254
# Velocity P-wave (km/s) = 4.93181 15.43192 11.45572
#
# Compressibility (1/GPa) = 0.03789036
#
# Stress axis : x y z
#
# Youngs Moduli (GPa) = 31.19622 173.84911 150.29419
#
# Poissons Ratio (x) = 0.68106 -0.08423
# Poissons Ratio (y) = 0.12221 -0.01079
# Poissons Ratio (z) = -0.01748 -0.01248
#
# Static dielectric constant tensor:
#      x y z
#    x 1.661140 0.000000 0.000000 
#    y 0.000000 1.809390 0.000000 
#    z 0.000000 0.000000 1.792470 
# 
# From -- ./inp_files/755.got.cif
#   From: 2010.05.17/outbox.cif.g08.bks.cpg/sg54_1_cif.got.tgz:755.got - 2010.06.03 13:09:01.
