data_PCOD9420998
_publ_section_title
;
Structure prediction by ZEFSAII (Michael W. Deem and Ramdas Pophale) SiO2 
 PCOD9420998
Probable space group: P C C A
;
_chemical_formula_sum "Si O2"
_cell_formula_units_Z 48
_cell_length_a 11.485856
_cell_length_b 12.508610
_cell_length_c 14.697682
_cell_angle_alpha 90.000000
_cell_angle_beta 90.000000
_cell_angle_gamma 90.000000
_cell_volume 2111.646738
_symmetry_space_group_name_H-M "P C C A"
_symmetry_group_IT_number 54
_symmetry_cell_setting 'orthorhombic'
loop_
_space_group_symop_operation_xyz
x,y,z
1/2-x,-y,z
1/2+x,-y,1/2-z
-x,y,1/2-z
-x,-y,-z
1/2+x,y,-z
1/2-x,y,1/2+z
x,-y,1/2+z
loop_
_atom_site_type_symbol
_atom_site_label
_atom_site_fract_x
_atom_site_fract_y
_atom_site_fract_z
Si Si1 0.338459 0.376626 0.869722
Si Si2 0.464690 0.769954 0.106585
Si Si3 0.397709 0.402188 0.316623
Si Si4 0.108622 0.001791 0.075219
Si Si5 0.039861 0.225818 0.604764
Si Si6 0.747919 0.374437 0.425903
O O1 0.425525 0.282475 0.843600
O O2 0.238429 0.390743 0.795048
O O3 0.397810 0.493300 0.883246
O O4 0.273672 0.354976 0.965440
O O5 0.364172 0.682900 0.104813
O O6 0.415431 0.887339 0.127918
O O7 0.509030 0.776483 0.001889
O O8 0.500000 0.435039 0.250000
O O9 0.432034 0.282567 0.347503
O O10 0.083394 0.892167 0.129348
O O11 0.250000 0.000000 0.047106
O O12 0.000000 0.000000 0.000000
O O13 0.140902 0.312087 0.618347
O O14 0.750000 0.500000 0.409923
#
# Coordination Sequence:
#
# PCOD9420998 Si02
#       6
#     8   8   8   8   8   8
#     4  10  21  39  56  88 122 151 207 250 310 371
#     4  10  19  33  59  88 121 153 185 256 319 361
#     4  11  22  41  59  78 120 167 204 251 290 367
#     4  10  20  34  54  89 128 160 194 247 311 382
#     4  10  20  33  56  86 118 154 203 232 308 362
#     4  11  17  30  57  86 123 146 182 247 307 368
#
# _framework density 22.731075000000001
#
# number of rings (size 3 to 8) (size 9 to 14) (size 15 to 20)
#    0.000    1.667    5.000    1.000    0.000    2.667 
#    9.000    0.000    0.000    3.000    0.000    0.000 
#    0.000    0.000    0.000    0.000    0.000    0.000 
#
# Total GULP energy -267352.009273 kJ/mol
# GULP energy per Si atom -5569.833527 kJ/mol
# Density = 2.267934 g / cm^3
# Si number density = 22.731075 Si / 1000 Ang^3
#
#
#
# Elastic Constant Matrix: (Units=GPa)
#
#
# Indices 1 2 3 4 5 6 
#
# 1 161.6806 93.8159 19.5581 0.0000 0.0000 0.0000
# 2 93.8159 205.0248 4.5536 0.0000 0.0000 0.0000
# 3 19.5581 4.5536 28.1964 0.0000 0.0000 0.0000
# 4 0.0000 0.0000 0.0000 7.7169 0.0000 0.0000
# 5 0.0000 0.0000 0.0000 0.0000 31.1820 0.0000
# 6 0.0000 0.0000 0.0000 0.0000 0.0000 19.2348
#
#
#
# Elastic Compliance Matrix: (Units=1/GPa)
#
#
# Indices 1 2 3 4 5 6 
#
# 1 0.009269 -0.004113 -0.005765 0.000000 0.000000 0.000000
# 2 -0.004113 0.006720 0.001768 0.000000 0.000000 0.000000
# 3 -0.005765 0.001768 0.039179 0.000000 0.000000 0.000000
# 4 0.000000 0.000000 0.000000 0.129585 0.000000 0.000000
# 5 0.000000 0.000000 0.000000 0.000000 0.032070 0.000000
# 6 0.000000 0.000000 0.000000 0.000000 0.000000 0.051989
#
#
# Mechanical properties :
#
#
# Convention : Reuss Voigt Hill
#
# Bulk Modulus (GPa) = 25.67580 70.08410 47.87995
# Shear Modulus (GPa) = 16.77759 30.09170 23.43464
#
# Velocity S-wave (km/s) = 2.71973 3.64237 3.21433
# Velocity P-wave (km/s) = 4.60245 6.97050 5.90637
#
# Compressibility (1/GPa) = 0.03894718
#
# Stress axis : x y z
#
# Youngs Moduli (GPa) = 107.88345 148.80013 25.52392
#
# Poissons Ratio (x) = 0.61208 0.14715
# Poissons Ratio (y) = 0.44377 -0.04512
# Poissons Ratio (z) = 0.62197 -0.26306
#
# Static dielectric constant tensor:
#      x y z
#    x 1.699920 0.000000 0.000000 
#    y 0.000000 1.867450 0.000000 
#    z 0.000000 0.000000 1.958970 
# 
# From -- ./inp_files/17318.got.cif
#   From: 2010.05.17/outbox.cif.g08.bks.cpg/sg54_9_cif.got.tgz:17318.got - 2010.06.03 13:09:01.
