data_PCOD9420776
_publ_section_title
;
Structure prediction by ZEFSAII (Michael W. Deem and Ramdas Pophale) SiO2 
 PCOD9420776
Probable space group: P C C A
;
_chemical_formula_sum "Si O2"
_cell_formula_units_Z 36
_cell_length_a 20.297146
_cell_length_b 5.438434
_cell_length_c 16.456161
_cell_angle_alpha 90.000000
_cell_angle_beta 90.000000
_cell_angle_gamma 90.000000
_cell_volume 1816.508213
_symmetry_space_group_name_H-M "P C C A"
_symmetry_group_IT_number 54
_symmetry_cell_setting 'orthorhombic'
loop_
_space_group_symop_operation_xyz
x,y,z
1/2-x,-y,z
1/2+x,-y,1/2-z
-x,y,1/2-z
-x,-y,-z
1/2+x,y,-z
1/2-x,y,1/2+z
x,-y,1/2+z
loop_
_atom_site_type_symbol
_atom_site_label
_atom_site_fract_x
_atom_site_fract_y
_atom_site_fract_z
Si Si1 0.865940 0.462710 0.816665
Si Si2 0.500000 0.416966 0.750000
Si Si3 0.822749 0.977473 0.738312
Si Si4 0.947093 0.954659 0.619918
Si Si5 0.951368 0.313502 0.956551
O O1 0.826960 0.214696 0.797001
O O2 0.892416 0.445232 0.908682
O O3 0.932840 0.441792 0.763648
O O4 0.834135 0.720280 0.787344
O O5 0.512466 0.246832 0.671644
O O6 0.881106 0.997586 0.671947
O O7 0.750000 0.000000 0.700756
O O8 0.000726 0.167311 0.605156
O O9 0.928214 0.863580 0.529468
O O10 0.000000 0.500000 0.000000
#
# Coordination Sequence:
#
# PCOD9420776 Si02
#       5
#     8   4   8   8   8
#     4  11  22  39  65  92 127 158 212 264 314 373
#     4  10  18  38  60  96 116 164 198 268 324 360
#     4  11  25  44  65  88 125 179 224 250 298 379
#     4  10  22  36  63  95 132 159 208 265 321 385
#     4  11  21  37  62 101 129 156 197 270 347 373
#
# _framework density 19.818241
#
# number of rings (size 3 to 8) (size 9 to 14) (size 15 to 20)
#    0.000    1.333    2.222    4.667    6.222    0.889 
#    0.000    1.111    4.889    0.000    0.000    0.000 
#    0.000    0.000    0.000    0.000    0.000    0.000 
#
# Total GULP energy -200796.580698 kJ/mol
# GULP energy per Si atom -5577.682797 kJ/mol
# Density = 1.977313 g / cm^3
# Si number density = 19.818241 Si / 1000 Ang^3
#
#
#
# Elastic Constant Matrix: (Units=GPa)
#
#
# Indices 1 2 3 4 5 6 
#
# 1 97.3891 35.9218 32.7632 0.0000 0.0000 0.0000
# 2 35.9218 109.6049 41.7685 0.0000 0.0000 0.0000
# 3 32.7632 41.7685 88.2510 0.0000 0.0000 0.0000
# 4 0.0000 0.0000 0.0000 42.6811 0.0000 0.0000
# 5 0.0000 0.0000 0.0000 0.0000 22.8883 0.0000
# 6 0.0000 0.0000 0.0000 0.0000 0.0000 11.6993
#
#
#
# Elastic Compliance Matrix: (Units=1/GPa)
#
#
# Indices 1 2 3 4 5 6 
#
# 1 0.012409 -0.002820 -0.003272 0.000000 0.000000 0.000000
# 2 -0.002820 0.011772 -0.004525 0.000000 0.000000 0.000000
# 3 -0.003272 -0.004525 0.014688 0.000000 0.000000 0.000000
# 4 0.000000 0.000000 0.000000 0.023430 0.000000 0.000000
# 5 0.000000 0.000000 0.000000 0.000000 0.043690 0.000000
# 6 0.000000 0.000000 0.000000 0.000000 0.000000 0.085476
#
#
# Mechanical properties :
#
#
# Convention : Reuss Voigt Hill
#
# Bulk Modulus (GPa) = 56.70529 57.35024 57.02777
# Shear Modulus (GPa) = 22.87527 27.77317 25.32422
#
# Velocity S-wave (km/s) = 3.40112 3.74758 3.57854
# Velocity P-wave (km/s) = 6.64065 6.90845 6.77588
#
# Compressibility (1/GPa) = 0.01763504
#
# Stress axis : x y z
#
# Youngs Moduli (GPa) = 80.58634 84.94587 68.08433
#
# Poissons Ratio (x) = 0.23954 0.22279
# Poissons Ratio (y) = 0.22725 0.30807
# Poissons Ratio (z) = 0.26369 0.38436
#
# Static dielectric constant tensor:
#      x y z
#    x 1.715590 0.000000 0.000000 
#    y 0.000000 1.771380 0.000000 
#    z 0.000000 0.000000 1.743070 
# 
# From -- ./inp_files/14443.got.cif
#   From: 2010.05.17/outbox.cif.g08.bks.cpg/sg54_8_cif.got.tgz:14443.got - 2010.06.03 13:09:01.
