data_PCOD9420218
_publ_section_title
;
Structure prediction by ZEFSAII (Michael W. Deem and Ramdas Pophale) SiO2 
 PCOD9420218
Probable space group: P M N A
;
_chemical_formula_sum "Si O2"
_cell_formula_units_Z 32
_cell_length_a 15.000000
_cell_length_b 9.000000
_cell_length_c 12.000000
_cell_angle_alpha 90.000000
_cell_angle_beta 90.000000
_cell_angle_gamma 90.000000
_cell_volume 1620.000000
_symmetry_space_group_name_H-M "P M N A"
_symmetry_group_IT_number 53
_symmetry_cell_setting 'orthorhombic'
loop_
_space_group_symop_operation_xyz
x,y,z
1/2-x,-y,1/2+z
x,-y,-z
1/2-x,y,1/2-z
-x,-y,-z
1/2+x,y,1/2-z
-x,y,z
1/2+x,-y,1/2+z
loop_
_atom_site_type_symbol
_atom_site_label
_atom_site_fract_x
_atom_site_fract_y
_atom_site_fract_z
Si Si1 0.500000 0.300048 0.396904
Si Si2 0.772861 0.500000 0.500000
Si Si3 0.500000 0.650776 0.337142
Si Si4 0.161048 0.255242 0.673437
Si Si5 0.805449 0.239208 0.137741
Si Si6 0.303708 0.000000 0.000000
O O1 0.500000 0.471174 0.352962
O O2 0.500000 0.294306 0.533209
O O3 0.589165 0.222638 0.351216
O O4 0.826435 0.604066 0.411928
O O5 0.710646 0.610759 0.568589
O O6 0.415951 0.706908 0.263194
O O7 0.250000 0.235027 0.750000
O O8 0.148109 0.110788 0.590872
O O9 0.750000 0.254476 0.250000
O O10 0.759639 0.107489 0.070447
#
# Coordination Sequence:
#
# PCOD9420218 Si02
#       6
#     4   4   4   8   8   4
#     4  11  22  37  64  99 122 154 212 262 312 377
#     4  10  20  36  62  90 124 166 208 256 314 378
#     4  11  22  38  66  96 124 161 208 264 318 370
#     4  11  22  40  63  90 127 168 211 264 319 370
#     4  11  22  40  63  90 126 163 204 258 313 369
#     4  10  24  42  60  86 126 172 212 250 310 382
#
# _framework density 19.753086
#
# number of rings (size 3 to 8) (size 9 to 14) (size 15 to 20)
#    0.000    1.250    0.000    9.000    0.000    1.500 
#    0.000   10.000    0.000    0.000    0.000    0.000 
#    0.000    0.000    0.000    0.000    0.000    0.000 
#
# Total GULP energy -178749.524353 kJ/mol
# GULP energy per Si atom -5585.922636 kJ/mol
# Density = 1.970813 g / cm^3
# Si number density = 19.753086 Si / 1000 Ang^3
#
#
#
# Elastic Constant Matrix: (Units=GPa)
#
#
# Indices 1 2 3 4 5 6 
#
# 1 129.4785 14.9989 67.5810 0.0000 0.0000 0.0000
# 2 14.9989 100.6293 41.2476 0.0000 0.0000 0.0000
# 3 67.5810 41.2476 143.4182 0.0000 0.0000 0.0000
# 4 0.0000 0.0000 0.0000 34.8024 0.0000 0.0000
# 5 0.0000 0.0000 0.0000 0.0000 42.1008 0.0000
# 6 0.0000 0.0000 0.0000 0.0000 0.0000 7.7255
#
#
#
# Elastic Compliance Matrix: (Units=1/GPa)
#
#
# Indices 1 2 3 4 5 6 
#
# 1 0.010266 0.000513 -0.004985 0.000000 0.000000 0.000000
# 2 0.000513 0.011291 -0.003489 0.000000 0.000000 0.000000
# 3 -0.004985 -0.003489 0.010325 0.000000 0.000000 0.000000
# 4 0.000000 0.000000 0.000000 0.028734 0.000000 0.000000
# 5 0.000000 0.000000 0.000000 0.000000 0.023753 0.000000
# 6 0.000000 0.000000 0.000000 0.000000 0.000000 0.129442
#
#
# Mechanical properties :
#
#
# Convention : Reuss Voigt Hill
#
# Bulk Modulus (GPa) = 62.65637 69.02012 65.83824
# Shear Modulus (GPa) = 21.27187 33.57230 27.42209
#
# Velocity S-wave (km/s) = 3.28516 4.12709 3.72996
# Velocity P-wave (km/s) = 6.79546 7.59788 7.20785
#
# Compressibility (1/GPa) = 0.01596007
#
# Stress axis : x y z
#
# Youngs Moduli (GPa) = 97.41136 88.56469 96.85107
#
# Poissons Ratio (x) = -0.04545 0.48280
# Poissons Ratio (y) = -0.04999 0.33793
# Poissons Ratio (z) = 0.48559 0.30902
#
# Static dielectric constant tensor:
#      x y z
#    x 1.709020 0.000000 0.000000 
#    y 0.000000 1.704710 0.000000 
#    z 0.000000 0.000000 1.770600 
# 
# From -- ./inp_files/15493.got.cif
#   From: 2010.05.17/outbox.ucp.g08.bks.cvg/sg53_8_cif.got.tgz:15493.got - 2010.06.11 16:32:34.
