data_PCOD9420429
_publ_section_title
;
Structure prediction by ZEFSAII (Michael W. Deem and Ramdas Pophale) SiO2 
 PCOD9420429
Probable space group: P C C A
;
_chemical_formula_sum "Si O2"
_cell_formula_units_Z 32
_cell_length_a 13.945450
_cell_length_b 18.936815
_cell_length_c 5.250458
_cell_angle_alpha 90.000000
_cell_angle_beta 90.000000
_cell_angle_gamma 90.000000
_cell_volume 1386.553585
_symmetry_space_group_name_H-M "P C C A"
_symmetry_group_IT_number 54
_symmetry_cell_setting 'orthorhombic'
loop_
_space_group_symop_operation_xyz
x,y,z
1/2-x,-y,z
1/2+x,-y,1/2-z
-x,y,1/2-z
-x,-y,-z
1/2+x,y,-z
1/2-x,y,1/2+z
x,-y,1/2+z
loop_
_atom_site_type_symbol
_atom_site_label
_atom_site_fract_x
_atom_site_fract_y
_atom_site_fract_z
Si Si1 0.116425 0.036104 0.781181
Si Si2 0.859392 0.531664 0.874534
Si Si3 0.811453 0.306288 0.335356
Si Si4 0.438161 0.824870 0.004006
O O1 0.131887 0.112809 0.905678
O O2 0.000000 0.032707 0.750000
O O3 0.149163 0.020127 0.494523
O O4 0.750000 0.500000 0.874185
O O5 0.904085 0.500295 0.623924
O O6 0.854763 0.615731 0.870574
O O7 0.727961 0.300560 0.548385
O O8 0.884493 0.244173 0.398736
O O9 0.500000 0.808269 0.750000
O O10 0.500000 0.850803 0.250000
#
# Coordination Sequence:
#
# PCOD9420429 Si02
#       4
#     8   8   8   8
#     4   9  16  30  55  80 102 141 196 231 256 318
#     4  10  16  31  54  83  99 132 190 247 252 299
#     4  12  22  36  60  87 111 148 192 235 275 336
#     4  11  23  38  56  85 122 149 177 235 296 334
#
# _framework density 23.078806
#
# number of rings (size 3 to 8) (size 9 to 14) (size 15 to 20)
#    0.000    1.500    5.000    5.250    0.000    0.000 
#    0.000    0.000    0.000    9.000    0.000    0.000 
#    0.000    0.000    0.000    0.000    0.000    0.000 
#
# Total GULP energy -178825.729393 kJ/mol
# GULP energy per Si atom -5588.304044 kJ/mol
# Density = 2.302628 g / cm^3
# Si number density = 23.078806 Si / 1000 Ang^3
#
#
#
# Elastic Constant Matrix: (Units=GPa)
#
#
# Indices 1 2 3 4 5 6 
#
# 1 49.3759 20.7547 12.5038 0.0000 0.0000 0.0000
# 2 20.7547 232.3902 82.7658 0.0000 0.0000 0.0000
# 3 12.5038 82.7658 205.7464 0.0000 0.0000 0.0000
# 4 0.0000 0.0000 0.0000 54.8800 0.0000 0.0000
# 5 0.0000 0.0000 0.0000 0.0000 2.0596 0.0000
# 6 0.0000 0.0000 0.0000 0.0000 0.0000 30.5199
#
#
#
# Elastic Compliance Matrix: (Units=1/GPa)
#
#
# Indices 1 2 3 4 5 6 
#
# 1 0.021109 -0.001667 -0.000612 0.000000 0.000000 0.000000
# 2 -0.001667 0.005154 -0.001972 0.000000 0.000000 0.000000
# 3 -0.000612 -0.001972 0.005691 0.000000 0.000000 0.000000
# 4 0.000000 0.000000 0.000000 0.018222 0.000000 0.000000
# 5 0.000000 0.000000 0.000000 0.000000 0.485526 0.000000
# 6 0.000000 0.000000 0.000000 0.000000 0.000000 0.032765
#
#
# Mechanical properties :
#
#
# Convention : Reuss Voigt Hill
#
# Bulk Modulus (GPa) = 42.64229 79.95124 61.29677
# Shear Modulus (GPa) = 8.55012 42.25779 25.40396
#
# Velocity S-wave (km/s) = 1.92686 4.28369 3.32135
# Velocity P-wave (km/s) = 4.84431 7.69315 6.42852
#
# Compressibility (1/GPa) = 0.02345090
#
# Stress axis : x y z
#
# Youngs Moduli (GPa) = 47.37403 194.00977 175.71951
#
# Poissons Ratio (x) = 0.32345 0.10757
# Poissons Ratio (y) = 0.07898 0.34654
# Poissons Ratio (z) = 0.02900 0.38261
#
# Static dielectric constant tensor:
#      x y z
#    x 1.888630 0.000000 0.000000 
#    y 0.000000 1.846730 0.000000 
#    z 0.000000 0.000000 1.844800 
# 
# From -- ./inp_files/387.got.cif
#   From: 2010.05.17/outbox.cif.g08.bks.cpg/sg54_1_cif.got.tgz:387.got - 2010.06.03 13:09:01.
