data_PCOD9420276
_publ_section_title
;
Structure prediction by ZEFSAII (Michael W. Deem and Ramdas Pophale) SiO2 
 PCOD9420276
Probable space group: P M N A
;
_chemical_formula_sum "Si O2"
_cell_formula_units_Z 64
_cell_length_a 15.000000
_cell_length_b 9.000000
_cell_length_c 24.000000
_cell_angle_alpha 90.000000
_cell_angle_beta 90.000000
_cell_angle_gamma 90.000000
_cell_volume 3240.000000
_symmetry_space_group_name_H-M "P M N A"
_symmetry_group_IT_number 53
_symmetry_cell_setting 'orthorhombic'
loop_
_space_group_symop_operation_xyz
x,y,z
1/2-x,-y,1/2+z
x,-y,-z
1/2-x,y,1/2-z
-x,-y,-z
1/2+x,y,1/2-z
-x,y,z
1/2+x,-y,1/2+z
loop_
_atom_site_type_symbol
_atom_site_label
_atom_site_fract_x
_atom_site_fract_y
_atom_site_fract_z
Si Si1 0.393179 0.896088 0.657890
Si Si2 0.767395 0.900248 0.309943
Si Si3 0.296902 0.318882 0.899702
Si Si4 0.894498 0.629238 0.613680
Si Si5 0.396528 0.172260 0.218648
Si Si6 0.603711 0.706070 0.553805
Si Si7 0.393617 0.823586 0.995394
Si Si8 0.103925 0.350361 0.930301
O O1 0.500000 0.934038 0.652623
O O2 0.386060 0.800411 0.715159
O O3 0.359202 0.803245 0.604286
O O4 0.326212 0.033748 0.666589
O O5 0.750000 0.825725 0.250000
O O6 0.822030 0.794949 0.351119
O O7 0.829088 0.042212 0.297025
O O8 0.335233 0.483790 0.894090
O O9 0.335046 0.258208 0.958016
O O10 0.189496 0.317213 0.893614
O O11 0.880285 0.696283 0.675092
O O12 0.874838 0.751112 0.565279
O O13 0.000000 0.592015 0.608014
O O14 0.500000 0.126210 0.210404
O O15 0.500000 0.745601 0.554234
O O16 0.607581 0.529415 0.563741
O O17 0.629759 0.725098 0.489618
O O18 0.500000 0.801146 0.006093
O O19 0.376497 0.000000 0.000000
O O20 0.000000 0.312737 0.916674
#
# Coordination Sequence:
#
# PCOD9420276 Si02
#       8
#     8   8   8   8   8   8   8   8
#     4   9  18  36  64  86 108 149 200 247 290 340
#     4  10  23  41  56  84 118 155 199 245 291 345
#     4  12  24  36  59  85 119 159 196 234 294 359
#     4  10  22  39  60  91 122 148 191 247 297 350
#     4   9  19  38  63  86 111 149 197 245 297 350
#     4   8  16  33  55  81 109 142 189 237 284 337
#     4  10  22  40  62  89 120 154 194 241 293 354
#     4   9  20  35  52  81 120 155 187 230 289 353
#
# _framework density 19.753086
#
# number of rings (size 3 to 8) (size 9 to 14) (size 15 to 20)
#    0.000    2.375    0.000    2.250    5.250    4.500 
#    2.250    0.000    0.000    2.625    0.000    0.000 
#    0.000    0.000    0.000    0.000    0.000    0.000 
#
# Total GULP energy -356669.644653 kJ/mol
# GULP energy per Si atom -5572.963198 kJ/mol
# Density = 1.970813 g / cm^3
# Si number density = 19.753086 Si / 1000 Ang^3
#
#
#
# Elastic Constant Matrix: (Units=GPa)
#
#
# Indices 1 2 3 4 5 6 
#
# 1 60.2826 32.2671 12.2643 0.0000 0.0000 0.0000
# 2 32.2671 68.7478 36.8159 0.0000 0.0000 0.0000
# 3 12.2643 36.8159 52.0154 0.0000 0.0000 0.0000
# 4 0.0000 0.0000 0.0000 9.8496 0.0000 0.0000
# 5 0.0000 0.0000 0.0000 0.0000 25.0671 0.0000
# 6 0.0000 0.0000 0.0000 0.0000 0.0000 16.8844
#
#
#
# Elastic Compliance Matrix: (Units=1/GPa)
#
#
# Indices 1 2 3 4 5 6 
#
# 1 0.022543 -0.012455 0.003500 0.000000 0.000000 0.000000
# 2 -0.012455 0.030306 -0.018514 0.000000 0.000000 0.000000
# 3 0.003500 -0.018514 0.031504 0.000000 0.000000 0.000000
# 4 0.000000 0.000000 0.000000 0.101527 0.000000 0.000000
# 5 0.000000 0.000000 0.000000 0.000000 0.039893 0.000000
# 6 0.000000 0.000000 0.000000 0.000000 0.000000 0.059226
#
#
# Mechanical properties :
#
#
# Convention : Reuss Voigt Hill
#
# Bulk Modulus (GPa) = 33.99524 38.19340 36.09432
# Shear Modulus (GPa) = 14.29623 17.00678 15.65150
#
# Velocity S-wave (km/s) = 2.69317 2.93741 2.81794
# Velocity P-wave (km/s) = 5.18829 5.55715 5.37588
#
# Compressibility (1/GPa) = 0.02941589
#
# Stress axis : x y z
#
# Youngs Moduli (GPa) = 44.35909 32.99628 31.74242
#
# Poissons Ratio (x) = 0.41098 -0.11111
# Poissons Ratio (y) = 0.55251 0.58767
# Poissons Ratio (z) = -0.15528 0.61089
#
# Static dielectric constant tensor:
#      x y z
#    x 1.714390 0.000000 0.000000 
#    y 0.000000 1.665630 0.000000 
#    z 0.000000 0.000000 1.754830 
# 
# From -- ./inp_files/35322.got.cif
#   From: 2010.05.17/outbox.ucp.g08.bks.cvg/sg53_18_cif.got.tgz:35322.got - 2010.06.11 16:32:34.
