data_PCOD9420981
_publ_section_title
;
Structure prediction by ZEFSAII (Michael W. Deem and Ramdas Pophale) SiO2 
 PCOD9420981
Probable space group: P C C A
;
_chemical_formula_sum "Si O2"
_cell_formula_units_Z 56
_cell_length_a 5.278556
_cell_length_b 35.542827
_cell_length_c 13.754048
_cell_angle_alpha 90.000000
_cell_angle_beta 90.000000
_cell_angle_gamma 90.000000
_cell_volume 2580.463002
_symmetry_space_group_name_H-M "P C C A"
_symmetry_group_IT_number 54
_symmetry_cell_setting 'orthorhombic'
loop_
_space_group_symop_operation_xyz
x,y,z
1/2-x,-y,z
1/2+x,-y,1/2-z
-x,y,1/2-z
-x,-y,-z
1/2+x,y,-z
1/2-x,y,1/2+z
x,-y,1/2+z
loop_
_atom_site_type_symbol
_atom_site_label
_atom_site_fract_x
_atom_site_fract_y
_atom_site_fract_z
Si Si1 0.750000 0.500000 0.817876
Si Si2 0.250000 0.000000 0.816110
Si Si3 0.372220 0.080144 0.388595
Si Si4 0.674378 0.736242 0.935209
Si Si5 0.252525 0.188375 0.185556
Si Si6 0.871885 0.110799 0.392258
Si Si7 0.249459 0.418505 0.683352
Si Si8 0.791542 0.656588 0.938973
O O1 0.500000 0.499976 0.750000
O O2 0.750926 0.540590 0.869965
O O3 0.212083 0.037266 0.880187
O O4 0.500000 0.004380 0.750000
O O5 0.650117 0.085987 0.344871
O O6 0.407898 0.094603 0.499130
O O7 0.147980 0.105785 0.346454
O O8 0.710050 0.772103 0.867829
O O9 0.725666 0.695757 0.884732
O O10 0.394601 0.737540 0.982236
O O11 0.500000 0.180737 0.250000
O O12 0.214864 0.153793 0.111174
O O13 0.000000 0.190090 0.250000
O O14 0.500000 0.416907 0.750000
O O15 0.247891 0.381964 0.616963
O O16 0.000000 0.417554 0.750000
O O17 0.582144 0.657341 0.025319
#
# Coordination Sequence:
#
# PCOD9420981 Si02
#       8
#     4   4   8   8   8   8   8   8
#     4   8  16  30  48  76 110 146 198 246 300 366
#     4  12  26  42  66  96 130 160 200 260 296 324
#     4  10  23  42  65  93 120 167 206 236 285 363
#     4  10  23  41  65  85 121 165 204 236 302 379
#     4  12  26  41  64  98 127 153 200 264 303 337
#     4  10  23  40  65  90 123 159 203 240 289 364
#     4  10  19  33  56  81 110 155 201 251 303 365
#     4  10  21  38  56  85 117 155 196 251 300 366
#
# _framework density 21.701532
#
# number of rings (size 3 to 8) (size 9 to 14) (size 15 to 20)
#    0.000    1.714    0.000    3.429    4.000    6.857 
#    0.000    0.714    0.000    0.000    0.000    0.000 
#    0.000    0.000    0.000    0.000    0.000    0.000 
#
# Total GULP energy -312764.856675 kJ/mol
# GULP energy per Si atom -5585.086726 kJ/mol
# Density = 2.165214 g / cm^3
# Si number density = 21.701532 Si / 1000 Ang^3
#
#
#
# Elastic Constant Matrix: (Units=GPa)
#
#
# Indices 1 2 3 4 5 6 
#
# 1 153.3236 2.3557 12.4400 0.0000 0.0000 0.0000
# 2 2.3557 199.2316 38.6791 0.0000 0.0000 0.0000
# 3 12.4400 38.6791 47.4332 0.0000 0.0000 0.0000
# 4 0.0000 0.0000 0.0000 123.6956 0.0000 0.0000
# 5 0.0000 0.0000 0.0000 0.0000 19.0468 0.0000
# 6 0.0000 0.0000 0.0000 0.0000 0.0000 32.5202
#
#
#
# Elastic Compliance Matrix: (Units=1/GPa)
#
#
# Indices 1 2 3 4 5 6 
#
# 1 0.006680 0.000310 -0.002005 0.000000 0.000000 0.000000
# 2 0.000310 0.005978 -0.004956 0.000000 0.000000 0.000000
# 3 -0.002005 -0.004956 0.025649 0.000000 0.000000 0.000000
# 4 0.000000 0.000000 0.000000 0.008084 0.000000 0.000000
# 5 0.000000 0.000000 0.000000 0.000000 0.052502 0.000000
# 6 0.000000 0.000000 0.000000 0.000000 0.000000 0.030750
#
#
# Mechanical properties :
#
#
# Convention : Reuss Voigt Hill
#
# Bulk Modulus (GPa) = 39.99037 56.32645 48.15841
# Shear Modulus (GPa) = 33.05120 58.15343 45.60231
#
# Velocity S-wave (km/s) = 3.90678 5.18219 4.58901
# Velocity P-wave (km/s) = 6.23041 7.86245 7.09353
#
# Compressibility (1/GPa) = 0.02500602
#
# Stress axis : x y z
#
# Youngs Moduli (GPa) = 149.69929 167.28668 38.98734
#
# Poissons Ratio (x) = -0.05190 0.07817
# Poissons Ratio (y) = -0.04645 0.19322
# Poissons Ratio (z) = 0.30014 0.82906
#
# Static dielectric constant tensor:
#      x y z
#    x 1.828330 0.000000 0.000000 
#    y 0.000000 1.805960 0.000000 
#    z 0.000000 0.000000 1.628900 
# 
# From -- ./inp_files/11022.got.cif
#   From: 2010.05.17/outbox.cif.g08.bks.cpg/sg54_6_cif.got.tgz:11022.got - 2010.06.03 13:09:01.
