data_PCOD9420344
_publ_section_title
;
Structure prediction by ZEFSAII (Michael W. Deem and Ramdas Pophale) SiO2 
 PCOD9420344
Probable space group: P C C A
;
_chemical_formula_sum "Si O2"
_cell_formula_units_Z 48
_cell_length_a 41.925846
_cell_length_b 10.657887
_cell_length_c 5.477573
_cell_angle_alpha 90.000000
_cell_angle_beta 90.000000
_cell_angle_gamma 90.000000
_cell_volume 2447.603808
_symmetry_space_group_name_H-M "P C C A"
_symmetry_group_IT_number 54
_symmetry_cell_setting 'orthorhombic'
loop_
_space_group_symop_operation_xyz
x,y,z
1/2-x,-y,z
1/2+x,-y,1/2-z
-x,y,1/2-z
-x,-y,-z
1/2+x,y,-z
1/2-x,y,1/2+z
x,-y,1/2+z
loop_
_atom_site_type_symbol
_atom_site_label
_atom_site_fract_x
_atom_site_fract_y
_atom_site_fract_z
Si Si1 0.286520 0.050114 0.193455
Si Si2 0.363518 0.653298 0.293629
Si Si3 0.462754 0.631200 0.706628
Si Si4 0.838706 0.374555 0.705809
Si Si5 0.062501 0.346658 0.206494
Si Si6 0.730314 0.659530 0.765321
O O1 0.282582 0.197663 0.232762
O O2 0.250000 0.000000 0.174827
O O3 0.301324 0.986157 0.433001
O O4 0.350571 0.699070 0.554926
O O5 0.359204 0.501970 0.312540
O O6 0.400460 0.679112 0.249805
O O7 0.343419 0.692253 0.054531
O O8 0.500000 0.605469 0.750000
O O9 0.456730 0.695510 0.446454
O O10 0.444563 0.497059 0.690284
O O11 0.449192 0.701147 0.944000
O O12 0.802369 0.417102 0.748357
O O13 0.751033 0.641328 0.519890
#
# Coordination Sequence:
#
# PCOD9420344 Si02
#       6
#     8   8   8   8   8   8
#     4  10  16  30  48  66  83 102 116 141 182 266
#     4  10  19  35  44  54  76 109 153 170 204 226
#     4  10  16  22  33  58  79  90 120 170 220 238
#     4  10  20  32  46  59  76 101 133 183 198 235
#     4  10  16  25  41  50  67 107 132 162 204 242
#     4  12  21  32  47  67  84  98 125 157 216 260
#
# _framework density 19.611014999999998
#
# number of rings (size 3 to 8) (size 9 to 14) (size 15 to 20)
#    0.000    1.667    3.333    8.500    0.000    0.000 
#    0.000   10.000    0.000    0.000    0.000    0.000 
#    0.000    0.000    0.000    0.000    0.000    0.000 
#
# Total GULP energy -267682.149850 kJ/mol
# GULP energy per Si atom -5576.711455 kJ/mol
# Density = 1.956638 g / cm^3
# Si number density = 19.611015 Si / 1000 Ang^3
#
#
#
# Elastic Constant Matrix: (Units=GPa)
#
#
# Indices 1 2 3 4 5 6 
#
# 1 45.4043 -6.0848 -16.8423 0.0000 0.0000 0.0000
# 2 -6.0848 23.5718 -2.2952 0.0000 0.0000 0.0000
# 3 -16.8423 -2.2952 148.0940 0.0000 0.0000 0.0000
# 4 0.0000 0.0000 0.0000 -5.2470 0.0000 0.0000
# 5 0.0000 0.0000 0.0000 0.0000 32.8129 0.0000
# 6 0.0000 0.0000 0.0000 0.0000 0.0000 -0.6885
#
#
#
# Elastic Compliance Matrix: (Units=1/GPa)
#
#
# Indices 1 2 3 4 5 6 
#
# 1 0.023936 0.006454 0.002822 0.000000 0.000000 0.000000
# 2 0.006454 0.044228 0.001419 0.000000 0.000000 0.000000
# 3 0.002822 0.001419 0.007095 0.000000 0.000000 0.000000
# 4 0.000000 0.000000 0.000000 -0.190587 0.000000 0.000000
# 5 0.000000 0.000000 0.000000 0.000000 0.030476 0.000000
# 6 0.000000 0.000000 0.000000 0.000000 0.000000 -1.452381
#
#
# Mechanical properties :
#
#
# Convention : Reuss Voigt Hill
#
# Bulk Modulus (GPa) = 10.34661 18.51392 14.43026
# Shear Modulus (GPa) = -3.27567 21.52831 9.12632
#
# Velocity S-wave (km/s) = -1.29381 3.31685 2.15958
# Velocity P-wave (km/s) = 1.74798 4.91220 3.68681
#
# Compressibility (1/GPa) = 0.09665001
#
# Stress axis : x y z
#
# Youngs Moduli (GPa) = 41.77784 22.61022 140.93576
#
# Poissons Ratio (x) = -0.14592 -0.39775
# Poissons Ratio (y) = -0.26962 -0.20005
# Poissons Ratio (z) = -0.11791 -0.03209
#
# Static dielectric constant tensor:
#      x y z
#    x 1.625880 0.000000 0.000000 
#    y 0.000000 1.691910 0.000000 
#    z 0.000000 0.000000 1.856590 
# 
# From -- ./inp_files/2131.got.cif
#   From: 2010.05.17/outbox.cif.g08.bks.cpg/sg54_2_cif.got.tgz:2131.got - 2010.06.03 13:09:01.
