data_PCOD9420101
_publ_section_title
;
Structure prediction by ZEFSAII (Michael W. Deem and Ramdas Pophale) SiO2 
 PCOD9420101
Probable space group: P M N A
;
_chemical_formula_sum "Si O2"
_cell_formula_units_Z 56
_cell_length_a 9.000000
_cell_length_b 18.000000
_cell_length_c 21.000000
_cell_angle_alpha 90.000000
_cell_angle_beta 90.000000
_cell_angle_gamma 90.000000
_cell_volume 3402.000000
_symmetry_space_group_name_H-M "P M N A"
_symmetry_group_IT_number 53
_symmetry_cell_setting 'orthorhombic'
loop_
_space_group_symop_operation_xyz
x,y,z
1/2-x,-y,1/2+z
x,-y,-z
1/2-x,y,1/2-z
-x,-y,-z
1/2+x,y,1/2-z
-x,y,z
1/2+x,-y,1/2+z
loop_
_atom_site_type_symbol
_atom_site_label
_atom_site_fract_x
_atom_site_fract_y
_atom_site_fract_z
Si Si1 0.180907 0.808429 0.677968
Si Si2 0.318658 0.607335 0.322898
Si Si3 0.180511 0.936588 0.906904
Si Si4 0.680092 0.692813 0.574888
Si Si5 0.179658 0.100390 0.946175
Si Si6 0.319700 0.266608 0.572764
Si Si7 0.179546 0.519049 0.926982
O O1 0.250000 0.800131 0.750000
O O2 0.239019 0.885691 0.645597
O O3 0.241331 0.745448 0.627672
O O4 0.000000 0.806584 0.681162
O O5 0.250000 0.607200 0.250000
O O6 0.500000 0.607078 0.316296
O O7 0.276261 0.678187 0.368953
O O8 0.275495 0.536812 0.369179
O O9 0.000000 0.931433 0.898928
O O10 0.224286 0.024196 0.910211
O O11 0.216189 0.906622 0.978442
O O12 0.500000 0.703919 0.579707
O O13 0.721208 0.709377 0.500233
O O14 0.713769 0.605554 0.586528
O O15 0.229987 0.180504 0.920028
O O16 0.000000 0.100273 0.943863
O O17 0.500000 0.268171 0.573072
O O18 0.000000 0.512289 0.929504
O O19 0.231281 0.500000 0.000000
#
# Coordination Sequence:
#
# PCOD9420101 Si02
#       7
#     8   8   8   8   8   8   8
#     4  12  25  39  54  76 110 148 184 226 281 335
#     4  10  20  34  53  79 111 145 179 217 267 321
#     4   9  16  31  55  81 107 136 176 221 265 320
#     4  10  18  33  59  84 106 136 184 234 270 319
#     4   8  14  26  53  86 107 132 174 219 262 315
#     4   9  15  28  55  83 107 140 181 220 260 317
#     4   9  16  30  56  86 107 136 184 228 263 314
#
# _framework density 16.460905
#
# number of rings (size 3 to 8) (size 9 to 14) (size 15 to 20)
#    0.000    2.429    2.857    2.143    0.000    0.571 
#    0.000    5.000    0.000    2.571    0.000    0.000 
#    0.000    0.000    0.000    0.000    0.000    0.000 
#
# Total GULP energy -311773.268038 kJ/mol
# GULP energy per Si atom -5567.379786 kJ/mol
# Density = 1.642344 g / cm^3
# Si number density = 16.460905 Si / 1000 Ang^3
#
#
#
# Elastic Constant Matrix: (Units=GPa)
#
#
# Indices 1 2 3 4 5 6 
#
# 1 48.1620 27.7933 35.5645 0.0000 0.0000 0.0000
# 2 27.7933 163.5754 84.9951 0.0000 0.0000 0.0000
# 3 35.5645 84.9951 159.7017 0.0000 0.0000 0.0000
# 4 0.0000 0.0000 0.0000 35.4748 0.0000 0.0000
# 5 0.0000 0.0000 0.0000 0.0000 32.1744 0.0000
# 6 0.0000 0.0000 0.0000 0.0000 0.0000 18.1141
#
#
#
# Elastic Compliance Matrix: (Units=1/GPa)
#
#
# Indices 1 2 3 4 5 6 
#
# 1 0.025267 -0.001893 -0.004619 0.000000 0.000000 0.000000
# 2 -0.001893 0.008592 -0.004151 0.000000 0.000000 0.000000
# 3 -0.004619 -0.004151 0.009500 0.000000 0.000000 0.000000
# 4 0.000000 0.000000 0.000000 0.028189 0.000000 0.000000
# 5 0.000000 0.000000 0.000000 0.000000 0.031081 0.000000
# 6 0.000000 0.000000 0.000000 0.000000 0.000000 0.055206
#
#
# Mechanical properties :
#
#
# Convention : Reuss Voigt Hill
#
# Bulk Modulus (GPa) = 45.38943 74.23832 59.81387
# Shear Modulus (GPa) = 26.80904 32.02509 29.41707
#
# Velocity S-wave (km/s) = 4.04003 4.41559 4.23198
# Velocity P-wave (km/s) = 7.02826 8.43767 7.76501
#
# Compressibility (1/GPa) = 0.02203156
#
# Stress axis : x y z
#
# Youngs Moduli (GPa) = 39.57782 116.38701 105.26634
#
# Poissons Ratio (x) = 0.22030 0.48626
# Poissons Ratio (y) = 0.07491 0.43699
# Poissons Ratio (z) = 0.18282 0.48315
#
# Static dielectric constant tensor:
#      x y z
#    x 1.553710 0.000000 0.000000 
#    y 0.000000 1.603180 0.000000 
#    z 0.000000 0.000000 1.541870 
# 
# From -- ./inp_files/31046.got.cif
#   From: 2010.05.17/outbox.ucp.g08.bks.cvg/sg53_16_cif.got.tgz:31046.got - 2010.06.11 16:32:34.
