data_PCOD9420996
_publ_section_title
;
Structure prediction by ZEFSAII (Michael W. Deem and Ramdas Pophale) SiO2 
 PCOD9420996
Probable space group: P C C A
;
_chemical_formula_sum "Si O2"
_cell_formula_units_Z 64
_cell_length_a 15.765688
_cell_length_b 18.568587
_cell_length_c 11.076077
_cell_angle_alpha 90.000000
_cell_angle_beta 90.000000
_cell_angle_gamma 90.000000
_cell_volume 3242.483321
_symmetry_space_group_name_H-M "P C C A"
_symmetry_group_IT_number 54
_symmetry_cell_setting 'orthorhombic'
loop_
_space_group_symop_operation_xyz
x,y,z
1/2-x,-y,z
1/2+x,-y,1/2-z
-x,y,1/2-z
-x,-y,-z
1/2+x,y,-z
1/2-x,y,1/2+z
x,-y,1/2+z
loop_
_atom_site_type_symbol
_atom_site_label
_atom_site_fract_x
_atom_site_fract_y
_atom_site_fract_z
Si Si1 0.955837 0.087218 0.117633
Si Si2 0.734068 0.583577 0.764000
Si Si3 0.147856 0.666147 0.444745
Si Si4 0.324084 0.299967 0.060856
Si Si5 0.560855 0.924945 0.630853
Si Si6 0.137646 0.230987 0.330453
Si Si7 0.662821 0.791266 0.716019
Si Si8 0.917497 0.649244 0.815157
O O1 0.895010 0.155230 0.123414
O O2 0.000000 0.088343 0.250000
O O3 0.912564 0.008256 0.112694
O O4 0.014645 0.093572 0.997121
O O5 0.750000 0.500000 0.784832
O O6 0.690282 0.604562 0.637480
O O7 0.676581 0.625978 0.863045
O O8 0.828286 0.617279 0.768983
O O9 0.225291 0.702100 0.520361
O O10 0.114546 0.729630 0.360295
O O11 0.082078 0.638162 0.541885
O O12 0.349527 0.233052 0.145908
O O13 0.374283 0.289569 0.937395
O O14 0.500000 0.922714 0.750000
O O15 0.632889 0.867812 0.667337
O O16 0.236966 0.221981 0.302363
O O17 0.090448 0.265498 0.216233
O O18 0.000000 0.619576 0.750000
#
# Coordination Sequence:
#
# PCOD9420996 Si02
#       8
#     8   8   8   8   8   8   8   8
#     4  10  23  38  57  83 119 161 204 250 324 376
#     4  10  20  39  67  87 116 169 201 243 310 373
#     4   9  18  36  56  88 116 152 200 243 293 373
#     4   9  17  36  56  86 114 148 204 246 291 363
#     4  10  22  40  54  82 121 159 201 257 318 376
#     4  11  20  35  59  85 115 153 200 251 304 366
#     4  10  19  33  59  80 115 150 204 245 299 361
#     4  11  22  37  59  92 122 151 199 255 305 361
#
# _framework density 19.737957999999999
#
# number of rings (size 3 to 8) (size 9 to 14) (size 15 to 20)
#    0.000    2.000    5.000    1.125    3.500    2.500 
#    0.000    0.625    0.000    6.000    0.000    0.000 
#    0.000    0.000    0.000    0.000    0.000    0.000 
#
# Total GULP energy -356287.458166 kJ/mol
# GULP energy per Si atom -5566.991534 kJ/mol
# Density = 1.969303 g / cm^3
# Si number density = 19.737958 Si / 1000 Ang^3
#
#
#
# Elastic Constant Matrix: (Units=GPa)
#
#
# Indices 1 2 3 4 5 6 
#
# 1 20.9091 9.6048 1.0714 0.0000 0.0000 0.0000
# 2 9.6048 99.3309 15.2317 0.0000 0.0000 0.0000
# 3 1.0714 15.2317 103.1168 0.0000 0.0000 0.0000
# 4 0.0000 0.0000 0.0000 14.8272 0.0000 0.0000
# 5 0.0000 0.0000 0.0000 0.0000 13.2789 0.0000
# 6 0.0000 0.0000 0.0000 0.0000 0.0000 13.1181
#
#
#
# Elastic Compliance Matrix: (Units=1/GPa)
#
#
# Indices 1 2 3 4 5 6 
#
# 1 0.050053 -0.004870 0.000199 0.000000 0.000000 0.000000
# 2 -0.004870 0.010775 -0.001541 0.000000 0.000000 0.000000
# 3 0.000199 -0.001541 0.009923 0.000000 0.000000 0.000000
# 4 0.000000 0.000000 0.000000 0.067444 0.000000 0.000000
# 5 0.000000 0.000000 0.000000 0.000000 0.075308 0.000000
# 6 0.000000 0.000000 0.000000 0.000000 0.000000 0.076231
#
#
# Mechanical properties :
#
#
# Convention : Reuss Voigt Hill
#
# Bulk Modulus (GPa) = 17.14471 30.57472 23.85972
# Shear Modulus (GPa) = 15.54729 21.40809 18.47769
#
# Velocity S-wave (km/s) = 2.80962 3.29692 3.06298
# Velocity P-wave (km/s) = 4.38523 5.47877 4.96221
#
# Compressibility (1/GPa) = 0.05832703
#
# Stress axis : x y z
#
# Youngs Moduli (GPa) = 19.97874 92.81093 100.77303
#
# Poissons Ratio (x) = 0.45203 -0.02009
# Poissons Ratio (y) = 0.09731 0.15529
# Poissons Ratio (z) = -0.00398 0.14302
#
# Static dielectric constant tensor:
#      x y z
#    x 1.698630 0.000000 0.000000 
#    y 0.000000 1.708020 0.000000 
#    z 0.000000 0.000000 1.782360 
# 
# From -- ./inp_files/9099.got.cif
#   From: 2010.05.17/outbox.cif.g08.bks.cpg/sg54_5_cif.got.tgz:9099.got - 2010.06.03 13:09:01.
