data_PCOD9420637
_publ_section_title
;
Structure prediction by ZEFSAII (Michael W. Deem and Ramdas Pophale) SiO2 
 PCOD9420637
Probable space group: P C C A
;
_chemical_formula_sum "Si O2"
_cell_formula_units_Z 44
_cell_length_a 22.142673
_cell_length_b 7.967393
_cell_length_c 12.328424
_cell_angle_alpha 90.000000
_cell_angle_beta 90.000000
_cell_angle_gamma 90.000000
_cell_volume 2174.972892
_symmetry_space_group_name_H-M "P C C A"
_symmetry_group_IT_number 54
_symmetry_cell_setting 'orthorhombic'
loop_
_space_group_symop_operation_xyz
x,y,z
1/2-x,-y,z
1/2+x,-y,1/2-z
-x,y,1/2-z
-x,-y,-z
1/2+x,y,-z
1/2-x,y,1/2+z
x,-y,1/2+z
loop_
_atom_site_type_symbol
_atom_site_label
_atom_site_fract_x
_atom_site_fract_y
_atom_site_fract_z
Si Si1 0.393917 0.793720 0.107675
Si Si2 0.405678 0.135885 0.362337
Si Si3 0.342985 0.832467 0.654878
Si Si4 0.277932 0.681755 0.223257
Si Si5 0.000000 0.903332 0.750000
Si Si6 0.805851 0.872399 0.566201
O O1 0.338661 0.684911 0.152237
O O2 0.453418 0.790922 0.181707
O O3 0.368195 0.981381 0.131567
O O4 0.407951 0.775090 0.979584
O O5 0.383716 0.235894 0.254250
O O6 0.464887 0.029127 0.331972
O O7 0.353244 0.997491 0.377992
O O8 0.273386 0.813998 0.687805
O O9 0.338422 0.772146 0.531207
O O10 0.250000 0.500000 0.214158
O O11 0.288523 0.735129 0.346271
O O12 0.750000 0.000000 0.536041
#
# Coordination Sequence:
#
# PCOD9420637 Si02
#       6
#     8   8   8   8   4   8
#     4  10  20  37  58  88 117 153 196 245 293 345
#     4  10  19  33  60  87 116 146 193 248 296 335
#     4  10  20  35  57  82 114 148 187 245 301 345
#     4  12  23  36  54  84 120 156 191 235 297 364
#     4  10  18  32  60  92 116 148 202 250 288 338
#     4  11  19  34  57  80 114 149 188 246 298 347
#
# _framework density 20.230136999999999
#
# number of rings (size 3 to 8) (size 9 to 14) (size 15 to 20)
#    0.000    1.455    5.455    3.273    0.000    0.727 
#    0.000    0.000    0.000    4.364    0.000    8.909 
#    0.000    0.000    0.000    0.000    0.000    0.000 
#
# Total GULP energy -244986.281547 kJ/mol
# GULP energy per Si atom -5567.870035 kJ/mol
# Density = 2.018409 g / cm^3
# Si number density = 20.230137 Si / 1000 Ang^3
#
#
#
# Elastic Constant Matrix: (Units=GPa)
#
#
# Indices 1 2 3 4 5 6 
#
# 1 53.8828 4.5684 -24.7650 0.0000 0.0000 0.0000
# 2 4.5684 22.2102 2.2544 0.0000 0.0000 0.0000
# 3 -24.7650 2.2544 86.7796 0.0000 0.0000 0.0000
# 4 0.0000 0.0000 0.0000 44.3968 0.0000 0.0000
# 5 0.0000 0.0000 0.0000 0.0000 25.1675 0.0000
# 6 0.0000 0.0000 0.0000 0.0000 0.0000 14.7832
#
#
#
# Elastic Compliance Matrix: (Units=1/GPa)
#
#
# Indices 1 2 3 4 5 6 
#
# 1 0.021935 -0.005161 0.006394 0.000000 0.000000 0.000000
# 2 -0.005161 0.046358 -0.002677 0.000000 0.000000 0.000000
# 3 0.006394 -0.002677 0.013418 0.000000 0.000000 0.000000
# 4 0.000000 0.000000 0.000000 0.022524 0.000000 0.000000
# 5 0.000000 0.000000 0.000000 0.000000 0.039734 0.000000
# 6 0.000000 0.000000 0.000000 0.000000 0.000000 0.067644
#
#
# Mechanical properties :
#
#
# Convention : Reuss Voigt Hill
#
# Bulk Modulus (GPa) = 12.68677 14.10979 13.39828
# Shear Modulus (GPa) = 20.76629 28.92381 24.84505
#
# Velocity S-wave (km/s) = 3.20738 3.78529 3.50826
# Velocity P-wave (km/s) = 4.47228 5.10826 4.80081
#
# Compressibility (1/GPa) = 0.07882224
#
# Stress axis : x y z
#
# Youngs Moduli (GPa) = 45.58915 21.57142 74.52863
#
# Poissons Ratio (x) = 0.11133 -0.47653
# Poissons Ratio (y) = 0.23528 0.19952
# Poissons Ratio (z) = -0.29149 0.05775
#
# Static dielectric constant tensor:
#      x y z
#    x 1.761260 0.000000 0.000000 
#    y 0.000000 1.721130 0.000000 
#    z 0.000000 0.000000 1.843400 
# 
# From -- ./inp_files/9821.got.cif
#   From: 2010.05.17/outbox.cif.g08.bks.cpg/sg54_5_cif.got.tgz:9821.got - 2010.06.03 13:09:01.
