data_PCOD9420548
_publ_section_title
;
Structure prediction by ZEFSAII (Michael W. Deem and Ramdas Pophale) SiO2 
 PCOD9420548
Probable space group: P C C A
;
_chemical_formula_sum "Si O2"
_cell_formula_units_Z 40
_cell_length_a 18.673710
_cell_length_b 15.460545
_cell_length_c 5.536170
_cell_angle_alpha 90.000000
_cell_angle_beta 90.000000
_cell_angle_gamma 90.000000
_cell_volume 1598.324022
_symmetry_space_group_name_H-M "P C C A"
_symmetry_group_IT_number 54
_symmetry_cell_setting 'orthorhombic'
loop_
_space_group_symop_operation_xyz
x,y,z
1/2-x,-y,z
1/2+x,-y,1/2-z
-x,y,1/2-z
-x,-y,-z
1/2+x,y,-z
1/2-x,y,1/2+z
x,-y,1/2+z
loop_
_atom_site_type_symbol
_atom_site_label
_atom_site_fract_x
_atom_site_fract_y
_atom_site_fract_z
Si Si1 0.000000 0.358110 0.750000
Si Si2 0.626934 0.218786 0.309984
Si Si3 0.581913 0.032016 0.465796
Si Si4 0.153785 0.269274 0.191954
Si Si5 0.330743 0.466204 0.547538
Si Si6 0.000000 0.657269 0.750000
O O1 0.930694 0.295144 0.769597
O O2 0.997374 0.399409 0.489180
O O3 0.587619 0.131182 0.386560
O O4 0.677695 0.243390 0.537501
O O5 0.662629 0.210567 0.045237
O O6 0.500000 0.000000 0.500000
O O7 0.614025 0.018683 0.734066
O O8 0.175756 0.366061 0.117763
O O9 0.068266 0.280473 0.237034
O O10 0.250000 0.500000 0.517927
O O11 0.363482 0.485257 0.282224
#
# Coordination Sequence:
#
# PCOD9420548 Si02
#       6
#     4   8   8   8   8   4
#     4   8  14  24  38  58  88 124 170 216 246 280
#     4  10  18  29  46  69 101 144 191 228 261 313
#     4  10  19  28  41  65 100 147 194 232 264 305
#     4  10  19  33  51  74 104 142 186 229 270 329
#     4  10  21  38  59  81 105 137 173 228 296 347
#     4   8  16  26  42  66  92 126 168 210 248 298
#
# _framework density 25.026212000000001
#
# number of rings (size 3 to 8) (size 9 to 14) (size 15 to 20)
#    0.000    2.400    0.000    3.600    0.000    8.000 
#    0.000    1.000    0.000    0.000    0.000    0.000 
#    0.000    0.000    0.000  252.000    0.000    0.000 
#
# Total GULP energy -223246.188525 kJ/mol
# GULP energy per Si atom -5581.154713 kJ/mol
# Density = 2.496925 g / cm^3
# Si number density = 25.026212 Si / 1000 Ang^3
#
#
#
# Elastic Constant Matrix: (Units=GPa)
#
#
# Indices 1 2 3 4 5 6 
#
# 1 68.7093 7.8573 -2.1727 0.0000 0.0000 0.0000
# 2 7.8573 121.7986 44.6539 0.0000 0.0000 0.0000
# 3 -2.1727 44.6539 332.3692 0.0000 0.0000 0.0000
# 4 0.0000 0.0000 0.0000 43.4725 0.0000 0.0000
# 5 0.0000 0.0000 0.0000 0.0000 -7.3586 0.0000
# 6 0.0000 0.0000 0.0000 0.0000 0.0000 14.6850
#
#
#
# Elastic Compliance Matrix: (Units=1/GPa)
#
#
# Indices 1 2 3 4 5 6 
#
# 1 0.014680 -0.001033 0.000235 0.000000 0.000000 0.000000
# 2 -0.001033 0.008708 -0.001177 0.000000 0.000000 0.000000
# 3 0.000235 -0.001177 0.003168 0.000000 0.000000 0.000000
# 4 0.000000 0.000000 0.000000 0.023003 0.000000 0.000000
# 5 0.000000 0.000000 0.000000 0.000000 -0.135895 0.000000
# 6 0.000000 0.000000 0.000000 0.000000 0.000000 0.068097
#
#
# Mechanical properties :
#
#
# Convention : Reuss Voigt Hill
#
# Bulk Modulus (GPa) = 44.23556 69.28378 56.75967
# Shear Modulus (GPa) = -740.35038 41.66237 -349.34401
#
# Velocity S-wave (km/s) = -17.21837 4.08456 -11.82769
# Velocity P-wave (km/s) = 19.43147 7.07032 12.79830
#
# Compressibility (1/GPa) = 0.02260625
#
# Stress axis : x y z
#
# Youngs Moduli (GPa) = 68.12159 114.83263 315.62379
#
# Poissons Ratio (x) = 0.11863 -0.07409
# Poissons Ratio (y) = 0.07037 0.37140
# Poissons Ratio (z) = -0.01599 0.13513
#
# Static dielectric constant tensor:
#      x y z
#    x 2.420790 0.000000 0.000000 
#    y 0.000000 1.910830 0.000000 
#    z 0.000000 0.000000 2.168430 
# 
# From -- ./inp_files/1614.got.cif
#   From: 2010.05.17/outbox.cif.g08.bks.cpg/sg54_1_cif.got.tgz:1614.got - 2010.06.03 13:09:01.
