data_PCOD9420384
_publ_section_title
;
Structure prediction by ZEFSAII (Michael W. Deem and Ramdas Pophale) SiO2 
 PCOD9420384
Probable space group: P C C A
;
_chemical_formula_sum "Si O2"
_cell_formula_units_Z 56
_cell_length_a 20.191565
_cell_length_b 9.031224
_cell_length_c 17.202577
_cell_angle_alpha 90.000000
_cell_angle_beta 90.000000
_cell_angle_gamma 90.000000
_cell_volume 3136.968126
_symmetry_space_group_name_H-M "P C C A"
_symmetry_group_IT_number 54
_symmetry_cell_setting 'orthorhombic'
loop_
_space_group_symop_operation_xyz
x,y,z
1/2-x,-y,z
1/2+x,-y,1/2-z
-x,y,1/2-z
-x,-y,-z
1/2+x,y,-z
1/2-x,y,1/2+z
x,-y,1/2+z
loop_
_atom_site_type_symbol
_atom_site_label
_atom_site_fract_x
_atom_site_fract_y
_atom_site_fract_z
Si Si1 0.168927 0.169761 0.274879
Si Si2 0.184038 0.816039 0.306915
Si Si3 0.521904 0.648193 0.956896
Si Si4 0.434452 0.770277 0.696331
Si Si5 0.394662 0.853907 0.952107
Si Si6 0.438199 0.177715 0.899099
Si Si7 0.912942 0.896538 0.870257
O O1 0.242048 0.233820 0.286387
O O2 0.114979 0.228770 0.336081
O O3 0.136362 0.178950 0.190455
O O4 0.177695 0.992750 0.290130
O O5 0.127897 0.743762 0.252708
O O6 0.165293 0.801282 0.397743
O O7 0.556487 0.651397 0.872833
O O8 0.454637 0.740037 0.944505
O O9 0.500000 0.500000 0.000000
O O10 0.565481 0.735422 0.020209
O O11 0.500000 0.777513 0.750000
O O12 0.424179 0.932148 0.655727
O O13 0.421817 0.007354 0.917369
O O14 0.383828 0.882560 0.043138
O O15 0.514290 0.178873 0.870398
#
# Coordination Sequence:
#
# PCOD9420384 Si02
#       7
#     8   8   8   8   8   8   8
#     4   9  18  30  47  85 114 139 175 229 262 322
#     4   9  18  31  50  78 116 142 180 217 271 331
#     4  11  21  33  52  85 105 131 186 233 266 319
#     4  11  17  32  54  77 106 149 178 216 274 332
#     4  10  17  33  55  79 109 140 175 223 280 321
#     4  10  17  33  54  78 110 140 175 219 281 318
#     4  10  16  28  54  82 109 136 181 218 274 323
#
# _framework density 17.851631000000001
#
# number of rings (size 3 to 8) (size 9 to 14) (size 15 to 20)
#    0.000    2.000    4.286    3.000    0.000    0.000 
#    2.571    5.714    0.000    0.857    0.000    0.000 
#    0.000    0.000    0.000    0.000    0.000    0.000 
#
# Total GULP energy -312103.087244 kJ/mol
# GULP energy per Si atom -5573.269415 kJ/mol
# Density = 1.781100 g / cm^3
# Si number density = 17.851631 Si / 1000 Ang^3
#
#
#
# Elastic Constant Matrix: (Units=GPa)
#
#
# Indices 1 2 3 4 5 6 
#
# 1 132.2991 10.5999 101.2428 0.0000 0.0000 0.0000
# 2 10.5999 29.6839 14.1629 0.0000 0.0000 0.0000
# 3 101.2428 14.1629 159.9546 0.0000 0.0000 0.0000
# 4 0.0000 0.0000 0.0000 8.5321 0.0000 0.0000
# 5 0.0000 0.0000 0.0000 0.0000 17.7956 0.0000
# 6 0.0000 0.0000 0.0000 0.0000 0.0000 0.4768
#
#
#
# Elastic Compliance Matrix: (Units=1/GPa)
#
#
# Indices 1 2 3 4 5 6 
#
# 1 0.014679 -0.000844 -0.009216 0.000000 0.000000 0.000000
# 2 -0.000844 0.035223 -0.002584 0.000000 0.000000 0.000000
# 3 -0.009216 -0.002584 0.012314 0.000000 0.000000 0.000000
# 4 0.000000 0.000000 0.000000 0.117204 0.000000 0.000000
# 5 0.000000 0.000000 0.000000 0.000000 0.056194 0.000000
# 6 0.000000 0.000000 0.000000 0.000000 0.000000 2.097530
#
#
# Mechanical properties :
#
#
# Convention : Reuss Voigt Hill
#
# Bulk Modulus (GPa) = 27.08125 63.77210 45.42667
# Shear Modulus (GPa) = 2.10904 18.42304 10.26604
#
# Velocity S-wave (km/s) = 1.08811 3.21597 2.40068
# Velocity P-wave (km/s) = 4.09656 7.04208 5.76076
#
# Compressibility (1/GPa) = 0.03692591
#
# Stress axis : x y z
#
# Youngs Moduli (GPa) = 68.12368 28.39066 81.20796
#
# Poissons Ratio (x) = 0.02398 0.74844
# Poissons Ratio (y) = 0.05753 0.20986
# Poissons Ratio (z) = 0.62785 0.07337
#
# Static dielectric constant tensor:
#      x y z
#    x 1.609510 0.000000 0.000000 
#    y 0.000000 1.617400 0.000000 
#    z 0.000000 0.000000 1.643270 
# 
# From -- ./inp_files/18886.got.cif
#   From: 2010.05.17/outbox.cif.g08.bks.cpg/sg54_10_cif.got.tgz:18886.got - 2010.06.03 13:09:01.
