data_PCOD9420833
_publ_section_title
;
Structure prediction by ZEFSAII (Michael W. Deem and Ramdas Pophale) SiO2 
 PCOD9420833
Probable space group: P C C A
;
_chemical_formula_sum "Si O2"
_cell_formula_units_Z 56
_cell_length_a 5.202132
_cell_length_b 27.627215
_cell_length_c 18.588891
_cell_angle_alpha 90.000000
_cell_angle_beta 90.000000
_cell_angle_gamma 90.000000
_cell_volume 2671.603207
_symmetry_space_group_name_H-M "P C C A"
_symmetry_group_IT_number 54
_symmetry_cell_setting 'orthorhombic'
loop_
_space_group_symop_operation_xyz
x,y,z
1/2-x,-y,z
1/2+x,-y,1/2-z
-x,y,1/2-z
-x,-y,-z
1/2+x,y,-z
1/2-x,y,1/2+z
x,-y,1/2+z
loop_
_atom_site_type_symbol
_atom_site_label
_atom_site_fract_x
_atom_site_fract_y
_atom_site_fract_z
Si Si1 0.019723 0.266817 0.166946
Si Si2 0.163869 0.076327 0.460738
Si Si3 0.977273 0.205504 0.668916
Si Si4 0.216351 0.447893 0.952348
Si Si5 0.251745 0.941573 0.292778
Si Si6 0.836381 0.656686 0.550415
Si Si7 0.119014 0.182971 0.522731
O O1 0.816102 0.222301 0.159118
O O2 0.913131 0.306420 0.112695
O O3 0.000000 0.282878 0.250000
O O4 0.314971 0.249118 0.158641
O O5 0.391563 0.056697 0.511428
O O6 0.226067 0.069741 0.377311
O O7 0.141492 0.133825 0.477361
O O8 0.070378 0.170755 0.605451
O O9 0.000000 0.187702 0.750000
O O10 0.250000 0.500000 0.914938
O O11 0.300371 0.397587 0.916454
O O12 0.423009 0.447632 0.018843
O O13 0.500000 0.922941 0.250000
O O14 0.000000 0.924832 0.250000
O O15 0.250000 0.000000 0.288645
O O16 0.568075 0.661984 0.507423
O O17 0.377467 0.211448 0.507719
#
# Coordination Sequence:
#
# PCOD9420833 Si02
#       7
#     8   8   8   8   8   8   8
#     4  10  21  35  51  75 104 136 171 216 273 322
#     4  10  21  38  58  86 118 149 188 234 282 329
#     4  10  21  37  55  73 100 139 179 215 263 326
#     4   8  14  25  41  64  95 126 158 200 247 298
#     4  10  21  38  61  89 121 157 193 229 275 335
#     4  10  19  30  48  76 101 128 171 215 259 311
#     4  10  21  37  55  79 108 139 178 222 271 318
#
# _framework density 20.961198
#
# number of rings (size 3 to 8) (size 9 to 14) (size 15 to 20)
#    0.000    2.286    0.000    2.571    0.000    4.000 
#    0.000    8.571    0.000    0.000    0.000   13.000 
#    0.000    0.000    0.000    0.000    0.000    0.000 
#
# Total GULP energy -312263.090797 kJ/mol
# GULP energy per Si atom -5576.126621 kJ/mol
# Density = 2.091349 g / cm^3
# Si number density = 20.961198 Si / 1000 Ang^3
#
#
#
# Elastic Constant Matrix: (Units=GPa)
#
#
# Indices 1 2 3 4 5 6 
#
# 1 153.8747 0.6315 46.9579 0.0000 0.0000 0.0000
# 2 0.6315 62.7111 15.0343 0.0000 0.0000 0.0000
# 3 46.9579 15.0343 126.4176 0.0000 0.0000 0.0000
# 4 0.0000 0.0000 0.0000 11.7513 0.0000 0.0000
# 5 0.0000 0.0000 0.0000 0.0000 28.5826 0.0000
# 6 0.0000 0.0000 0.0000 0.0000 0.0000 8.6846
#
#
#
# Elastic Compliance Matrix: (Units=1/GPa)
#
#
# Indices 1 2 3 4 5 6 
#
# 1 0.007351 0.000598 -0.002802 0.000000 0.000000 0.000000
# 2 0.000598 0.016463 -0.002180 0.000000 0.000000 0.000000
# 3 -0.002802 -0.002180 0.009210 0.000000 0.000000 0.000000
# 4 0.000000 0.000000 0.000000 0.085097 0.000000 0.000000
# 5 0.000000 0.000000 0.000000 0.000000 0.034986 0.000000
# 6 0.000000 0.000000 0.000000 0.000000 0.000000 0.115146
#
#
# Mechanical properties :
#
#
# Convention : Reuss Voigt Hill
#
# Bulk Modulus (GPa) = 41.22611 52.02784 46.62697
# Shear Modulus (GPa) = 17.53724 28.49566 23.01645
#
# Velocity S-wave (km/s) = 2.89563 3.69107 3.31728
# Velocity P-wave (km/s) = 5.55789 6.56051 6.07990
#
# Compressibility (1/GPa) = 0.02425647
#
# Stress axis : x y z
#
# Youngs Moduli (GPa) = 136.02950 60.74326 108.57479
#
# Poissons Ratio (x) = -0.03630 0.30420
# Poissons Ratio (y) = -0.08130 0.23668
# Poissons Ratio (z) = 0.38112 0.13241
#
# Static dielectric constant tensor:
#      x y z
#    x 1.976890 0.000000 0.000000 
#    y 0.000000 1.831690 0.000000 
#    z 0.000000 0.000000 1.747450 
# 
# From -- ./inp_files/10991.got.cif
#   From: 2010.05.17/outbox.cif.g08.bks.cpg/sg54_6_cif.got.tgz:10991.got - 2010.06.03 13:09:01.
