data_PCOD9420704
_publ_section_title
;
Structure prediction by ZEFSAII (Michael W. Deem and Ramdas Pophale) SiO2 
 PCOD9420704
Probable space group: P C C A
;
_chemical_formula_sum "Si O2"
_cell_formula_units_Z 44
_cell_length_a 14.348382
_cell_length_b 7.978236
_cell_length_c 17.148242
_cell_angle_alpha 90.000000
_cell_angle_beta 90.000000
_cell_angle_gamma 90.000000
_cell_volume 1963.041193
_symmetry_space_group_name_H-M "P C C A"
_symmetry_group_IT_number 54
_symmetry_cell_setting 'orthorhombic'
loop_
_space_group_symop_operation_xyz
x,y,z
1/2-x,-y,z
1/2+x,-y,1/2-z
-x,y,1/2-z
-x,-y,-z
1/2+x,y,-z
1/2-x,y,1/2+z
x,-y,1/2+z
loop_
_atom_site_type_symbol
_atom_site_label
_atom_site_fract_x
_atom_site_fract_y
_atom_site_fract_z
Si Si1 0.767084 0.744177 0.897074
Si Si2 0.900628 0.043538 0.140933
Si Si3 0.067691 0.327734 0.922095
Si Si4 0.750000 0.500000 0.518817
Si Si5 0.750000 0.000000 0.518639
Si Si6 0.532255 0.655510 0.394359
Si Si7 0.250000 0.000000 0.228513
O O1 0.706710 0.630669 0.955450
O O2 0.722992 0.844035 0.826763
O O3 0.860277 0.654884 0.868443
O O4 0.804352 0.882202 0.958960
O O5 0.933233 0.854649 0.118077
O O6 0.838903 0.040112 0.218666
O O7 0.978581 0.185702 0.141406
O O8 0.824738 0.087765 0.073702
O O9 0.013642 0.475930 0.878059
O O10 0.172965 0.402433 0.932306
O O11 0.029547 0.320138 0.011077
#
# Coordination Sequence:
#
# PCOD9420704 Si02
#       7
#     8   8   8   4   4   8   4
#     4  10  21  41  60  89 124 173 206 257 308 384
#     4  11  21  40  64  95 123 164 205 269 308 375
#     4  10  21  36  64 108 114 157 205 275 324 363
#     4  10  18  38  64  92 126 156 218 260 310 378
#     4  10  18  34  62  90 116 158 212 248 312 354
#     4  10  21  37  65  92 133 150 207 267 323 361
#     4  10  26  42  60  90 126 174 216 236 318 388
#
# _framework density 22.414200999999998
#
# number of rings (size 3 to 8) (size 9 to 14) (size 15 to 20)
#    0.000    1.818    3.636    1.636    2.545    0.727 
#    9.818    0.000    0.000    0.000    0.000    0.000 
#    0.000    0.000    0.000    0.000    0.000    0.000 
#
# Total GULP energy -245413.871142 kJ/mol
# GULP energy per Si atom -5577.587981 kJ/mol
# Density = 2.236319 g / cm^3
# Si number density = 22.414201 Si / 1000 Ang^3
#
#
#
# Elastic Constant Matrix: (Units=GPa)
#
#
# Indices 1 2 3 4 5 6 
#
# 1 51.6435 25.1767 -14.1116 0.0000 0.0000 0.0000
# 2 25.1767 121.0900 13.8145 0.0000 0.0000 0.0000
# 3 -14.1116 13.8145 45.5100 0.0000 0.0000 0.0000
# 4 0.0000 0.0000 0.0000 9.8323 0.0000 0.0000
# 5 0.0000 0.0000 0.0000 0.0000 12.4633 0.0000
# 6 0.0000 0.0000 0.0000 0.0000 0.0000 36.0981
#
#
#
# Elastic Compliance Matrix: (Units=1/GPa)
#
#
# Indices 1 2 3 4 5 6 
#
# 1 0.025098 -0.006325 0.009702 0.000000 0.000000 0.000000
# 2 -0.006325 0.010149 -0.005042 0.000000 0.000000 0.000000
# 3 0.009702 -0.005042 0.026512 0.000000 0.000000 0.000000
# 4 0.000000 0.000000 0.000000 0.101706 0.000000 0.000000
# 5 0.000000 0.000000 0.000000 0.000000 0.080236 0.000000
# 6 0.000000 0.000000 0.000000 0.000000 0.000000 0.027702
#
#
# Mechanical properties :
#
#
# Convention : Reuss Voigt Hill
#
# Bulk Modulus (GPa) = 17.11459 29.77807 23.44633
# Shear Modulus (GPa) = 16.99471 24.56966 20.78218
#
# Velocity S-wave (km/s) = 2.75655 3.31443 3.04828
# Velocity P-wave (km/s) = 4.21706 5.28786 4.78252
#
# Compressibility (1/GPa) = 0.05842969
#
# Stress axis : x y z
#
# Youngs Moduli (GPa) = 39.84328 98.53520 37.71849
#
# Poissons Ratio (x) = 0.62326 -0.36596
# Poissons Ratio (y) = 0.25202 0.19017
# Poissons Ratio (z) = -0.38658 0.49681
#
# Static dielectric constant tensor:
#      x y z
#    x 1.881670 0.000000 0.000000 
#    y 0.000000 1.964680 0.000000 
#    z 0.000000 0.000000 1.801790 
# 
# From -- ./inp_files/17971.got.cif
#   From: 2010.05.17/outbox.cif.g08.bks.cpg/sg54_9_cif.got.tgz:17971.got - 2010.06.03 13:09:01.
