data_PCOD9420693
_publ_section_title
;
Structure prediction by ZEFSAII (Michael W. Deem and Ramdas Pophale) SiO2 
 PCOD9420693
Probable space group: P C C A
;
_chemical_formula_sum "Si O2"
_cell_formula_units_Z 48
_cell_length_a 29.156606
_cell_length_b 5.149946
_cell_length_c 16.264116
_cell_angle_alpha 90.000000
_cell_angle_beta 90.000000
_cell_angle_gamma 90.000000
_cell_volume 2442.137467
_symmetry_space_group_name_H-M "P C C A"
_symmetry_group_IT_number 54
_symmetry_cell_setting 'orthorhombic'
loop_
_space_group_symop_operation_xyz
x,y,z
1/2-x,-y,z
1/2+x,-y,1/2-z
-x,y,1/2-z
-x,-y,-z
1/2+x,y,-z
1/2-x,y,1/2+z
x,-y,1/2+z
loop_
_atom_site_type_symbol
_atom_site_label
_atom_site_fract_x
_atom_site_fract_y
_atom_site_fract_z
Si Si1 0.033415 0.224354 0.323170
Si Si2 0.388223 0.611432 0.207579
Si Si3 0.848387 0.941953 0.924460
Si Si4 0.197399 0.547890 0.134307
Si Si5 0.562273 0.061568 0.018256
Si Si6 0.460691 0.432717 0.082293
O O1 0.079725 0.340146 0.284461
O O2 0.048791 0.013088 0.389752
O O3 0.000000 0.121828 0.250000
O O4 0.002821 0.447025 0.366759
O O5 0.337390 0.492759 0.211615
O O6 0.417836 0.438998 0.144337
O O7 0.379762 0.878165 0.156425
O O8 0.814936 0.177728 0.905332
O O9 0.883700 0.979473 0.998646
O O10 0.819467 0.676462 0.928601
O O11 0.250000 0.500000 0.154576
O O12 0.537647 0.847622 0.959390
O O13 0.550629 0.350209 0.987065
#
# Coordination Sequence:
#
# PCOD9420693 Si02
#       6
#     8   8   8   8   8   8
#     4  10  21  37  53  85 114 155 189 229 270 333
#     4   8  19  35  52  83 110 140 186 227 273 333
#     4   9  18  34  56  81 108 140 182 229 281 334
#     4  10  18  34  60  84 103 136 184 234 284 340
#     4  11  19  38  55  77 113 151 185 232 273 323
#     4  10  20  37  54  77 112 151 189 227 270 326
#
# _framework density 19.654911999999999
#
# number of rings (size 3 to 8) (size 9 to 14) (size 15 to 20)
#    1.000    1.333    1.667    1.500    0.000    0.000 
#    6.000    5.000    0.000    1.000    4.333    0.000 
#    0.000    0.000    0.000    0.000    0.000    0.000 
#
# Total GULP energy -267620.793731 kJ/mol
# GULP energy per Si atom -5575.433203 kJ/mol
# Density = 1.961018 g / cm^3
# Si number density = 19.654912 Si / 1000 Ang^3
#
#
#
# Elastic Constant Matrix: (Units=GPa)
#
#
# Indices 1 2 3 4 5 6 
#
# 1 127.2042 8.7926 31.3427 0.0000 0.0000 0.0000
# 2 8.7926 102.1274 12.6822 0.0000 0.0000 0.0000
# 3 31.3427 12.6822 74.3462 0.0000 0.0000 0.0000
# 4 0.0000 0.0000 0.0000 8.0979 0.0000 0.0000
# 5 0.0000 0.0000 0.0000 0.0000 22.0591 0.0000
# 6 0.0000 0.0000 0.0000 0.0000 0.0000 26.5111
#
#
#
# Elastic Compliance Matrix: (Units=1/GPa)
#
#
# Indices 1 2 3 4 5 6 
#
# 1 0.008782 -0.000303 -0.003651 0.000000 0.000000 0.000000
# 2 -0.000303 0.010014 -0.001581 0.000000 0.000000 0.000000
# 3 -0.003651 -0.001581 0.015259 0.000000 0.000000 0.000000
# 4 0.000000 0.000000 0.000000 0.123489 0.000000 0.000000
# 5 0.000000 0.000000 0.000000 0.000000 0.045333 0.000000
# 6 0.000000 0.000000 0.000000 0.000000 0.000000 0.037720
#
#
# Mechanical properties :
#
#
# Convention : Reuss Voigt Hill
#
# Bulk Modulus (GPa) = 43.50241 45.47919 44.49080
# Shear Modulus (GPa) = 19.28071 28.05765 23.66918
#
# Velocity S-wave (km/s) = 3.13543 3.78234 3.47398
# Velocity P-wave (km/s) = 5.94046 6.50107 6.22708
#
# Compressibility (1/GPa) = 0.02298723
#
# Stress axis : x y z
#
# Youngs Moduli (GPa) = 113.87199 99.85990 65.53421
#
# Poissons Ratio (x) = 0.03023 0.23924
# Poissons Ratio (y) = 0.03447 0.10358
# Poissons Ratio (z) = 0.41570 0.15784
#
# Static dielectric constant tensor:
#      x y z
#    x 1.742060 0.000000 0.000000 
#    y 0.000000 1.723660 0.000000 
#    z 0.000000 0.000000 1.709330 
# 
# From -- ./inp_files/15296.got.cif
#   From: 2010.05.17/outbox.cif.g08.bks.cpg/sg54_8_cif.got.tgz:15296.got - 2010.06.03 13:09:01.
