data_PCOD9420728
_publ_section_title
;
Structure prediction by ZEFSAII (Michael W. Deem and Ramdas Pophale) SiO2 
 PCOD9420728
Probable space group: P C C A
;
_chemical_formula_sum "Si O2"
_cell_formula_units_Z 48
_cell_length_a 9.291919
_cell_length_b 8.037960
_cell_length_c 28.495359
_cell_angle_alpha 90.000000
_cell_angle_beta 90.000000
_cell_angle_gamma 90.000000
_cell_volume 2128.263460
_symmetry_space_group_name_H-M "P C C A"
_symmetry_group_IT_number 54
_symmetry_cell_setting 'orthorhombic'
loop_
_space_group_symop_operation_xyz
x,y,z
1/2-x,-y,z
1/2+x,-y,1/2-z
-x,y,1/2-z
-x,-y,-z
1/2+x,y,-z
1/2-x,y,1/2+z
x,-y,1/2+z
loop_
_atom_site_type_symbol
_atom_site_label
_atom_site_fract_x
_atom_site_fract_y
_atom_site_fract_z
Si Si1 0.286229 0.299727 0.317338
Si Si2 0.623770 0.610235 0.524713
Si Si3 0.652037 0.657893 0.274921
Si Si4 0.998479 0.273357 0.133846
Si Si5 0.705696 0.816777 0.436006
Si Si6 0.529523 0.669592 0.884823
O O1 0.250000 0.500000 0.316213
O O2 0.246515 0.247955 0.264415
O O3 0.442613 0.268202 0.339083
O O4 0.163681 0.233749 0.351941
O O5 0.750000 0.500000 0.546806
O O6 0.500000 0.500000 0.500000
O O7 0.696679 0.708757 0.482466
O O8 0.555937 0.711402 0.567306
O O9 0.750000 0.500000 0.289476
O O10 0.500000 0.602763 0.250000
O O11 0.596056 0.755785 0.319958
O O12 0.052182 0.175242 0.089236
O O13 0.021665 0.468929 0.120861
O O14 0.812847 0.734844 0.397476
O O15 0.750000 0.000000 0.448328
#
# Coordination Sequence:
#
# PCOD9420728 Si02
#       6
#     8   8   8   8   8   8
#     4   8  17  31  56  90 116 147 196 253 304 351
#     4  12  22  41  66  90 117 156 205 246 298 368
#     4   9  16  27  50  88 122 145 189 252 306 353
#     4  10  18  35  60  84 116 156 197 247 304 365
#     4  12  26  40  55  86 122 157 202 252 312 358
#     4  11  21  38  63  86 119 161 204 250 300 369
#
# _framework density 22.553595999999999
#
# number of rings (size 3 to 8) (size 9 to 14) (size 15 to 20)
#    0.000    1.667    3.333    4.000    0.000    0.667 
#    0.000    0.833    0.000    6.000    0.000    0.000 
#    0.000    0.000    0.000    0.000    0.000    0.000 
#
# Total GULP energy -268047.208318 kJ/mol
# GULP energy per Si atom -5584.316840 kJ/mol
# Density = 2.250226 g / cm^3
# Si number density = 22.553596 Si / 1000 Ang^3
#
#
#
# Elastic Constant Matrix: (Units=GPa)
#
#
# Indices 1 2 3 4 5 6 
#
# 1 59.2105 9.8749 20.5313 0.0000 0.0000 0.0000
# 2 9.8749 30.4781 0.8616 0.0000 0.0000 0.0000
# 3 20.5313 0.8616 81.3972 0.0000 0.0000 0.0000
# 4 0.0000 0.0000 0.0000 -2.7157 0.0000 0.0000
# 5 0.0000 0.0000 0.0000 0.0000 45.0506 0.0000
# 6 0.0000 0.0000 0.0000 0.0000 0.0000 5.2288
#
#
#
# Elastic Compliance Matrix: (Units=1/GPa)
#
#
# Indices 1 2 3 4 5 6 
#
# 1 0.019619 -0.006219 -0.004883 0.000000 0.000000 0.000000
# 2 -0.006219 0.034791 0.001200 0.000000 0.000000 0.000000
# 3 -0.004883 0.001200 0.013504 0.000000 0.000000 0.000000
# 4 0.000000 0.000000 0.000000 -0.368236 0.000000 0.000000
# 5 0.000000 0.000000 0.000000 0.000000 0.022197 0.000000
# 6 0.000000 0.000000 0.000000 0.000000 0.000000 0.191249
#
#
# Mechanical properties :
#
#
# Convention : Reuss Voigt Hill
#
# Bulk Modulus (GPa) = 20.78460 25.95795 23.37127
# Shear Modulus (GPa) = -97.97219 18.83394 -39.56913
#
# Velocity S-wave (km/s) = -6.59803 2.89290 -4.19316
# Velocity P-wave (km/s) = 6.98639 4.76371 3.61364
#
# Compressibility (1/GPa) = 0.04811255
#
# Stress axis : x y z
#
# Youngs Moduli (GPa) = 50.97070 28.74280 74.05016
#
# Poissons Ratio (x) = 0.17874 0.36157
# Poissons Ratio (y) = 0.31696 -0.08888
# Poissons Ratio (z) = 0.24888 -0.03450
#
# Static dielectric constant tensor:
#      x y z
#    x 1.910210 0.000000 0.000000 
#    y 0.000000 1.860640 0.000000 
#    z 0.000000 0.000000 1.831850 
# 
# From -- ./inp_files/27716.got.cif
#   From: 2010.05.17/outbox.cif.g08.bks.cpg/sg54_14_cif.got.tgz:27716.got - 2010.06.03 13:09:01.
