data_PCOD9420568
_publ_section_title
;
Structure prediction by ZEFSAII (Michael W. Deem and Ramdas Pophale) SiO2 
 PCOD9420568
Probable space group: P C C A
;
_chemical_formula_sum "Si O2"
_cell_formula_units_Z 48
_cell_length_a 21.620673
_cell_length_b 9.373566
_cell_length_c 11.450597
_cell_angle_alpha 90.000000
_cell_angle_beta 90.000000
_cell_angle_gamma 90.000000
_cell_volume 2320.610111
_symmetry_space_group_name_H-M "P C C A"
_symmetry_group_IT_number 54
_symmetry_cell_setting 'orthorhombic'
loop_
_space_group_symop_operation_xyz
x,y,z
1/2-x,-y,z
1/2+x,-y,1/2-z
-x,y,1/2-z
-x,-y,-z
1/2+x,y,-z
1/2-x,y,1/2+z
x,-y,1/2+z
loop_
_atom_site_type_symbol
_atom_site_label
_atom_site_fract_x
_atom_site_fract_y
_atom_site_fract_z
Si Si1 0.822759 0.007506 0.792419
Si Si2 0.091718 0.019846 0.402243
Si Si3 0.590261 0.790273 0.416782
Si Si4 0.098316 0.750809 0.074864
Si Si5 0.500000 0.382967 0.750000
Si Si6 0.930169 0.517612 0.048085
Si Si7 0.500000 0.854548 0.750000
O O1 0.841488 0.011775 0.654824
O O2 0.851460 0.147079 0.860094
O O3 0.750000 0.000000 0.808462
O O4 0.853689 0.860832 0.843397
O O5 0.069631 0.929147 0.512996
O O6 0.049232 0.963083 0.301293
O O7 0.086926 0.177749 0.448373
O O8 0.539687 0.718160 0.335072
O O9 0.598215 0.672531 0.520266
O O10 0.036704 0.762634 0.154298
O O11 0.109563 0.589691 0.034220
O O12 0.446494 0.474475 0.818430
O O13 0.000000 0.500000 0.000000
#
# Coordination Sequence:
#
# PCOD9420568 Si02
#       7
#     8   8   8   8   4   8   4
#     4  10  23  42  61  79 109 156 211 262 300 342
#     4  10  21  34  55  85 115 151 194 241 295 351
#     4  10  22  38  60  88 119 157 197 241 298 360
#     4  10  21  35  55  84 117 153 194 241 296 359
#     4  10  20  36  58  92 134 162 184 232 304 380
#     4  10  21  35  57  89 127 158 185 228 291 365
#     4  10  18  30  52  84 118 150 188 232 288 356
#
# _framework density 20.684214999999998
#
# number of rings (size 3 to 8) (size 9 to 14) (size 15 to 20)
#    0.000    2.000    0.000    3.500    0.000   23.333 
#    0.000    0.833    0.000    0.000    0.000    0.000 
#    0.000    0.000    0.000    0.000    0.000    0.000 
#
# Total GULP energy -267335.193386 kJ/mol
# GULP energy per Si atom -5569.483196 kJ/mol
# Density = 2.063714 g / cm^3
# Si number density = 20.684215 Si / 1000 Ang^3
#
#
#
# Elastic Constant Matrix: (Units=GPa)
#
#
# Indices 1 2 3 4 5 6 
#
# 1 95.2712 22.3790 23.2621 0.0000 0.0000 0.0000
# 2 22.3790 79.6395 10.5699 0.0000 0.0000 0.0000
# 3 23.2621 10.5699 73.7377 0.0000 0.0000 0.0000
# 4 0.0000 0.0000 0.0000 25.9806 0.0000 0.0000
# 5 0.0000 0.0000 0.0000 0.0000 17.2626 0.0000
# 6 0.0000 0.0000 0.0000 0.0000 0.0000 18.4441
#
#
#
# Elastic Compliance Matrix: (Units=1/GPa)
#
#
# Indices 1 2 3 4 5 6 
#
# 1 0.012006 -0.002927 -0.003368 0.000000 0.000000 0.000000
# 2 -0.002927 0.013514 -0.001014 0.000000 0.000000 0.000000
# 3 -0.003368 -0.001014 0.014769 0.000000 0.000000 0.000000
# 4 0.000000 0.000000 0.000000 0.038490 0.000000 0.000000
# 5 0.000000 0.000000 0.000000 0.000000 0.057929 0.000000
# 6 0.000000 0.000000 0.000000 0.000000 0.000000 0.054218
#
#
# Mechanical properties :
#
#
# Convention : Reuss Voigt Hill
#
# Bulk Modulus (GPa) = 38.95302 40.11893 39.53597
# Shear Modulus (GPa) = 23.35348 25.16661 24.26005
#
# Velocity S-wave (km/s) = 3.36378 3.49192 3.42845
# Velocity P-wave (km/s) = 5.82750 5.97461 5.90152
#
# Compressibility (1/GPa) = 0.02567195
#
# Stress axis : x y z
#
# Youngs Moduli (GPa) = 83.29022 73.99971 67.70743
#
# Poissons Ratio (x) = 0.21658 0.22804
# Poissons Ratio (y) = 0.24377 0.06864
# Poissons Ratio (z) = 0.28053 0.07502
#
# Static dielectric constant tensor:
#      x y z
#    x 1.734780 0.000000 0.000000 
#    y 0.000000 1.771400 0.000000 
#    z 0.000000 0.000000 1.914950 
# 
# From -- ./inp_files/9931.got.cif
#   From: 2010.05.17/outbox.cif.g08.bks.cpg/sg54_5_cif.got.tgz:9931.got - 2010.06.03 13:09:01.
