data_PCOD9420142
_publ_section_title
;
Structure prediction by ZEFSAII (Michael W. Deem and Ramdas Pophale) SiO2 
 PCOD9420142
Probable space group: P M N A
;
_chemical_formula_sum "Si O2"
_cell_formula_units_Z 56
_cell_length_a 15.000000
_cell_length_b 12.000000
_cell_length_c 15.000000
_cell_angle_alpha 90.000000
_cell_angle_beta 90.000000
_cell_angle_gamma 90.000000
_cell_volume 2700.000000
_symmetry_space_group_name_H-M "P M N A"
_symmetry_group_IT_number 53
_symmetry_cell_setting 'orthorhombic'
loop_
_space_group_symop_operation_xyz
x,y,z
1/2-x,-y,1/2+z
x,-y,-z
1/2-x,y,1/2-z
-x,-y,-z
1/2+x,y,1/2-z
-x,y,z
1/2+x,-y,1/2+z
loop_
_atom_site_type_symbol
_atom_site_label
_atom_site_fract_x
_atom_site_fract_y
_atom_site_fract_z
Si Si1 0.097926 0.442126 0.096612
Si Si2 0.704029 0.905106 0.922637
Si Si3 0.392942 0.743399 0.060133
Si Si4 0.738234 0.619744 0.354561
Si Si5 0.149439 0.076374 0.714743
Si Si6 0.594793 0.189396 0.614247
Si Si7 0.899564 0.172659 0.087253
O O1 0.184156 0.504231 0.135928
O O2 0.107440 0.308395 0.090413
O O3 0.000000 0.462792 0.140261
O O4 0.093057 0.500000 0.000000
O O5 0.802258 0.873364 0.884245
O O6 0.648448 0.962089 0.841897
O O7 0.652283 0.804641 0.973850
O O8 0.714294 0.000000 0.000000
O O9 0.500000 0.723395 0.048893
O O10 0.329846 0.639199 0.090088
O O11 0.379999 0.829424 0.143434
O O12 0.750000 0.635891 0.250000
O O13 0.673253 0.721029 0.382743
O O14 0.250000 0.091781 0.750000
O O15 0.098607 0.099979 0.806677
O O16 0.500000 0.250841 0.622119
O O17 0.597997 0.137561 0.516731
O O18 0.000000 0.145592 0.124120
#
# Coordination Sequence:
#
# PCOD9420142 Si02
#       7
#     8   8   8   8   8   8   8
#     4  10  19  34  61  93 120 153 199 245 304 370
#     4  10  21  36  57  80 120 157 205 244 285 360
#     4  11  21  35  55  80 117 164 206 243 287 350
#     4  12  21  34  57  91 128 153 194 247 307 348
#     4  11  20  35  53  82 119 152 193 244 301 349
#     4  11  18  31  59  89 120 150 190 252 309 355
#     4  10  20  37  62  89 120 156 195 250 308 366
#
# _framework density 20.740741
#
# number of rings (size 3 to 8) (size 9 to 14) (size 15 to 20)
#    0.000    1.286    5.714    1.714    0.000    4.000 
#    0.000    2.143    0.000    3.857    0.000    2.000 
#    0.000    0.000    0.000    0.000    0.000    0.000 
#
# Total GULP energy -312369.411309 kJ/mol
# GULP energy per Si atom -5578.025202 kJ/mol
# Density = 2.069353 g / cm^3
# Si number density = 20.740741 Si / 1000 Ang^3
#
#
#
# Elastic Constant Matrix: (Units=GPa)
#
#
# Indices 1 2 3 4 5 6 
#
# 1 147.7095 25.8253 15.5531 0.0000 0.0000 0.0000
# 2 25.8253 63.4825 16.0315 0.0000 0.0000 0.0000
# 3 15.5531 16.0315 39.1542 0.0000 0.0000 0.0000
# 4 0.0000 0.0000 0.0000 18.4276 0.0000 0.0000
# 5 0.0000 0.0000 0.0000 0.0000 21.2535 0.0000
# 6 0.0000 0.0000 0.0000 0.0000 0.0000 29.5533
#
#
#
# Elastic Compliance Matrix: (Units=1/GPa)
#
#
# Indices 1 2 3 4 5 6 
#
# 1 0.007414 -0.002534 -0.001907 0.000000 0.000000 0.000000
# 2 -0.002534 0.018435 -0.006542 0.000000 0.000000 0.000000
# 3 -0.001907 -0.006542 0.028976 0.000000 0.000000 0.000000
# 4 0.000000 0.000000 0.000000 0.054266 0.000000 0.000000
# 5 0.000000 0.000000 0.000000 0.000000 0.047051 0.000000
# 6 0.000000 0.000000 0.000000 0.000000 0.000000 0.033837
#
#
# Mechanical properties :
#
#
# Convention : Reuss Voigt Hill
#
# Bulk Modulus (GPa) = 30.43318 40.57400 35.50359
# Shear Modulus (GPa) = 22.43161 26.70929 24.57045
#
# Velocity S-wave (km/s) = 3.29222 3.59244 3.44560
# Velocity P-wave (km/s) = 5.39969 6.06733 5.74322
#
# Compressibility (1/GPa) = 0.03285887
#
# Stress axis : x y z
#
# Youngs Moduli (GPa) = 134.88016 54.24358 34.51124
#
# Poissons Ratio (x) = 0.13748 0.06582
# Poissons Ratio (y) = 0.34184 0.22576
# Poissons Ratio (z) = 0.25726 0.35484
#
# Static dielectric constant tensor:
#      x y z
#    x 1.836760 0.000000 0.000000 
#    y 0.000000 1.778380 0.000000 
#    z 0.000000 0.000000 1.759580 
# 
# From -- ./inp_files/22850.got.cif
#   From: 2010.05.17/outbox.ucp.g08.bks.cvg/sg53_12_cif.got.tgz:22850.got - 2010.06.11 16:32:34.
