data_PCOD9420397
_publ_section_title
;
Structure prediction by ZEFSAII (Michael W. Deem and Ramdas Pophale) SiO2 
 PCOD9420397
Probable space group: P C C A
;
_chemical_formula_sum "Si O2"
_cell_formula_units_Z 48
_cell_length_a 5.324091
_cell_length_b 28.560434
_cell_length_c 14.155218
_cell_angle_alpha 90.000000
_cell_angle_beta 90.000000
_cell_angle_gamma 90.000000
_cell_volume 2152.419088
_symmetry_space_group_name_H-M "P C C A"
_symmetry_group_IT_number 54
_symmetry_cell_setting 'orthorhombic'
loop_
_space_group_symop_operation_xyz
x,y,z
1/2-x,-y,z
1/2+x,-y,1/2-z
-x,y,1/2-z
-x,-y,-z
1/2+x,y,-z
1/2-x,y,1/2+z
x,-y,1/2+z
loop_
_atom_site_type_symbol
_atom_site_label
_atom_site_fract_x
_atom_site_fract_y
_atom_site_fract_z
Si Si1 0.499881 0.971087 0.136246
Si Si2 0.556148 0.629070 0.940551
Si Si3 0.587053 0.829369 0.885029
Si Si4 0.500176 0.473770 0.362863
Si Si5 0.087348 0.866720 0.900479
Si Si6 0.962305 0.729273 0.063380
O O1 0.500000 0.963078 0.250000
O O2 0.510416 0.920473 0.088523
O O3 0.750000 0.000000 0.113312
O O4 0.250000 0.000000 0.112816
O O5 0.507683 0.580696 0.888125
O O6 0.501738 0.678524 0.889268
O O7 0.843910 0.629484 0.976655
O O8 0.861293 0.840789 0.847818
O O9 0.506944 0.775618 0.875826
O O10 0.358159 0.861718 0.852374
O O11 0.616524 0.842079 0.997162
O O12 0.750000 0.500000 0.396910
O O13 0.500000 0.477310 0.250000
O O14 0.250000 0.500000 0.396694
O O15 0.186357 0.731153 0.984318
#
# Coordination Sequence:
#
# PCOD9420397 Si02
#       6
#     8   8   8   8   8   8
#     4  10  21  37  52  67  93 131 169 202 241 290
#     4  10  21  32  53  83 106 140 182 224 267 313
#     4  10  17  30  48  76  99 125 151 199 246 301
#     4  10  21  37  55  75 107 148 182 220 274 323
#     4  10  18  30  51  73  95 125 160 196 241 289
#     4  10  16  30  48  74 103 131 163 197 251 305
#
# _framework density 22.30049
#
# number of rings (size 3 to 8) (size 9 to 14) (size 15 to 20)
#    0.000    2.000    3.333    2.000    0.000    2.000 
#    0.000   10.000    0.000    2.000    0.000    0.000 
#    0.000    0.000    0.000    0.000    0.000    0.000 
#
# Total GULP energy -268085.926672 kJ/mol
# GULP energy per Si atom -5585.123472 kJ/mol
# Density = 2.224973 g / cm^3
# Si number density = 22.300490 Si / 1000 Ang^3
#
#
#
# Elastic Constant Matrix: (Units=GPa)
#
#
# Indices 1 2 3 4 5 6 
#
# 1 151.5697 26.5138 0.4077 0.0000 0.0000 0.0000
# 2 26.5138 179.6813 5.2747 0.0000 0.0000 0.0000
# 3 0.4077 5.2747 59.2105 0.0000 0.0000 0.0000
# 4 0.0000 0.0000 0.0000 -4.3112 0.0000 0.0000
# 5 0.0000 0.0000 0.0000 0.0000 -13.7371 0.0000
# 6 0.0000 0.0000 0.0000 0.0000 0.0000 39.5081
#
#
#
# Elastic Compliance Matrix: (Units=1/GPa)
#
#
# Indices 1 2 3 4 5 6 
#
# 1 0.006773 -0.001001 0.000043 0.000000 0.000000 0.000000
# 2 -0.001001 0.005728 -0.000503 0.000000 0.000000 0.000000
# 3 0.000043 -0.000503 0.016933 0.000000 0.000000 0.000000
# 4 0.000000 0.000000 0.000000 -0.231956 0.000000 0.000000
# 5 0.000000 0.000000 0.000000 0.000000 -0.072796 0.000000
# 6 0.000000 0.000000 0.000000 0.000000 0.000000 0.025311
#
#
# Mechanical properties :
#
#
# Convention : Reuss Voigt Hill
#
# Bulk Modulus (GPa) = 37.72035 50.53931 44.12983
# Shear Modulus (GPa) = -20.98667 28.17634 3.59483
#
# Velocity S-wave (km/s) = -3.07104 3.55841 1.27102
# Velocity P-wave (km/s) = 2.09195 6.29246 4.68889
#
# Compressibility (1/GPa) = 0.02651089
#
# Stress axis : x y z
#
# Youngs Moduli (GPa) = 147.65500 174.58602 59.05477
#
# Poissons Ratio (x) = 0.17469 -0.00251
# Poissons Ratio (y) = 0.14774 0.02973
# Poissons Ratio (z) = -0.00628 0.08788
#
# Static dielectric constant tensor:
#      x y z
#    x 1.864350 0.000000 0.000000 
#    y 0.000000 1.808890 0.000000 
#    z 0.000000 0.000000 1.902320 
# 
# From -- ./inp_files/1009.got.cif
#   From: 2010.05.17/outbox.cif.g08.bks.cpg/sg54_1_cif.got.tgz:1009.got - 2010.06.03 13:09:01.
