data_PCOD9420549
_publ_section_title
;
Structure prediction by ZEFSAII (Michael W. Deem and Ramdas Pophale) SiO2 
 PCOD9420549
Probable space group: P C C A
;
_chemical_formula_sum "Si O2"
_cell_formula_units_Z 64
_cell_length_a 8.481068
_cell_length_b 20.929595
_cell_length_c 20.846206
_cell_angle_alpha 90.000000
_cell_angle_beta 90.000000
_cell_angle_gamma 90.000000
_cell_volume 3700.312434
_symmetry_space_group_name_H-M "P C C A"
_symmetry_group_IT_number 54
_symmetry_cell_setting 'orthorhombic'
loop_
_space_group_symop_operation_xyz
x,y,z
1/2-x,-y,z
1/2+x,-y,1/2-z
-x,y,1/2-z
-x,-y,-z
1/2+x,y,-z
1/2-x,y,1/2+z
x,-y,1/2+z
loop_
_atom_site_type_symbol
_atom_site_label
_atom_site_fract_x
_atom_site_fract_y
_atom_site_fract_z
Si Si1 0.312105 0.566984 0.671731
Si Si2 0.983208 0.137374 0.482032
Si Si3 0.707153 0.708523 0.184480
Si Si4 0.345609 0.697081 0.163467
Si Si5 0.826271 0.567983 0.172710
Si Si6 0.185559 0.798215 0.078874
Si Si7 0.069117 0.828889 0.321149
Si Si8 0.225812 0.074740 0.909671
O O1 0.250000 0.500000 0.647347
O O2 0.189549 0.622352 0.654708
O O3 0.320354 0.564230 0.749480
O O4 0.492747 0.575467 0.651097
O O5 0.838807 0.162125 0.440385
O O6 0.908518 0.091505 0.536907
O O7 0.069646 0.196899 0.517747
O O8 0.114033 0.103014 0.439631
O O9 0.527243 0.719104 0.162157
O O10 0.709313 0.709644 0.262772
O O11 0.747092 0.636935 0.160057
O O12 0.831309 0.763560 0.165744
O O13 0.244318 0.732728 0.109761
O O14 0.750000 0.500000 0.150541
O O15 0.084364 0.829994 0.134600
O O16 0.177741 0.887026 0.345457
O O17 0.000000 0.831101 0.250000
O O18 0.250000 0.000000 0.899639
#
# Coordination Sequence:
#
# PCOD9420549 Si02
#       8
#     8   8   8   8   8   8   8   8
#     4   9  16  25  39  62  98 136 178 217 258 309
#     4   9  20  36  58  82 101 131 175 233 276 308
#     4  10  19  29  47  73 108 143 180 208 259 325
#     4  10  18  29  48  74 101 140 176 217 262 319
#     4   9  16  25  39  62  99 144 181 216 251 302
#     4  10  19  35  55  78 106 133 177 221 271 316
#     4  11  21  35  53  77 111 148 175 210 265 333
#     4  10  20  37  59  81 107 137 178 225 274 322
#
# _framework density 17.295836000000001
#
# number of rings (size 3 to 8) (size 9 to 14) (size 15 to 20)
#    0.000    2.250    1.250    2.625    1.750    3.000 
#    0.000    1.250    0.000    0.000    0.000    0.875 
#    0.000    7.000    0.000    2.375    0.000    0.250 
#
# Total GULP energy -356274.026692 kJ/mol
# GULP energy per Si atom -5566.781667 kJ/mol
# Density = 1.725647 g / cm^3
# Si number density = 17.295836 Si / 1000 Ang^3
#
#
#
# Elastic Constant Matrix: (Units=GPa)
#
#
# Indices 1 2 3 4 5 6 
#
# 1 105.5873 41.9267 40.5257 0.0000 0.0000 0.0000
# 2 41.9267 110.5726 38.3153 0.0000 0.0000 0.0000
# 3 40.5257 38.3153 41.6669 0.0000 0.0000 0.0000
# 4 0.0000 0.0000 0.0000 -4.4119 0.0000 0.0000
# 5 0.0000 0.0000 0.0000 0.0000 17.1932 0.0000
# 6 0.0000 0.0000 0.0000 0.0000 0.0000 18.4452
#
#
#
# Elastic Compliance Matrix: (Units=1/GPa)
#
#
# Indices 1 2 3 4 5 6 
#
# 1 0.015178 -0.000939 -0.013899 0.000000 0.000000 0.000000
# 2 -0.000939 0.013331 -0.011346 0.000000 0.000000 0.000000
# 3 -0.013899 -0.011346 0.047952 0.000000 0.000000 0.000000
# 4 0.000000 0.000000 0.000000 -0.226658 0.000000 0.000000
# 5 0.000000 0.000000 0.000000 0.000000 0.058163 0.000000
# 6 0.000000 0.000000 0.000000 0.000000 0.000000 0.054215
#
#
# Mechanical properties :
#
#
# Convention : Reuss Voigt Hill
#
# Bulk Modulus (GPa) = 41.50516 55.48468 48.49492
# Shear Modulus (GPa) = 221.43482 15.38255 118.40869
#
# Velocity S-wave (km/s) = 11.32721 2.98548 8.28308
# Velocity P-wave (km/s) = 13.96867 6.63578 10.93520
#
# Compressibility (1/GPa) = 0.02409339
#
# Stress axis : x y z
#
# Youngs Moduli (GPa) = 65.88310 75.01095 20.85434
#
# Poissons Ratio (x) = 0.07043 0.28986
# Poissons Ratio (y) = 0.06186 0.23661
# Poissons Ratio (z) = 0.91573 0.85106
#
# Static dielectric constant tensor:
#      x y z
#    x 1.611100 0.000000 0.000000 
#    y 0.000000 1.591310 0.000000 
#    z 0.000000 0.000000 1.588240 
# 
# From -- ./inp_files/20668.got.cif
#   From: 2010.05.17/outbox.cif.g08.bks.cpg/sg54_11_cif.got.tgz:20668.got - 2010.06.03 13:09:01.
