data_PCOD9420631
_publ_section_title
;
Structure prediction by ZEFSAII (Michael W. Deem and Ramdas Pophale) SiO2 
 PCOD9420631
Probable space group: P C C A
;
_chemical_formula_sum "Si O2"
_cell_formula_units_Z 40
_cell_length_a 7.463960
_cell_length_b 12.651720
_cell_length_c 19.375702
_cell_angle_alpha 90.000000
_cell_angle_beta 90.000000
_cell_angle_gamma 90.000000
_cell_volume 1829.684974
_symmetry_space_group_name_H-M "P C C A"
_symmetry_group_IT_number 54
_symmetry_cell_setting 'orthorhombic'
loop_
_space_group_symop_operation_xyz
x,y,z
1/2-x,-y,z
1/2+x,-y,1/2-z
-x,y,1/2-z
-x,-y,-z
1/2+x,y,-z
1/2-x,y,1/2+z
x,-y,1/2+z
loop_
_atom_site_type_symbol
_atom_site_label
_atom_site_fract_x
_atom_site_fract_y
_atom_site_fract_z
Si Si1 0.462778 0.487045 0.081632
Si Si2 0.449258 0.964940 0.576094
Si Si3 0.427372 0.289688 0.902636
Si Si4 0.646464 0.732651 0.935147
Si Si5 0.861276 0.097384 0.191613
O O1 0.250000 0.500000 0.092671
O O2 0.571016 0.584197 0.115064
O O3 0.474932 0.362527 0.095229
O O4 0.500000 0.500000 0.000000
O O5 0.450766 0.840459 0.583049
O O6 0.250000 0.000000 0.588811
O O7 0.500000 0.000000 0.500000
O O8 0.566329 0.026809 0.629366
O O9 0.644842 0.265573 0.909934
O O10 0.331880 0.209569 0.849305
O O11 0.352008 0.276732 0.980934
O O12 0.000000 0.129978 0.250000
O O13 0.750000 0.000000 0.228202
#
# Coordination Sequence:
#
# PCOD9420631 Si02
#       5
#     8   8   8   8   8
#     4   8  16  30  51  85 116 150 183 234 292 349
#     4  12  21  35  58  89 122 153 197 245 298 360
#     4  10  20  35  58  86 120 153 195 244 302 356
#     4  10  18  32  58  89 121 149 190 242 294 351
#     4  12  27  42  58  81 118 160 205 253 314 375
#
# _framework density 21.861685999999999
#
# number of rings (size 3 to 8) (size 9 to 14) (size 15 to 20)
#    0.000    1.600    4.000    1.200    2.800    0.000 
#    0.000    0.000    0.000    1.200    0.000    0.000 
#    0.000    0.000    0.000    0.000    0.000    0.000 
#
# Total GULP energy -222767.057897 kJ/mol
# GULP energy per Si atom -5569.176447 kJ/mol
# Density = 2.181193 g / cm^3
# Si number density = 21.861686 Si / 1000 Ang^3
#
#
#
# Elastic Constant Matrix: (Units=GPa)
#
#
# Indices 1 2 3 4 5 6 
#
# 1 56.7471 19.0366 7.5555 0.0000 0.0000 0.0000
# 2 19.0366 228.6492 14.2576 0.0000 0.0000 0.0000
# 3 7.5555 14.2576 48.5165 0.0000 0.0000 0.0000
# 4 0.0000 0.0000 0.0000 -38.8326 0.0000 0.0000
# 5 0.0000 0.0000 0.0000 0.0000 27.5345 0.0000
# 6 0.0000 0.0000 0.0000 0.0000 0.0000 25.3530
#
#
#
# Elastic Compliance Matrix: (Units=1/GPa)
#
#
# Indices 1 2 3 4 5 6 
#
# 1 0.018413 -0.001379 -0.002462 0.000000 0.000000 0.000000
# 2 -0.001379 0.004558 -0.001125 0.000000 0.000000 0.000000
# 3 -0.002462 -0.001125 0.021326 0.000000 0.000000 0.000000
# 4 0.000000 0.000000 0.000000 -0.025752 0.000000 0.000000
# 5 0.000000 0.000000 0.000000 0.000000 0.036318 0.000000
# 6 0.000000 0.000000 0.000000 0.000000 0.000000 0.039443
#
#
# Mechanical properties :
#
#
# Convention : Reuss Voigt Hill
#
# Bulk Modulus (GPa) = 29.10014 46.17912 37.63963
# Shear Modulus (GPa) = 43.21767 22.34852 32.78310
#
# Velocity S-wave (km/s) = 4.45102 3.20076 3.87663
# Velocity P-wave (km/s) = 6.30519 5.90161 6.10673
#
# Compressibility (1/GPa) = 0.03436410
#
# Stress axis : x y z
#
# Youngs Moduli (GPa) = 54.31064 219.37052 46.89219
#
# Poissons Ratio (x) = 0.30261 0.11545
# Poissons Ratio (y) = 0.07492 0.05274
# Poissons Ratio (z) = 0.13371 0.24675
#
# Static dielectric constant tensor:
#      x y z
#    x 1.910680 0.000000 0.000000 
#    y 0.000000 1.812750 0.000000 
#    z 0.000000 0.000000 1.699260 
# 
# From -- ./inp_files/16480.got.cif
#   From: 2010.05.17/outbox.cif.g08.bks.cpg/sg54_9_cif.got.tgz:16480.got - 2010.06.03 13:09:01.
