data_PCOD9420518
_publ_section_title
;
Structure prediction by ZEFSAII (Michael W. Deem and Ramdas Pophale) SiO2 
 PCOD9420518
Probable space group: P C C A
;
_chemical_formula_sum "Si O2"
_cell_formula_units_Z 56
_cell_length_a 15.954330
_cell_length_b 8.661170
_cell_length_c 18.669200
_cell_angle_alpha 90.000000
_cell_angle_beta 90.000000
_cell_angle_gamma 90.000000
_cell_volume 2579.769132
_symmetry_space_group_name_H-M "P C C A"
_symmetry_group_IT_number 54
_symmetry_cell_setting 'orthorhombic'
loop_
_space_group_symop_operation_xyz
x,y,z
1/2-x,-y,z
1/2+x,-y,1/2-z
-x,y,1/2-z
-x,-y,-z
1/2+x,y,-z
1/2-x,y,1/2+z
x,-y,1/2+z
loop_
_atom_site_type_symbol
_atom_site_label
_atom_site_fract_x
_atom_site_fract_y
_atom_site_fract_z
Si Si1 0.500000 0.913540 0.250000
Si Si2 0.360234 0.332834 0.711986
Si Si3 0.554872 0.403952 0.189462
Si Si4 0.525708 0.250976 0.496170
Si Si5 0.434999 0.990785 0.900154
Si Si6 0.082799 0.483262 0.076203
Si Si7 0.233210 0.321082 0.828592
Si Si8 0.250000 0.000000 0.901130
O O1 0.575151 0.810045 0.285200
O O2 0.546228 0.999574 0.184321
O O3 0.404232 0.453439 0.766894
O O4 0.355734 0.407018 0.633404
O O5 0.269545 0.311185 0.747738
O O6 0.500000 0.321398 0.250000
O O7 0.496617 0.467097 0.126594
O O8 0.633557 0.306032 0.165042
O O9 0.545552 0.159384 0.567827
O O10 0.600307 0.359574 0.466744
O O11 0.448776 0.361077 0.518289
O O12 0.498193 0.129996 0.436236
O O13 0.341492 0.961308 0.931505
O O14 0.250000 0.500000 0.854511
O O15 0.270680 0.164957 0.862444
#
# Coordination Sequence:
#
# PCOD9420518 Si02
#       8
#     4   8   8   8   8   8   8   4
#     4  12  18  40  66  94 128 172 212 274 340 386
#     4  10  17  34  62  92 127 166 208 276 327 381
#     4   9  17  33  62  94 125 163 209 274 317 390
#     4  10  22  39  65  94 125 174 224 266 318 418
#     4  11  24  42  66  95 134 170 224 275 336 395
#     4  10  18  36  68  91 122 173 224 259 334 394
#     4  10  22  37  59  97 131 163 214 278 332 385
#     4  12  24  42  64  94 134 176 218 276 334 396
#
# _framework density 21.707369
#
# number of rings (size 3 to 8) (size 9 to 14) (size 15 to 20)
#    0.000    1.714    5.000    0.857    2.000    0.000 
#   12.857    0.000   15.714    3.429    0.000    0.000 
#    0.000    0.000    0.000    0.000    0.000    0.000 
#
# Total GULP energy -311851.933496 kJ/mol
# GULP energy per Si atom -5568.784527 kJ/mol
# Density = 2.165796 g / cm^3
# Si number density = 21.707369 Si / 1000 Ang^3
#
#
#
# Elastic Constant Matrix: (Units=GPa)
#
#
# Indices 1 2 3 4 5 6 
#
# 1 47.2446 -4.0831 -15.2768 0.0000 0.0000 0.0000
# 2 -4.0831 95.1357 17.2965 0.0000 0.0000 0.0000
# 3 -15.2768 17.2965 69.1528 0.0000 0.0000 0.0000
# 4 0.0000 0.0000 0.0000 21.9611 0.0000 0.0000
# 5 0.0000 0.0000 0.0000 0.0000 14.8147 0.0000
# 6 0.0000 0.0000 0.0000 0.0000 0.0000 23.1191
#
#
#
# Elastic Compliance Matrix: (Units=1/GPa)
#
#
# Indices 1 2 3 4 5 6 
#
# 1 0.022795 0.000066 0.005019 0.000000 0.000000 0.000000
# 2 0.000066 0.011012 -0.002740 0.000000 0.000000 0.000000
# 3 0.005019 -0.002740 0.016255 0.000000 0.000000 0.000000
# 4 0.000000 0.000000 0.000000 0.045535 0.000000 0.000000
# 5 0.000000 0.000000 0.000000 0.000000 0.067500 0.000000
# 6 0.000000 0.000000 0.000000 0.000000 0.000000 0.043254
#
#
# Mechanical properties :
#
#
# Convention : Reuss Voigt Hill
#
# Bulk Modulus (GPa) = 18.26395 23.04516 20.65455
# Shear Modulus (GPa) = 22.73631 26.21873 24.47752
#
# Velocity S-wave (km/s) = 3.23987 3.47915 3.36164
# Velocity P-wave (km/s) = 4.73578 5.17481 4.96015
#
# Compressibility (1/GPa) = 0.05475268
#
# Stress axis : x y z
#
# Youngs Moduli (GPa) = 43.86900 90.80788 61.52010
#
# Poissons Ratio (x) = -0.00597 -0.30879
# Poissons Ratio (y) = -0.00289 0.16856
# Poissons Ratio (z) = -0.22019 0.24880
#
# Static dielectric constant tensor:
#      x y z
#    x 1.846700 0.000000 0.000000 
#    y 0.000000 1.890160 0.000000 
#    z 0.000000 0.000000 1.805900 
# 
# From -- ./inp_files/21916.got.cif
#   From: 2010.05.17/outbox.cif.g08.bks.cpg/sg54_11_cif.got.tgz:21916.got - 2010.06.03 13:09:01.
