data_PCOD9420690
_publ_section_title
;
Structure prediction by ZEFSAII (Michael W. Deem and Ramdas Pophale) SiO2 
 PCOD9420690
Probable space group: P C C A
;
_chemical_formula_sum "Si O2"
_cell_formula_units_Z 48
_cell_length_a 9.131850
_cell_length_b 10.044829
_cell_length_c 27.323688
_cell_angle_alpha 90.000000
_cell_angle_beta 90.000000
_cell_angle_gamma 90.000000
_cell_volume 2506.343747
_symmetry_space_group_name_H-M "P C C A"
_symmetry_group_IT_number 54
_symmetry_cell_setting 'orthorhombic'
loop_
_space_group_symop_operation_xyz
x,y,z
1/2-x,-y,z
1/2+x,-y,1/2-z
-x,y,1/2-z
-x,-y,-z
1/2+x,y,-z
1/2-x,y,1/2+z
x,-y,1/2+z
loop_
_atom_site_type_symbol
_atom_site_label
_atom_site_fract_x
_atom_site_fract_y
_atom_site_fract_z
Si Si1 0.631953 0.116044 0.461757
Si Si2 0.575351 0.492909 0.302574
Si Si3 0.885562 0.918168 0.568455
Si Si4 0.423545 0.027423 0.298050
Si Si5 0.558199 0.781161 0.344191
Si Si6 0.899649 0.229673 0.861843
O O1 0.656596 0.157768 0.517936
O O2 0.623111 0.228583 0.420454
O O3 0.750000 0.000000 0.449862
O O4 0.482284 0.037780 0.452934
O O5 0.750000 0.500000 0.294637
O O6 0.500000 0.477216 0.250000
O O7 0.528544 0.629851 0.328840
O O8 0.550297 0.367818 0.338190
O O9 0.976916 0.827270 0.605679
O O10 0.750000 0.000000 0.591088
O O11 0.500000 0.089250 0.250000
O O12 0.493657 0.883036 0.305376
O O13 0.250000 0.000000 0.294238
O O14 0.733438 0.801614 0.344812
O O15 0.486773 0.118101 0.342491
#
# Coordination Sequence:
#
# PCOD9420690 Si02
#       6
#     8   8   8   8   8   8
#     4  10  18  34  59  88 121 157 188 244 294 350
#     4  10  24  42  61  82 115 159 200 241 298 356
#     4  10  20  33  57  92 124 149 194 240 298 350
#     4  12  24  37  58  87 114 145 193 250 298 353
#     4  11  21  39  59  86 118 155 195 244 294 351
#     4  11  21  39  61  85 115 156 200 240 296 350
#
# _framework density 19.151402999999998
#
# number of rings (size 3 to 8) (size 9 to 14) (size 15 to 20)
#    0.000    1.333    3.333    3.000    0.000    4.000 
#    0.000    0.833    0.000    0.000    0.000    0.000 
#    0.000    0.000    0.000    0.000    0.000    0.000 
#
# Total GULP energy -267500.737676 kJ/mol
# GULP energy per Si atom -5572.932035 kJ/mol
# Density = 1.910781 g / cm^3
# Si number density = 19.151403 Si / 1000 Ang^3
#
#
#
# Elastic Constant Matrix: (Units=GPa)
#
#
# Indices 1 2 3 4 5 6 
#
# 1 73.6653 34.6441 12.6521 0.0000 0.0000 0.0000
# 2 34.6441 107.6327 42.6216 0.0000 0.0000 0.0000
# 3 12.6521 42.6216 129.2492 0.0000 0.0000 0.0000
# 4 0.0000 0.0000 0.0000 29.3701 0.0000 0.0000
# 5 0.0000 0.0000 0.0000 0.0000 25.9966 0.0000
# 6 0.0000 0.0000 0.0000 0.0000 0.0000 13.5713
#
#
#
# Elastic Compliance Matrix: (Units=1/GPa)
#
#
# Indices 1 2 3 4 5 6 
#
# 1 0.015999 -0.005210 0.000152 0.000000 0.000000 0.000000
# 2 -0.005210 0.012383 -0.003573 0.000000 0.000000 0.000000
# 3 0.000152 -0.003573 0.008900 0.000000 0.000000 0.000000
# 4 0.000000 0.000000 0.000000 0.034048 0.000000 0.000000
# 5 0.000000 0.000000 0.000000 0.000000 0.038467 0.000000
# 6 0.000000 0.000000 0.000000 0.000000 0.000000 0.073685
#
#
# Mechanical properties :
#
#
# Convention : Reuss Voigt Hill
#
# Bulk Modulus (GPa) = 49.95102 54.48696 52.21899
# Shear Modulus (GPa) = 24.10598 28.49624 26.30111
#
# Velocity S-wave (km/s) = 3.55167 3.86157 3.70986
# Velocity P-wave (km/s) = 6.55423 6.95663 6.75843
#
# Compressibility (1/GPa) = 0.02001961
#
# Stress axis : x y z
#
# Youngs Moduli (GPa) = 62.50419 80.75738 112.35327
#
# Poissons Ratio (x) = 0.42073 -0.01706
# Poissons Ratio (y) = 0.32563 0.40148
# Poissons Ratio (z) = -0.00949 0.28858
#
# Static dielectric constant tensor:
#      x y z
#    x 1.024470 0.000000 0.000000 
#    y 0.000000 1.654470 0.000000 
#    z 0.000000 0.000000 1.814800 
# 
# From -- ./inp_files/26184.got.cif
#   From: 2010.05.17/outbox.cif.g08.bks.cpg/sg54_14_cif.got.tgz:26184.got - 2010.06.03 13:09:01.
