data_PCOD9420785
_publ_section_title
;
Structure prediction by ZEFSAII (Michael W. Deem and Ramdas Pophale) SiO2 
 PCOD9420785
Probable space group: P C C A
;
_chemical_formula_sum "Si O2"
_cell_formula_units_Z 32
_cell_length_a 5.080189
_cell_length_b 13.918132
_cell_length_c 23.628683
_cell_angle_alpha 90.000000
_cell_angle_beta 90.000000
_cell_angle_gamma 90.000000
_cell_volume 1670.707171
_symmetry_space_group_name_H-M "P C C A"
_symmetry_group_IT_number 54
_symmetry_cell_setting 'orthorhombic'
loop_
_space_group_symop_operation_xyz
x,y,z
1/2-x,-y,z
1/2+x,-y,1/2-z
-x,y,1/2-z
-x,-y,-z
1/2+x,y,-z
1/2-x,y,1/2+z
x,-y,1/2+z
loop_
_atom_site_type_symbol
_atom_site_label
_atom_site_fract_x
_atom_site_fract_y
_atom_site_fract_z
Si Si1 0.500610 0.929994 0.373674
Si Si2 0.965899 0.240170 0.037793
Si Si3 0.000000 0.069763 0.250000
Si Si4 0.015719 0.437189 0.396349
Si Si5 0.750000 0.500000 0.212858
O O1 0.507144 0.850561 0.421757
O O2 0.497061 0.880430 0.311147
O O3 0.750000 0.000000 0.377207
O O4 0.250000 0.000000 0.378791
O O5 0.017508 0.337723 0.072221
O O6 0.671264 0.237909 0.013685
O O7 0.250000 0.000000 0.249721
O O8 0.750000 0.500000 0.394564
O O9 0.250000 0.500000 0.424692
O O10 0.126085 0.424222 0.332049
O O11 0.500000 0.467119 0.250000
#
# Coordination Sequence:
#
# PCOD9420785 Si02
#       5
#     8   8   4   8   4
#     4  10  21  40  62  87 122 156 200 254 312 359
#     4  12  26  40  61  90 123 162 214 252 292 369
#     4   8  16  34  60  82 110 150 190 244 300 362
#     4  10  22  40  61  89 121 160 202 245 309 350
#     4  10  18  38  64  88 122 158 194 250 304 366
#
# _framework density 19.153566999999999
#
# number of rings (size 3 to 8) (size 9 to 14) (size 15 to 20)
#    0.750    1.000    1.250    3.000    0.000    6.000 
#    2.250    0.000   11.000    0.000    0.000    0.000 
#    0.000    0.000    0.000    0.000    0.000    0.000 
#
# Total GULP energy -178350.736043 kJ/mol
# GULP energy per Si atom -5573.460501 kJ/mol
# Density = 1.910997 g / cm^3
# Si number density = 19.153567 Si / 1000 Ang^3
#
#
#
# Elastic Constant Matrix: (Units=GPa)
#
#
# Indices 1 2 3 4 5 6 
#
# 1 126.3632 25.7253 4.1463 0.0000 0.0000 0.0000
# 2 25.7253 88.2443 49.3641 0.0000 0.0000 0.0000
# 3 4.1463 49.3641 78.9736 0.0000 0.0000 0.0000
# 4 0.0000 0.0000 0.0000 24.1714 0.0000 0.0000
# 5 0.0000 0.0000 0.0000 0.0000 28.9612 0.0000
# 6 0.0000 0.0000 0.0000 0.0000 0.0000 24.2492
#
#
#
# Elastic Compliance Matrix: (Units=1/GPa)
#
#
# Indices 1 2 3 4 5 6 
#
# 1 0.008560 -0.003451 0.001707 0.000000 0.000000 0.000000
# 2 -0.003451 0.018816 -0.011580 0.000000 0.000000 0.000000
# 3 0.001707 -0.011580 0.019811 0.000000 0.000000 0.000000
# 4 0.000000 0.000000 0.000000 0.041371 0.000000 0.000000
# 5 0.000000 0.000000 0.000000 0.000000 0.034529 0.000000
# 6 0.000000 0.000000 0.000000 0.000000 0.000000 0.041238
#
#
# Mechanical properties :
#
#
# Convention : Reuss Voigt Hill
#
# Bulk Modulus (GPa) = 48.68375 50.22805 49.45590
# Shear Modulus (GPa) = 25.27552 29.76608 27.52080
#
# Velocity S-wave (km/s) = 3.63660 3.94645 3.79469
# Velocity P-wave (km/s) = 6.56551 6.85906 6.71389
#
# Compressibility (1/GPa) = 0.02054073
#
# Stress axis : x y z
#
# Youngs Moduli (GPa) = 116.82021 53.14584 50.47628
#
# Poissons Ratio (x) = 0.18339 -0.08619
# Poissons Ratio (y) = 0.40311 0.58453
# Poissons Ratio (z) = -0.19947 0.61544
#
# Static dielectric constant tensor:
#      x y z
#    x 1.636220 0.000000 0.000000 
#    y 0.000000 1.611970 0.000000 
#    z 0.000000 0.000000 1.724320 
# 
# From -- ./inp_files/22654.got.cif
#   From: 2010.05.17/outbox.cif.g08.bks.cpg/sg54_12_cif.got.tgz:22654.got - 2010.06.03 13:09:01.
