data_PCOD9420907
_publ_section_title
;
Structure prediction by ZEFSAII (Michael W. Deem and Ramdas Pophale) SiO2 
 PCOD9420907
Probable space group: P C C A
;
_chemical_formula_sum "Si O2"
_cell_formula_units_Z 32
_cell_length_a 5.197532
_cell_length_b 17.875901
_cell_length_c 13.212294
_cell_angle_alpha 90.000000
_cell_angle_beta 90.000000
_cell_angle_gamma 90.000000
_cell_volume 1227.561733
_symmetry_space_group_name_H-M "P C C A"
_symmetry_group_IT_number 54
_symmetry_cell_setting 'orthorhombic'
loop_
_space_group_symop_operation_xyz
x,y,z
1/2-x,-y,z
1/2+x,-y,1/2-z
-x,y,1/2-z
-x,-y,-z
1/2+x,y,-z
1/2-x,y,1/2+z
x,-y,1/2+z
loop_
_atom_site_type_symbol
_atom_site_label
_atom_site_fract_x
_atom_site_fract_y
_atom_site_fract_z
Si Si1 0.008061 0.451440 0.871921
Si Si2 0.850492 0.144307 0.611096
Si Si3 0.355016 0.083435 0.617471
Si Si4 0.742868 0.303222 0.178040
O O1 0.250000 0.500000 0.901254
O O2 0.121059 0.368021 0.895445
O O3 0.750000 0.500000 0.896125
O O4 0.000000 0.447098 0.750000
O O5 0.640974 0.089753 0.660445
O O6 0.897144 0.111893 0.498486
O O7 0.724915 0.226464 0.616709
O O8 0.135600 0.139364 0.656418
O O9 0.250000 0.000000 0.619054
O O10 0.500000 0.289090 0.250000
O O11 0.000000 0.321263 0.250000
#
# Coordination Sequence:
#
# PCOD9420907 Si02
#       4
#     8   8   8   8
#     4   9  16  28  46  67  93 130 170 201 231 282
#     4  10  19  32  53  79 102 132 172 221 269 303
#     4  10  19  35  59  77  94 130 186 238 256 281
#     4  11  21  33  50  77 113 142 163 204 268 328
#
# _framework density 26.067934000000001
#
# number of rings (size 3 to 8) (size 9 to 14) (size 15 to 20)
#    0.000    2.000    0.000    9.000    0.000    0.000 
#    0.000    0.000    0.000   25.500    0.000   21.000 
#    0.000    0.000    0.000   34.500    0.000    0.000 
#
# Total GULP energy -178263.818315 kJ/mol
# GULP energy per Si atom -5570.744322 kJ/mol
# Density = 2.600860 g / cm^3
# Si number density = 26.067934 Si / 1000 Ang^3
#
#
#
# Elastic Constant Matrix: (Units=GPa)
#
#
# Indices 1 2 3 4 5 6 
#
# 1 231.9675 42.7230 -3.8150 0.0000 0.0000 0.0000
# 2 42.7230 202.8772 -6.2522 0.0000 0.0000 0.0000
# 3 -3.8150 -6.2522 47.2845 0.0000 0.0000 0.0000
# 4 0.0000 0.0000 0.0000 2.2149 0.0000 0.0000
# 5 0.0000 0.0000 0.0000 0.0000 61.7683 0.0000
# 6 0.0000 0.0000 0.0000 0.0000 0.0000 50.8372
#
#
#
# Elastic Compliance Matrix: (Units=1/GPa)
#
#
# Indices 1 2 3 4 5 6 
#
# 1 0.004488 -0.000938 0.000238 0.000000 0.000000 0.000000
# 2 -0.000938 0.005145 0.000605 0.000000 0.000000 0.000000
# 3 0.000238 0.000605 0.021248 0.000000 0.000000 0.000000
# 4 0.000000 0.000000 0.000000 0.451491 0.000000 0.000000
# 5 0.000000 0.000000 0.000000 0.000000 0.016190 0.000000
# 6 0.000000 0.000000 0.000000 0.000000 0.000000 0.019671
#
#
# Mechanical properties :
#
#
# Convention : Reuss Voigt Hill
#
# Bulk Modulus (GPa) = 32.58325 60.82675 46.70500
# Shear Modulus (GPa) = 9.45802 52.92896 31.19349
#
# Velocity S-wave (km/s) = 1.90686 4.51091 3.46298
# Velocity P-wave (km/s) = 4.16829 7.10744 5.82625
#
# Compressibility (1/GPa) = 0.03069062
#
# Stress axis : x y z
#
# Youngs Moduli (GPa) = 222.83809 194.35639 47.06385
#
# Poissons Ratio (x) = 0.18224 -0.01120
# Poissons Ratio (y) = 0.20895 -0.02846
# Poissons Ratio (z) = -0.05305 -0.11752
#
# Static dielectric constant tensor:
#      x y z
#    x 2.117920 0.000000 0.000000 
#    y 0.000000 2.541570 0.000000 
#    z 0.000000 0.000000 3.421170 
# 
# From -- ./inp_files/10736.got.cif
#   From: 2010.05.17/outbox.cif.g08.bks.cpg/sg54_6_cif.got.tgz:10736.got - 2010.06.03 13:09:01.
