data_PCOD9420307
_publ_section_title
;
Structure prediction by ZEFSAII (Michael W. Deem and Ramdas Pophale) SiO2 
 PCOD9420307
Probable space group: P C C A
;
_chemical_formula_sum "Si O2"
_cell_formula_units_Z 56
_cell_length_a 14.785274
_cell_length_b 34.299119
_cell_length_c 5.231685
_cell_angle_alpha 90.000000
_cell_angle_beta 90.000000
_cell_angle_gamma 90.000000
_cell_volume 2653.101893
_symmetry_space_group_name_H-M "P C C A"
_symmetry_group_IT_number 54
_symmetry_cell_setting 'orthorhombic'
loop_
_space_group_symop_operation_xyz
x,y,z
1/2-x,-y,z
1/2+x,-y,1/2-z
-x,y,1/2-z
-x,-y,-z
1/2+x,y,-z
1/2-x,y,1/2+z
x,-y,1/2+z
loop_
_atom_site_type_symbol
_atom_site_label
_atom_site_fract_x
_atom_site_fract_y
_atom_site_fract_z
Si Si1 0.109043 0.022572 0.251265
Si Si2 0.645006 0.484346 0.198908
Si Si3 0.190310 0.399853 0.642252
Si Si4 0.109068 0.188159 0.248139
Si Si5 0.809258 0.317329 0.747602
Si Si6 0.608647 0.233207 0.251621
Si Si7 0.805213 0.105396 0.369733
O O1 0.142053 0.065796 0.191793
O O2 0.000000 0.022660 0.250000
O O3 0.139511 0.006554 0.525837
O O4 0.750000 0.500000 0.165807
O O5 0.604721 0.511182 0.419391
O O6 0.641769 0.440313 0.298205
O O7 0.228285 0.400151 0.353660
O O8 0.141959 0.358679 0.697913
O O9 0.140818 0.205721 0.517291
O O10 0.140638 0.144514 0.195248
O O11 0.000000 0.188470 0.250000
O O12 0.140511 0.216089 0.018388
O O13 0.770650 0.317324 0.459829
O O14 0.863028 0.277705 0.789168
O O15 0.500000 0.231563 0.250000
O O16 0.777313 0.105650 0.666723
#
# Coordination Sequence:
#
# PCOD9420307 Si02
#       7
#     8   8   8   8   8   8   8
#     4  10  22  41  63  84 113 156 196 226 263 318
#     4  10  14  20  34  52  78 120 153 189 235 290
#     4  10  16  25  36  58  89 122 155 193 245 302
#     4  10  22  40  60  79 106 141 180 223 260 315
#     4  10  21  32  49  73 104 134 161 211 263 314
#     4  10  21  38  58  78 101 138 181 216 260 315
#     4  12  25  38  58  90 119 146 178 227 279 322
#
# _framework density 21.107368999999998
#
# number of rings (size 3 to 8) (size 9 to 14) (size 15 to 20)
#    0.000    1.714    2.857    3.000    0.000    5.143 
#    0.000    5.714    0.000    0.000    0.000    0.000 
#    0.000    1.143    0.000    0.000    0.000    5.714 
#
# Total GULP energy -312756.351928 kJ/mol
# GULP energy per Si atom -5584.934856 kJ/mol
# Density = 2.105933 g / cm^3
# Si number density = 21.107369 Si / 1000 Ang^3
#
#
#
# Elastic Constant Matrix: (Units=GPa)
#
#
# Indices 1 2 3 4 5 6 
#
# 1 28.2275 -4.0869 -6.8087 0.0000 0.0000 0.0000
# 2 -4.0869 108.5402 -19.3546 0.0000 0.0000 0.0000
# 3 -6.8087 -19.3546 85.0794 0.0000 0.0000 0.0000
# 4 0.0000 0.0000 0.0000 -196.0581 0.0000 0.0000
# 5 0.0000 0.0000 0.0000 0.0000 3.1197 0.0000
# 6 0.0000 0.0000 0.0000 0.0000 0.0000-2328.1056
#
#
#
# Elastic Compliance Matrix: (Units=1/GPa)
#
#
# Indices 1 2 3 4 5 6 
#
# 1 0.036526 0.001977 0.003373 0.000000 0.000000 0.000000
# 2 0.001977 0.009710 0.002367 0.000000 0.000000 0.000000
# 3 0.003373 0.002367 0.012562 0.000000 0.000000 0.000000
# 4 0.000000 0.000000 0.000000 -0.005101 0.000000 0.000000
# 5 0.000000 0.000000 0.000000 0.000000 0.320542 0.000000
# 6 0.000000 0.000000 0.000000 0.000000 0.000000 -0.000430
#
#
# Mechanical properties :
#
#
# Convention : Reuss Voigt Hill
#
# Bulk Modulus (GPa) = 13.47144 17.92742 15.69943
# Shear Modulus (GPa) = 13.05073 -487.40233 -237.17580
#
# Velocity S-wave (km/s) = 2.48927 -15.21240 -10.61180
# Velocity P-wave (km/s) = 3.82859 17.32178 11.94542
#
# Compressibility (1/GPa) = 0.07423110
#
# Stress axis : x y z
#
# Youngs Moduli (GPa) = 27.37764 102.98989 79.60439
#
# Poissons Ratio (x) = -0.20359 -0.26849
# Poissons Ratio (y) = -0.05412 -0.18843
# Poissons Ratio (z) = -0.09234 -0.24378
#
# Static dielectric constant tensor:
#      x y z
#    x 1.802040 0.000000 0.000000 
#    y 0.000000 1.743890 0.000000 
#    z 0.000000 0.000000 1.771360 
# 
# From -- ./inp_files/703.got.cif
#   From: 2010.05.17/outbox.cif.g08.bks.cpg/sg54_1_cif.got.tgz:703.got - 2010.06.03 13:09:01.
