data_PCOD9420501
_publ_section_title
;
Structure prediction by ZEFSAII (Michael W. Deem and Ramdas Pophale) SiO2 
 PCOD9420501
Probable space group: P C C A
;
_chemical_formula_sum "Si O2"
_cell_formula_units_Z 40
_cell_length_a 16.649645
_cell_length_b 5.005488
_cell_length_c 25.100357
_cell_angle_alpha 90.000000
_cell_angle_beta 90.000000
_cell_angle_gamma 90.000000
_cell_volume 2091.853668
_symmetry_space_group_name_H-M "P C C A"
_symmetry_group_IT_number 54
_symmetry_cell_setting 'orthorhombic'
loop_
_space_group_symop_operation_xyz
x,y,z
1/2-x,-y,z
1/2+x,-y,1/2-z
-x,y,1/2-z
-x,-y,-z
1/2+x,y,-z
1/2-x,y,1/2+z
x,-y,1/2+z
loop_
_atom_site_type_symbol
_atom_site_label
_atom_site_fract_x
_atom_site_fract_y
_atom_site_fract_z
Si Si1 0.162219 0.125767 0.214998
Si Si2 0.559068 0.750287 0.504167
Si Si3 0.411807 0.381975 0.267032
Si Si4 0.074998 0.707119 0.610793
Si Si5 0.039132 0.207873 0.881057
O O1 0.148509 0.377406 0.254025
O O2 0.138247 0.232987 0.156780
O O3 0.250000 0.000000 0.216730
O O4 0.105121 0.880520 0.231912
O O5 0.500000 0.500000 0.500000
O O6 0.608592 0.746451 0.449279
O O7 0.590701 0.757830 0.564548
O O8 0.500000 0.000000 0.500000
O O9 0.500000 0.485279 0.250000
O O10 0.413985 0.285566 0.327893
O O11 0.035930 0.414525 0.615573
O O12 0.000925 0.914879 0.619701
#
# Coordination Sequence:
#
# PCOD9420501 Si02
#       5
#     8   8   8   8   8
#     4  12  24  36  52  81 115 151 184 230 291 342
#     4   8  16  27  46  75 103 128 165 220 273 313
#     4  12  21  36  57  79 110 148 194 232 277 337
#     4  10  17  32  50  75 109 136 174 226 277 330
#     4  10  18  30  53  79 102 136 180 231 270 314
#
# _framework density 19.121796
#
# number of rings (size 3 to 8) (size 9 to 14) (size 15 to 20)
#    0.000    1.600    4.000    2.400    0.000    0.000 
#    0.000    0.000    0.000    1.200    0.000   11.200 
#    0.000    0.000    0.000    0.000    0.000    0.000 
#
# Total GULP energy -223035.126485 kJ/mol
# GULP energy per Si atom -5575.878162 kJ/mol
# Density = 1.907827 g / cm^3
# Si number density = 19.121796 Si / 1000 Ang^3
#
#
#
# Elastic Constant Matrix: (Units=GPa)
#
#
# Indices 1 2 3 4 5 6 
#
# 1 30.0873 -2.6459 23.6161 0.0000 0.0000 0.0000
# 2 -2.6459 87.8103 -3.9243 0.0000 0.0000 0.0000
# 3 23.6161 -3.9243 160.8822 0.0000 0.0000 0.0000
# 4 0.0000 0.0000 0.0000 26.0080 0.0000 0.0000
# 5 0.0000 0.0000 0.0000 0.0000 9.1659 0.0000
# 6 0.0000 0.0000 0.0000 0.0000 0.0000 18.9417
#
#
#
# Elastic Compliance Matrix: (Units=1/GPa)
#
#
# Indices 1 2 3 4 5 6 
#
# 1 0.037634 0.000888 -0.005503 0.000000 0.000000 0.000000
# 2 0.000888 0.011422 0.000148 0.000000 0.000000 0.000000
# 3 -0.005503 0.000148 0.007027 0.000000 0.000000 0.000000
# 4 0.000000 0.000000 0.000000 0.038450 0.000000 0.000000
# 5 0.000000 0.000000 0.000000 0.000000 0.109100 0.000000
# 6 0.000000 0.000000 0.000000 0.000000 0.000000 0.052793
#
#
# Mechanical properties :
#
#
# Convention : Reuss Voigt Hill
#
# Bulk Modulus (GPa) = 21.20898 34.76350 27.98624
# Shear Modulus (GPa) = 17.78888 28.27207 23.03048
#
# Velocity S-wave (km/s) = 3.05338 3.84933 3.47423
# Velocity P-wave (km/s) = 4.85247 6.16247 5.54628
#
# Compressibility (1/GPa) = 0.04714983
#
# Stress axis : x y z
#
# Youngs Moduli (GPa) = 26.57183 87.55360 142.30656
#
# Poissons Ratio (x) = -0.07775 0.78306
# Poissons Ratio (y) = -0.02360 -0.02110
# Poissons Ratio (z) = 0.14622 -0.01298
#
# Static dielectric constant tensor:
#      x y z
#    x 1.702990 0.000000 0.000000 
#    y 0.000000 1.658890 0.000000 
#    z 0.000000 0.000000 1.772010 
# 
# From -- ./inp_files/24324.got.cif
#   From: 2010.05.17/outbox.cif.g08.bks.cpg/sg54_13_cif.got.tgz:24324.got - 2010.06.03 13:09:01.
