data_PCOD9420581
_publ_section_title
;
Structure prediction by ZEFSAII (Michael W. Deem and Ramdas Pophale) SiO2 
 PCOD9420581
Probable space group: P C C A
;
_chemical_formula_sum "Si O2"
_cell_formula_units_Z 24
_cell_length_a 5.000381
_cell_length_b 6.901590
_cell_length_c 23.764765
_cell_angle_alpha 90.000000
_cell_angle_beta 90.000000
_cell_angle_gamma 90.000000
_cell_volume 820.135812
_symmetry_space_group_name_H-M "P C C A"
_symmetry_group_IT_number 54
_symmetry_cell_setting 'orthorhombic'
loop_
_space_group_symop_operation_xyz
x,y,z
1/2-x,-y,z
1/2+x,-y,1/2-z
-x,y,1/2-z
-x,-y,-z
1/2+x,y,-z
1/2-x,y,1/2+z
x,-y,1/2+z
loop_
_atom_site_type_symbol
_atom_site_label
_atom_site_fract_x
_atom_site_fract_y
_atom_site_fract_z
Si Si1 0.659985 0.276259 0.525440
Si Si2 0.682175 0.768978 0.695390
Si Si3 0.685612 0.771736 0.362486
O O1 0.750000 0.500000 0.516092
O O2 0.457699 0.189699 0.478141
O O3 0.482864 0.259687 0.581150
O O4 0.500000 0.738285 0.750000
O O5 0.485679 0.695072 0.645398
O O6 0.982227 0.695529 0.685783
O O7 0.750000 0.000000 0.693416
O O8 0.750000 0.000000 0.355858
#
# Coordination Sequence:
#
# PCOD9420581 Si02
#       3
#     8   8   8
#     4  10  21  37  55  75 103 143 186 228 283 346
#     4  10  18  31  51  78 111 143 176 220 280 345
#     4  10  20  32  52  81 108 139 182 231 281 335
#
# _framework density 29.263444
#
# number of rings (size 3 to 8) (size 9 to 14) (size 15 to 20)
#    0.000    2.000    0.000    6.000    0.000    1.333 
#    0.000    0.000    0.000    4.000    0.000    0.000 
#    0.000    0.000    0.000    0.000    0.000    0.000 
#
# Total GULP energy -134053.588391 kJ/mol
# GULP energy per Si atom -5585.566183 kJ/mol
# Density = 2.919684 g / cm^3
# Si number density = 29.263444 Si / 1000 Ang^3
#
#
#
# Elastic Constant Matrix: (Units=GPa)
#
#
# Indices 1 2 3 4 5 6 
#
# 1 288.0042 47.5811 94.0795 0.0000 0.0000 0.0000
# 2 47.5811 135.7532 3.9016 0.0000 0.0000 0.0000
# 3 94.0795 3.9016 173.4575 0.0000 0.0000 0.0000
# 4 0.0000 0.0000 0.0000 16.6172 0.0000 0.0000
# 5 0.0000 0.0000 0.0000 0.0000 53.9403 0.0000
# 6 0.0000 0.0000 0.0000 0.0000 0.0000 -7.2135
#
#
#
# Elastic Compliance Matrix: (Units=1/GPa)
#
#
# Indices 1 2 3 4 5 6 
#
# 1 0.004510 -0.001511 -0.002412 0.000000 0.000000 0.000000
# 2 -0.001511 0.007878 0.000643 0.000000 0.000000 0.000000
# 3 -0.002412 0.000643 0.007059 0.000000 0.000000 0.000000
# 4 0.000000 0.000000 0.000000 0.060179 0.000000 0.000000
# 5 0.000000 0.000000 0.000000 0.000000 0.018539 0.000000
# 6 0.000000 0.000000 0.000000 0.000000 0.000000 -0.138630
#
#
# Mechanical properties :
#
#
# Convention : Reuss Voigt Hill
#
# Bulk Modulus (GPa) = 77.61225 98.70435 88.15830
# Shear Modulus (GPa) = -168.86635 42.77899 -63.04368
#
# Velocity S-wave (km/s) = -7.60466 3.82757 -4.64653
# Velocity P-wave (km/s) = 7.10833 7.30319 1.18496
#
# Compressibility (1/GPa) = 0.01288456
#
# Stress axis : x y z
#
# Youngs Moduli (GPa) = 221.74106 126.94285 141.66584
#
# Poissons Ratio (x) = 0.19185 0.34170
# Poissons Ratio (y) = 0.33513 -0.09102
# Poissons Ratio (z) = 0.53484 -0.08156
#
# Static dielectric constant tensor:
#      x y z
#    x 2.218850 0.000000 0.000000 
#    y 0.000000 2.455310 0.000000 
#    z 0.000000 0.000000 2.466400 
# 
# From -- ./inp_files/24984.got.cif
#   From: 2010.05.17/outbox.cif.g08.bks.cpg/sg54_13_cif.got.tgz:24984.got - 2010.06.03 13:09:01.
