data_PCOD9420159
_publ_section_title
;
Structure prediction by ZEFSAII (Michael W. Deem and Ramdas Pophale) SiO2 
 PCOD9420159
Probable space group: P M N A
;
_chemical_formula_sum "Si O2"
_cell_formula_units_Z 64
_cell_length_a 9.000000
_cell_length_b 15.000000
_cell_length_c 24.000000
_cell_angle_alpha 90.000000
_cell_angle_beta 90.000000
_cell_angle_gamma 90.000000
_cell_volume 3240.000000
_symmetry_space_group_name_H-M "P M N A"
_symmetry_group_IT_number 53
_symmetry_cell_setting 'orthorhombic'
loop_
_space_group_symop_operation_xyz
x,y,z
1/2-x,-y,1/2+z
x,-y,-z
1/2-x,y,1/2-z
-x,-y,-z
1/2+x,y,1/2-z
-x,y,z
1/2+x,-y,1/2+z
loop_
_atom_site_type_symbol
_atom_site_label
_atom_site_fract_x
_atom_site_fract_y
_atom_site_fract_z
Si Si1 0.321917 0.740184 0.190808
Si Si2 0.177405 0.417053 0.370034
Si Si3 0.823541 0.600041 0.109059
Si Si4 0.321818 0.745246 0.691590
Si Si5 0.672237 0.356307 0.003202
Si Si6 0.173952 0.856905 0.494250
Si Si7 0.677876 0.082042 0.870742
Si Si8 0.675888 0.095260 0.391832
O O1 0.250000 0.717361 0.250000
O O2 0.500000 0.729120 0.192280
O O3 0.254171 0.680707 0.141606
O O4 0.287155 0.841853 0.173739
O O5 0.257699 0.510962 0.364134
O O6 0.247715 0.346430 0.328096
O O7 0.204694 0.385273 0.433853
O O8 0.000000 0.423816 0.362437
O O9 0.000000 0.604892 0.113868
O O10 0.774430 0.602210 0.044395
O O11 0.250000 0.773234 0.750000
O O12 0.500000 0.737275 0.696647
O O13 0.287803 0.816387 0.643087
O O14 0.500000 0.380155 0.990753
O O15 0.686752 0.249725 0.999025
O O16 0.224153 0.885909 0.432866
O O17 0.259040 0.899191 0.545992
O O18 0.000000 0.880292 0.499787
O O19 0.500000 0.071397 0.871893
O O20 0.755370 0.988869 0.860578
O O21 0.500000 0.086856 0.395050
#
# Coordination Sequence:
#
# PCOD9420159 Si02
#       8
#     8   8   8   8   8   8   8   8
#     4  11  24  45  67  91 122 161 211 261 310 365
#     4  11  23  41  67  94 124 164 206 253 307 369
#     4  12  25  40  63  95 130 166 203 252 308 366
#     4  11  25  44  64  89 122 161 208 259 309 364
#     4  10  20  38  64  93 126 165 206 248 305 371
#     4  10  19  37  63  91 123 164 206 244 303 373
#     4  10  22  40  64  90 123 164 205 249 301 369
#     4  11  24  39  60  93 129 160 200 256 310 363
#
# _framework density 19.753086
#
# number of rings (size 3 to 8) (size 9 to 14) (size 15 to 20)
#    0.000    1.250    2.500    3.375    0.000    8.500 
#    0.000    5.000    0.000    0.000    0.000    0.000 
#    0.000    0.000    0.000    0.000    0.000    0.000 
#
# Total GULP energy -357882.278254 kJ/mol
# GULP energy per Si atom -5591.910598 kJ/mol
# Density = 1.970813 g / cm^3
# Si number density = 19.753086 Si / 1000 Ang^3
#
#
#
# Elastic Constant Matrix: (Units=GPa)
#
#
# Indices 1 2 3 4 5 6 
#
# 1 45.4875 22.1402 20.9073 0.0000 0.0000 0.0000
# 2 22.1402 62.6858 -16.7818 0.0000 0.0000 0.0000
# 3 20.9073 -16.7818 49.0565 0.0000 0.0000 0.0000
# 4 0.0000 0.0000 0.0000 9.8783 0.0000 0.0000
# 5 0.0000 0.0000 0.0000 0.0000 2.6175 0.0000
# 6 0.0000 0.0000 0.0000 0.0000 0.0000 26.4760
#
#
#
# Elastic Compliance Matrix: (Units=1/GPa)
#
#
# Indices 1 2 3 4 5 6 
#
# 1 0.046492 -0.023915 -0.027996 0.000000 0.000000 0.000000
# 2 -0.023915 0.029863 0.020408 0.000000 0.000000 0.000000
# 3 -0.027996 0.020408 0.039297 0.000000 0.000000 0.000000
# 4 0.000000 0.000000 0.000000 0.101232 0.000000 0.000000
# 5 0.000000 0.000000 0.000000 0.000000 0.382042 0.000000
# 6 0.000000 0.000000 0.000000 0.000000 0.000000 0.037770
#
#
# Mechanical properties :
#
#
# Convention : Reuss Voigt Hill
#
# Bulk Modulus (GPa) = 18.99446 23.30682 21.15064
# Shear Modulus (GPa) = 6.97106 16.52530 11.74818
#
# Velocity S-wave (km/s) = 1.88063 2.89553 2.44140
# Velocity P-wave (km/s) = 3.78847 4.79620 4.32180
#
# Compressibility (1/GPa) = 0.05264694
#
# Stress axis : x y z
#
# Youngs Moduli (GPa) = 21.50909 33.48636 25.44694
#
# Poissons Ratio (x) = 0.80084 0.71240
# Poissons Ratio (y) = 0.51440 -0.51933
# Poissons Ratio (z) = 0.60216 -0.68340
#
# Static dielectric constant tensor:
#      x y z
#    x 1.653100 0.000000 0.000000 
#    y 0.000000 1.720700 0.000000 
#    z 0.000000 0.000000 1.672330 
# 
# From -- ./inp_files/34180.got.cif
#   From: 2010.05.17/outbox.ucp.g08.bks.cvg/sg53_18_cif.got.tgz:34180.got - 2010.06.11 16:32:34.
