data_PCOD9420748
_publ_section_title
;
Structure prediction by ZEFSAII (Michael W. Deem and Ramdas Pophale) SiO2 
 PCOD9420748
Probable space group: P C C A
;
_chemical_formula_sum "Si O2"
_cell_formula_units_Z 48
_cell_length_a 17.041069
_cell_length_b 8.183761
_cell_length_c 17.054915
_cell_angle_alpha 90.000000
_cell_angle_beta 90.000000
_cell_angle_gamma 90.000000
_cell_volume 2378.479058
_symmetry_space_group_name_H-M "P C C A"
_symmetry_group_IT_number 54
_symmetry_cell_setting 'orthorhombic'
loop_
_space_group_symop_operation_xyz
x,y,z
1/2-x,-y,z
1/2+x,-y,1/2-z
-x,y,1/2-z
-x,-y,-z
1/2+x,y,-z
1/2-x,y,1/2+z
x,-y,1/2+z
loop_
_atom_site_type_symbol
_atom_site_label
_atom_site_fract_x
_atom_site_fract_y
_atom_site_fract_z
Si Si1 0.151642 0.789531 0.664913
Si Si2 0.344903 0.463169 0.251515
Si Si3 0.172935 0.272115 0.600782
Si Si4 0.329862 0.249585 0.388697
Si Si5 0.750000 0.500000 0.502054
Si Si6 0.750000 0.000000 0.726182
Si Si7 0.088062 0.038872 0.022467
O O1 0.125764 0.635963 0.717492
O O2 0.235004 0.759449 0.620106
O O3 0.177577 0.937700 0.721410
O O4 0.092564 0.841072 0.597325
O O5 0.250000 0.500000 0.257466
O O6 0.361091 0.327411 0.184440
O O7 0.372325 0.386480 0.333969
O O8 0.177322 0.437048 0.549498
O O9 0.134505 0.122779 0.553867
O O10 0.273218 0.349773 0.444765
O O11 0.375359 0.126762 0.446036
O O12 0.279452 0.145994 0.327488
O O13 0.000000 0.000000 0.000000
#
# Coordination Sequence:
#
# PCOD9420748 Si02
#       7
#     8   8   8   8   4   4   8
#     4  11  19  39  66  92 119 170 214 270 330 373
#     4  10  18  36  62  94 120 148 213 281 330 360
#     4  11  19  39  64  89 118 169 210 263 321 381
#     4  12  22  35  59 101 124 157 212 282 316 360
#     4  12  20  34  66  96 126 148 222 284 314 358
#     4  12  20  34  68  96 126 152 224 284 318 358
#     4  12  26  41  60  94 142 176 207 248 329 412
#
# _framework density 20.180963999999999
#
# number of rings (size 3 to 8) (size 9 to 14) (size 15 to 20)
#    0.000    0.667   10.000    1.000    0.000    0.000 
#    0.000    6.667    0.000    2.000    0.000    0.000 
#    0.000    0.000    0.000    0.000    0.000    0.000 
#
# Total GULP energy -267721.296900 kJ/mol
# GULP energy per Si atom -5577.527019 kJ/mol
# Density = 2.013503 g / cm^3
# Si number density = 20.180964 Si / 1000 Ang^3
#
#
#
# Elastic Constant Matrix: (Units=GPa)
#
#
# Indices 1 2 3 4 5 6 
#
# 1 25.0575 9.6729 7.2651 0.0000 0.0000 0.0000
# 2 9.6729 100.4846 35.7309 0.0000 0.0000 0.0000
# 3 7.2651 35.7309 119.1357 0.0000 0.0000 0.0000
# 4 0.0000 0.0000 0.0000 65.2247 0.0000 0.0000
# 5 0.0000 0.0000 0.0000 0.0000 -2.3633 0.0000
# 6 0.0000 0.0000 0.0000 0.0000 0.0000 9.3371
#
#
#
# Elastic Compliance Matrix: (Units=1/GPa)
#
#
# Indices 1 2 3 4 5 6 
#
# 1 0.041686 -0.003480 -0.001498 0.000000 0.000000 0.000000
# 2 -0.003480 0.011430 -0.003216 0.000000 0.000000 0.000000
# 3 -0.001498 -0.003216 0.009450 0.000000 0.000000 0.000000
# 4 0.000000 0.000000 0.000000 0.015332 0.000000 0.000000
# 5 0.000000 0.000000 0.000000 0.000000 -0.423129 0.000000
# 6 0.000000 0.000000 0.000000 0.000000 0.000000 0.107100
#
#
# Mechanical properties :
#
#
# Convention : Reuss Voigt Hill
#
# Bulk Modulus (GPa) = 21.65559 38.89061 30.27310
# Shear Modulus (GPa) = -24.23056 27.24029 1.50486
#
# Velocity S-wave (km/s) = -3.46882 3.67795 0.86447
# Velocity P-wave (km/s) = 2.29992 6.11140 4.00372
#
# Compressibility (1/GPa) = 0.04617746
#
# Stress axis : x y z
#
# Youngs Moduli (GPa) = 23.98882 87.48673 105.82375
#
# Poissons Ratio (x) = 0.30445 0.15856
# Poissons Ratio (y) = 0.08348 0.34032
# Poissons Ratio (z) = 0.03594 0.28135
#
# Static dielectric constant tensor:
#      x y z
#    x 1.690540 0.000000 0.000000 
#    y 0.000000 1.798500 0.000000 
#    z 0.000000 0.000000 1.776820 
# 
# From -- ./inp_files/14196.got.cif
#   From: 2010.05.17/outbox.cif.g08.bks.cpg/sg54_8_cif.got.tgz:14196.got - 2010.06.03 13:09:01.
