data_PCOD9420385
_publ_section_title
;
Structure prediction by ZEFSAII (Michael W. Deem and Ramdas Pophale) SiO2 
 PCOD9420385
Probable space group: P C C A
;
_chemical_formula_sum "Si O2"
_cell_formula_units_Z 56
_cell_length_a 23.318322
_cell_length_b 16.538614
_cell_length_c 5.621627
_cell_angle_alpha 90.000000
_cell_angle_beta 90.000000
_cell_angle_gamma 90.000000
_cell_volume 2167.995781
_symmetry_space_group_name_H-M "P C C A"
_symmetry_group_IT_number 54
_symmetry_cell_setting 'orthorhombic'
loop_
_space_group_symop_operation_xyz
x,y,z
1/2-x,-y,z
1/2+x,-y,1/2-z
-x,y,1/2-z
-x,-y,-z
1/2+x,y,-z
1/2-x,y,1/2+z
x,-y,1/2+z
loop_
_atom_site_type_symbol
_atom_site_label
_atom_site_fract_x
_atom_site_fract_y
_atom_site_fract_z
Si Si1 0.771352 0.907602 0.589518
Si Si2 0.682591 0.671487 0.144984
Si Si3 0.434342 0.469044 0.502099
Si Si4 0.565958 0.280779 0.115311
Si Si5 0.067930 0.777776 0.885712
Si Si6 0.687229 0.327741 0.145112
Si Si7 0.902785 0.047750 0.013872
O O1 0.740302 0.872379 0.353909
O O2 0.837755 0.919134 0.528550
O O3 0.750000 0.000000 0.617180
O O4 0.632872 0.739126 0.141462
O O5 0.747916 0.704350 0.142379
O O6 0.680113 0.626130 0.396201
O O7 0.678081 0.626482 0.893569
O O8 0.500000 0.500000 0.500000
O O9 0.409773 0.508049 0.260547
O O10 0.437317 0.373283 0.465829
O O11 0.545193 0.273307 0.387451
O O12 0.635344 0.263457 0.142700
O O13 0.547431 0.229282 0.886763
O O14 0.062349 0.869543 0.969189
O O15 0.911834 0.996388 0.258905
#
# Coordination Sequence:
#
# PCOD9420385 Si02
#       7
#     8   8   8   8   8   8   8
#     4  10  16  30  40  55  81 129 180 255 319 353
#     4   8  14  27  39  62  89 124 183 241 274 312
#     4  10  21  38  64  97 123 148 167 195 260 349
#     4  10  19  36  53  78 115 142 181 223 268 353
#     4  10  21  33  49  75 101 155 199 246 298 313
#     4   8  14  25  43  64  90 132 173 229 272 304
#     4  12  21  33  45  63  98 144 203 264 298 345
#
# _framework density 25.830310000000001
#
# number of rings (size 3 to 8) (size 9 to 14) (size 15 to 20)
#    0.000    2.286    2.857    1.714    0.000    0.000 
#   10.286    0.000    0.000    0.000    0.000   48.000 
#    0.000    0.000    0.000  180.000    0.000    0.000 
#
# Total GULP energy -312267.140667 kJ/mol
# GULP energy per Si atom -5576.198940 kJ/mol
# Density = 2.577152 g / cm^3
# Si number density = 25.830310 Si / 1000 Ang^3
#
#
#
# Elastic Constant Matrix: (Units=GPa)
#
#
# Indices 1 2 3 4 5 6 
#
# 1 50.9192 2.7228 11.2802 0.0000 0.0000 0.0000
# 2 2.7228 78.3158 21.4828 0.0000 0.0000 0.0000
# 3 11.2802 21.4828 279.5178 0.0000 0.0000 0.0000
# 4 0.0000 0.0000 0.0000 -1.8798 0.0000 0.0000
# 5 0.0000 0.0000 0.0000 0.0000 44.7665 0.0000
# 6 0.0000 0.0000 0.0000 0.0000 0.0000 14.2822
#
#
#
# Elastic Compliance Matrix: (Units=1/GPa)
#
#
# Indices 1 2 3 4 5 6 
#
# 1 0.019834 -0.000480 -0.000764 0.000000 0.000000 0.000000
# 2 -0.000480 0.013055 -0.000984 0.000000 0.000000 0.000000
# 3 -0.000764 -0.000984 0.003684 0.000000 0.000000 0.000000
# 4 0.000000 0.000000 0.000000 -0.531967 0.000000 0.000000
# 5 0.000000 0.000000 0.000000 0.000000 0.022338 0.000000
# 6 0.000000 0.000000 0.000000 0.000000 0.000000 0.070017
#
#
# Mechanical properties :
#
#
# Convention : Reuss Voigt Hill
#
# Bulk Modulus (GPa) = 31.13521 53.30269 42.21895
# Shear Modulus (GPa) = -12.89069 36.31825 11.71378
#
# Velocity S-wave (km/s) = -2.23637 3.75378 2.13184
# Velocity P-wave (km/s) = 2.32625 6.28238 4.73707
#
# Compressibility (1/GPa) = 0.03211797
#
# Stress axis : x y z
#
# Youngs Moduli (GPa) = 50.41901 76.59642 271.44189
#
# Poissons Ratio (x) = 0.03677 0.20725
# Poissons Ratio (y) = 0.02421 0.26710
# Poissons Ratio (z) = 0.03850 0.07537
#
# Static dielectric constant tensor:
#      x y z
#    x 7.174890 0.000000 0.000000 
#    y 0.000000 1.937740 0.000000 
#    z 0.000000 0.000000 2.079960 
# 
# From -- ./inp_files/2165.got.cif
#   From: 2010.05.17/outbox.cif.g08.bks.cpg/sg54_2_cif.got.tgz:2165.got - 2010.06.03 13:09:01.
