data_PCOD9420071
_publ_section_title
;
Structure prediction by ZEFSAII (Michael W. Deem and Ramdas Pophale) SiO2 
 PCOD9420071
Probable space group: P M N A
;
_chemical_formula_sum "Si O2"
_cell_formula_units_Z 64
_cell_length_a 9.945283
_cell_length_b 23.140174
_cell_length_c 15.260565
_cell_angle_alpha 90.000000
_cell_angle_beta 90.000000
_cell_angle_gamma 90.000000
_cell_volume 3511.998964
_symmetry_space_group_name_H-M "P M N A"
_symmetry_group_IT_number 53
_symmetry_cell_setting 'orthorhombic'
loop_
_space_group_symop_operation_xyz
x,y,z
1/2-x,-y,1/2+z
x,-y,-z
1/2-x,y,1/2-z
-x,-y,-z
1/2+x,y,1/2-z
-x,y,z
1/2+x,-y,1/2+z
loop_
_atom_site_type_symbol
_atom_site_label
_atom_site_fract_x
_atom_site_fract_y
_atom_site_fract_z
Si Si1 0.843282 0.224516 0.665965
Si Si2 0.343282 0.775484 0.834035
Si Si3 0.336670 0.433812 1.000000
Si Si4 0.149488 0.098523 0.397033
Si Si5 0.347199 0.000000 0.392210
Si Si6 0.350512 0.901477 0.102967
Si Si7 0.160865 0.646087 0.662043
Si Si8 0.839135 0.353913 0.662043
O O1 0.750000 0.221037 0.750000
O O2 0.818971 0.166412 0.611815
O O3 0.821231 0.288185 0.626114
O O4 0.000000 0.223239 0.691720
O O5 0.250000 0.778963 0.750000
O O6 0.500000 0.776761 0.808280
O O7 0.318971 0.833588 0.888185
O O8 0.321231 0.711815 0.873886
O O9 0.500000 0.434132 1.000000
O O10 0.297617 0.399215 0.912458
O O11 0.290009 0.500000 0.000000
O O12 0.297617 0.399215 0.087541
O O13 0.264168 0.056299 0.362476
O O14 0.140436 0.085517 0.500000
O O15 0.000000 0.087950 0.358938
O O16 0.500000 0.000000 0.361370
O O17 0.352163 0.000000 0.500000
O O18 0.264168 0.943701 0.362476
O O19 0.500000 0.912050 0.141062
O O20 0.250000 0.640418 0.750000
O O21 0.000000 0.638947 0.680504
O O22 0.750000 0.359582 0.750000
O O23 0.000000 0.361053 0.680504
#
# Coordination Sequence:
#
# PCOD9420071 Si02
#       8
#     8   8   8   8   8   8   8   8
#     4   9  18  31  48  70  95 124 158 200 247 294
#     4   9  18  31  48  70  95 124 158 200 247 294
#     4   9  18  32  53  81 109 140 179 216 252 305
#     4   9  17  29  47  68  89 117 157 200 241 286
#     4   9  17  29  44  65  94 123 153 191 242 295
#     4   9  17  29  47  68  89 117 157 200 241 286
#     4   9  18  33  53  76 106 140 175 216 261 307
#     4   9  18  33  53  76 106 140 175 216 261 307
#
# _framework density 18.223239
#
# number of rings (size 3 to 8) (size 9 to 14) (size 15 to 20)
#    0.000    3.000    0.000    0.375    1.750    3.000 
#    0.000    1.250    0.000    0.750    0.000    0.000 
#    0.000    0.000    0.000    0.000    0.000    0.000 
#
# Total GULP energy -356336.560288 kJ/mol
# GULP energy per Si atom -5567.758754 kJ/mol
# Density = 1.818176 g / cm^3
# Si number density = 18.223239 Si / 1000 Ang^3
#
#
#
# Elastic Constant Matrix: (Units=GPa)
#
#
# Indices 1 2 3 4 5 6 
#
# 1 69.1010 84.0526 35.8235 0.0000 0.0000 0.0000
# 2 84.0526 157.1557 47.3878 0.0000 0.0000 0.0000
# 3 35.8235 47.3878 47.6278 0.0000 0.0000 0.0000
# 4 0.0000 0.0000 0.0000 161.7655 0.0000 0.0000
# 5 0.0000 0.0000 0.0000 0.0000 16.8487 0.0000
# 6 0.0000 0.0000 0.0000 0.0000 0.0000 -16.5089
#
#
#
# Elastic Compliance Matrix: (Units=1/GPa)
#
#
# Indices 1 2 3 4 5 6 
#
# 1 0.047955 -0.021103 -0.015073 0.000000 0.000000 0.000000
# 2 -0.021103 0.018377 -0.002412 0.000000 0.000000 0.000000
# 3 -0.015073 -0.002412 0.034733 0.000000 0.000000 0.000000
# 4 0.000000 0.000000 0.000000 0.006182 0.000000 0.000000
# 5 0.000000 0.000000 0.000000 0.000000 0.059352 0.000000
# 6 0.000000 0.000000 0.000000 0.000000 0.000000 -0.060573
#
#
# Mechanical properties :
#
#
# Convention : Reuss Voigt Hill
#
# Bulk Modulus (GPa) = 41.85922 67.60138 54.73030
# Shear Modulus (GPa) = 26.15578 39.52910 32.84244
#
# Velocity S-wave (km/s) = 3.79264 4.66248 4.24987
# Velocity P-wave (km/s) = 6.49607 8.13398 7.36073
#
# Compressibility (1/GPa) = 0.02388960
#
# Stress axis : x y z
#
# Youngs Moduli (GPa) = 20.85304 54.41607 28.79130
#
# Poissons Ratio (x) = 1.14834 0.43396
# Poissons Ratio (y) = 0.44006 0.06943
# Poissons Ratio (z) = 0.31431 0.13123
#
# Static dielectric constant tensor:
#      x y z
#    x 1.622070 0.000000 0.000000 
#    y 0.000000 1.657210 0.000000 
#    z 0.000000 0.000000 1.615730 
# 
# From -- ./inp_files/20817.got.cif
#   From: 2010.05.17/outbox.cif.g08.bks.cpg/sg53_11_cif.got.tgz:20817.got - 2010.06.03 12:45:16.
