data_PCOD9420105
_publ_section_title
;
Structure prediction by ZEFSAII (Michael W. Deem and Ramdas Pophale) SiO2 
 PCOD9420105
Probable space group: P M N A
;
_chemical_formula_sum "Si O2"
_cell_formula_units_Z 64
_cell_length_a 9.000000
_cell_length_b 18.000000
_cell_length_c 24.000000
_cell_angle_alpha 90.000000
_cell_angle_beta 90.000000
_cell_angle_gamma 90.000000
_cell_volume 3888.000000
_symmetry_space_group_name_H-M "P M N A"
_symmetry_group_IT_number 53
_symmetry_cell_setting 'orthorhombic'
loop_
_space_group_symop_operation_xyz
x,y,z
1/2-x,-y,1/2+z
x,-y,-z
1/2-x,y,1/2-z
-x,-y,-z
1/2+x,y,1/2-z
-x,y,z
1/2+x,-y,1/2+z
loop_
_atom_site_type_symbol
_atom_site_label
_atom_site_fract_x
_atom_site_fract_y
_atom_site_fract_z
Si Si1 0.180450 0.361655 0.095939
Si Si2 0.821006 0.676473 0.026066
Si Si3 0.825633 0.632275 0.309167
Si Si4 0.324862 0.221478 0.883390
Si Si5 0.678859 0.911542 0.811625
Si Si6 0.320936 0.079588 0.811806
Si Si7 0.319810 0.240955 0.311864
Si Si8 0.679404 0.466240 0.598603
O O1 0.221839 0.310561 0.148615
O O2 0.229598 0.448090 0.094242
O O3 0.000000 0.363970 0.095934
O O4 0.226474 0.323180 0.038118
O O5 0.755575 0.743441 0.062845
O O6 0.778793 0.594906 0.051356
O O7 0.000000 0.680637 0.029088
O O8 0.750000 0.635049 0.250000
O O9 0.808582 0.712385 0.338377
O O10 0.745093 0.570489 0.346171
O O11 0.000000 0.616024 0.305367
O O12 0.500000 0.213027 0.895977
O O13 0.272678 0.144703 0.854498
O O14 0.750000 0.914234 0.750000
O O15 0.500000 0.901924 0.809389
O O16 0.754483 0.837094 0.836043
O O17 0.709525 0.995322 0.833587
O O18 0.250000 0.088615 0.750000
O O19 0.500000 0.085806 0.805347
O O20 0.250000 0.250193 0.250000
O O21 0.500000 0.236134 0.308173
O O22 0.500000 0.467119 0.599964
#
# Coordination Sequence:
#
# PCOD9420105 Si02
#       8
#     8   8   8   8   8   8   8   8
#     4   9  18  32  51  72  91 116 152 192 230 271
#     4   9  17  31  51  71  90 117 155 193 228 269
#     4  10  19  30  44  64  94 127 156 186 224 272
#     4   9  18  31  45  66  96 125 152 187 229 267
#     4   9  16  28  46  68  93 120 151 185 224 269
#     4   9  17  28  45  69  96 124 154 188 224 268
#     4  10  19  32  49  69  95 121 147 183 228 275
#     4   9  17  31  50  69  90 118 153 193 234 272
#
# _framework density 16.460905
#
# number of rings (size 3 to 8) (size 9 to 14) (size 15 to 20)
#    0.000    2.750    0.000    2.625    0.000    3.500 
#    0.000    4.375    0.000    3.750    0.000    5.250 
#    0.000    0.000    0.000    0.000    0.000    0.000 
#
# Total GULP energy -356305.445141 kJ/mol
# GULP energy per Si atom -5567.272580 kJ/mol
# Density = 1.642344 g / cm^3
# Si number density = 16.460905 Si / 1000 Ang^3
#
#
#
# Elastic Constant Matrix: (Units=GPa)
#
#
# Indices 1 2 3 4 5 6 
#
# 1 23.7632 28.8650 27.4490 0.0000 0.0000 0.0000
# 2 28.8650 114.4830 40.5371 0.0000 0.0000 0.0000
# 3 27.4490 40.5371 75.6483 0.0000 0.0000 0.0000
# 4 0.0000 0.0000 0.0000 18.2853 0.0000 0.0000
# 5 0.0000 0.0000 0.0000 0.0000 19.4017 0.0000
# 6 0.0000 0.0000 0.0000 0.0000 0.0000 13.1792
#
#
#
# Elastic Compliance Matrix: (Units=1/GPa)
#
#
# Indices 1 2 3 4 5 6 
#
# 1 0.085889 -0.013107 -0.024141 0.000000 0.000000 0.000000
# 2 -0.013107 0.012781 -0.002093 0.000000 0.000000 0.000000
# 3 -0.024141 -0.002093 0.023100 0.000000 0.000000 0.000000
# 4 0.000000 0.000000 0.000000 0.054689 0.000000 0.000000
# 5 0.000000 0.000000 0.000000 0.000000 0.051542 0.000000
# 6 0.000000 0.000000 0.000000 0.000000 0.000000 0.075877
#
#
# Mechanical properties :
#
#
# Convention : Reuss Voigt Hill
#
# Bulk Modulus (GPa) = 23.20867 45.28853 34.24860
# Shear Modulus (GPa) = 12.59692 17.97611 15.28651
#
# Velocity S-wave (km/s) = 2.76934 3.30820 3.05069
# Velocity P-wave (km/s) = 4.93513 6.49344 5.76716
#
# Compressibility (1/GPa) = 0.04308735
#
# Stress axis : x y z
#
# Youngs Moduli (GPa) = 11.64296 78.24277 43.28994
#
# Poissons Ratio (x) = 1.02556 1.04506
# Poissons Ratio (y) = 0.15261 0.09059
# Poissons Ratio (z) = 0.28107 0.16374
#
# Static dielectric constant tensor:
#      x y z
#    x 1.554030 0.000000 0.000000 
#    y 0.000000 1.575120 0.000000 
#    z 0.000000 0.000000 1.542100 
# 
# From -- ./inp_files/34445.got.cif
#   From: 2010.05.17/outbox.ucp.g08.bks.cvg/sg53_18_cif.got.tgz:34445.got - 2010.06.11 16:32:34.
