data_PCOD9420989
_publ_section_title
;
Structure prediction by ZEFSAII (Michael W. Deem and Ramdas Pophale) SiO2 
 PCOD9420989
Probable space group: P C C A
;
_chemical_formula_sum "Si O2"
_cell_formula_units_Z 36
_cell_length_a 5.077186
_cell_length_b 25.535776
_cell_length_c 11.369128
_cell_angle_alpha 90.000000
_cell_angle_beta 90.000000
_cell_angle_gamma 90.000000
_cell_volume 1474.006131
_symmetry_space_group_name_H-M "P C C A"
_symmetry_group_IT_number 54
_symmetry_cell_setting 'orthorhombic'
loop_
_space_group_symop_operation_xyz
x,y,z
1/2-x,-y,z
1/2+x,-y,1/2-z
-x,y,1/2-z
-x,-y,-z
1/2+x,y,-z
1/2-x,y,1/2+z
x,-y,1/2+z
loop_
_atom_site_type_symbol
_atom_site_label
_atom_site_fract_x
_atom_site_fract_y
_atom_site_fract_z
Si Si1 0.750000 0.500000 0.837246
Si Si2 0.782216 0.835311 0.918814
Si Si3 0.750694 0.388858 0.833430
Si Si4 0.650165 0.725081 0.933005
Si Si5 0.500000 0.914825 0.750000
Si Si6 0.250000 0.000000 0.414265
O O1 0.500000 0.498849 0.750000
O O2 0.744158 0.444137 0.903939
O O3 0.741027 0.776995 0.864664
O O4 0.689347 0.878986 0.829039
O O5 0.573192 0.839516 0.027481
O O6 0.500000 0.386422 0.750000
O O7 0.778952 0.333253 0.894752
O O8 0.000000 0.392882 0.750000
O O9 0.338347 0.729705 0.951885
O O10 0.687449 0.951197 0.670180
O O11 0.500000 0.000000 0.500000
#
# Coordination Sequence:
#
# PCOD9420989 Si02
#       6
#     4   8   8   8   4   4
#     4   8  16  30  48  78 112 148 200 260 310 360
#     4  10  24  44  66  98 138 173 222 278 325 394
#     4  10  19  33  57  82 112 157 209 257 307 383
#     4  10  21  39  57  85 125 161 198 265 326 371
#     4  12  26  48  78 104 136 194 224 266 348 404
#     4  12  28  48  74 110 146 176 232 288 328 398
#
# _framework density 24.423235999999999
#
# number of rings (size 3 to 8) (size 9 to 14) (size 15 to 20)
#    0.000    1.778    0.000    3.333    1.556    4.444 
#    0.000    1.111    0.000    0.000    0.000    0.000 
#    0.000    0.000    0.000    0.000    0.000    0.000 
#
# Total GULP energy -201203.526629 kJ/mol
# GULP energy per Si atom -5588.986851 kJ/mol
# Density = 2.436765 g / cm^3
# Si number density = 24.423236 Si / 1000 Ang^3
#
#
#
# Elastic Constant Matrix: (Units=GPa)
#
#
# Indices 1 2 3 4 5 6 
#
# 1 160.6955 24.6032 28.1323 0.0000 0.0000 0.0000
# 2 24.6032 247.5871 66.4291 0.0000 0.0000 0.0000
# 3 28.1323 66.4291 54.3811 0.0000 0.0000 0.0000
# 4 0.0000 0.0000 0.0000 34.4716 0.0000 0.0000
# 5 0.0000 0.0000 0.0000 0.0000 23.3167 0.0000
# 6 0.0000 0.0000 0.0000 0.0000 0.0000 35.1532
#
#
#
# Elastic Compliance Matrix: (Units=1/GPa)
#
#
# Indices 1 2 3 4 5 6 
#
# 1 0.006870 0.000403 -0.004046 0.000000 0.000000 0.000000
# 2 0.000403 0.006032 -0.007577 0.000000 0.000000 0.000000
# 3 -0.004046 -0.007577 0.029737 0.000000 0.000000 0.000000
# 4 0.000000 0.000000 0.000000 0.029009 0.000000 0.000000
# 5 0.000000 0.000000 0.000000 0.000000 0.042888 0.000000
# 6 0.000000 0.000000 0.000000 0.000000 0.000000 0.028447
#
#
# Mechanical properties :
#
#
# Convention : Reuss Voigt Hill
#
# Bulk Modulus (GPa) = 49.50712 77.88807 63.69760
# Shear Modulus (GPa) = 29.04371 41.48823 35.26597
#
# Velocity S-wave (km/s) = 3.45220 4.12602 3.80406
# Velocity P-wave (km/s) = 6.01703 7.39317 6.74031
#
# Compressibility (1/GPa) = 0.02019911
#
# Stress axis : x y z
#
# Youngs Moduli (GPa) = 145.56962 165.78885 33.62835
#
# Poissons Ratio (x) = -0.06680 0.13606
# Poissons Ratio (y) = -0.05865 0.25479
# Poissons Ratio (z) = 0.58896 1.25610
#
# Static dielectric constant tensor:
#      x y z
#    x 1.890230 0.000000 0.000000 
#    y 0.000000 2.052540 0.000000 
#    z 0.000000 0.000000 2.142480 
# 
# From -- ./inp_files/6382.got.cif
#   From: 2010.05.17/outbox.cif.g08.bks.cpg/sg54_4_cif.got.tgz:6382.got - 2010.06.03 13:09:01.
