data_PCOD9420283
_publ_section_title
;
Structure prediction by ZEFSAII (Michael W. Deem and Ramdas Pophale) SiO2 
 PCOD9420283
Probable space group: P M N A
;
_chemical_formula_sum "Si O2"
_cell_formula_units_Z 40
_cell_length_a 9.000000
_cell_length_b 12.000000
_cell_length_c 18.000000
_cell_angle_alpha 90.000000
_cell_angle_beta 90.000000
_cell_angle_gamma 90.000000
_cell_volume 1944.000000
_symmetry_space_group_name_H-M "P M N A"
_symmetry_group_IT_number 53
_symmetry_cell_setting 'orthorhombic'
loop_
_space_group_symop_operation_xyz
x,y,z
1/2-x,-y,1/2+z
x,-y,-z
1/2-x,y,1/2-z
-x,-y,-z
1/2+x,y,1/2-z
-x,y,z
1/2+x,-y,1/2+z
loop_
_atom_site_type_symbol
_atom_site_label
_atom_site_fract_x
_atom_site_fract_y
_atom_site_fract_z
Si Si1 0.826796 0.967786 0.324096
Si Si2 0.669128 0.169939 0.382262
Si Si3 0.674987 0.413224 0.327477
Si Si4 0.325743 0.584633 0.068993
Si Si5 0.827731 0.821922 0.053199
O O1 0.750000 0.924771 0.250000
O O2 0.763879 0.900616 0.393367
O O3 0.000000 0.955252 0.318351
O O4 0.781708 0.096312 0.335974
O O5 0.500000 0.146314 0.356727
O O6 0.693326 0.301684 0.376078
O O7 0.681012 0.138841 0.468299
O O8 0.750000 0.386014 0.250000
O O9 0.500000 0.435376 0.320541
O O10 0.757972 0.517712 0.362363
O O11 0.500000 0.608365 0.078852
O O12 0.237260 0.697832 0.056912
O O13 0.309174 0.500000 0.000000
O O14 0.000000 0.822281 0.075394
#
# Coordination Sequence:
#
# PCOD9420283 Si02
#       5
#     8   8   8   8   8
#     4  12  26  43  64  92 128 168 212 262 318 375
#     4  10  22  41  66  95 127 166 209 258 315 377
#     4  11  23  40  63  94 129 168 212 259 317 374
#     4  11  23  40  64  94 128 165 209 259 311 371
#     4  11  23  42  68  95 127 166 211 259 314 379
#
# _framework density 20.576132000000001
#
# number of rings (size 3 to 8) (size 9 to 14) (size 15 to 20)
#    0.000    1.000    2.000    4.800    0.000    8.800 
#    0.000    4.000    0.000    0.000    0.000    0.000 
#    0.000    0.000    0.000    0.000    0.000    0.000 
#
# Total GULP energy -223656.261203 kJ/mol
# GULP energy per Si atom -5591.406530 kJ/mol
# Density = 2.052930 g / cm^3
# Si number density = 20.576132 Si / 1000 Ang^3
#
#
#
# Elastic Constant Matrix: (Units=GPa)
#
#
# Indices 1 2 3 4 5 6 
#
# 1 114.7164 45.0584 47.8650 0.0000 0.0000 0.0000
# 2 45.0584 49.9096 15.7447 0.0000 0.0000 0.0000
# 3 47.8650 15.7447 57.9361 0.0000 0.0000 0.0000
# 4 0.0000 0.0000 0.0000 25.7838 0.0000 0.0000
# 5 0.0000 0.0000 0.0000 0.0000 28.4805 0.0000
# 6 0.0000 0.0000 0.0000 0.0000 0.0000 46.5892
#
#
#
# Elastic Compliance Matrix: (Units=1/GPa)
#
#
# Indices 1 2 3 4 5 6 
#
# 1 0.018990 -0.013338 -0.012064 0.000000 0.000000 0.000000
# 2 -0.013338 0.031284 0.002518 0.000000 0.000000 0.000000
# 3 -0.012064 0.002518 0.026543 0.000000 0.000000 0.000000
# 4 0.000000 0.000000 0.000000 0.038784 0.000000 0.000000
# 5 0.000000 0.000000 0.000000 0.000000 0.035112 0.000000
# 6 0.000000 0.000000 0.000000 0.000000 0.000000 0.021464
#
#
# Mechanical properties :
#
#
# Convention : Reuss Voigt Hill
#
# Bulk Modulus (GPa) = 32.20817 48.87758 40.54288
# Shear Modulus (GPa) = 21.90154 27.76363 24.83259
#
# Velocity S-wave (km/s) = 3.26608 3.67728 3.47776
# Velocity P-wave (km/s) = 5.46902 6.46807 5.98941
#
# Compressibility (1/GPa) = 0.03104802
#
# Stress axis : x y z
#
# Youngs Moduli (GPa) = 52.65974 31.96556 37.67467
#
# Poissons Ratio (x) = 0.42636 0.45451
# Poissons Ratio (y) = 0.70239 -0.09487
# Poissons Ratio (z) = 0.63529 -0.08049
#
# Static dielectric constant tensor:
#      x y z
#    x 1.685260 0.000000 0.000000 
#    y 0.000000 1.744030 0.000000 
#    z 0.000000 0.000000 1.794510 
# 
# From -- ./inp_files/25823.got.cif
#   From: 2010.05.17/outbox.ucp.g08.bks.cvg/sg53_13_cif.got.tgz:25823.got - 2010.06.11 16:32:34.
