data_PCOD9420390
_publ_section_title
;
Structure prediction by ZEFSAII (Michael W. Deem and Ramdas Pophale) SiO2 
 PCOD9420390
Probable space group: P C C A
;
_chemical_formula_sum "Si O2"
_cell_formula_units_Z 40
_cell_length_a 27.614204
_cell_length_b 18.054942
_cell_length_c 5.368682
_cell_angle_alpha 90.000000
_cell_angle_beta 90.000000
_cell_angle_gamma 90.000000
_cell_volume 2676.679094
_symmetry_space_group_name_H-M "P C C A"
_symmetry_group_IT_number 54
_symmetry_cell_setting 'orthorhombic'
loop_
_space_group_symop_operation_xyz
x,y,z
1/2-x,-y,z
1/2+x,-y,1/2-z
-x,y,1/2-z
-x,-y,-z
1/2+x,y,-z
1/2-x,y,1/2+z
x,-y,1/2+z
loop_
_atom_site_type_symbol
_atom_site_label
_atom_site_fract_x
_atom_site_fract_y
_atom_site_fract_z
Si Si1 0.058862 0.213693 0.249968
Si Si2 0.559043 0.957253 0.249953
Si Si3 0.441491 0.699447 0.749963
Si Si4 0.883420 0.451580 0.747512
Si Si5 0.729272 0.584387 0.776772
O O1 0.074765 0.128259 0.250184
O O2 0.073540 0.256576 0.500542
O O3 0.000000 0.212652 0.250000
O O4 0.073536 0.256436 0.999128
O O5 0.500000 0.957004 0.250000
O O6 0.574213 0.999972 0.500007
O O7 0.500000 0.694758 0.750000
O O8 0.418904 0.618142 0.750462
O O9 0.890142 0.499330 0.496188
O O10 0.828079 0.422377 0.751091
O O11 0.750000 0.500000 0.789109
O O12 0.753704 0.619760 0.534811
#
# Coordination Sequence:
#
# PCOD9420390 Si02
#       5
#     8   8   8   8   8
#     4   9  17  31  44  56  84 118 145 177 215 258
#     4   9  15  23  40  64  81 100 139 183 212 240
#     4  10  21  33  43  58  84 121 154 179 217 253
#     4  12  21  31  48  65  81 108 150 193 218 258
#     4  10  16  30  47  65  83  99 124 177 226 282
#
# _framework density 14.943891000000001
#
# number of rings (size 3 to 8) (size 9 to 14) (size 15 to 20)
#    0.000    2.000    4.000    2.400    0.000    5.600 
#    0.000    0.000    0.000    0.000    0.000    0.000 
#    0.000    0.000    0.000    0.000    0.000   70.000 
#
# Total GULP energy -222909.580028 kJ/mol
# GULP energy per Si atom -5572.739501 kJ/mol
# Density = 1.490988 g / cm^3
# Si number density = 14.943891 Si / 1000 Ang^3
#
#
#
# Elastic Constant Matrix: (Units=GPa)
#
#
# Indices 1 2 3 4 5 6 
#
# 1 22.2879 24.5393 14.0245 0.0000 0.0000 0.0000
# 2 24.5393 107.1025 69.8639 0.0000 0.0000 0.0000
# 3 14.0245 69.8639 154.8556 0.0000 0.0000 0.0000
# 4 0.0000 0.0000 0.0000 19.1139 0.0000 0.0000
# 5 0.0000 0.0000 0.0000 0.0000 8.1904 0.0000
# 6 0.0000 0.0000 0.0000 0.0000 0.0000 -1.6803
#
#
#
# Elastic Compliance Matrix: (Units=1/GPa)
#
#
# Indices 1 2 3 4 5 6 
#
# 1 0.060134 -0.014490 0.001091 0.000000 0.000000 0.000000
# 2 -0.014490 0.016722 -0.006232 0.000000 0.000000 0.000000
# 3 0.001091 -0.006232 0.009170 0.000000 0.000000 0.000000
# 4 0.000000 0.000000 0.000000 0.052318 0.000000 0.000000
# 5 0.000000 0.000000 0.000000 0.000000 0.122095 0.000000
# 6 0.000000 0.000000 0.000000 0.000000 0.000000 -0.595144
#
#
# Mechanical properties :
#
#
# Convention : Reuss Voigt Hill
#
# Bulk Modulus (GPa) = 21.38333 55.67794 38.53064
# Shear Modulus (GPa) = -17.86638 16.84602 -0.51018
#
# Velocity S-wave (km/s) = -3.46144 3.36115 -0.58493
# Velocity P-wave (km/s) = 1.27880 7.23892 5.03819
#
# Compressibility (1/GPa) = 0.04676540
#
# Stress axis : x y z
#
# Youngs Moduli (GPa) = 16.62948 59.80207 109.04685
#
# Poissons Ratio (x) = 0.86651 -0.11897
# Poissons Ratio (y) = 0.24095 0.67957
# Poissons Ratio (z) = -0.01814 0.37268
#
# Static dielectric constant tensor:
#      x y z
#    x 1.468020 0.000000 0.000000 
#    y 0.000000 1.469320 0.000000 
#    z 0.000000 0.000000 1.590380 
# 
# From -- ./inp_files/1284.got.cif
#   From: 2010.05.17/outbox.cif.g08.bks.cpg/sg54_1_cif.got.tgz:1284.got - 2010.06.03 13:09:01.
