data_PCOD9420186
_publ_section_title
;
Structure prediction by ZEFSAII (Michael W. Deem and Ramdas Pophale) SiO2 
 PCOD9420186
Probable space group: P M N A
;
_chemical_formula_sum "Si O2"
_cell_formula_units_Z 48
_cell_length_a 9.000000
_cell_length_b 21.000000
_cell_length_c 15.000000
_cell_angle_alpha 90.000000
_cell_angle_beta 90.000000
_cell_angle_gamma 90.000000
_cell_volume 2835.000000
_symmetry_space_group_name_H-M "P M N A"
_symmetry_group_IT_number 53
_symmetry_cell_setting 'orthorhombic'
loop_
_space_group_symop_operation_xyz
x,y,z
1/2-x,-y,1/2+z
x,-y,-z
1/2-x,y,1/2-z
-x,-y,-z
1/2+x,y,1/2-z
-x,y,z
1/2+x,-y,1/2+z
loop_
_atom_site_type_symbol
_atom_site_label
_atom_site_fract_x
_atom_site_fract_y
_atom_site_fract_z
Si Si1 0.679433 0.537038 0.345900
Si Si2 0.178975 0.602129 0.654752
Si Si3 0.178046 0.648283 0.460417
Si Si4 0.820274 0.904989 0.460275
Si Si5 0.180554 0.033653 0.350966
Si Si6 0.179920 0.777860 0.350293
O O1 0.750000 0.555289 0.250000
O O2 0.500000 0.533919 0.341670
O O3 0.748017 0.467113 0.365278
O O4 0.733957 0.589705 0.415965
O O5 0.250000 0.622947 0.750000
O O6 0.206254 0.646181 0.567537
O O7 0.000000 0.595292 0.665409
O O8 0.215035 0.713529 0.407134
O O9 0.000000 0.637795 0.449481
O O10 0.775716 0.919123 0.564671
O O11 0.774067 0.839411 0.410702
O O12 0.000000 0.904309 0.463696
O O13 0.780712 0.964520 0.395039
O O14 0.250000 0.041857 0.250000
O O15 0.000000 0.037057 0.341674
O O16 0.250000 0.777780 0.250000
O O17 0.000000 0.780304 0.340304
#
# Coordination Sequence:
#
# PCOD9420186 Si02
#       6
#     8   8   8   8   8   8
#     4  11  21  33  52  76 101 128 160 201 248 296
#     4  10  20  35  53  72  96 126 162 204 248 294
#     4  10  21  35  51  72  99 130 163 201 246 294
#     4   8  16  31  50  71 100 136 167 196 241 296
#     4   9  16  29  50  75 101 131 166 204 244 285
#     4  10  20  35  53  73  98 130 165 199 240 291
#
# _framework density 16.931217
#
# number of rings (size 3 to 8) (size 9 to 14) (size 15 to 20)
#    0.000    2.333    0.000    5.500    0.000    5.333 
#    0.000    3.333    0.000    0.000    0.000    0.000 
#    0.000    0.000    0.000    0.000    0.000    0.000 
#
# Total GULP energy -267450.507825 kJ/mol
# GULP energy per Si atom -5571.885580 kJ/mol
# Density = 1.689268 g / cm^3
# Si number density = 16.931217 Si / 1000 Ang^3
#
#
#
# Elastic Constant Matrix: (Units=GPa)
#
#
# Indices 1 2 3 4 5 6 
#
# 1 68.0262 27.3816 46.3443 0.0000 0.0000 0.0000
# 2 27.3816 84.8504 73.5384 0.0000 0.0000 0.0000
# 3 46.3443 73.5384 191.7990 0.0000 0.0000 0.0000
# 4 0.0000 0.0000 0.0000 36.0381 0.0000 0.0000
# 5 0.0000 0.0000 0.0000 0.0000 40.7186 0.0000
# 6 0.0000 0.0000 0.0000 0.0000 0.0000 15.8194
#
#
#
# Elastic Compliance Matrix: (Units=1/GPa)
#
#
# Indices 1 2 3 4 5 6 
#
# 1 0.018117 -0.003074 -0.003199 0.000000 0.000000 0.000000
# 2 -0.003074 0.018172 -0.006225 0.000000 0.000000 0.000000
# 3 -0.003199 -0.006225 0.008373 0.000000 0.000000 0.000000
# 4 0.000000 0.000000 0.000000 0.027748 0.000000 0.000000
# 5 0.000000 0.000000 0.000000 0.000000 0.024559 0.000000
# 6 0.000000 0.000000 0.000000 0.000000 0.000000 0.063213
#
#
# Mechanical properties :
#
#
# Convention : Reuss Voigt Hill
#
# Bulk Modulus (GPa) = 50.84578 71.02270 60.93424
# Shear Modulus (GPa) = 26.07772 31.67596 28.87684
#
# Velocity S-wave (km/s) = 3.92882 4.33004 4.13430
# Velocity P-wave (km/s) = 7.11876 8.18766 7.67185
#
# Compressibility (1/GPa) = 0.01966731
#
# Stress axis : x y z
#
# Youngs Moduli (GPa) = 55.19706 55.02871 119.42526
#
# Poissons Ratio (x) = 0.16915 0.38204
# Poissons Ratio (y) = 0.16967 0.74340
# Poissons Ratio (z) = 0.17658 0.34254
#
# Static dielectric constant tensor:
#      x y z
#    x 1.571300 0.000000 0.000000 
#    y 0.000000 1.584630 0.000000 
#    z 0.000000 0.000000 1.591950 
# 
# From -- ./inp_files/20323.got.cif
#   From: 2010.05.17/outbox.ucp.g08.bks.cvg/sg53_11_cif.got.tgz:20323.got - 2010.06.11 16:32:34.
