data_PCOD9420947
_publ_section_title
;
Structure prediction by ZEFSAII (Michael W. Deem and Ramdas Pophale) SiO2 
 PCOD9420947
Probable space group: P C C A
;
_chemical_formula_sum "Si O2"
_cell_formula_units_Z 48
_cell_length_a 10.079845
_cell_length_b 10.571544
_cell_length_c 25.028929
_cell_angle_alpha 90.000000
_cell_angle_beta 90.000000
_cell_angle_gamma 90.000000
_cell_volume 2667.070784
_symmetry_space_group_name_H-M "P C C A"
_symmetry_group_IT_number 54
_symmetry_cell_setting 'orthorhombic'
loop_
_space_group_symop_operation_xyz
x,y,z
1/2-x,-y,z
1/2+x,-y,1/2-z
-x,y,1/2-z
-x,-y,-z
1/2+x,y,-z
1/2-x,y,1/2+z
x,-y,1/2+z
loop_
_atom_site_type_symbol
_atom_site_label
_atom_site_fract_x
_atom_site_fract_y
_atom_site_fract_z
Si Si1 0.576080 0.214616 0.616364
Si Si2 0.649887 0.882221 0.228724
Si Si3 0.452980 0.440873 0.556374
Si Si4 0.827142 0.307850 0.929270
Si Si5 0.711759 0.145985 0.841715
Si Si6 0.872759 0.086433 0.008843
O O1 0.642952 0.198132 0.674270
O O2 0.553977 0.352858 0.589560
O O3 0.428684 0.162357 0.628839
O O4 0.640554 0.128664 0.570393
O O5 0.500000 0.921278 0.250000
O O6 0.702295 0.808292 0.280759
O O7 0.750000 0.000000 0.219916
O O8 0.500000 0.500000 0.500000
O O9 0.410794 0.569145 0.585711
O O10 0.317373 0.358652 0.550721
O O11 0.812097 0.224165 0.876971
O O12 0.883249 0.215138 0.974680
O O13 0.750000 0.000000 0.840237
O O14 0.750000 0.000000 0.991114
O O15 0.000000 0.000000 0.000000
#
# Coordination Sequence:
#
# PCOD9420947 Si02
#       6
#     8   8   8   8   8   8
#     4  10  19  33  52  83 108 147 191 232 283 333
#     4   9  18  33  57  84 113 147 185 235 290 346
#     4  10  19  35  54  78 111 154 196 229 278 338
#     4  10  20  33  54  81 110 153 194 228 281 346
#     4   9  17  33  54  83 112 145 187 232 287 345
#     4  12  23  34  53  84 120 145 180 237 291 342
#
# _framework density 17.997273
#
# number of rings (size 3 to 8) (size 9 to 14) (size 15 to 20)
#    0.000    2.000    1.667    4.000    0.000    0.000 
#    0.000    0.000    0.000    0.000   39.000    2.333 
#    0.000    0.000    0.000    0.000    0.000    0.000 
#
# Total GULP energy -267302.899678 kJ/mol
# GULP energy per Si atom -5568.810410 kJ/mol
# Density = 1.795631 g / cm^3
# Si number density = 17.997273 Si / 1000 Ang^3
#
#
#
# Elastic Constant Matrix: (Units=GPa)
#
#
# Indices 1 2 3 4 5 6 
#
# 1 36.8154 28.6850 22.3463 0.0000 0.0000 0.0000
# 2 28.6850 105.5937 55.2659 0.0000 0.0000 0.0000
# 3 22.3463 55.2659 131.0326 0.0000 0.0000 0.0000
# 4 0.0000 0.0000 0.0000 20.3470 0.0000 0.0000
# 5 0.0000 0.0000 0.0000 0.0000 21.1119 0.0000
# 6 0.0000 0.0000 0.0000 0.0000 0.0000 21.3495
#
#
#
# Elastic Compliance Matrix: (Units=1/GPa)
#
#
# Indices 1 2 3 4 5 6 
#
# 1 0.035092 -0.008214 -0.002520 0.000000 0.000000 0.000000
# 2 -0.008214 0.014076 -0.004536 0.000000 0.000000 0.000000
# 3 -0.002520 -0.004536 0.009975 0.000000 0.000000 0.000000
# 4 0.000000 0.000000 0.000000 0.049147 0.000000 0.000000
# 5 0.000000 0.000000 0.000000 0.000000 0.047367 0.000000
# 6 0.000000 0.000000 0.000000 0.000000 0.000000 0.046840
#
#
# Mechanical properties :
#
#
# Convention : Reuss Voigt Hill
#
# Bulk Modulus (GPa) = 34.96215 54.00401 44.48308
# Shear Modulus (GPa) = 20.61259 23.70464 22.15861
#
# Velocity S-wave (km/s) = 3.38793 3.63316 3.51268
# Velocity P-wave (km/s) = 5.89683 6.90447 6.42045
#
# Compressibility (1/GPa) = 0.02860236
#
# Stress axis : x y z
#
# Youngs Moduli (GPa) = 28.49633 71.04474 100.25458
#
# Poissons Ratio (x) = 0.58356 0.25266
# Poissons Ratio (y) = 0.23407 0.45475
# Poissons Ratio (z) = 0.07182 0.32225
#
# Static dielectric constant tensor:
#      x y z
#    x 1.656010 0.000000 0.000000 
#    y 0.000000 1.608050 0.000000 
#    z 0.000000 0.000000 1.637870 
# 
# From -- ./inp_files/24035.got.cif
#   From: 2010.05.17/outbox.cif.g08.bks.cpg/sg54_13_cif.got.tgz:24035.got - 2010.06.03 13:09:01.
