data_PCOD9420152
_publ_section_title
;
Structure prediction by ZEFSAII (Michael W. Deem and Ramdas Pophale) SiO2 
 PCOD9420152
Probable space group: P M N A
;
_chemical_formula_sum "Si O2"
_cell_formula_units_Z 64
_cell_length_a 15.000000
_cell_length_b 24.000000
_cell_length_c 9.000000
_cell_angle_alpha 90.000000
_cell_angle_beta 90.000000
_cell_angle_gamma 90.000000
_cell_volume 3240.000000
_symmetry_space_group_name_H-M "P M N A"
_symmetry_group_IT_number 53
_symmetry_cell_setting 'orthorhombic'
loop_
_space_group_symop_operation_xyz
x,y,z
1/2-x,-y,1/2+z
x,-y,-z
1/2-x,y,1/2-z
-x,-y,-z
1/2+x,y,1/2-z
-x,y,z
1/2+x,-y,1/2+z
loop_
_atom_site_type_symbol
_atom_site_label
_atom_site_fract_x
_atom_site_fract_y
_atom_site_fract_z
Si Si1 0.860143 0.762661 0.913472
Si Si2 0.897844 0.877255 0.077764
Si Si3 0.146526 0.246590 0.428617
Si Si4 0.398167 0.863566 0.079250
Si Si5 0.255298 0.558934 0.425073
Si Si6 0.895843 0.373568 0.413784
Si Si7 0.259445 0.058524 0.074905
Si Si8 0.100936 0.636592 0.935402
O O1 0.885129 0.767394 0.739221
O O2 0.753211 0.759141 0.925302
O O3 0.895042 0.702659 0.964854
O O4 0.891044 0.815894 0.005223
O O5 0.871154 0.873896 0.250599
O O6 0.000000 0.895852 0.069269
O O7 0.832256 0.918091 0.992203
O O8 0.108850 0.201580 0.541477
O O9 0.120944 0.309876 0.464172
O O10 0.500000 0.881829 0.060420
O O11 0.333760 0.896354 0.969008
O O12 0.275445 0.500000 0.500000
O O13 0.250000 0.551753 0.250000
O O14 0.165530 0.584311 0.496360
O O15 0.331628 0.603162 0.463956
O O16 0.872667 0.372775 0.237707
O O17 0.000000 0.386644 0.428079
O O18 0.250000 0.052585 0.250000
O O19 0.282339 0.000000 0.000000
O O20 0.000000 0.617052 0.954317
#
# Coordination Sequence:
#
# PCOD9420152 Si02
#       8
#     8   8   8   8   8   8   8   8
#     4  10  19  35  63  95 127 164 203 247 302 363
#     4  11  24  41  63  93 129 166 205 252 304 361
#     4  10  19  35  63  95 127 164 203 247 302 363
#     4  11  24  41  63  93 129 166 205 252 304 361
#     4  12  26  43  64  87 120 161 205 257 305 364
#     4  10  21  40  66  93 124 161 203 252 305 364
#     4  12  26  45  68  91 120 161 207 259 309 364
#     4  10  21  40  66  93 124 161 203 252 305 364
#
# _framework density 19.753086
#
# number of rings (size 3 to 8) (size 9 to 14) (size 15 to 20)
#    0.000    1.250    2.500    3.750    0.000    5.500 
#    0.000    0.000    0.000    0.000    0.000    0.000 
#    0.000    0.000    0.000    0.000    0.000    0.000 
#
# Total GULP energy -357891.373496 kJ/mol
# GULP energy per Si atom -5592.052711 kJ/mol
# Density = 1.970813 g / cm^3
# Si number density = 19.753086 Si / 1000 Ang^3
#
#
#
# Elastic Constant Matrix: (Units=GPa)
#
#
# Indices 1 2 3 4 5 6 
#
# 1 58.6638 -14.9282 4.0048 0.0000 0.0000 0.0000
# 2 -14.9282 23.0763 -8.2051 0.0000 0.0000 0.0000
# 3 4.0048 -8.2051 56.3712 0.0000 0.0000 0.0000
# 4 0.0000 0.0000 0.0000 35.0498 0.0000 0.0000
# 5 0.0000 0.0000 0.0000 0.0000 -28.3791 0.0000
# 6 0.0000 0.0000 0.0000 0.0000 0.0000 -41.3809
#
#
#
# Elastic Compliance Matrix: (Units=1/GPa)
#
#
# Indices 1 2 3 4 5 6 
#
# 1 0.020419 0.013386 0.000498 0.000000 0.000000 0.000000
# 2 0.013386 0.054475 0.006978 0.000000 0.000000 0.000000
# 3 0.000498 0.006978 0.018720 0.000000 0.000000 0.000000
# 4 0.000000 0.000000 0.000000 0.028531 0.000000 0.000000
# 5 0.000000 0.000000 0.000000 0.000000 -0.035237 0.000000
# 6 0.000000 0.000000 0.000000 0.000000 0.000000 -0.024166
#
#
# Mechanical properties :
#
#
# Convention : Reuss Voigt Hill
#
# Bulk Modulus (GPa) = 7.38894 11.09493 9.24193
# Shear Modulus (GPa) = 75.60822 3.54061 39.57441
#
# Velocity S-wave (km/s) = 6.19353 1.34027 4.48085
# Velocity P-wave (km/s) = 7.40912 2.83268 5.60889
#
# Compressibility (1/GPa) = 0.13533741
#
# Stress axis : x y z
#
# Youngs Moduli (GPa) = 48.97489 18.35697 53.41911
#
# Poissons Ratio (x) = -0.24573 -0.02659
# Poissons Ratio (y) = -0.65557 -0.37277
# Poissons Ratio (z) = -0.02438 -0.12810
#
# Static dielectric constant tensor:
#      x y z
#    x 1.698800 0.000000 0.000000 
#    y 0.000000 1.654220 0.000000 
#    z 0.000000 0.000000 1.670350 
# 
# From -- ./inp_files/8966.got.cif
#   From: 2010.05.17/outbox.ucp.g08.bks.cvg/sg53_5_cif.got.tgz:8966.got - 2010.06.11 16:32:34.
