data_PCOD9420750
_publ_section_title
;
Structure prediction by ZEFSAII (Michael W. Deem and Ramdas Pophale) SiO2 
 PCOD9420750
Probable space group: P C C A
;
_chemical_formula_sum "Si O2"
_cell_formula_units_Z 40
_cell_length_a 11.883000
_cell_length_b 7.405778
_cell_length_c 20.118331
_cell_angle_alpha 90.000000
_cell_angle_beta 90.000000
_cell_angle_gamma 90.000000
_cell_volume 1770.470666
_symmetry_space_group_name_H-M "P C C A"
_symmetry_group_IT_number 54
_symmetry_cell_setting 'orthorhombic'
loop_
_space_group_symop_operation_xyz
x,y,z
1/2-x,-y,z
1/2+x,-y,1/2-z
-x,y,1/2-z
-x,-y,-z
1/2+x,y,-z
1/2-x,y,1/2+z
x,-y,1/2+z
loop_
_atom_site_type_symbol
_atom_site_label
_atom_site_fract_x
_atom_site_fract_y
_atom_site_fract_z
Si Si1 0.348941 0.646489 0.512564
Si Si2 0.750000 0.000000 0.023549
Si Si3 0.670467 0.786135 0.646109
Si Si4 0.117676 0.471439 0.657323
Si Si5 0.000000 0.188096 0.750000
Si Si6 0.908387 0.632193 0.635602
O O1 0.250000 0.500000 0.499390
O O2 0.403389 0.586425 0.580903
O O3 0.415271 0.665110 0.443668
O O4 0.302398 0.847050 0.521952
O O5 0.829397 0.887491 0.074946
O O6 0.588779 0.890963 0.696946
O O7 0.803503 0.751995 0.661116
O O8 0.626545 0.579352 0.643494
O O9 0.250000 0.500000 0.664589
O O10 0.081669 0.314257 0.706341
O O11 0.032057 0.639026 0.667871
#
# Coordination Sequence:
#
# PCOD9420750 Si02
#       6
#     8   4   8   8   4   8
#     4  10  18  36  62  96 126 149 202 270 308 378
#     4  10  18  36  68  90 120 166 204 242 348 364
#     4   9  18  34  64  85 118 169 197 254 295 385
#     4  10  22  33  60  90 125 165 203 260 305 365
#     4  10  22  38  56  86 128 160 214 250 304 362
#     4   9  16  35  60  87 121 152 199 246 316 359
#
# _framework density 22.592863999999999
#
# number of rings (size 3 to 8) (size 9 to 14) (size 15 to 20)
#    0.000    2.400    4.000    0.600    5.600    0.000 
#    0.000    5.000   26.400    0.000    0.000    0.000 
#    0.000    0.000    0.000    0.000    0.000    0.000 
#
# Total GULP energy -222772.768214 kJ/mol
# GULP energy per Si atom -5569.319205 kJ/mol
# Density = 2.254144 g / cm^3
# Si number density = 22.592864 Si / 1000 Ang^3
#
#
#
# Elastic Constant Matrix: (Units=GPa)
#
#
# Indices 1 2 3 4 5 6 
#
# 1 157.1484 25.0812 29.6409 0.0000 0.0000 0.0000
# 2 25.0812 74.7813 -16.7326 0.0000 0.0000 0.0000
# 3 29.6409 -16.7326 56.0709 0.0000 0.0000 0.0000
# 4 0.0000 0.0000 0.0000 5.3715 0.0000 0.0000
# 5 0.0000 0.0000 0.0000 0.0000 13.3341 0.0000
# 6 0.0000 0.0000 0.0000 0.0000 0.0000 9.2594
#
#
#
# Elastic Compliance Matrix: (Units=1/GPa)
#
#
# Indices 1 2 3 4 5 6 
#
# 1 0.008001 -0.003890 -0.005390 0.000000 0.000000 0.000000
# 2 -0.003890 0.016220 0.006896 0.000000 0.000000 0.000000
# 3 -0.005390 0.006896 0.022742 0.000000 0.000000 0.000000
# 4 0.000000 0.000000 0.000000 0.186168 0.000000 0.000000
# 5 0.000000 0.000000 0.000000 0.000000 0.074996 0.000000
# 6 0.000000 0.000000 0.000000 0.000000 0.000000 0.107998
#
#
# Mechanical properties :
#
#
# Convention : Reuss Voigt Hill
#
# Bulk Modulus (GPa) = 23.69876 40.44217 32.07047
# Shear Modulus (GPa) = 11.49540 22.26040 16.87790
#
# Velocity S-wave (km/s) = 2.25812 3.14233 2.73618
# Velocity P-wave (km/s) = 4.16066 5.57718 4.92016
#
# Compressibility (1/GPa) = 0.04219630
#
# Stress axis : x y z
#
# Youngs Moduli (GPa) = 124.98625 61.65238 43.97143
#
# Poissons Ratio (x) = 0.23980 0.23702
# Poissons Ratio (y) = 0.48614 -0.30325
# Poissons Ratio (z) = 0.67370 -0.42518
#
# Static dielectric constant tensor:
#      x y z
#    x 2.045320 0.000000 0.000000 
#    y 0.000000 1.858410 0.000000 
#    z 0.000000 0.000000 1.866270 
# 
# From -- ./inp_files/21047.got.cif
#   From: 2010.05.17/outbox.cif.g08.bks.cpg/sg54_11_cif.got.tgz:21047.got - 2010.06.03 13:09:01.
