data_PCOD9420235
_publ_section_title
;
Structure prediction by ZEFSAII (Michael W. Deem and Ramdas Pophale) SiO2 
 PCOD9420235
Probable space group: P M N A
;
_chemical_formula_sum "Si O2"
_cell_formula_units_Z 64
_cell_length_a 9.000000
_cell_length_b 15.000000
_cell_length_c 24.000000
_cell_angle_alpha 90.000000
_cell_angle_beta 90.000000
_cell_angle_gamma 90.000000
_cell_volume 3240.000000
_symmetry_space_group_name_H-M "P M N A"
_symmetry_group_IT_number 53
_symmetry_cell_setting 'orthorhombic'
loop_
_space_group_symop_operation_xyz
x,y,z
1/2-x,-y,1/2+z
x,-y,-z
1/2-x,y,1/2-z
-x,-y,-z
1/2+x,y,1/2-z
-x,y,z
1/2+x,-y,1/2+z
loop_
_atom_site_type_symbol
_atom_site_label
_atom_site_fract_x
_atom_site_fract_y
_atom_site_fract_z
Si Si1 0.669672 0.866261 0.009132
Si Si2 0.822192 0.240209 0.809146
Si Si3 0.677152 0.615798 0.110406
Si Si4 0.323660 0.102688 0.395830
Si Si5 0.823620 0.691488 0.876038
Si Si6 0.674562 0.453557 0.193374
Si Si7 0.671188 0.345708 0.010499
Si Si8 0.176654 0.926940 0.364387
O O1 0.500000 0.893433 0.995644
O O2 0.703941 0.896496 0.071495
O O3 0.775063 0.902584 0.960735
O O4 0.674097 0.758985 0.006436
O O5 0.750000 0.266659 0.750000
O O6 0.764020 0.306472 0.857421
O O7 0.762707 0.142122 0.825289
O O8 0.000000 0.242330 0.805684
O O9 0.500000 0.638136 0.110334
O O10 0.698624 0.526336 0.145300
O O11 0.720640 0.605113 0.045736
O O12 0.500000 0.090138 0.390914
O O13 0.284948 0.203566 0.377654
O O14 0.237343 0.027228 0.361844
O O15 0.745582 0.638559 0.826733
O O16 0.768098 0.648839 0.934251
O O17 0.000000 0.683579 0.871806
O O18 0.750000 0.485119 0.250000
O O19 0.500000 0.443354 0.202031
O O20 0.500000 0.370615 0.023663
O O21 0.000000 0.922008 0.354217
#
# Coordination Sequence:
#
# PCOD9420235 Si02
#       8
#     8   8   8   8   8   8   8   8
#     4   9  17  31  53  81 116 158 195 234 283 345
#     4  12  25  40  60  85 119 160 201 247 299 357
#     4  10  21  40  64  92 123 156 196 243 296 360
#     4  10  21  35  54  84 119 154 196 245 295 349
#     4  10  22  40  60  86 124 160 199 250 301 355
#     4  11  24  42  66  90 116 152 200 251 302 358
#     4   9  17  34  59  87 123 161 197 236 290 358
#     4  11  21  36  57  83 116 155 200 244 291 349
#
# _framework density 19.753086
#
# number of rings (size 3 to 8) (size 9 to 14) (size 15 to 20)
#    0.000    1.750    1.250    3.375    0.000    7.000 
#    0.000    3.125    0.000    3.000    0.000    0.000 
#    0.000    0.000    0.000    0.000    0.000    0.000 
#
# Total GULP energy -357744.550674 kJ/mol
# GULP energy per Si atom -5589.758604 kJ/mol
# Density = 1.970813 g / cm^3
# Si number density = 19.753086 Si / 1000 Ang^3
#
#
#
# Elastic Constant Matrix: (Units=GPa)
#
#
# Indices 1 2 3 4 5 6 
#
# 1 57.2470 39.1181 13.7356 0.0000 0.0000 0.0000
# 2 39.1181 50.3487 13.7893 0.0000 0.0000 0.0000
# 3 13.7356 13.7893 22.5706 0.0000 0.0000 0.0000
# 4 0.0000 0.0000 0.0000 17.0619 0.0000 0.0000
# 5 0.0000 0.0000 0.0000 0.0000 32.7167 0.0000
# 6 0.0000 0.0000 0.0000 0.0000 0.0000 36.1221
#
#
#
# Elastic Compliance Matrix: (Units=1/GPa)
#
#
# Indices 1 2 3 4 5 6 
#
# 1 0.037924 -0.027795 -0.006098 0.000000 0.000000 0.000000
# 2 -0.027795 0.044223 -0.010103 0.000000 0.000000 0.000000
# 3 -0.006098 -0.010103 0.054189 0.000000 0.000000 0.000000
# 4 0.000000 0.000000 0.000000 0.058610 0.000000 0.000000
# 5 0.000000 0.000000 0.000000 0.000000 0.030565 0.000000
# 6 0.000000 0.000000 0.000000 0.000000 0.000000 0.027684
#
#
# Mechanical properties :
#
#
# Convention : Reuss Voigt Hill
#
# Bulk Modulus (GPa) = 20.68494 29.27250 24.97872
# Shear Modulus (GPa) = 13.99373 21.41502 17.70438
#
# Velocity S-wave (km/s) = 2.66453 3.29619 2.99705
# Velocity P-wave (km/s) = 4.46775 5.41645 4.96481
#
# Compressibility (1/GPa) = 0.04834436
#
# Stress axis : x y z
#
# Youngs Moduli (GPa) = 26.36845 22.61244 18.45393
#
# Poissons Ratio (x) = 0.62851 0.11254
# Poissons Ratio (y) = 0.73290 0.18644
# Poissons Ratio (z) = 0.16080 0.22846
#
# Static dielectric constant tensor:
#      x y z
#    x 1.659040 0.000000 0.000000 
#    y 0.000000 1.721580 0.000000 
#    z 0.000000 0.000000 1.684780 
# 
# From -- ./inp_files/34295.got.cif
#   From: 2010.05.17/outbox.ucp.g08.bks.cvg/sg53_18_cif.got.tgz:34295.got - 2010.06.11 16:32:34.
