data_PCOD9420629
_publ_section_title
;
Structure prediction by ZEFSAII (Michael W. Deem and Ramdas Pophale) SiO2 
 PCOD9420629
Probable space group: P C C A
;
_chemical_formula_sum "Si O2"
_cell_formula_units_Z 44
_cell_length_a 13.720649
_cell_length_b 8.587849
_cell_length_c 17.148717
_cell_angle_alpha 90.000000
_cell_angle_beta 90.000000
_cell_angle_gamma 90.000000
_cell_volume 2020.648103
_symmetry_space_group_name_H-M "P C C A"
_symmetry_group_IT_number 54
_symmetry_cell_setting 'orthorhombic'
loop_
_space_group_symop_operation_xyz
x,y,z
1/2-x,-y,z
1/2+x,-y,1/2-z
-x,y,1/2-z
-x,-y,-z
1/2+x,y,-z
1/2-x,y,1/2+z
x,-y,1/2+z
loop_
_atom_site_type_symbol
_atom_site_label
_atom_site_fract_x
_atom_site_fract_y
_atom_site_fract_z
Si Si1 0.959229 0.932569 0.869219
Si Si2 0.612522 0.267945 0.425856
Si Si3 0.081785 0.682811 0.497660
Si Si4 0.750000 0.500000 0.906897
Si Si5 0.343138 0.111389 0.778608
Si Si6 0.740212 0.813030 0.077838
O O1 0.918070 0.101424 0.891784
O O2 0.955096 0.818759 0.943454
O O3 0.890351 0.853140 0.804075
O O4 0.065122 0.953519 0.829723
O O5 0.515637 0.362686 0.451053
O O6 0.688179 0.359656 0.369592
O O7 0.673743 0.237463 0.505277
O O8 0.161006 0.576740 0.543356
O O9 0.151963 0.752538 0.432315
O O10 0.304048 0.238817 0.839585
O O11 0.250000 0.000000 0.765138
O O12 0.750000 0.000000 0.075022
#
# Coordination Sequence:
#
# PCOD9420629 Si02
#       6
#     8   8   8   4   8   8
#     4  11  22  37  65  93 120 158 198 261 311 350
#     4  11  20  38  61  90 121 156 202 252 297 363
#     4  11  21  38  63  90 123 155 205 255 301 359
#     4  10  26  34  58  90 124 166 200 244 304 358
#     4  10  22  35  55 100 124 149 193 253 314 360
#     4  10  18  32  57  91 120 146 189 247 305 347
#
# _framework density 21.775193000000002
#
# number of rings (size 3 to 8) (size 9 to 14) (size 15 to 20)
#    0.000    1.455    3.636    3.273    5.091    0.000 
#    0.000    0.000    0.000    8.727    0.000    0.000 
#    0.000    0.000    0.000    0.000    0.000    0.000 
#
# Total GULP energy -244983.806716 kJ/mol
# GULP energy per Si atom -5567.813789 kJ/mol
# Density = 2.172563 g / cm^3
# Si number density = 21.775193 Si / 1000 Ang^3
#
#
#
# Elastic Constant Matrix: (Units=GPa)
#
#
# Indices 1 2 3 4 5 6 
#
# 1 175.4424 26.6099 27.8873 0.0000 0.0000 0.0000
# 2 26.6099 40.3493 -13.2467 0.0000 0.0000 0.0000
# 3 27.8873 -13.2467 65.7312 0.0000 0.0000 0.0000
# 4 0.0000 0.0000 0.0000 -4.6199 0.0000 0.0000
# 5 0.0000 0.0000 0.0000 0.0000 25.6555 0.0000
# 6 0.0000 0.0000 0.0000 0.0000 0.0000 31.4399
#
#
#
# Elastic Compliance Matrix: (Units=1/GPa)
#
#
# Indices 1 2 3 4 5 6 
#
# 1 0.007351 -0.006287 -0.004386 0.000000 0.000000 0.000000
# 2 -0.006287 0.031918 0.009100 0.000000 0.000000 0.000000
# 3 -0.004386 0.009100 0.018908 0.000000 0.000000 0.000000
# 4 0.000000 0.000000 0.000000 -0.216453 0.000000 0.000000
# 5 0.000000 0.000000 0.000000 0.000000 0.038978 0.000000
# 6 0.000000 0.000000 0.000000 0.000000 0.000000 0.031807
#
#
# Mechanical properties :
#
#
# Convention : Reuss Voigt Hill
#
# Bulk Modulus (GPa) = 18.17206 40.44711 29.30959
# Shear Modulus (GPa) = -75.75562 26.51325 -24.62118
#
# Velocity S-wave (km/s) = -5.90469 3.49318 -3.36623
# Velocity P-wave (km/s) = 6.17445 5.90635 1.27256
#
# Compressibility (1/GPa) = 0.05502952
#
# Stress axis : x y z
#
# Youngs Moduli (GPa) = 136.04246 31.33070 52.88757
#
# Poissons Ratio (x) = 0.19699 0.23195
# Poissons Ratio (y) = 0.85537 -0.48127
# Poissons Ratio (z) = 0.59664 -0.28510
#
# Static dielectric constant tensor:
#      x y z
#    x 1.855200 0.000000 0.000000 
#    y 0.000000 1.962250 0.000000 
#    z 0.000000 0.000000 1.825980 
# 
# From -- ./inp_files/17934.got.cif
#   From: 2010.05.17/outbox.cif.g08.bks.cpg/sg54_9_cif.got.tgz:17934.got - 2010.06.03 13:09:01.
