data_PCOD9420976
_publ_section_title
;
Structure prediction by ZEFSAII (Michael W. Deem and Ramdas Pophale) SiO2 
 PCOD9420976
Probable space group: P C C A
;
_chemical_formula_sum "Si O2"
_cell_formula_units_Z 48
_cell_length_a 18.072973
_cell_length_b 10.012060
_cell_length_c 11.883700
_cell_angle_alpha 90.000000
_cell_angle_beta 90.000000
_cell_angle_gamma 90.000000
_cell_volume 2150.328064
_symmetry_space_group_name_H-M "P C C A"
_symmetry_group_IT_number 54
_symmetry_cell_setting 'orthorhombic'
loop_
_space_group_symop_operation_xyz
x,y,z
1/2-x,-y,z
1/2+x,-y,1/2-z
-x,y,1/2-z
-x,-y,-z
1/2+x,y,-z
1/2-x,y,1/2+z
x,-y,1/2+z
loop_
_atom_site_type_symbol
_atom_site_label
_atom_site_fract_x
_atom_site_fract_y
_atom_site_fract_z
Si Si1 0.087004 0.483488 0.383904
Si Si2 0.582168 0.133801 0.288156
Si Si3 0.074840 0.192322 0.469650
Si Si4 0.586364 0.460537 0.862224
Si Si5 0.412616 0.158110 0.605332
Si Si6 0.829547 0.937882 0.089100
O O1 0.091880 0.324250 0.401697
O O2 0.115800 0.533441 0.507195
O O3 0.116234 0.519532 0.257687
O O4 0.998398 0.512548 0.376266
O O5 0.500000 0.170012 0.250000
O O6 0.600784 0.209614 0.402403
O O7 0.641444 0.151221 0.190765
O O8 0.581585 0.975256 0.320635
O O9 0.987183 0.163166 0.470096
O O10 0.114727 0.062818 0.421883
O O11 0.585999 0.301389 0.837716
O O12 0.340906 0.139818 0.527348
O O13 0.750000 0.000000 0.106393
#
# Coordination Sequence:
#
# PCOD9420976 Si02
#       6
#     8   8   8   8   8   8
#     4   9  18  32  50  81 111 147 185 245 286 343
#     4  11  18  31  53  79 107 151 193 226 279 349
#     4  10  19  34  55  78 108 148 188 228 283 351
#     4   9  18  31  52  79 113 143 190 238 297 333
#     4  10  19  33  56  77 107 150 186 228 280 355
#     4  11  22  34  51  82 116 144 186 241 290 338
#
# _framework density 22.322175999999999
#
# number of rings (size 3 to 8) (size 9 to 14) (size 15 to 20)
#    0.000    2.000    3.333    2.000    2.333    4.000 
#    3.000    0.000    0.000    1.000    0.000    2.333 
#    0.000    0.000    0.000    0.000    0.000    0.000 
#
# Total GULP energy -267621.631783 kJ/mol
# GULP energy per Si atom -5575.450662 kJ/mol
# Density = 2.227137 g / cm^3
# Si number density = 22.322176 Si / 1000 Ang^3
#
#
#
# Elastic Constant Matrix: (Units=GPa)
#
#
# Indices 1 2 3 4 5 6 
#
# 1 52.3591 -9.8954 26.5667 0.0000 0.0000 0.0000
# 2 -9.8954 64.3863 18.5211 0.0000 0.0000 0.0000
# 3 26.5667 18.5211 194.5219 0.0000 0.0000 0.0000
# 4 0.0000 0.0000 0.0000 14.6441 0.0000 0.0000
# 5 0.0000 0.0000 0.0000 0.0000 6.1047 0.0000
# 6 0.0000 0.0000 0.0000 0.0000 0.0000 0.1536
#
#
#
# Elastic Compliance Matrix: (Units=1/GPa)
#
#
# Indices 1 2 3 4 5 6 
#
# 1 0.021614 0.004288 -0.003360 0.000000 0.000000 0.000000
# 2 0.004288 0.016819 -0.002187 0.000000 0.000000 0.000000
# 3 -0.003360 -0.002187 0.005808 0.000000 0.000000 0.000000
# 4 0.000000 0.000000 0.000000 0.068287 0.000000 0.000000
# 5 0.000000 0.000000 0.000000 0.000000 0.163808 0.000000
# 6 0.000000 0.000000 0.000000 0.000000 0.000000 6.509261
#
#
# Mechanical properties :
#
#
# Convention : Reuss Voigt Hill
#
# Bulk Modulus (GPa) = 23.96707 42.40580 33.18644
# Shear Modulus (GPa) = 0.73508 22.58547 11.66027
#
# Velocity S-wave (km/s) = 0.57447 3.18432 2.28801
# Velocity P-wave (km/s) = 3.34667 5.70599 4.67753
#
# Compressibility (1/GPa) = 0.04172391
#
# Stress axis : x y z
#
# Youngs Moduli (GPa) = 46.26551 59.45485 172.17671
#
# Poissons Ratio (x) = -0.25497 0.57856
# Poissons Ratio (y) = -0.19841 0.37657
# Poissons Ratio (z) = 0.15547 0.13004
#
# Static dielectric constant tensor:
#      x y z
#    x 1.752240 0.000000 0.000000 
#    y 0.000000 1.906300 0.000000 
#    z 0.000000 0.000000 2.064550 
# 
# From -- ./inp_files/8948.got.cif
#   From: 2010.05.17/outbox.cif.g08.bks.cpg/sg54_5_cif.got.tgz:8948.got - 2010.06.03 13:09:01.
