data_PCOD9420679
_publ_section_title
;
Structure prediction by ZEFSAII (Michael W. Deem and Ramdas Pophale) SiO2 
 PCOD9420679
Probable space group: P C C A
;
_chemical_formula_sum "Si O2"
_cell_formula_units_Z 64
_cell_length_a 15.140007
_cell_length_b 23.455484
_cell_length_c 8.851171
_cell_angle_alpha 90.000000
_cell_angle_beta 90.000000
_cell_angle_gamma 90.000000
_cell_volume 3143.194140
_symmetry_space_group_name_H-M "P C C A"
_symmetry_group_IT_number 54
_symmetry_cell_setting 'orthorhombic'
loop_
_space_group_symop_operation_xyz
x,y,z
1/2-x,-y,z
1/2+x,-y,1/2-z
-x,y,1/2-z
-x,-y,-z
1/2+x,y,-z
1/2-x,y,1/2+z
x,-y,1/2+z
loop_
_atom_site_type_symbol
_atom_site_label
_atom_site_fract_x
_atom_site_fract_y
_atom_site_fract_z
Si Si1 0.405210 0.581640 0.222154
Si Si2 0.784270 0.214228 0.247532
Si Si3 0.710417 0.371448 0.251029
Si Si4 0.175809 0.046089 0.524884
Si Si5 0.347731 0.479811 0.427139
Si Si6 0.187141 0.860444 0.484375
Si Si7 0.786535 0.297108 0.008375
Si Si8 0.589925 0.038470 0.161333
O O1 0.500000 0.610312 0.250000
O O2 0.316177 0.619245 0.225534
O O3 0.393026 0.533641 0.350634
O O4 0.400074 0.548484 0.063439
O O5 0.705423 0.184603 0.150283
O O6 0.831049 0.167195 0.352256
O O7 0.834238 0.254213 0.125468
O O8 0.748773 0.256704 0.375911
O O9 0.669673 0.430801 0.197841
O O10 0.710793 0.327389 0.110326
O O11 0.670550 0.347307 0.407270
O O12 0.217829 0.107091 0.493477
O O13 0.159221 0.040029 0.701401
O O14 0.250000 0.000000 0.483866
O O15 0.094880 0.021534 0.427492
O O16 0.250000 0.500000 0.481448
O O17 0.115227 0.908139 0.443866
O O18 0.500000 0.046759 0.250000
#
# Coordination Sequence:
#
# PCOD9420679 Si02
#       8
#     8   8   8   8   8   8   8   8
#     4  11  22  34  51  81 119 147 181 222 275 337
#     4   9  18  32  56  86 101 130 187 246 271 315
#     4  10  18  34  57  80 109 142 185 229 279 326
#     4  10  20  34  54  78 109 149 184 221 262 330
#     4  10  20  34  54  78 110 151 189 224 265 331
#     4  10  18  34  57  80 109 142 186 227 278 325
#     4   9  18  32  56  86 100 130 187 245 272 316
#     4  11  22  34  51  81 119 148 182 221 276 335
#
# _framework density 20.361453000000001
#
# number of rings (size 3 to 8) (size 9 to 14) (size 15 to 20)
#    0.000    2.000    2.500    3.000    3.500    0.000 
#    0.000    0.000    0.000    4.500    0.000    0.000 
#    0.000    0.000    0.000    0.000    0.000    0.000 
#
# Total GULP energy -356466.405205 kJ/mol
# GULP energy per Si atom -5569.787581 kJ/mol
# Density = 2.031511 g / cm^3
# Si number density = 20.361453 Si / 1000 Ang^3
#
#
#
# Elastic Constant Matrix: (Units=GPa)
#
#
# Indices 1 2 3 4 5 6 
#
# 1 48.2159 11.1064 14.0873 0.0000 0.0000 0.0000
# 2 11.1064 74.9838 33.4770 0.0000 0.0000 0.0000
# 3 14.0873 33.4770 125.6650 0.0000 0.0000 0.0000
# 4 0.0000 0.0000 0.0000 55.2435 0.0000 0.0000
# 5 0.0000 0.0000 0.0000 0.0000 8.8795 0.0000
# 6 0.0000 0.0000 0.0000 0.0000 0.0000 4.7916
#
#
#
# Elastic Compliance Matrix: (Units=1/GPa)
#
#
# Indices 1 2 3 4 5 6 
#
# 1 0.021825 -0.002429 -0.001800 0.000000 0.000000 0.000000
# 2 -0.002429 0.015407 -0.003832 0.000000 0.000000 0.000000
# 3 -0.001800 -0.003832 0.009180 0.000000 0.000000 0.000000
# 4 0.000000 0.000000 0.000000 0.018102 0.000000 0.000000
# 5 0.000000 0.000000 0.000000 0.000000 0.112619 0.000000
# 6 0.000000 0.000000 0.000000 0.000000 0.000000 0.208697
#
#
# Mechanical properties :
#
#
# Convention : Reuss Voigt Hill
#
# Bulk Modulus (GPa) = 33.01336 40.68957 36.85146
# Shear Modulus (GPa) = 12.13449 26.46252 19.29850
#
# Velocity S-wave (km/s) = 2.44387 3.60896 3.08197
# Velocity P-wave (km/s) = 4.92058 6.11499 5.55001
#
# Compressibility (1/GPa) = 0.03029077
#
# Stress axis : x y z
#
# Youngs Moduli (GPa) = 45.81822 64.90604 108.92953
#
# Poissons Ratio (x) = 0.15768 0.19602
# Poissons Ratio (y) = 0.11131 0.41742
# Poissons Ratio (z) = 0.08245 0.24872
#
# Static dielectric constant tensor:
#      x y z
#    x 1.787600 0.000000 0.000000 
#    y 0.000000 1.812540 0.000000 
#    z 0.000000 0.000000 1.764550 
# 
# From -- ./inp_files/3746.got.cif
#   From: 2010.05.17/outbox.cif.g08.bks.cpg/sg54_2_cif.got.tgz:3746.got - 2010.06.03 13:09:01.
