data_PCOD9420873
_publ_section_title
;
Structure prediction by ZEFSAII (Michael W. Deem and Ramdas Pophale) SiO2 
 PCOD9420873
Probable space group: P C C A
;
_chemical_formula_sum "Si O2"
_cell_formula_units_Z 56
_cell_length_a 15.319471
_cell_length_b 15.071432
_cell_length_c 9.011434
_cell_angle_alpha 90.000000
_cell_angle_beta 90.000000
_cell_angle_gamma 90.000000
_cell_volume 2080.617244
_symmetry_space_group_name_H-M "P C C A"
_symmetry_group_IT_number 54
_symmetry_cell_setting 'orthorhombic'
loop_
_space_group_symop_operation_xyz
x,y,z
1/2-x,-y,z
1/2+x,-y,1/2-z
-x,y,1/2-z
-x,-y,-z
1/2+x,y,-z
1/2-x,y,1/2+z
x,-y,1/2+z
loop_
_atom_site_type_symbol
_atom_site_label
_atom_site_fract_x
_atom_site_fract_y
_atom_site_fract_z
Si Si1 0.401089 0.871877 0.000531
Si Si2 0.141940 0.012509 0.722744
Si Si3 0.809532 0.570467 0.576793
Si Si4 0.306431 0.836754 0.528313
Si Si5 0.919422 0.487218 0.844089
Si Si6 0.226886 0.732258 0.763120
Si Si7 0.057630 0.685013 0.599576
O O1 0.296592 0.853098 0.003001
O O2 0.452568 0.776963 0.003880
O O3 0.406900 0.926947 0.155246
O O4 0.406708 0.935385 0.855528
O O5 0.145402 0.076099 0.577930
O O6 0.250000 0.000000 0.755848
O O7 0.750000 0.500000 0.496522
O O8 0.853471 0.522594 0.716679
O O9 0.881264 0.587811 0.452382
O O10 0.751899 0.651063 0.631274
O O11 0.329152 0.795454 0.371864
O O12 0.305371 0.775438 0.674667
O O13 0.945915 0.578322 0.933613
O O14 0.000000 0.453148 0.750000
O O15 0.157893 0.695482 0.648095
O O16 0.000000 0.692123 0.750000
#
# Coordination Sequence:
#
# PCOD9420873 Si02
#       7
#     8   8   8   8   8   8   8
#     4  10  20  32  55  83 109 150 189 239 290 348
#     4  10  19  31  53  84 117 145 187 238 293 362
#     4  11  24  36  60  96 125 151 201 268 313 352
#     4  10  19  34  55  84 118 148 189 233 303 359
#     4  10  22  43  64  84 120 172 211 243 306 387
#     4  10  22  35  59  86 119 153 188 245 304 362
#     4   9  21  41  61  79 112 162 202 236 293 365
#
# _framework density 26.915088999999998
#
# number of rings (size 3 to 8) (size 9 to 14) (size 15 to 20)
#    0.000    2.000    1.429    2.143   12.000    0.000 
#    0.000    0.714    0.000    0.000    0.000    0.000 
#    0.000    0.000    0.000    0.000    0.000    0.000 
#
# Total GULP energy -312480.172664 kJ/mol
# GULP energy per Si atom -5580.003083 kJ/mol
# Density = 2.685383 g / cm^3
# Si number density = 26.915089 Si / 1000 Ang^3
#
#
#
# Elastic Constant Matrix: (Units=GPa)
#
#
# Indices 1 2 3 4 5 6 
#
# 1 24.2239 -6.1851 0.7578 0.0000 0.0000 0.0000
# 2 -6.1851 83.3965 23.7235 0.0000 0.0000 0.0000
# 3 0.7578 23.7235 107.0603 0.0000 0.0000 0.0000
# 4 0.0000 0.0000 0.0000 46.0141 0.0000 0.0000
# 5 0.0000 0.0000 0.0000 0.0000 10.6413 0.0000
# 6 0.0000 0.0000 0.0000 0.0000 0.0000 18.5202
#
#
#
# Elastic Compliance Matrix: (Units=1/GPa)
#
#
# Indices 1 2 3 4 5 6 
#
# 1 0.042190 0.003430 -0.001059 0.000000 0.000000 0.000000
# 2 0.003430 0.013076 -0.002922 0.000000 0.000000 0.000000
# 3 -0.001059 -0.002922 0.009995 0.000000 0.000000 0.000000
# 4 0.000000 0.000000 0.000000 0.021732 0.000000 0.000000
# 5 0.000000 0.000000 0.000000 0.000000 0.093974 0.000000
# 6 0.000000 0.000000 0.000000 0.000000 0.000000 0.053995
#
#
# Mechanical properties :
#
#
# Convention : Reuss Voigt Hill
#
# Bulk Modulus (GPa) = 15.58566 27.91926 21.75246
# Shear Modulus (GPa) = 19.42112 28.12743 23.77427
#
# Velocity S-wave (km/s) = 2.68912 3.23622 2.97527
# Velocity P-wave (km/s) = 3.93002 4.93556 4.46121
#
# Compressibility (1/GPa) = 0.06416155
#
# Stress axis : x y z
#
# Youngs Moduli (GPa) = 23.70206 76.47314 100.04513
#
# Poissons Ratio (x) = -0.26232 0.10592
# Poissons Ratio (y) = -0.08130 0.29232
# Poissons Ratio (z) = 0.02509 0.22345
#
# Static dielectric constant tensor:
#      x y z
#    x 2.245510 0.000000 0.000000 
#    y 0.000000 2.306830 0.000000 
#    z 0.000000 0.000000 2.181070 
# 
# From -- ./inp_files/4803.got.cif
#   From: 2010.05.17/outbox.cif.g08.bks.cpg/sg54_3_cif.got.tgz:4803.got - 2010.06.03 13:09:01.
