data_PCOD9420670
_publ_section_title
;
Structure prediction by ZEFSAII (Michael W. Deem and Ramdas Pophale) SiO2 
 PCOD9420670
Probable space group: P C C A
;
_chemical_formula_sum "Si O2"
_cell_formula_units_Z 52
_cell_length_a 5.000322
_cell_length_b 18.909047
_cell_length_c 26.714599
_cell_angle_alpha 90.000000
_cell_angle_beta 90.000000
_cell_angle_gamma 90.000000
_cell_volume 2525.900698
_symmetry_space_group_name_H-M "P C C A"
_symmetry_group_IT_number 54
_symmetry_cell_setting 'orthorhombic'
loop_
_space_group_symop_operation_xyz
x,y,z
1/2-x,-y,z
1/2+x,-y,1/2-z
-x,y,1/2-z
-x,-y,-z
1/2+x,y,-z
1/2-x,y,1/2+z
x,-y,1/2+z
loop_
_atom_site_type_symbol
_atom_site_label
_atom_site_fract_x
_atom_site_fract_y
_atom_site_fract_z
Si Si1 0.816097 0.927088 0.465864
Si Si2 0.500000 0.248672 0.750000
Si Si3 0.308942 0.774601 0.034078
Si Si4 0.136651 0.845702 0.194580
Si Si5 0.425380 0.714083 0.630036
Si Si6 0.250000 0.000000 0.213358
Si Si7 0.598802 0.647801 0.173183
Si Si8 0.250000 0.500000 0.783748
O O1 0.619465 0.927952 0.514805
O O2 0.738447 0.852883 0.442456
O O3 0.750000 0.000000 0.438302
O O4 0.589038 0.194916 0.793199
O O5 0.310839 0.304367 0.778844
O O6 0.211729 0.722151 0.076395
O O7 0.607412 0.769477 0.013197
O O8 0.016469 0.792108 0.153929
O O9 0.175556 0.928442 0.183496
O O10 0.000000 0.843096 0.250000
O O11 0.702822 0.672653 0.629762
O O12 0.206156 0.670689 0.662631
O O13 0.500000 0.982759 0.250000
O O14 0.640383 0.566343 0.185190
O O15 0.500000 0.524414 0.750000
#
# Coordination Sequence:
#
# PCOD9420670 Si02
#       8
#     8   4   8   8   8   4   8   4
#     4   8  14  26  47  72 100 137 178 228 297 354
#     4  10  18  34  52  80 110 158 180 230 270 332
#     4  10  20  37  58  82 112 147 197 252 298 345
#     4  10  19  33  52  75 113 151 194 236 282 333
#     4  11  23  37  59  88 115 156 196 243 289 348
#     4  10  20  32  48  72 102 154 200 238 274 320
#     4  11  23  37  58  87 123 151 192 222 284 345
#     4  12  24  38  60  92 126 164 190 222 280 358
#
# _framework density 20.586715999999999
#
# number of rings (size 3 to 8) (size 9 to 14) (size 15 to 20)
#    0.000    1.846    3.077    1.846    2.154    0.000 
#    1.385    0.000    0.000    0.000    2.000   10.769 
#    0.000    0.000    0.000    0.000    0.000    0.000 
#
# Total GULP energy -289721.001675 kJ/mol
# GULP energy per Si atom -5571.557725 kJ/mol
# Density = 2.053986 g / cm^3
# Si number density = 20.586716 Si / 1000 Ang^3
#
#
#
# Elastic Constant Matrix: (Units=GPa)
#
#
# Indices 1 2 3 4 5 6 
#
# 1 75.4175 4.1162 -5.9320 0.0000 0.0000 0.0000
# 2 4.1162 123.4335 16.9911 0.0000 0.0000 0.0000
# 3 -5.9320 16.9911 29.7356 0.0000 0.0000 0.0000
# 4 0.0000 0.0000 0.0000 11.3256 0.0000 0.0000
# 5 0.0000 0.0000 0.0000 0.0000 13.8448 0.0000
# 6 0.0000 0.0000 0.0000 0.0000 0.0000 26.5486
#
#
#
# Elastic Compliance Matrix: (Units=1/GPa)
#
#
# Indices 1 2 3 4 5 6 
#
# 1 0.013561 -0.000895 0.003217 0.000000 0.000000 0.000000
# 2 -0.000895 0.008852 -0.005237 0.000000 0.000000 0.000000
# 3 0.003217 -0.005237 0.037264 0.000000 0.000000 0.000000
# 4 0.000000 0.000000 0.000000 0.088295 0.000000 0.000000
# 5 0.000000 0.000000 0.000000 0.000000 0.072229 0.000000
# 6 0.000000 0.000000 0.000000 0.000000 0.000000 0.037667
#
#
# Mechanical properties :
#
#
# Convention : Reuss Voigt Hill
#
# Bulk Modulus (GPa) = 18.57098 28.77077 23.67088
# Shear Modulus (GPa) = 17.75267 24.57123 21.16195
#
# Velocity S-wave (km/s) = 2.93974 3.45852 3.20963
# Velocity P-wave (km/s) = 4.53467 5.47305 5.02581
#
# Compressibility (1/GPa) = 0.05384745
#
# Stress axis : x y z
#
# Youngs Moduli (GPa) = 73.73867 112.96579 26.83572
#
# Poissons Ratio (x) = 0.10111 -0.08633
# Poissons Ratio (y) = 0.06600 0.14053
# Poissons Ratio (z) = -0.23721 0.59158
#
# Static dielectric constant tensor:
#      x y z
#    x 1.805180 0.000000 0.000000 
#    y 0.000000 1.754860 0.000000 
#    z 0.000000 0.000000 1.758760 
# 
# From -- ./inp_files/25472.got.cif
#   From: 2010.05.17/outbox.cif.g08.bks.cpg/sg54_13_cif.got.tgz:25472.got - 2010.06.03 13:09:01.
