data_PCOD9420904
_publ_section_title
;
Structure prediction by ZEFSAII (Michael W. Deem and Ramdas Pophale) SiO2 
 PCOD9420904
Probable space group: P C C A
;
_chemical_formula_sum "Si O2"
_cell_formula_units_Z 40
_cell_length_a 14.164397
_cell_length_b 25.077832
_cell_length_c 5.233944
_cell_angle_alpha 90.000000
_cell_angle_beta 90.000000
_cell_angle_gamma 90.000000
_cell_volume 1859.161644
_symmetry_space_group_name_H-M "P C C A"
_symmetry_group_IT_number 54
_symmetry_cell_setting 'orthorhombic'
loop_
_space_group_symop_operation_xyz
x,y,z
1/2-x,-y,z
1/2+x,-y,1/2-z
-x,y,1/2-z
-x,-y,-z
1/2+x,y,-z
1/2-x,y,1/2+z
x,-y,1/2+z
loop_
_atom_site_type_symbol
_atom_site_label
_atom_site_fract_x
_atom_site_fract_y
_atom_site_fract_z
Si Si1 0.315285 0.137718 0.396050
Si Si2 0.893572 0.477909 0.532932
Si Si3 0.389709 0.025198 0.279266
Si Si4 0.685150 0.367695 0.165707
Si Si5 0.313572 0.253507 0.434450
O O1 0.255844 0.135199 0.656489
O O2 0.378819 0.085712 0.370067
O O3 0.362991 0.196402 0.393981
O O4 0.849907 0.485535 0.254105
O O5 0.883408 0.417459 0.622262
O O6 0.000000 0.500000 0.500000
O O7 0.500000 0.012974 0.250000
O O8 0.349679 0.986368 0.498165
O O9 0.734386 0.370441 0.443312
O O10 0.637116 0.309865 0.121201
O O11 0.270621 0.254000 0.720868
#
# Coordination Sequence:
#
# PCOD9420904 Si02
#       5
#     8   8   8   8   8
#     4  10  19  32  53  78 103 132 169 217 259 302
#     4  10  21  35  50  71 103 139 162 204 256 306
#     4  10  21  35  50  72 105 143 172 209 257 304
#     4  10  19  32  53  78 101 130 172 212 248 304
#     4   8  16  30  48  74 100 126 159 205 259 294
#
# _framework density 21.515072
#
# number of rings (size 3 to 8) (size 9 to 14) (size 15 to 20)
#    0.000    2.400    0.000    2.400    0.000    4.800 
#    0.000    0.000    4.400    0.000   10.400    0.000 
#    0.000    0.000    0.000    0.000    0.000    0.000 
#
# Total GULP energy -222950.585115 kJ/mol
# GULP energy per Si atom -5573.764628 kJ/mol
# Density = 2.146610 g / cm^3
# Si number density = 21.515072 Si / 1000 Ang^3
#
#
#
# Elastic Constant Matrix: (Units=GPa)
#
#
# Indices 1 2 3 4 5 6 
#
# 1 37.4431 -8.5008 6.1345 0.0000 0.0000 0.0000
# 2 -8.5008 145.7894 17.5903 0.0000 0.0000 0.0000
# 3 6.1345 17.5903 164.3842 0.0000 0.0000 0.0000
# 4 0.0000 0.0000 0.0000 35.0114 0.0000 0.0000
# 5 0.0000 0.0000 0.0000 0.0000 7.9697 0.0000
# 6 0.0000 0.0000 0.0000 0.0000 0.0000 3.3135
#
#
#
# Elastic Compliance Matrix: (Units=1/GPa)
#
#
# Indices 1 2 3 4 5 6 
#
# 1 0.027299 0.001737 -0.001205 0.000000 0.000000 0.000000
# 2 0.001737 0.007059 -0.000820 0.000000 0.000000 0.000000
# 3 -0.001205 -0.000820 0.006216 0.000000 0.000000 0.000000
# 4 0.000000 0.000000 0.000000 0.028562 0.000000 0.000000
# 5 0.000000 0.000000 0.000000 0.000000 0.125475 0.000000
# 6 0.000000 0.000000 0.000000 0.000000 0.000000 0.301793
#
#
# Mechanical properties :
#
#
# Convention : Reuss Voigt Hill
#
# Bulk Modulus (GPa) = 25.00069 42.00721 33.50395
# Shear Modulus (GPa) = 9.79792 31.41845 20.60819
#
# Velocity S-wave (km/s) = 2.13632 3.82553 3.09827
# Velocity P-wave (km/s) = 4.21076 6.25139 5.32965
#
# Compressibility (1/GPa) = 0.03999890
#
# Stress axis : x y z
#
# Youngs Moduli (GPa) = 36.63147 141.65385 160.87421
#
# Poissons Ratio (x) = -0.24607 0.19379
# Poissons Ratio (y) = -0.06363 0.13196
# Poissons Ratio (z) = 0.04413 0.11619
#
# Static dielectric constant tensor:
#      x y z
#    x 1.696040 0.000000 0.000000 
#    y 0.000000 1.840920 0.000000 
#    z 0.000000 0.000000 1.854890 
# 
# From -- ./inp_files/527.got.cif
#   From: 2010.05.17/outbox.cif.g08.bks.cpg/sg54_1_cif.got.tgz:527.got - 2010.06.03 13:09:01.
