data_PCOD9420514
_publ_section_title
;
Structure prediction by ZEFSAII (Michael W. Deem and Ramdas Pophale) SiO2 
 PCOD9420514
Probable space group: P C C A
;
_chemical_formula_sum "Si O2"
_cell_formula_units_Z 48
_cell_length_a 8.326710
_cell_length_b 9.327608
_cell_length_c 30.978926
_cell_angle_alpha 90.000000
_cell_angle_beta 90.000000
_cell_angle_gamma 90.000000
_cell_volume 2406.080110
_symmetry_space_group_name_H-M "P C C A"
_symmetry_group_IT_number 54
_symmetry_cell_setting 'orthorhombic'
loop_
_space_group_symop_operation_xyz
x,y,z
1/2-x,-y,z
1/2+x,-y,1/2-z
-x,y,1/2-z
-x,-y,-z
1/2+x,y,-z
1/2-x,y,1/2+z
x,-y,1/2+z
loop_
_atom_site_type_symbol
_atom_site_label
_atom_site_fract_x
_atom_site_fract_y
_atom_site_fract_z
Si Si1 0.185873 0.339346 0.738431
Si Si2 0.874351 0.382113 0.517524
Si Si3 0.729340 0.661212 0.099684
Si Si4 0.196216 0.162516 0.158721
Si Si5 0.846287 0.654054 0.923755
Si Si6 0.320379 0.158895 0.817657
O O1 0.250000 0.500000 0.732967
O O2 0.208673 0.250581 0.694709
O O3 0.278064 0.257014 0.776752
O O4 0.000000 0.345176 0.750000
O O5 0.750000 0.500000 0.533074
O O6 0.862612 0.296755 0.562291
O O7 0.822449 0.301418 0.474091
O O8 0.000000 0.500000 0.500000
O O9 0.750000 0.500000 0.117961
O O10 0.540473 0.659771 0.084101
O O11 0.750145 0.771078 0.138789
O O12 0.217566 0.242075 0.113005
O O13 0.010956 0.160459 0.174060
O O14 0.250000 0.000000 0.155697
O O15 0.750000 0.500000 0.920391
O O16 0.250000 0.000000 0.810912
#
# Coordination Sequence:
#
# PCOD9420514 Si02
#       6
#     8   8   8   8   8   8
#     4  12  25  44  67  95 123 156 203 255 306 362
#     4  10  17  34  56  88 122 155 200 255 309 357
#     4  10  20  36  58  89 120 153 204 252 303 360
#     4  11  24  43  62  89 126 164 207 249 307 372
#     4  10  21  35  59  89 118 156 202 253 303 359
#     4  11  24  42  63  89 125 167 204 249 309 371
#
# _framework density 19.949459999999998
#
# number of rings (size 3 to 8) (size 9 to 14) (size 15 to 20)
#    0.000    1.333    3.333    4.000    0.000    5.333 
#    0.000    0.833    0.000    4.000    0.000    0.000 
#    0.000    0.000    0.000    0.000    0.000    0.000 
#
# Total GULP energy -267213.011337 kJ/mol
# GULP energy per Si atom -5566.937736 kJ/mol
# Density = 1.990405 g / cm^3
# Si number density = 19.949460 Si / 1000 Ang^3
#
#
#
# Elastic Constant Matrix: (Units=GPa)
#
#
# Indices 1 2 3 4 5 6 
#
# 1 49.3708 22.7529 20.3245 0.0000 0.0000 0.0000
# 2 22.7529 123.0315 69.8370 0.0000 0.0000 0.0000
# 3 20.3245 69.8370 144.2230 0.0000 0.0000 0.0000
# 4 0.0000 0.0000 0.0000 -3.4109 0.0000 0.0000
# 5 0.0000 0.0000 0.0000 0.0000 30.0927 0.0000
# 6 0.0000 0.0000 0.0000 0.0000 0.0000 23.6759
#
#
#
# Elastic Compliance Matrix: (Units=1/GPa)
#
#
# Indices 1 2 3 4 5 6 
#
# 1 0.022402 -0.003242 -0.001587 0.000000 0.000000 0.000000
# 2 -0.003242 0.011678 -0.005198 0.000000 0.000000 0.000000
# 3 -0.001587 -0.005198 0.009674 0.000000 0.000000 0.000000
# 4 0.000000 0.000000 0.000000 -0.293177 0.000000 0.000000
# 5 0.000000 0.000000 0.000000 0.000000 0.033231 0.000000
# 6 0.000000 0.000000 0.000000 0.000000 0.000000 0.042237
#
#
# Mechanical properties :
#
#
# Convention : Reuss Voigt Hill
#
# Bulk Modulus (GPa) = 42.19321 60.27267 51.23294
# Shear Modulus (GPa) = -34.24664 23.65226 -5.29719
#
# Velocity S-wave (km/s) = -4.14777 3.44700 -1.63128
# Velocity P-wave (km/s) = 1.32010 6.79122 4.71052
#
# Compressibility (1/GPa) = 0.02370050
#
# Stress axis : x y z
#
# Youngs Moduli (GPa) = 44.63806 85.62998 103.36555
#
# Poissons Ratio (x) = 0.27762 0.16405
# Poissons Ratio (y) = 0.14472 0.53730
# Poissons Ratio (z) = 0.07085 0.44511
#
# Static dielectric constant tensor:
#      x y z
#    x 1.775050 0.000000 0.000000 
#    y 0.000000 0.126100 0.000000 
#    z 0.000000 0.000000 2.184860 
# 
# From -- ./inp_files/27734.got.cif
#   From: 2010.05.17/outbox.cif.g08.bks.cpg/sg54_14_cif.got.tgz:27734.got - 2010.06.03 13:09:01.
