data_PCOD9420680
_publ_section_title
;
Structure prediction by ZEFSAII (Michael W. Deem and Ramdas Pophale) SiO2 
 PCOD9420680
Probable space group: P C C A
;
_chemical_formula_sum "Si O2"
_cell_formula_units_Z 64
_cell_length_a 10.812582
_cell_length_b 17.184810
_cell_length_c 14.305780
_cell_angle_alpha 90.000000
_cell_angle_beta 90.000000
_cell_angle_gamma 90.000000
_cell_volume 2658.187986
_symmetry_space_group_name_H-M "P C C A"
_symmetry_group_IT_number 54
_symmetry_cell_setting 'orthorhombic'
loop_
_space_group_symop_operation_xyz
x,y,z
1/2-x,-y,z
1/2+x,-y,1/2-z
-x,y,1/2-z
-x,-y,-z
1/2+x,y,-z
1/2-x,y,1/2+z
x,-y,1/2+z
loop_
_atom_site_type_symbol
_atom_site_label
_atom_site_fract_x
_atom_site_fract_y
_atom_site_fract_z
Si Si1 0.130789 0.038488 0.899342
Si Si2 0.139652 0.046077 0.598994
Si Si3 0.619345 0.216202 0.121584
Si Si4 0.094473 0.655704 0.923398
Si Si5 0.850390 0.622430 0.014792
Si Si6 0.261105 0.696451 0.240092
Si Si7 0.151293 0.773465 0.081427
Si Si8 0.123033 0.452900 0.794579
O O1 0.142725 0.130883 0.917841
O O2 0.994343 0.035263 0.855069
O O3 0.250000 0.000000 0.851365
O O4 0.125464 0.991945 0.996529
O O5 0.176744 0.135366 0.582354
O O6 0.250000 0.000000 0.646359
O O7 0.649038 0.289300 0.055461
O O8 0.708563 0.227262 0.208861
O O9 0.475451 0.229384 0.141523
O O10 0.201697 0.605603 0.978567
O O11 0.133757 0.667727 0.814430
O O12 0.105803 0.736714 0.982553
O O13 0.956815 0.621070 0.935895
O O14 0.901869 0.568051 0.098023
O O15 0.259067 0.723198 0.132195
O O16 0.158258 0.628697 0.245341
O O17 0.250000 0.500000 0.785381
O O18 0.000000 0.487643 0.750000
#
# Coordination Sequence:
#
# PCOD9420680 Si02
#       8
#     8   8   8   8   8   8   8   8
#     4   9  17  29  49  79 109 147 202 246 304 381
#     4   9  19  30  48  77 115 157 198 248 312 379
#     4   8  16  31  55  83 109 154 204 261 313 370
#     4   9  19  35  61  89 120 165 213 267 329 371
#     4   9  19  36  58  91 124 161 222 261 306 396
#     4  10  20  36  62  92 119 157 223 266 303 392
#     4  10  18  34  57  83 119 162 210 264 315 384
#     4  10  20  39  67  98 129 167 211 267 328 396
#
# _framework density 24.076553000000001
#
# number of rings (size 3 to 8) (size 9 to 14) (size 15 to 20)
#    0.000    3.000    0.000    2.625    7.000    0.000 
#    0.000    8.750    0.000    6.750    0.000    0.000 
#    0.000    0.000    0.000    0.000    0.000    0.000 
#
# Total GULP energy -356312.974940 kJ/mol
# GULP energy per Si atom -5567.390233 kJ/mol
# Density = 2.402175 g / cm^3
# Si number density = 24.076553 Si / 1000 Ang^3
#
#
#
# Elastic Constant Matrix: (Units=GPa)
#
#
# Indices 1 2 3 4 5 6 
#
# 1 182.7329 29.8832 22.6356 0.0000 0.0000 0.0000
# 2 29.8832 93.1199 26.8418 0.0000 0.0000 0.0000
# 3 22.6356 26.8418 89.1225 0.0000 0.0000 0.0000
# 4 0.0000 0.0000 0.0000 17.8486 0.0000 0.0000
# 5 0.0000 0.0000 0.0000 0.0000 25.2754 0.0000
# 6 0.0000 0.0000 0.0000 0.0000 0.0000 27.6170
#
#
#
# Elastic Compliance Matrix: (Units=1/GPa)
#
#
# Indices 1 2 3 4 5 6 
#
# 1 0.005857 -0.001589 -0.001009 0.000000 0.000000 0.000000
# 2 -0.001589 0.012191 -0.003268 0.000000 0.000000 0.000000
# 3 -0.001009 -0.003268 0.012461 0.000000 0.000000 0.000000
# 4 0.000000 0.000000 0.000000 0.056027 0.000000 0.000000
# 5 0.000000 0.000000 0.000000 0.000000 0.039564 0.000000
# 6 0.000000 0.000000 0.000000 0.000000 0.000000 0.036210
#
#
# Mechanical properties :
#
#
# Convention : Reuss Voigt Hill
#
# Bulk Modulus (GPa) = 53.25630 58.18851 55.72240
# Shear Modulus (GPa) = 27.73147 33.18918 30.46033
#
# Velocity S-wave (km/s) = 3.39751 3.71682 3.56075
# Velocity P-wave (km/s) = 6.12848 6.52995 6.33240
#
# Compressibility (1/GPa) = 0.01877712
#
# Stress axis : x y z
#
# Youngs Moduli (GPa) = 170.72727 82.02959 80.24987
#
# Poissons Ratio (x) = 0.13033 0.08098
# Poissons Ratio (y) = 0.27125 0.26226
# Poissons Ratio (z) = 0.17229 0.26808
#
# Static dielectric constant tensor:
#      x y z
#    x 2.091910 0.000000 0.000000 
#    y 0.000000 1.900130 0.000000 
#    z 0.000000 0.000000 1.987660 
# 
# From -- ./inp_files/12825.got.cif
#   From: 2010.05.17/outbox.cif.g08.bks.cpg/sg54_7_cif.got.tgz:12825.got - 2010.06.03 13:09:01.
