data_PCOD9420372
_publ_section_title
;
Structure prediction by ZEFSAII (Michael W. Deem and Ramdas Pophale) SiO2 
 PCOD9420372
Probable space group: P C C A
;
_chemical_formula_sum "Si O2"
_cell_formula_units_Z 52
_cell_length_a 5.524511
_cell_length_b 19.179450
_cell_length_c 27.351078
_cell_angle_alpha 90.000000
_cell_angle_beta 90.000000
_cell_angle_gamma 90.000000
_cell_volume 2898.040428
_symmetry_space_group_name_H-M "P C C A"
_symmetry_group_IT_number 54
_symmetry_cell_setting 'orthorhombic'
loop_
_space_group_symop_operation_xyz
x,y,z
1/2-x,-y,z
1/2+x,-y,1/2-z
-x,y,1/2-z
-x,-y,-z
1/2+x,y,-z
1/2-x,y,1/2+z
x,-y,1/2+z
loop_
_atom_site_type_symbol
_atom_site_label
_atom_site_fract_x
_atom_site_fract_y
_atom_site_fract_z
Si Si1 0.501851 0.028770 0.444916
Si Si2 0.604248 0.808074 0.950025
Si Si3 0.608407 0.244059 0.562672
Si Si4 0.092034 0.618551 0.613239
Si Si5 0.250000 0.500000 0.866687
Si Si6 0.874112 0.573560 0.297044
Si Si7 0.690390 0.582294 0.977831
O O1 0.523097 0.111639 0.452339
O O2 0.250000 0.000000 0.422522
O O3 0.500000 0.000000 0.500000
O O4 0.750000 0.000000 0.421282
O O5 0.381919 0.772961 0.921519
O O6 0.870808 0.803210 0.926670
O O7 0.627536 0.769462 0.003234
O O8 0.536620 0.314502 0.590995
O O9 0.181327 0.615142 0.669353
O O10 0.320165 0.603532 0.578499
O O11 0.922784 0.551109 0.603799
O O12 0.412637 0.548985 0.832762
O O13 0.750000 0.500000 0.281257
O O14 0.000000 0.607468 0.250000
O O15 0.750000 0.500000 0.983662
O O16 0.443532 0.610864 0.000670
#
# Coordination Sequence:
#
# PCOD9420372 Si02
#       7
#     8   8   8   8   4   8   8
#     4  10  16  26  49  73  95 126 182 241 262 275
#     4  10  20  35  48  71 104 147 185 225 248 307
#     4  10  21  33  49  66 102 141 180 209 260 310
#     4  11  25  34  55  76  97 137 175 226 275 335
#     4  10  22  38  58  72 104 108 176 228 296 338
#     4  10  20  38  60  81  95 118 154 232 309 354
#     4  10  23  36  50  68  97 130 170 213 260 301
#
# _framework density 17.943158
#
# number of rings (size 3 to 8) (size 9 to 14) (size 15 to 20)
#    0.000    1.846    0.769    6.000   11.846    0.000 
#    0.000    0.000    0.000    0.000    0.000    0.000 
#    0.000    0.000    0.000    0.000    0.000    9.231 
#
# Total GULP energy -289574.725218 kJ/mol
# GULP energy per Si atom -5568.744716 kJ/mol
# Density = 1.790232 g / cm^3
# Si number density = 17.943158 Si / 1000 Ang^3
#
#
#
# Elastic Constant Matrix: (Units=GPa)
#
#
# Indices 1 2 3 4 5 6 
#
# 1 105.6300 -6.7029 13.5041 0.0000 0.0000 0.0000
# 2 -6.7029 62.2904 19.3906 0.0000 0.0000 0.0000
# 3 13.5041 19.3906 50.2916 0.0000 0.0000 0.0000
# 4 0.0000 0.0000 0.0000 6.9717 0.0000 0.0000
# 5 0.0000 0.0000 0.0000 0.0000 21.5452 0.0000
# 6 0.0000 0.0000 0.0000 0.0000 0.0000 18.8630
#
#
#
# Elastic Compliance Matrix: (Units=1/GPa)
#
#
# Indices 1 2 3 4 5 6 
#
# 1 0.010059 0.002185 -0.003544 0.000000 0.000000 0.000000
# 2 0.002185 0.018718 -0.007804 0.000000 0.000000 0.000000
# 3 -0.003544 -0.007804 0.023845 0.000000 0.000000 0.000000
# 4 0.000000 0.000000 0.000000 0.143436 0.000000 0.000000
# 5 0.000000 0.000000 0.000000 0.000000 0.046414 0.000000
# 6 0.000000 0.000000 0.000000 0.000000 0.000000 0.053014
#
#
# Mechanical properties :
#
#
# Convention : Reuss Voigt Hill
#
# Bulk Modulus (GPa) = 29.15671 30.06620 29.61146
# Shear Modulus (GPa) = 15.37313 22.27731 18.82522
#
# Velocity S-wave (km/s) = 2.93024 3.52738 3.24259
# Velocity P-wave (km/s) = 5.26623 5.77777 5.52792
#
# Compressibility (1/GPa) = 0.03429742
#
# Stress axis : x y z
#
# Youngs Moduli (GPa) = 99.41626 53.42353 41.93839
#
# Poissons Ratio (x) = -0.11676 0.14861
# Poissons Ratio (y) = -0.21727 0.32729
# Poissons Ratio (z) = 0.35229 0.41692
#
# Static dielectric constant tensor:
#      x y z
#    x 1.790580 0.000000 0.000000 
#    y 0.000000 1.668430 0.000000 
#    z 0.000000 0.000000 1.612340 
# 
# From -- ./inp_files/25463.got.cif
#   From: 2010.05.17/outbox.cif.g08.bks.cpg/sg54_13_cif.got.tgz:25463.got - 2010.06.03 13:09:01.
