data_PCOD9420124
_publ_section_title
;
Structure prediction by ZEFSAII (Michael W. Deem and Ramdas Pophale) SiO2 
 PCOD9420124
Probable space group: P M N A
;
_chemical_formula_sum "Si O2"
_cell_formula_units_Z 64
_cell_length_a 9.000000
_cell_length_b 12.000000
_cell_length_c 30.000000
_cell_angle_alpha 90.000000
_cell_angle_beta 90.000000
_cell_angle_gamma 90.000000
_cell_volume 3240.000000
_symmetry_space_group_name_H-M "P M N A"
_symmetry_group_IT_number 53
_symmetry_cell_setting 'orthorhombic'
loop_
_space_group_symop_operation_xyz
x,y,z
1/2-x,-y,1/2+z
x,-y,-z
1/2-x,y,1/2-z
-x,-y,-z
1/2+x,y,1/2-z
-x,y,z
1/2+x,-y,1/2+z
loop_
_atom_site_type_symbol
_atom_site_label
_atom_site_fract_x
_atom_site_fract_y
_atom_site_fract_z
Si Si1 0.670721 0.889704 0.626139
Si Si2 0.323778 0.744289 0.047534
Si Si3 0.329441 0.244710 0.705441
Si Si4 0.169907 0.511476 0.793555
Si Si5 0.826269 0.483627 0.947552
Si Si6 0.681471 0.648204 0.624375
Si Si7 0.175887 0.885085 0.370522
Si Si8 0.671248 0.884112 0.519390
O O1 0.500000 0.900645 0.641028
O O2 0.735177 0.769568 0.637795
O O3 0.672011 0.888749 0.572326
O O4 0.761784 0.994988 0.641361
O O5 0.500000 0.739792 0.046062
O O6 0.261304 0.627466 0.064341
O O7 0.274251 0.842108 0.081085
O O8 0.258834 0.780330 0.000263
O O9 0.250000 0.203824 0.750000
O O10 0.500000 0.208404 0.703336
O O11 0.325901 0.378397 0.705786
O O12 0.238843 0.202546 0.663895
O O13 0.250000 0.553388 0.750000
O O14 0.230622 0.560527 0.838851
O O15 0.000000 0.546780 0.791110
O O16 0.773622 0.593533 0.922069
O O17 0.000000 0.465896 0.936034
O O18 0.814665 0.500000 0.000000
O O19 0.500000 0.658494 0.622295
O O20 0.000000 0.886483 0.370091
O O21 0.500000 0.873387 0.504377
O O22 0.732491 0.000000 0.500000
#
# Coordination Sequence:
#
# PCOD9420124 Si02
#       8
#     8   8   8   8   8   8   8   8
#     4  10  20  36  57  79 106 144 189 234 278 326
#     4  11  23  35  52  79 113 147 181 228 281 333
#     4  10  20  36  60  86 112 141 174 220 276 331
#     4   9  18  34  57  84 110 137 173 219 270 327
#     4  10  20  36  58  81 108 142 184 232 279 335
#     4   9  18  34  56  81 108 141 182 228 278 329
#     4  11  23  37  53  79 113 146 183 223 269 326
#     4  10  19  33  54  78 104 141 192 238 275 326
#
# _framework density 19.753086
#
# number of rings (size 3 to 8) (size 9 to 14) (size 15 to 20)
#    0.000    2.000    1.250    2.625    0.000    6.000 
#    0.000    2.500    0.000    1.500    0.000    0.000 
#    0.000    0.000    0.000    0.000    0.000    0.000 
#
# Total GULP energy -356741.703878 kJ/mol
# GULP energy per Si atom -5574.089123 kJ/mol
# Density = 1.970813 g / cm^3
# Si number density = 19.753086 Si / 1000 Ang^3
#
#
#
# Elastic Constant Matrix: (Units=GPa)
#
#
# Indices 1 2 3 4 5 6 
#
# 1 3.6435 23.6458 15.0978 0.0000 0.0000 0.0000
# 2 23.6458 29.0466 -3.2377 0.0000 0.0000 0.0000
# 3 15.0978 -3.2377 21.2778 0.0000 0.0000 0.0000
# 4 0.0000 0.0000 0.0000 4.3471 0.0000 0.0000
# 5 0.0000 0.0000 0.0000 0.0000 0.3298 0.0000
# 6 0.0000 0.0000 0.0000 0.0000 0.0000 12.4405
#
#
#
# Elastic Compliance Matrix: (Units=1/GPa)
#
#
# Indices 1 2 3 4 5 6 
#
# 1 -0.032637 0.029653 0.027670 0.000000 0.000000 0.000000
# 2 0.029653 0.008080 -0.019811 0.000000 0.000000 0.000000
# 3 0.027670 -0.019811 0.024349 0.000000 0.000000 0.000000
# 4 0.000000 0.000000 0.000000 0.230039 0.000000 0.000000
# 5 0.000000 0.000000 0.000000 0.000000 3.032574 0.000000
# 6 0.000000 0.000000 0.000000 0.000000 0.000000 0.080382
#
#
# Mechanical properties :
#
#
# Convention : Reuss Voigt Hill
#
# Bulk Modulus (GPa) = 13.36611 13.88663 13.62637
# Shear Modulus (GPa) = 1.51851 4.65428 3.08639
#
# Velocity S-wave (km/s) = 0.87773 1.53667 1.25135
# Velocity P-wave (km/s) = 2.79437 3.19278 3.00019
#
# Compressibility (1/GPa) = 0.07481610
#
# Stress axis : x y z
#
# Youngs Moduli (GPa) = -30.64025 123.76155 41.06861
#
# Poissons Ratio (x) = -3.66986 -1.13636
# Poissons Ratio (y) = 0.90857 0.81360
# Poissons Ratio (z) = 0.84781 2.45181
#
# Static dielectric constant tensor:
#      x y z
#    x 1.653200 0.000000 0.000000 
#    y 0.000000 1.727320 0.000000 
#    z 0.000000 0.000000 1.705800 
# 
# From -- ./inp_files/38116.got.cif
#   From: 2010.05.17/outbox.ucp.g08.bks.cvg/sg53_20_cif.got.tgz:38116.got - 2010.06.11 16:32:34.
