data_PCOD9420802
_publ_section_title
;
Structure prediction by ZEFSAII (Michael W. Deem and Ramdas Pophale) SiO2 
 PCOD9420802
Probable space group: P C C A
;
_chemical_formula_sum "Si O2"
_cell_formula_units_Z 52
_cell_length_a 27.361313
_cell_length_b 5.004793
_cell_length_c 16.874255
_cell_angle_alpha 90.000000
_cell_angle_beta 90.000000
_cell_angle_gamma 90.000000
_cell_volume 2310.721800
_symmetry_space_group_name_H-M "P C C A"
_symmetry_group_IT_number 54
_symmetry_cell_setting 'orthorhombic'
loop_
_space_group_symop_operation_xyz
x,y,z
1/2-x,-y,z
1/2+x,-y,1/2-z
-x,y,1/2-z
-x,-y,-z
1/2+x,y,-z
1/2-x,y,1/2+z
x,-y,1/2+z
loop_
_atom_site_type_symbol
_atom_site_label
_atom_site_fract_x
_atom_site_fract_y
_atom_site_fract_z
Si Si1 0.152683 0.745207 0.701167
Si Si2 0.750000 0.000000 0.300240
Si Si3 0.907605 0.445727 0.674384
Si Si4 0.567431 0.836616 0.412167
Si Si5 0.296813 0.601243 0.572812
Si Si6 0.470404 0.062032 0.822570
Si Si7 0.104825 0.680627 0.999644
O O1 0.200316 0.887878 0.740942
O O2 0.133476 0.514085 0.760152
O O3 0.104723 0.893132 0.663003
O O4 0.176074 0.631963 0.620460
O O5 0.725566 0.216748 0.358419
O O6 0.925865 0.143403 0.664691
O O7 0.895457 0.562986 0.587981
O O8 0.950984 0.645631 0.700016
O O9 0.578663 0.537714 0.442895
O O10 0.511572 0.887860 0.388461
O O11 0.579239 0.040519 0.482630
O O12 0.250000 0.500000 0.524880
O O13 0.338986 0.731350 0.522714
O O14 0.500000 0.939014 0.750000
#
# Coordination Sequence:
#
# PCOD9420802 Si02
#       7
#     8   4   8   8   8   8   8
#     4  10  22  39  67  98 128 175 223 282 316 403
#     4  10  18  40  68  98 118 178 234 266 320 404
#     4  12  27  42  66 101 141 167 222 278 343 381
#     4  11  23  43  70  91 132 178 228 259 327 395
#     4   9  20  38  65  93 124 169 228 260 325 404
#     4  12  26  43  68  98 129 183 225 273 322 398
#     4  11  24  43  65  99 133 174 207 285 332 390
#
# _framework density 22.503791
#
# number of rings (size 3 to 8) (size 9 to 14) (size 15 to 20)
#    0.000    1.231    3.077    2.308    6.462    3.692 
#    0.000    3.077    0.000    0.000    0.000    0.000 
#    0.000    0.000    0.000    0.000    0.000    0.000 
#
# Total GULP energy -289934.798745 kJ/mol
# GULP energy per Si atom -5575.669207 kJ/mol
# Density = 2.245257 g / cm^3
# Si number density = 22.503791 Si / 1000 Ang^3
#
#
#
# Elastic Constant Matrix: (Units=GPa)
#
#
# Indices 1 2 3 4 5 6 
#
# 1 109.8335 15.8012 14.7095 0.0000 0.0000 0.0000
# 2 15.8012 80.4719 -10.8310 0.0000 0.0000 0.0000
# 3 14.7095 -10.8310 52.3793 0.0000 0.0000 0.0000
# 4 0.0000 0.0000 0.0000 24.4592 0.0000 0.0000
# 5 0.0000 0.0000 0.0000 0.0000 8.0782 0.0000
# 6 0.0000 0.0000 0.0000 0.0000 0.0000 31.4290
#
#
#
# Elastic Compliance Matrix: (Units=1/GPa)
#
#
# Indices 1 2 3 4 5 6 
#
# 1 0.009885 -0.002381 -0.003268 0.000000 0.000000 0.000000
# 2 -0.002381 0.013356 0.003430 0.000000 0.000000 0.000000
# 3 -0.003268 0.003430 0.020719 0.000000 0.000000 0.000000
# 4 0.000000 0.000000 0.000000 0.040884 0.000000 0.000000
# 5 0.000000 0.000000 0.000000 0.000000 0.123789 0.000000
# 6 0.000000 0.000000 0.000000 0.000000 0.000000 0.031818
#
#
# Mechanical properties :
#
#
# Convention : Reuss Voigt Hill
#
# Bulk Modulus (GPa) = 25.30241 31.33824 28.32032
# Shear Modulus (GPa) = 19.37515 27.66028 23.51772
#
# Velocity S-wave (km/s) = 2.93742 3.50971 3.23624
# Velocity P-wave (km/s) = 4.77206 5.51181 5.15522
#
# Compressibility (1/GPa) = 0.03952193
#
# Stress axis : x y z
#
# Youngs Moduli (GPa) = 101.16424 74.87333 48.26563
#
# Poissons Ratio (x) = 0.17826 0.15775
# Poissons Ratio (y) = 0.24086 -0.16557
# Poissons Ratio (z) = 0.33063 -0.25684
#
# Static dielectric constant tensor:
#      x y z
#    x 2.019350 0.000000 0.000000 
#    y 0.000000 2.169670 0.000000 
#    z 0.000000 0.000000 1.858250 
# 
# From -- ./inp_files/19214.got.cif
#   From: 2010.05.17/outbox.cif.g08.bks.cpg/sg54_10_cif.got.tgz:19214.got - 2010.06.03 13:09:01.
