data_PCOD9420289
_publ_section_title
;
Structure prediction by ZEFSAII (Michael W. Deem and Ramdas Pophale) SiO2 
 PCOD9420289
Probable space group: P M N A
;
_chemical_formula_sum "Si O2"
_cell_formula_units_Z 40
_cell_length_a 9.000000
_cell_length_b 12.000000
_cell_length_c 18.000000
_cell_angle_alpha 90.000000
_cell_angle_beta 90.000000
_cell_angle_gamma 90.000000
_cell_volume 1944.000000
_symmetry_space_group_name_H-M "P M N A"
_symmetry_group_IT_number 53
_symmetry_cell_setting 'orthorhombic'
loop_
_space_group_symop_operation_xyz
x,y,z
1/2-x,-y,1/2+z
x,-y,-z
1/2-x,y,1/2-z
-x,-y,-z
1/2+x,y,1/2-z
-x,y,z
1/2+x,-y,1/2+z
loop_
_atom_site_type_symbol
_atom_site_label
_atom_site_fract_x
_atom_site_fract_y
_atom_site_fract_z
Si Si1 0.833314 0.543067 0.387152
Si Si2 0.666865 0.682076 0.959780
Si Si3 0.327483 0.739743 0.328861
Si Si4 0.173807 0.951220 0.329630
Si Si5 0.831687 0.097258 0.061369
O O1 0.804295 0.412796 0.397921
O O2 0.837686 0.608162 0.465754
O O3 0.705567 0.613046 0.348939
O O4 0.000000 0.557960 0.354228
O O5 0.500000 0.727810 0.949412
O O6 0.785104 0.779811 0.963810
O O7 0.250000 0.749527 0.250000
O O8 0.500000 0.764138 0.329638
O O9 0.243182 0.841193 0.369666
O O10 0.250000 0.966927 0.250000
O O11 0.000000 0.934337 0.321634
O O12 0.215239 0.057891 0.377364
O O13 0.000000 0.098572 0.090797
O O14 0.826608 0.000000 0.000000
#
# Coordination Sequence:
#
# PCOD9420289 Si02
#       5
#     8   8   8   8   8
#     4   9  18  35  56  79 108 139 175 219 267 318
#     4   9  19  35  56  80 107 142 179 218 267 320
#     4  11  21  34  54  80 108 139 177 219 265 316
#     4  11  22  38  59  81 110 146 184 227 276 329
#     4  11  23  37  55  83 116 147 184 229 273 323
#
# _framework density 20.576132000000001
#
# number of rings (size 3 to 8) (size 9 to 14) (size 15 to 20)
#    0.000    1.800    0.000    7.800    0.000    6.400 
#    0.000    3.000    0.000    4.800    0.000    0.000 
#    0.000    0.000    0.000    0.000    0.000    0.000 
#
# Total GULP energy -222735.538603 kJ/mol
# GULP energy per Si atom -5568.388465 kJ/mol
# Density = 2.052930 g / cm^3
# Si number density = 20.576132 Si / 1000 Ang^3
#
#
#
# Elastic Constant Matrix: (Units=GPa)
#
#
# Indices 1 2 3 4 5 6 
#
# 1 148.6123 48.5939 20.5627 0.0000 0.0000 0.0000
# 2 48.5939 81.9028 7.1331 0.0000 0.0000 0.0000
# 3 20.5627 7.1331 23.9513 0.0000 0.0000 0.0000
# 4 0.0000 0.0000 0.0000 20.1419 0.0000 0.0000
# 5 0.0000 0.0000 0.0000 0.0000 23.7148 0.0000
# 6 0.0000 0.0000 0.0000 0.0000 0.0000 50.4947
#
#
#
# Elastic Compliance Matrix: (Units=1/GPa)
#
#
# Indices 1 2 3 4 5 6 
#
# 1 0.009229 -0.004913 -0.006460 0.000000 0.000000 0.000000
# 2 -0.004913 0.015150 -0.000294 0.000000 0.000000 0.000000
# 3 -0.006460 -0.000294 0.047385 0.000000 0.000000 0.000000
# 4 0.000000 0.000000 0.000000 0.049648 0.000000 0.000000
# 5 0.000000 0.000000 0.000000 0.000000 0.042168 0.000000
# 6 0.000000 0.000000 0.000000 0.000000 0.000000 0.019804
#
#
# Mechanical properties :
#
#
# Convention : Reuss Voigt Hill
#
# Bulk Modulus (GPa) = 20.64836 45.22732 32.93784
# Shear Modulus (GPa) = 22.43532 30.74872 26.59202
#
# Velocity S-wave (km/s) = 3.30564 3.86993 3.59886
# Velocity P-wave (km/s) = 4.96251 6.48048 5.77162
#
# Compressibility (1/GPa) = 0.04842999
#
# Stress axis : x y z
#
# Youngs Moduli (GPa) = 108.34992 66.00542 21.10355
#
# Poissons Ratio (x) = 0.32430 0.13634
# Poissons Ratio (y) = 0.53235 0.00620
# Poissons Ratio (z) = 0.69998 0.01940
#
# Static dielectric constant tensor:
#      x y z
#    x 1.724870 0.000000 0.000000 
#    y 0.000000 1.915890 0.000000 
#    z 0.000000 0.000000 1.844840 
# 
# From -- ./inp_files/25856.got.cif
#   From: 2010.05.17/outbox.ucp.g08.bks.cvg/sg53_13_cif.got.tgz:25856.got - 2010.06.11 16:32:34.
