data_PCOD9420727
_publ_section_title
;
Structure prediction by ZEFSAII (Michael W. Deem and Ramdas Pophale) SiO2 
 PCOD9420727
Probable space group: P C C A
;
_chemical_formula_sum "Si O2"
_cell_formula_units_Z 48
_cell_length_a 13.030601
_cell_length_b 7.412400
_cell_length_c 20.916182
_cell_angle_alpha 90.000000
_cell_angle_beta 90.000000
_cell_angle_gamma 90.000000
_cell_volume 2020.252749
_symmetry_space_group_name_H-M "P C C A"
_symmetry_group_IT_number 54
_symmetry_cell_setting 'orthorhombic'
loop_
_space_group_symop_operation_xyz
x,y,z
1/2-x,-y,z
1/2+x,-y,1/2-z
-x,y,1/2-z
-x,-y,-z
1/2+x,y,-z
1/2-x,y,1/2+z
x,-y,1/2+z
loop_
_atom_site_type_symbol
_atom_site_label
_atom_site_fract_x
_atom_site_fract_y
_atom_site_fract_z
Si Si1 0.938962 0.696522 0.188393
Si Si2 0.136543 0.912859 0.823443
Si Si3 0.959355 0.255793 0.941316
Si Si4 0.252587 0.199985 0.102400
Si Si5 0.748271 0.309696 0.267968
Si Si6 0.975781 0.817229 0.921420
O O1 0.823335 0.648381 0.207143
O O2 0.000000 0.626047 0.250000
O O3 0.981789 0.654238 0.118582
O O4 0.932756 0.914210 0.191457
O O5 0.155197 0.789761 0.761655
O O6 0.076062 0.801425 0.876911
O O7 0.250000 0.000000 0.840552
O O8 0.839092 0.305099 0.936460
O O9 0.966662 0.036043 0.931393
O O10 0.006258 0.279724 0.010977
O O11 0.295853 0.186050 0.175328
O O12 0.133101 0.251256 0.106042
O O13 0.250000 0.000000 0.073129
O O14 0.750000 0.500000 0.302982
#
# Coordination Sequence:
#
# PCOD9420727 Si02
#       6
#     8   8   8   8   8   8
#     4  10  18  35  60  84 110 146 183 231 288 332
#     4   9  20  34  58  82 115 144 187 233 284 334
#     4   9  18  32  56  84 116 142 183 233 286 335
#     4  10  19  34  57  82 113 146 189 235 283 334
#     4  11  23  37  54  84 116 150 192 235 282 334
#     4   9  19  32  54  91 110 144 184 237 283 333
#
# _framework density 23.759402999999999
#
# number of rings (size 3 to 8) (size 9 to 14) (size 15 to 20)
#    0.000    2.333    1.667    1.500    4.667    6.000 
#    3.000    0.000    0.000    6.000    0.000    0.000 
#    0.000    0.000    0.000    0.000    0.000    0.000 
#
# Total GULP energy -267403.948821 kJ/mol
# GULP energy per Si atom -5570.915600 kJ/mol
# Density = 2.370533 g / cm^3
# Si number density = 23.759403 Si / 1000 Ang^3
#
#
#
# Elastic Constant Matrix: (Units=GPa)
#
#
# Indices 1 2 3 4 5 6 
#
# 1 109.2080 -0.9587 61.2428 0.0000 0.0000 0.0000
# 2 -0.9587 47.7096 -6.5587 0.0000 0.0000 0.0000
# 3 61.2428 -6.5587 122.2810 0.0000 0.0000 0.0000
# 4 0.0000 0.0000 0.0000 2.3897 0.0000 0.0000
# 5 0.0000 0.0000 0.0000 0.0000 39.5087 0.0000
# 6 0.0000 0.0000 0.0000 0.0000 0.0000 11.3326
#
#
#
# Elastic Compliance Matrix: (Units=1/GPa)
#
#
# Indices 1 2 3 4 5 6 
#
# 1 0.012752 -0.000626 -0.006420 0.000000 0.000000 0.000000
# 2 -0.000626 0.021147 0.001448 0.000000 0.000000 0.000000
# 3 -0.006420 0.001448 0.011471 0.000000 0.000000 0.000000
# 4 0.000000 0.000000 0.000000 0.418467 0.000000 0.000000
# 5 0.000000 0.000000 0.000000 0.000000 0.025311 0.000000
# 6 0.000000 0.000000 0.000000 0.000000 0.000000 0.088241
#
#
# Mechanical properties :
#
#
# Convention : Reuss Voigt Hill
#
# Bulk Modulus (GPa) = 29.26356 42.96106 36.11231
# Shear Modulus (GPa) = 8.33367 25.67773 17.00570
#
# Velocity S-wave (km/s) = 1.87487 3.29103 2.67825
# Velocity P-wave (km/s) = 4.12677 5.70632 4.97957
#
# Compressibility (1/GPa) = 0.03417219
#
# Stress axis : x y z
#
# Youngs Moduli (GPa) = 78.42107 47.28890 87.17657
#
# Poissons Ratio (x) = 0.02962 0.55968
# Poissons Ratio (y) = 0.04912 -0.12622
# Poissons Ratio (z) = 0.50347 -0.06847
#
# Static dielectric constant tensor:
#      x y z
#    x 2.001210 0.000000 0.000000 
#    y 0.000000 2.041100 0.000000 
#    z 0.000000 0.000000 1.865120 
# 
# From -- ./inp_files/24036.got.cif
#   From: 2010.05.17/outbox.cif.g08.bks.cpg/sg54_13_cif.got.tgz:24036.got - 2010.06.03 13:09:01.
