data_PCOD9420309
_publ_section_title
;
Structure prediction by ZEFSAII (Michael W. Deem and Ramdas Pophale) SiO2 
 PCOD9420309
Probable space group: P C C A
;
_chemical_formula_sum "Si O2"
_cell_formula_units_Z 48
_cell_length_a 17.536101
_cell_length_b 26.505803
_cell_length_c 5.339631
_cell_angle_alpha 90.000000
_cell_angle_beta 90.000000
_cell_angle_gamma 90.000000
_cell_volume 2481.905547
_symmetry_space_group_name_H-M "P C C A"
_symmetry_group_IT_number 54
_symmetry_cell_setting 'orthorhombic'
loop_
_space_group_symop_operation_xyz
x,y,z
1/2-x,-y,z
1/2+x,-y,1/2-z
-x,y,1/2-z
-x,-y,-z
1/2+x,y,-z
1/2-x,y,1/2+z
x,-y,1/2+z
loop_
_atom_site_type_symbol
_atom_site_label
_atom_site_fract_x
_atom_site_fract_y
_atom_site_fract_z
Si Si1 0.199024 0.256626 0.516443
Si Si2 0.338720 0.479412 0.084588
Si Si3 0.044789 0.926694 0.000600
Si Si4 0.454372 0.804996 0.500429
Si Si5 0.297684 0.369331 0.954454
Si Si6 0.219069 0.943218 0.928137
O O1 0.254919 0.250830 0.276849
O O2 0.129395 0.218331 0.501708
O O3 0.167311 0.314234 0.500098
O O4 0.250000 0.500000 0.107797
O O5 0.372948 0.489352 0.355729
O O6 0.341174 0.420925 0.011265
O O7 0.130633 0.946233 0.991709
O O8 0.000000 0.941315 0.750000
O O9 0.050635 0.865808 0.002487
O O10 0.000000 0.942058 0.250000
O O11 0.500000 0.789559 0.750000
O O12 0.500000 0.790187 0.250000
O O13 0.268860 0.371219 0.667592
O O14 0.236191 0.918220 0.659878
O O15 0.250000 0.000000 0.895505
#
# Coordination Sequence:
#
# PCOD9420309 Si02
#       6
#     8   8   8   8   8   8
#     4  10  21  33  51  78 109 138 168 220 279 317
#     4  10  14  20  34  53  82 126 158 188 247 309
#     4  10  21  38  60  83 107 143 188 228 261 308
#     4  10  21  38  58  79 107 142 184 223 262 320
#     4  10  16  25  37  60  94 128 155 203 253 317
#     4  10  21  38  56  83 117 147 179 221 272 320
#
# _framework density 19.339977000000001
#
# number of rings (size 3 to 8) (size 9 to 14) (size 15 to 20)
#    0.000    2.000    3.333    2.000    0.000    1.333 
#    0.000   10.000    0.000    0.000    0.000    0.000 
#    0.000    4.000    0.000    0.000    0.000    0.000 
#
# Total GULP energy -267715.037889 kJ/mol
# GULP energy per Si atom -5577.396623 kJ/mol
# Density = 1.929596 g / cm^3
# Si number density = 19.339977 Si / 1000 Ang^3
#
#
#
# Elastic Constant Matrix: (Units=GPa)
#
#
# Indices 1 2 3 4 5 6 
#
# 1 61.1827 26.7910 12.0257 0.0000 0.0000 0.0000
# 2 26.7910 63.5807 13.9135 0.0000 0.0000 0.0000
# 3 12.0257 13.9135 117.7809 0.0000 0.0000 0.0000
# 4 0.0000 0.0000 0.0000 13.6164 0.0000 0.0000
# 5 0.0000 0.0000 0.0000 0.0000 24.3300 0.0000
# 6 0.0000 0.0000 0.0000 0.0000 0.0000 59.2495
#
#
#
# Elastic Compliance Matrix: (Units=1/GPa)
#
#
# Indices 1 2 3 4 5 6 
#
# 1 0.020176 -0.008265 -0.001084 0.000000 0.000000 0.000000
# 2 -0.008265 0.019531 -0.001463 0.000000 0.000000 0.000000
# 3 -0.001084 -0.001463 0.008774 0.000000 0.000000 0.000000
# 4 0.000000 0.000000 0.000000 0.073441 0.000000 0.000000
# 5 0.000000 0.000000 0.000000 0.000000 0.041101 0.000000
# 6 0.000000 0.000000 0.000000 0.000000 0.000000 0.016878
#
#
# Mechanical properties :
#
#
# Convention : Reuss Voigt Hill
#
# Bulk Modulus (GPa) = 37.23335 38.66720 37.95027
# Shear Modulus (GPa) = 23.75554 32.09346 27.92450
#
# Velocity S-wave (km/s) = 3.50853 4.07804 3.80396
# Velocity P-wave (km/s) = 5.97552 6.49697 6.24170
#
# Compressibility (1/GPa) = 0.02685765
#
# Stress axis : x y z
#
# Youngs Moduli (GPa) = 49.56267 51.20136 113.97492
#
# Poissons Ratio (x) = 0.42316 0.12352
# Poissons Ratio (y) = 0.40962 0.16678
# Poissons Ratio (z) = 0.05371 0.07493
#
# Static dielectric constant tensor:
#      x y z
#    x 1.652850 0.000000 0.000000 
#    y 0.000000 1.691730 0.000000 
#    z 0.000000 0.000000 1.741360 
# 
# From -- ./inp_files/631.got.cif
#   From: 2010.05.17/outbox.cif.g08.bks.cpg/sg54_1_cif.got.tgz:631.got - 2010.06.03 13:09:01.
