data_PCOD9420265
_publ_section_title
;
Structure prediction by ZEFSAII (Michael W. Deem and Ramdas Pophale) SiO2 
 PCOD9420265
Probable space group: P M N A
;
_chemical_formula_sum "Si O2"
_cell_formula_units_Z 48
_cell_length_a 9.000000
_cell_length_b 9.000000
_cell_length_c 30.000000
_cell_angle_alpha 90.000000
_cell_angle_beta 90.000000
_cell_angle_gamma 90.000000
_cell_volume 2430.000000
_symmetry_space_group_name_H-M "P M N A"
_symmetry_group_IT_number 53
_symmetry_cell_setting 'orthorhombic'
loop_
_space_group_symop_operation_xyz
x,y,z
1/2-x,-y,1/2+z
x,-y,-z
1/2-x,y,1/2-z
-x,-y,-z
1/2+x,y,1/2-z
-x,y,z
1/2+x,-y,1/2+z
loop_
_atom_site_type_symbol
_atom_site_label
_atom_site_fract_x
_atom_site_fract_y
_atom_site_fract_z
Si Si1 0.823690 0.785249 0.703076
Si Si2 0.321463 0.590638 0.544266
Si Si3 0.324897 0.965319 0.142122
Si Si4 0.319744 0.082725 0.046053
Si Si5 0.824019 0.446031 0.144707
Si Si6 0.676965 0.689991 0.202937
O O1 0.750000 0.743168 0.750000
O O2 0.766851 0.943531 0.685036
O O3 0.777281 0.690690 0.659859
O O4 0.000000 0.780596 0.709951
O O5 0.274359 0.500000 0.500000
O O6 0.500000 0.609856 0.541323
O O7 0.244633 0.751249 0.545330
O O8 0.292025 0.515377 0.592848
O O9 0.500000 0.003267 0.139911
O O10 0.268041 0.002583 0.092425
O O11 0.314146 0.800664 0.160724
O O12 0.500000 0.087166 0.046218
O O13 0.275125 0.000000 0.000000
O O14 0.776748 0.557960 0.183637
O O15 0.000000 0.413462 0.147598
O O16 0.750000 0.738647 0.250000
O O17 0.500000 0.656269 0.209615
#
# Coordination Sequence:
#
# PCOD9420265 Si02
#       6
#     8   8   8   8   8   8
#     4  11  21  37  61  87 117 153 194 244 297 353
#     4  10  23  42  62  88 123 158 197 245 297 355
#     4   9  20  38  59  87 121 153 192 243 294 348
#     4  10  21  39  64  93 122 153 195 244 297 359
#     4  11  23  40  60  86 119 157 200 244 292 351
#     4  11  23  40  61  87 121 159 200 246 297 352
#
# _framework density 19.753086
#
# number of rings (size 3 to 8) (size 9 to 14) (size 15 to 20)
#    0.000    1.667    1.667    2.500    2.333    1.333 
#    0.000    4.167    0.000    0.000    0.000    0.000 
#    0.000    0.000    0.000    0.000    0.000    0.000 
#
# Total GULP energy -267202.456610 kJ/mol
# GULP energy per Si atom -5566.717846 kJ/mol
# Density = 1.970813 g / cm^3
# Si number density = 19.753086 Si / 1000 Ang^3
#
#
#
# Elastic Constant Matrix: (Units=GPa)
#
#
# Indices 1 2 3 4 5 6 
#
# 1 42.1481 2.7965 41.6398 0.0000 0.0000 0.0000
# 2 2.7965 27.4036 31.1035 0.0000 0.0000 0.0000
# 3 41.6398 31.1035 148.5866 0.0000 0.0000 0.0000
# 4 0.0000 0.0000 0.0000 545.1897 0.0000 0.0000
# 5 0.0000 0.0000 0.0000 0.0000 9.4796 0.0000
# 6 0.0000 0.0000 0.0000 0.0000 0.0000 15.8237
#
#
#
# Elastic Compliance Matrix: (Units=1/GPa)
#
#
# Indices 1 2 3 4 5 6 
#
# 1 0.034720 0.009838 -0.011789 0.000000 0.000000 0.000000
# 2 0.009838 0.050651 -0.013360 0.000000 0.000000 0.000000
# 3 -0.011789 -0.013360 0.012831 0.000000 0.000000 0.000000
# 4 0.000000 0.000000 0.000000 0.001834 0.000000 0.000000
# 5 0.000000 0.000000 0.000000 0.000000 0.105490 0.000000
# 6 0.000000 0.000000 0.000000 0.000000 0.000000 0.063196
#
#
# Mechanical properties :
#
#
# Convention : Reuss Voigt Hill
#
# Bulk Modulus (GPa) = 14.79732 41.02423 27.91077
# Shear Modulus (GPa) = 15.53416 123.60518 69.56967
#
# Velocity S-wave (km/s) = 2.80736 7.91903 5.94105
# Velocity P-wave (km/s) = 4.24449 10.21901 7.82445
#
# Compressibility (1/GPa) = 0.06757981
#
# Stress axis : x y z
#
# Youngs Moduli (GPa) = 28.80157 19.74286 77.93905
#
# Poissons Ratio (x) = -0.19423 0.91886
# Poissons Ratio (y) = -0.28335 1.04125
# Poissons Ratio (z) = 0.33955 0.26376
#
# Static dielectric constant tensor:
#      x y z
#    x 1.679550 0.000000 0.000000 
#    y 0.000000 2.485730 0.000000 
#    z 0.000000 0.000000 1.624780 
# 
# From -- ./inp_files/37717.got.cif
#   From: 2010.05.17/outbox.ucp.g08.bks.cvg/sg53_19_cif.got.tgz:37717.got - 2010.06.11 16:32:34.
