data_PCOD9420662
_publ_section_title
;
Structure prediction by ZEFSAII (Michael W. Deem and Ramdas Pophale) SiO2 
 PCOD9420662
Probable space group: P C C A
;
_chemical_formula_sum "Si O2"
_cell_formula_units_Z 40
_cell_length_a 8.402816
_cell_length_b 14.795321
_cell_length_c 12.991431
_cell_angle_alpha 90.000000
_cell_angle_beta 90.000000
_cell_angle_gamma 90.000000
_cell_volume 1615.125362
_symmetry_space_group_name_H-M "P C C A"
_symmetry_group_IT_number 54
_symmetry_cell_setting 'orthorhombic'
loop_
_space_group_symop_operation_xyz
x,y,z
1/2-x,-y,z
1/2+x,-y,1/2-z
-x,y,1/2-z
-x,-y,-z
1/2+x,y,-z
1/2-x,y,1/2+z
x,-y,1/2+z
loop_
_atom_site_type_symbol
_atom_site_label
_atom_site_fract_x
_atom_site_fract_y
_atom_site_fract_z
Si Si1 0.701571 0.599222 0.332558
Si Si2 0.460082 0.606162 0.491290
Si Si3 0.784843 0.105432 0.861934
Si Si4 0.990260 0.799064 0.995753
Si Si5 0.323859 0.768803 0.297754
O O1 0.750000 0.500000 0.292330
O O2 0.517991 0.612737 0.370445
O O3 0.798279 0.608278 0.440847
O O4 0.746167 0.677756 0.253306
O O5 0.500000 0.500000 0.500000
O O6 0.541874 0.697464 0.536579
O O7 0.647302 0.155729 0.928747
O O8 0.775354 0.148690 0.749065
O O9 0.750000 0.000000 0.860799
O O10 0.946530 0.133640 0.918305
O O11 0.139041 0.777852 0.917732
O O12 0.500000 0.779169 0.250000
#
# Coordination Sequence:
#
# PCOD9420662 Si02
#       5
#     8   8   8   8   8
#     4  10  19  35  61  91 126 160 210 248 304 375
#     4  10  18  33  62  92 124 166 203 246 306 381
#     4  11  23  40  63  91 121 161 214 260 317 375
#     4  11  21  41  66  89 126 167 203 262 321 370
#     4  10  20  38  64  87 122 166 205 254 316 374
#
# _framework density 24.765879000000002
#
# number of rings (size 3 to 8) (size 9 to 14) (size 15 to 20)
#    0.000    1.600    6.000    0.600    0.000    0.800 
#    0.000    8.000    0.000    0.000    0.000    0.000 
#    0.000    0.000    0.000    0.000    0.000    0.000 
#
# Total GULP energy -222821.667270 kJ/mol
# GULP energy per Si atom -5570.541682 kJ/mol
# Density = 2.470951 g / cm^3
# Si number density = 24.765879 Si / 1000 Ang^3
#
#
#
# Elastic Constant Matrix: (Units=GPa)
#
#
# Indices 1 2 3 4 5 6 
#
# 1 63.0829 31.2319 42.9902 0.0000 0.0000 0.0000
# 2 31.2319 190.4239 35.1365 0.0000 0.0000 0.0000
# 3 42.9902 35.1365 96.0408 0.0000 0.0000 0.0000
# 4 0.0000 0.0000 0.0000 10.6624 0.0000 0.0000
# 5 0.0000 0.0000 0.0000 0.0000 42.4700 0.0000
# 6 0.0000 0.0000 0.0000 0.0000 0.0000 35.6236
#
#
#
# Elastic Compliance Matrix: (Units=1/GPa)
#
#
# Indices 1 2 3 4 5 6 
#
# 1 0.023537 -0.002055 -0.009784 0.000000 0.000000 0.000000
# 2 -0.002055 0.005811 -0.001206 0.000000 0.000000 0.000000
# 3 -0.009784 -0.001206 0.015233 0.000000 0.000000 0.000000
# 4 0.000000 0.000000 0.000000 0.093787 0.000000 0.000000
# 5 0.000000 0.000000 0.000000 0.000000 0.023546 0.000000
# 6 0.000000 0.000000 0.000000 0.000000 0.000000 0.028071
#
#
# Mechanical properties :
#
#
# Convention : Reuss Voigt Hill
#
# Bulk Modulus (GPa) = 54.08020 63.14054 58.61037
# Shear Modulus (GPa) = 22.49819 33.76381 28.13100
#
# Velocity S-wave (km/s) = 3.01730 3.69632 3.37393
# Velocity P-wave (km/s) = 5.83290 6.61569 6.23659
#
# Compressibility (1/GPa) = 0.01849105
#
# Stress axis : x y z
#
# Youngs Moduli (GPa) = 42.48574 172.08625 65.64673
#
# Poissons Ratio (x) = 0.35365 0.64229
# Poissons Ratio (y) = 0.08731 0.07917
# Poissons Ratio (z) = 0.41568 0.20755
#
# Static dielectric constant tensor:
#      x y z
#    x 2.106850 0.000000 0.000000 
#    y 0.000000 1.941460 0.000000 
#    z 0.000000 0.000000 2.000350 
# 
# From -- ./inp_files/11491.got.cif
#   From: 2010.05.17/outbox.cif.g08.bks.cpg/sg54_6_cif.got.tgz:11491.got - 2010.06.03 13:09:01.
