data_PCOD9420575
_publ_section_title
;
Structure prediction by ZEFSAII (Michael W. Deem and Ramdas Pophale) SiO2 
 PCOD9420575
Probable space group: P C C A
;
_chemical_formula_sum "Si O2"
_cell_formula_units_Z 36
_cell_length_a 8.793002
_cell_length_b 9.378618
_cell_length_c 23.795385
_cell_angle_alpha 90.000000
_cell_angle_beta 90.000000
_cell_angle_gamma 90.000000
_cell_volume 1962.315141
_symmetry_space_group_name_H-M "P C C A"
_symmetry_group_IT_number 54
_symmetry_cell_setting 'orthorhombic'
loop_
_space_group_symop_operation_xyz
x,y,z
1/2-x,-y,z
1/2+x,-y,1/2-z
-x,y,1/2-z
-x,-y,-z
1/2+x,y,-z
1/2-x,y,1/2+z
x,-y,1/2+z
loop_
_atom_site_type_symbol
_atom_site_label
_atom_site_fract_x
_atom_site_fract_y
_atom_site_fract_z
Si Si1 0.460906 0.736928 0.149316
Si Si2 0.930167 0.015593 0.690387
Si Si3 0.431334 0.496817 0.561541
Si Si4 0.398487 0.307727 0.165349
Si Si5 0.500000 0.455594 0.750000
O O1 0.512308 0.899009 0.146152
O O2 0.483955 0.645931 0.093403
O O3 0.279158 0.733540 0.161212
O O4 0.548314 0.653427 0.200151
O O5 0.000000 0.970080 0.750000
O O6 0.750000 0.000000 0.693504
O O7 0.996647 0.172627 0.679372
O O8 0.250000 0.500000 0.555789
O O9 0.500000 0.500000 0.500000
O O10 0.458496 0.622454 0.607216
O O11 0.404260 0.430578 0.213082
#
# Coordination Sequence:
#
# PCOD9420575 Si02
#       5
#     8   8   8   8   4
#     4  10  21  37  57  83 117 151 189 234 286 334
#     4  12  24  36  55  84 119 154 189 229 283 345
#     4   9  20  39  62  86 112 148 190 240 286 332
#     4  10  21  37  57  83 117 151 189 234 286 334
#     4  10  18  30  58  82 110 146 188 224 286 336
#
# _framework density 18.345676999999998
#
# number of rings (size 3 to 8) (size 9 to 14) (size 15 to 20)
#    0.000    1.778    2.222    4.000    0.000    3.556 
#    0.000    7.778    0.000    0.000    0.000    0.000 
#    0.000    0.000    0.000    0.000    0.000    0.000 
#
# Total GULP energy -200584.386810 kJ/mol
# GULP energy per Si atom -5571.788523 kJ/mol
# Density = 1.830392 g / cm^3
# Si number density = 18.345677 Si / 1000 Ang^3
#
#
#
# Elastic Constant Matrix: (Units=GPa)
#
#
# Indices 1 2 3 4 5 6 
#
# 1 63.8645 46.7743 33.6135 0.0000 0.0000 0.0000
# 2 46.7743 127.6368 40.9441 0.0000 0.0000 0.0000
# 3 33.6135 40.9441 126.8292 0.0000 0.0000 0.0000
# 4 0.0000 0.0000 0.0000 13.3187 0.0000 0.0000
# 5 0.0000 0.0000 0.0000 0.0000 22.2441 0.0000
# 6 0.0000 0.0000 0.0000 0.0000 0.0000 17.8038
#
#
#
# Elastic Compliance Matrix: (Units=1/GPa)
#
#
# Indices 1 2 3 4 5 6 
#
# 1 0.022895 -0.007188 -0.003747 0.000000 0.000000 0.000000
# 2 -0.007188 0.010997 -0.001645 0.000000 0.000000 0.000000
# 3 -0.003747 -0.001645 0.009409 0.000000 0.000000 0.000000
# 4 0.000000 0.000000 0.000000 0.075082 0.000000 0.000000
# 5 0.000000 0.000000 0.000000 0.000000 0.044956 0.000000
# 6 0.000000 0.000000 0.000000 0.000000 0.000000 0.056168
#
#
# Mechanical properties :
#
#
# Convention : Reuss Voigt Hill
#
# Bulk Modulus (GPa) = 55.12787 62.33268 58.73028
# Shear Modulus (GPa) = 19.94305 23.80655 21.87480
#
# Velocity S-wave (km/s) = 3.30065 3.60622 3.45681
# Velocity P-wave (km/s) = 6.68135 7.16870 6.92931
#
# Compressibility (1/GPa) = 0.01813964
#
# Stress axis : x y z
#
# Youngs Moduli (GPa) = 43.67759 90.93723 106.28329
#
# Poissons Ratio (x) = 0.65367 0.39828
# Poissons Ratio (y) = 0.31396 0.17483
# Poissons Ratio (z) = 0.16367 0.14959
#
# Static dielectric constant tensor:
#      x y z
#    x 1.652500 0.000000 0.000000 
#    y 0.000000 1.677320 0.000000 
#    z 0.000000 0.000000 1.636520 
# 
# From -- ./inp_files/25671.got.cif
#   From: 2010.05.17/outbox.cif.g08.bks.cpg/sg54_13_cif.got.tgz:25671.got - 2010.06.03 13:09:01.
