data_PCOD9420225
_publ_section_title
;
Structure prediction by ZEFSAII (Michael W. Deem and Ramdas Pophale) SiO2 
 PCOD9420225
Probable space group: P M N A
;
_chemical_formula_sum "Si O2"
_cell_formula_units_Z 48
_cell_length_a 9.000000
_cell_length_b 15.000000
_cell_length_c 18.000000
_cell_angle_alpha 90.000000
_cell_angle_beta 90.000000
_cell_angle_gamma 90.000000
_cell_volume 2430.000000
_symmetry_space_group_name_H-M "P M N A"
_symmetry_group_IT_number 53
_symmetry_cell_setting 'orthorhombic'
loop_
_space_group_symop_operation_xyz
x,y,z
1/2-x,-y,1/2+z
x,-y,-z
1/2-x,y,1/2-z
-x,-y,-z
1/2+x,y,1/2-z
-x,y,z
1/2+x,-y,1/2+z
loop_
_atom_site_type_symbol
_atom_site_label
_atom_site_fract_x
_atom_site_fract_y
_atom_site_fract_z
Si Si1 0.821217 0.116294 0.059995
Si Si2 0.820733 0.063030 0.598532
Si Si3 0.174973 0.699199 0.595792
Si Si4 0.326970 0.359028 0.927493
Si Si5 0.675951 0.777350 0.323574
Si Si6 0.677579 0.475828 0.173645
O O1 0.769885 0.211003 0.091952
O O2 0.000000 0.109699 0.053517
O O3 0.752848 0.034096 0.106360
O O4 0.743807 0.102205 0.979324
O O5 0.760472 0.130297 0.660123
O O6 0.000000 0.059258 0.595831
O O7 0.182929 0.650969 0.515511
O O8 0.226727 0.624296 0.653510
O O9 0.000000 0.720990 0.608176
O O10 0.500000 0.337607 0.907381
O O11 0.217762 0.288222 0.890410
O O12 0.291873 0.455197 0.893026
O O13 0.750000 0.737491 0.250000
O O14 0.500000 0.789096 0.316784
O O15 0.750000 0.506691 0.250000
O O16 0.500000 0.473364 0.181922
#
# Coordination Sequence:
#
# PCOD9420225 Si02
#       6
#     8   8   8   8   8   8
#     4  11  21  35  58  89 119 149 191 243 295 347
#     4  11  21  37  59  84 116 156 196 238 291 350
#     4  10  20  37  61  87 117 155 202 247 297 356
#     4  10  20  37  61  87 116 153 199 249 300 355
#     4  12  24  38  57  86 123 160 199 246 301 359
#     4  10  22  39  59  85 117 158 200 245 298 357
#
# _framework density 19.753086
#
# number of rings (size 3 to 8) (size 9 to 14) (size 15 to 20)
#    0.000    1.333    1.667    6.500    0.000    4.667 
#    0.000    0.833    0.000    5.000    0.000    0.000 
#    0.000    0.000    0.000    0.000    0.000    0.000 
#
# Total GULP energy -268183.815001 kJ/mol
# GULP energy per Si atom -5587.162813 kJ/mol
# Density = 1.970813 g / cm^3
# Si number density = 19.753086 Si / 1000 Ang^3
#
#
#
# Elastic Constant Matrix: (Units=GPa)
#
#
# Indices 1 2 3 4 5 6 
#
# 1 135.8993 47.2405 12.6491 0.0000 0.0000 0.0000
# 2 47.2405 121.0424 8.8216 0.0000 0.0000 0.0000
# 3 12.6491 8.8216 26.7159 0.0000 0.0000 0.0000
# 4 0.0000 0.0000 0.0000 3.8483 0.0000 0.0000
# 5 0.0000 0.0000 0.0000 0.0000 18.3112 0.0000
# 6 0.0000 0.0000 0.0000 0.0000 0.0000 25.0681
#
#
#
# Elastic Compliance Matrix: (Units=1/GPa)
#
#
# Indices 1 2 3 4 5 6 
#
# 1 0.008756 -0.003192 -0.003092 0.000000 0.000000 0.000000
# 2 -0.003192 0.009629 -0.001668 0.000000 0.000000 0.000000
# 3 -0.003092 -0.001668 0.039446 0.000000 0.000000 0.000000
# 4 0.000000 0.000000 0.000000 0.259855 0.000000 0.000000
# 5 0.000000 0.000000 0.000000 0.000000 0.054612 0.000000
# 6 0.000000 0.000000 0.000000 0.000000 0.000000 0.039891
#
#
# Mechanical properties :
#
#
# Convention : Reuss Voigt Hill
#
# Bulk Modulus (GPa) = 23.85110 46.78665 35.31888
# Shear Modulus (GPa) = 11.31051 23.77528 17.54290
#
# Velocity S-wave (km/s) = 2.39549 3.47309 2.98335
# Velocity P-wave (km/s) = 4.44432 6.31033 5.45767
#
# Compressibility (1/GPa) = 0.04192679
#
# Stress axis : x y z
#
# Youngs Moduli (GPa) = 114.21158 103.85440 25.35143
#
# Poissons Ratio (x) = 0.33149 0.07838
# Poissons Ratio (y) = 0.36455 0.04229
# Poissons Ratio (z) = 0.35309 0.17325
#
# Static dielectric constant tensor:
#      x y z
#    x 1.656790 0.000000 0.000000 
#    y 0.000000 1.720860 0.000000 
#    z 0.000000 0.000000 1.723320 
# 
# From -- ./inp_files/26222.got.cif
#   From: 2010.05.17/outbox.ucp.g08.bks.cvg/sg53_14_cif.got.tgz:26222.got - 2010.06.11 16:32:34.
