data_PCOD9420941
_publ_section_title
;
Structure prediction by ZEFSAII (Michael W. Deem and Ramdas Pophale) SiO2 
 PCOD9420941
Probable space group: P C C A
;
_chemical_formula_sum "Si O2"
_cell_formula_units_Z 48
_cell_length_a 19.005448
_cell_length_b 8.701409
_cell_length_c 16.508043
_cell_angle_alpha 90.000000
_cell_angle_beta 90.000000
_cell_angle_gamma 90.000000
_cell_volume 2730.004013
_symmetry_space_group_name_H-M "P C C A"
_symmetry_group_IT_number 54
_symmetry_cell_setting 'orthorhombic'
loop_
_space_group_symop_operation_xyz
x,y,z
1/2-x,-y,z
1/2+x,-y,1/2-z
-x,y,1/2-z
-x,-y,-z
1/2+x,y,-z
1/2-x,y,1/2+z
x,-y,1/2+z
loop_
_atom_site_type_symbol
_atom_site_label
_atom_site_fract_x
_atom_site_fract_y
_atom_site_fract_z
Si Si1 0.328846 0.800409 0.255242
Si Si2 0.330513 0.169709 0.230045
Si Si3 0.920433 0.197132 0.094247
Si Si4 0.543053 0.875966 0.668294
Si Si5 0.082007 0.302124 0.588047
Si Si6 0.546310 0.612133 0.327998
O O1 0.246812 0.764542 0.245028
O O2 0.355071 0.770280 0.346394
O O3 0.386347 0.709165 0.202467
O O4 0.332457 0.983261 0.235192
O O5 0.389031 0.212928 0.297180
O O6 0.358361 0.226915 0.144210
O O7 0.990483 0.281161 0.126147
O O8 0.934971 0.017274 0.111425
O O9 0.906716 0.255064 0.004272
O O10 0.500000 0.929653 0.750000
O O11 0.491095 0.771144 0.618045
O O12 0.074024 0.479213 0.613100
O O13 0.500000 0.553106 0.250000
#
# Coordination Sequence:
#
# PCOD9420941 Si02
#       6
#     8   8   8   8   8   8
#     4   9  19  36  55  71  99 141 174 201 249 315
#     4   9  18  35  54  74  99 134 174 205 248 311
#     4  10  19  33  52  76 102 132 169 214 257 296
#     4   9  17  32  54  77 102 134 171 207 252 308
#     4  11  20  31  51  80 104 127 169 222 256 291
#     4  10  19  33  53  74 102 139 170 201 254 314
#
# _framework density 17.582391000000001
#
# number of rings (size 3 to 8) (size 9 to 14) (size 15 to 20)
#    0.000    2.333    0.000    6.000    0.000    0.667 
#    0.000    8.333    0.000    6.000    0.000    0.000 
#    0.000    0.000    0.000    0.000    0.000    0.000 
#
# Total GULP energy -267505.615836 kJ/mol
# GULP energy per Si atom -5573.033663 kJ/mol
# Density = 1.754237 g / cm^3
# Si number density = 17.582391 Si / 1000 Ang^3
#
#
#
# Elastic Constant Matrix: (Units=GPa)
#
#
# Indices 1 2 3 4 5 6 
#
# 1 163.1455 35.4309 80.4780 0.0000 0.0000 0.0000
# 2 35.4309 45.0735 52.5866 0.0000 0.0000 0.0000
# 3 80.4780 52.5866 122.0803 0.0000 0.0000 0.0000
# 4 0.0000 0.0000 0.0000 19.3699 0.0000 0.0000
# 5 0.0000 0.0000 0.0000 0.0000 6.9901 0.0000
# 6 0.0000 0.0000 0.0000 0.0000 0.0000 5.9609
#
#
#
# Elastic Compliance Matrix: (Units=1/GPa)
#
#
# Indices 1 2 3 4 5 6 
#
# 1 0.009085 -0.000310 -0.005856 0.000000 0.000000 0.000000
# 2 -0.000310 0.044610 -0.019012 0.000000 0.000000 0.000000
# 3 -0.005856 -0.019012 0.020241 0.000000 0.000000 0.000000
# 4 0.000000 0.000000 0.000000 0.051627 0.000000 0.000000
# 5 0.000000 0.000000 0.000000 0.000000 0.143059 0.000000
# 6 0.000000 0.000000 0.000000 0.000000 0.000000 0.167760
#
#
# Mechanical properties :
#
#
# Convention : Reuss Voigt Hill
#
# Bulk Modulus (GPa) = 42.40555 74.14334 58.27444
# Shear Modulus (GPa) = 10.10923 17.25110 13.68016
#
# Velocity S-wave (km/s) = 2.40044 3.13574 2.79240
# Velocity P-wave (km/s) = 5.64388 7.44118 6.60396
#
# Compressibility (1/GPa) = 0.02358182
#
# Stress axis : x y z
#
# Youngs Moduli (GPa) = 110.06659 22.41628 49.40458
#
# Poissons Ratio (x) = 0.00695 0.28930
# Poissons Ratio (y) = 0.03411 0.93927
# Poissons Ratio (z) = 0.64453 0.42617
#
# Static dielectric constant tensor:
#      x y z
#    x 1.602290 0.000000 0.000000 
#    y 0.000000 1.625750 0.000000 
#    z 0.000000 0.000000 1.591250 
# 
# From -- ./inp_files/18510.got.cif
#   From: 2010.05.17/outbox.cif.g08.bks.cpg/sg54_10_cif.got.tgz:18510.got - 2010.06.03 13:09:01.
