data_PCOD9420530
_publ_section_title
;
Structure prediction by ZEFSAII (Michael W. Deem and Ramdas Pophale) SiO2 
 PCOD9420530
Probable space group: P C C A
;
_chemical_formula_sum "Si O2"
_cell_formula_units_Z 64
_cell_length_a 28.962322
_cell_length_b 5.637879
_cell_length_c 19.812854
_cell_angle_alpha 90.000000
_cell_angle_beta 90.000000
_cell_angle_gamma 90.000000
_cell_volume 3235.163006
_symmetry_space_group_name_H-M "P C C A"
_symmetry_group_IT_number 54
_symmetry_cell_setting 'orthorhombic'
loop_
_space_group_symop_operation_xyz
x,y,z
1/2-x,-y,z
1/2+x,-y,1/2-z
-x,y,1/2-z
-x,-y,-z
1/2+x,y,-z
1/2-x,y,1/2+z
x,-y,1/2+z
loop_
_atom_site_type_symbol
_atom_site_label
_atom_site_fract_x
_atom_site_fract_y
_atom_site_fract_z
Si Si1 0.302155 0.013180 0.515221
Si Si2 0.727568 0.249137 0.197393
Si Si3 0.946054 0.213435 0.756280
Si Si4 0.106574 0.453553 0.626529
Si Si5 0.308533 0.163903 0.164894
Si Si6 0.855395 0.482976 0.012426
Si Si7 0.130630 0.444027 0.834975
Si Si8 0.882101 0.171846 0.267214
O O1 0.298553 0.977188 0.596565
O O2 0.328314 0.771228 0.491250
O O3 0.250000 0.000000 0.488152
O O4 0.325783 0.270977 0.500451
O O5 0.750000 0.500000 0.174860
O O6 0.728832 0.241335 0.280021
O O7 0.674372 0.269742 0.173079
O O8 0.750000 0.000000 0.174932
O O9 0.926948 0.278613 0.831545
O O10 0.915575 0.361725 0.703211
O O11 0.000000 0.247687 0.750000
O O12 0.928022 0.951147 0.739661
O O13 0.160052 0.384858 0.642091
O O14 0.105996 0.468253 0.546466
O O15 0.100920 0.695819 0.665872
O O16 0.343978 0.008748 0.207854
O O17 0.875601 0.504713 0.087060
O O18 0.142353 0.670881 0.789238
#
# Coordination Sequence:
#
# PCOD9420530 Si02
#       8
#     8   8   8   8   8   8   8   8
#     4  11  24  39  61  91 129 177 235 274 310 380
#     4  12  25  36  61  94 131 176 219 273 325 380
#     4  10  22  41  72 101 125 161 218 281 342 400
#     4   9  19  38  66  88 130 163 215 257 329 386
#     4  10  19  36  59  91 123 168 219 276 314 369
#     4  11  25  41  64  90 131 187 211 264 334 389
#     4  11  25  41  63  92 138 169 217 268 333 396
#     4  10  17  38  66  90 122 166 211 268 332 384
#
# _framework density 19.782619
#
# number of rings (size 3 to 8) (size 9 to 14) (size 15 to 20)
#    0.000    1.500    5.000    1.500    1.750    5.500 
#    0.000    0.625    0.000    1.500    0.000    0.000 
#    0.000    0.000    0.000    0.000    0.000    0.000 
#
# Total GULP energy -356499.509708 kJ/mol
# GULP energy per Si atom -5570.304839 kJ/mol
# Density = 1.973759 g / cm^3
# Si number density = 19.782619 Si / 1000 Ang^3
#
#
#
# Elastic Constant Matrix: (Units=GPa)
#
#
# Indices 1 2 3 4 5 6 
#
# 1 91.8818 38.3461 30.6435 0.0000 0.0000 0.0000
# 2 38.3461 103.3120 23.0826 0.0000 0.0000 0.0000
# 3 30.6435 23.0826 145.2093 0.0000 0.0000 0.0000
# 4 0.0000 0.0000 0.0000 -1.9737 0.0000 0.0000
# 5 0.0000 0.0000 0.0000 0.0000 6.4199 0.0000
# 6 0.0000 0.0000 0.0000 0.0000 0.0000 15.8660
#
#
#
# Elastic Compliance Matrix: (Units=1/GPa)
#
#
# Indices 1 2 3 4 5 6 
#
# 1 0.013483 -0.004530 -0.002125 0.000000 0.000000 0.000000
# 2 -0.004530 0.011558 -0.000881 0.000000 0.000000 0.000000
# 3 -0.002125 -0.000881 0.007475 0.000000 0.000000 0.000000
# 4 0.000000 0.000000 0.000000 -0.506671 0.000000 0.000000
# 5 0.000000 0.000000 0.000000 0.000000 0.155766 0.000000
# 6 0.000000 0.000000 0.000000 0.000000 0.000000 0.063028
#
#
# Mechanical properties :
#
#
# Convention : Reuss Voigt Hill
#
# Bulk Modulus (GPa) = 57.32870 58.28305 57.80587
# Shear Modulus (GPa) = -21.32428 20.61783 -0.35322
#
# Velocity S-wave (km/s) = -3.28675 3.23184 -0.42301
# Velocity P-wave (km/s) = 3.82605 6.59182 5.38938
#
# Compressibility (1/GPa) = 0.01744327
#
# Stress axis : x y z
#
# Youngs Moduli (GPa) = 74.16915 86.52364 133.77579
#
# Poissons Ratio (x) = 0.39191 0.28430
# Poissons Ratio (y) = 0.33595 0.11790
# Poissons Ratio (z) = 0.15763 0.07626
#
# Static dielectric constant tensor:
#      x y z
#    x 1.755530 0.000000 0.000000 
#    y 0.000000 1.798300 0.000000 
#    z 0.000000 0.000000 1.718070 
# 
# From -- ./inp_files/22410.got.cif
#   From: 2010.05.17/outbox.cif.g08.bks.cpg/sg54_12_cif.got.tgz:22410.got - 2010.06.03 13:09:01.
