data_PCOD9420902
_publ_section_title
;
Structure prediction by ZEFSAII (Michael W. Deem and Ramdas Pophale) SiO2 
 PCOD9420902
Probable space group: P C C A
;
_chemical_formula_sum "Si O2"
_cell_formula_units_Z 56
_cell_length_a 14.388742
_cell_length_b 33.728049
_cell_length_c 5.117827
_cell_angle_alpha 90.000000
_cell_angle_beta 90.000000
_cell_angle_gamma 90.000000
_cell_volume 2483.702914
_symmetry_space_group_name_H-M "P C C A"
_symmetry_group_IT_number 54
_symmetry_cell_setting 'orthorhombic'
loop_
_space_group_symop_operation_xyz
x,y,z
1/2-x,-y,z
1/2+x,-y,1/2-z
-x,y,1/2-z
-x,-y,-z
1/2+x,y,-z
1/2-x,y,1/2+z
x,-y,1/2+z
loop_
_atom_site_type_symbol
_atom_site_label
_atom_site_fract_x
_atom_site_fract_y
_atom_site_fract_z
Si Si1 0.112602 0.400269 0.264398
Si Si2 0.888753 0.021918 0.737401
Si Si3 0.185906 0.189262 0.805196
Si Si4 0.145940 0.483992 0.523841
Si Si5 0.811316 0.105666 0.574043
Si Si6 0.188389 0.272775 0.927604
Si Si7 0.610921 0.356318 0.237270
O O1 0.144345 0.441479 0.389066
O O2 0.142987 0.366525 0.470931
O O3 0.000000 0.401917 0.250000
O O4 0.145484 0.388319 0.976167
O O5 0.864164 0.065615 0.641768
O O6 0.000000 0.019197 0.750000
O O7 0.854301 0.990008 0.524145
O O8 0.227899 0.189294 0.513791
O O9 0.137494 0.147303 0.863547
O O10 0.137250 0.231123 0.865015
O O11 0.250000 0.500000 0.575553
O O12 0.102100 0.486249 0.810969
O O13 0.775601 0.105846 0.277078
O O14 0.274970 0.272659 0.723562
O O15 0.134806 0.312734 0.861687
O O16 0.500000 0.359909 0.250000
#
# Coordination Sequence:
#
# PCOD9420902 Si02
#       7
#     8   8   8   8   8   8   8
#     4  10  21  38  58  77 105 142 173 206 255 309
#     4  10  21  35  49  69 103 140 171 217 274 320
#     4   8  16  30  50  72 106 134 165 214 261 309
#     4  10  21  38  53  77 105 134 167 213 257 288
#     4  10  19  32  52  77  98 133 177 220 264 305
#     4  10  19  35  54  83 108 139 177 210 257 312
#     4  10  21  38  56  81 112 140 172 213 257 304
#
# _framework density 22.546980999999999
#
# number of rings (size 3 to 8) (size 9 to 14) (size 15 to 20)
#    0.000    2.286    0.000    2.571    0.000    2.286 
#   15.429    0.714    0.000    0.000    0.000   18.000 
#    0.000    0.000    0.000    0.000    0.000    0.000 
#
# Total GULP energy -312656.936479 kJ/mol
# GULP energy per Si atom -5583.159580 kJ/mol
# Density = 2.249566 g / cm^3
# Si number density = 22.546981 Si / 1000 Ang^3
#
#
#
# Elastic Constant Matrix: (Units=GPa)
#
#
# Indices 1 2 3 4 5 6 
#
# 1 29.8614 -27.0780 -12.7006 0.0000 0.0000 0.0000
# 2 -27.0780 99.4918 -2.9896 0.0000 0.0000 0.0000
# 3 -12.7006 -2.9896 104.8846 0.0000 0.0000 0.0000
# 4 0.0000 0.0000 0.0000 39.7809 0.0000 0.0000
# 5 0.0000 0.0000 0.0000 0.0000 -41.4893 0.0000
# 6 0.0000 0.0000 0.0000 0.0000 0.0000 -21.7862
#
#
#
# Elastic Compliance Matrix: (Units=1/GPa)
#
#
# Indices 1 2 3 4 5 6 
#
# 1 0.048195 0.013304 0.006215 0.000000 0.000000 0.000000
# 2 0.013304 0.013732 0.002002 0.000000 0.000000 0.000000
# 3 0.006215 0.002002 0.010344 0.000000 0.000000 0.000000
# 4 0.000000 0.000000 0.000000 0.025138 0.000000 0.000000
# 5 0.000000 0.000000 0.000000 0.000000 -0.024103 0.000000
# 6 0.000000 0.000000 0.000000 0.000000 0.000000 -0.045901
#
#
# Mechanical properties :
#
#
# Convention : Reuss Voigt Hill
#
# Bulk Modulus (GPa) = 8.67199 16.52239 12.59719
# Shear Modulus (GPa) = 219.28794 13.76813 116.52803
#
# Velocity S-wave (km/s) = 9.87266 2.47380 7.19684
# Velocity P-wave (km/s) = 11.56779 3.93744 8.64052
#
# Compressibility (1/GPa) = 0.11531379
#
# Stress axis : x y z
#
# Youngs Moduli (GPa) = 20.74894 72.82243 96.67473
#
# Poissons Ratio (x) = -0.96881 -0.60085
# Poissons Ratio (y) = -0.27604 -0.19358
# Poissons Ratio (z) = -0.12896 -0.14582
#
# Static dielectric constant tensor:
#      x y z
#    x 1.873080 0.000000 0.000000 
#    y 0.000000 1.887020 0.000000 
#    z 0.000000 0.000000 1.865650 
# 
# From -- ./inp_files/750.got.cif
#   From: 2010.05.17/outbox.cif.g08.bks.cpg/sg54_1_cif.got.tgz:750.got - 2010.06.03 13:09:01.
