data_PCOD9420456
_publ_section_title
;
Structure prediction by ZEFSAII (Michael W. Deem and Ramdas Pophale) SiO2 
 PCOD9420456
Probable space group: P C C A
;
_chemical_formula_sum "Si O2"
_cell_formula_units_Z 36
_cell_length_a 25.288444
_cell_length_b 10.759934
_cell_length_c 5.455231
_cell_angle_alpha 90.000000
_cell_angle_beta 90.000000
_cell_angle_gamma 90.000000
_cell_volume 1484.379202
_symmetry_space_group_name_H-M "P C C A"
_symmetry_group_IT_number 54
_symmetry_cell_setting 'orthorhombic'
loop_
_space_group_symop_operation_xyz
x,y,z
1/2-x,-y,z
1/2+x,-y,1/2-z
-x,y,1/2-z
-x,-y,-z
1/2+x,y,-z
1/2-x,y,1/2+z
x,-y,1/2+z
loop_
_atom_site_type_symbol
_atom_site_label
_atom_site_fract_x
_atom_site_fract_y
_atom_site_fract_z
Si Si1 0.500000 0.087682 0.750000
Si Si2 0.770484 0.355965 0.135133
Si Si3 0.611138 0.424913 0.734777
Si Si4 0.387432 0.949883 0.742027
Si Si5 0.043174 0.269193 0.600557
O O1 0.502833 0.167899 0.505911
O O2 0.443436 0.023368 0.747420
O O3 0.750000 0.500000 0.111329
O O4 0.740228 0.299730 0.368171
O O5 0.831894 0.362367 0.198940
O O6 0.608363 0.528639 0.514830
O O7 0.565871 0.334420 0.641292
O O8 0.406329 0.805309 0.716186
O O9 0.360912 0.004952 0.494996
O O10 0.000000 0.350979 0.750000
#
# Coordination Sequence:
#
# PCOD9420456 Si02
#       5
#     4   8   8   8   8
#     4  10  18  36  54  74  96 146 176 230 256 294
#     4  10  16  35  61  73  91 130 173 226 274 291
#     4  12  25  37  52  79 108 145 180 213 256 321
#     4  10  17  32  56  74  92 134 178 223 263 285
#     4  11  22  35  52  74 111 146 182 212 255 311
#
# _framework density 24.252564
#
# number of rings (size 3 to 8) (size 9 to 14) (size 15 to 20)
#    0.000    1.333    7.778    1.333    3.111    0.889 
#    0.000    0.000    0.000    0.000    0.000    0.000 
#    0.000   21.333    0.000    0.000    0.000    0.000 
#
# Total GULP energy -200627.645925 kJ/mol
# GULP energy per Si atom -5572.990165 kJ/mol
# Density = 2.419736 g / cm^3
# Si number density = 24.252564 Si / 1000 Ang^3
#
#
#
# Elastic Constant Matrix: (Units=GPa)
#
#
# Indices 1 2 3 4 5 6 
#
# 1 33.3339 -1.6903 -5.9458 0.0000 0.0000 0.0000
# 2 -1.6903 16.8193 10.6817 0.0000 0.0000 0.0000
# 3 -5.9458 10.6817 131.0254 0.0000 0.0000 0.0000
# 4 0.0000 0.0000 0.0000 26.5022 0.0000 0.0000
# 5 0.0000 0.0000 0.0000 0.0000 24.2726 0.0000
# 6 0.0000 0.0000 0.0000 0.0000 0.0000 -29.6952
#
#
#
# Elastic Compliance Matrix: (Units=1/GPa)
#
#
# Indices 1 2 3 4 5 6 
#
# 1 0.030328 0.002293 0.001189 0.000000 0.000000 0.000000
# 2 0.002293 0.062875 -0.005022 0.000000 0.000000 0.000000
# 3 0.001189 -0.005022 0.008095 0.000000 0.000000 0.000000
# 4 0.000000 0.000000 0.000000 0.037733 0.000000 0.000000
# 5 0.000000 0.000000 0.000000 0.000000 0.041199 0.000000
# 6 0.000000 0.000000 0.000000 0.000000 0.000000 -0.033675
#
#
# Mechanical properties :
#
#
# Convention : Reuss Voigt Hill
#
# Bulk Modulus (GPa) = 10.18135 20.80774 15.49454
# Shear Modulus (GPa) = 27.41625 16.09147 21.75386
#
# Velocity S-wave (km/s) = 3.36586 2.57864 2.99820
# Velocity P-wave (km/s) = 4.39460 4.17900 4.28816
#
# Compressibility (1/GPa) = 0.09821881
#
# Stress axis : x y z
#
# Youngs Moduli (GPa) = 32.97293 15.90456 123.52579
#
# Poissons Ratio (x) = -0.03646 -0.14692
# Poissons Ratio (y) = -0.07559 0.62032
# Poissons Ratio (z) = -0.03922 0.07987
#
# Static dielectric constant tensor:
#      x y z
#    x 1.869670 0.000000 0.000000 
#    y 0.000000 2.096700 0.000000 
#    z 0.000000 0.000000 2.246330 
# 
# From -- ./inp_files/1560.got.cif
#   From: 2010.05.17/outbox.cif.g08.bks.cpg/sg54_1_cif.got.tgz:1560.got - 2010.06.03 13:09:01.
