data_PCOD9420183
_publ_section_title
;
Structure prediction by ZEFSAII (Michael W. Deem and Ramdas Pophale) SiO2 
 PCOD9420183
Probable space group: P M N A
;
_chemical_formula_sum "Si O2"
_cell_formula_units_Z 48
_cell_length_a 9.000000
_cell_length_b 15.000000
_cell_length_c 18.000000
_cell_angle_alpha 90.000000
_cell_angle_beta 90.000000
_cell_angle_gamma 90.000000
_cell_volume 2430.000000
_symmetry_space_group_name_H-M "P M N A"
_symmetry_group_IT_number 53
_symmetry_cell_setting 'orthorhombic'
loop_
_space_group_symop_operation_xyz
x,y,z
1/2-x,-y,1/2+z
x,-y,-z
1/2-x,y,1/2-z
-x,-y,-z
1/2+x,y,1/2-z
-x,y,z
1/2+x,-y,1/2+z
loop_
_atom_site_type_symbol
_atom_site_label
_atom_site_fract_x
_atom_site_fract_y
_atom_site_fract_z
Si Si1 0.178323 0.659520 0.397827
Si Si2 0.177954 0.532498 0.669138
Si Si3 0.319112 0.303510 0.066528
Si Si4 0.322467 0.143684 0.170428
Si Si5 0.324568 0.034871 0.917255
Si Si6 0.674946 0.178517 0.675026
O O1 0.208409 0.558113 0.375504
O O2 0.227720 0.681926 0.481748
O O3 0.260941 0.724137 0.341332
O O4 0.000000 0.674223 0.392776
O O5 0.250000 0.531816 0.750000
O O6 0.228283 0.615543 0.619334
O O7 0.000000 0.539285 0.678104
O O8 0.500000 0.303632 0.064236
O O9 0.272016 0.212890 0.106989
O O10 0.250000 0.160301 0.250000
O O11 0.500000 0.153880 0.178066
O O12 0.293996 0.044944 0.140031
O O13 0.500000 0.058769 0.913279
O O14 0.227259 0.117958 0.893347
O O15 0.296281 0.000000 0.000000
O O16 0.750000 0.142748 0.750000
O O17 0.500000 0.179125 0.683446
#
# Coordination Sequence:
#
# PCOD9420183 Si02
#       6
#     8   8   8   8   8   8
#     4  10  20  37  60  83 110 146 190 237 282 332
#     4  10  20  34  56  84 113 147 186 229 278 334
#     4   9  18  35  58  83 110 145 188 228 272 332
#     4  10  20  34  55  81 110 144 181 224 274 330
#     4  10  21  39  62  86 113 148 188 231 283 340
#     4  12  25  40  59  84 115 151 192 237 286 338
#
# _framework density 19.753086
#
# number of rings (size 3 to 8) (size 9 to 14) (size 15 to 20)
#    0.000    1.833    0.000    4.500    0.000    9.000 
#    0.000    3.333    0.000    2.000    0.000    0.000 
#    0.000    0.000    0.000    0.000    0.000    0.000 
#
# Total GULP energy -268188.773363 kJ/mol
# GULP energy per Si atom -5587.266112 kJ/mol
# Density = 1.970813 g / cm^3
# Si number density = 19.753086 Si / 1000 Ang^3
#
#
#
# Elastic Constant Matrix: (Units=GPa)
#
#
# Indices 1 2 3 4 5 6 
#
# 1 14.2551 30.9089 12.0842 0.0000 0.0000 0.0000
# 2 30.9089 64.0054 5.5342 0.0000 0.0000 0.0000
# 3 12.0842 5.5342 94.3538 0.0000 0.0000 0.0000
# 4 0.0000 0.0000 0.0000 24.3954 0.0000 0.0000
# 5 0.0000 0.0000 0.0000 0.0000 19.2062 0.0000
# 6 0.0000 0.0000 0.0000 0.0000 0.0000 21.4806
#
#
#
# Elastic Compliance Matrix: (Units=1/GPa)
#
#
# Indices 1 2 3 4 5 6 
#
# 1 -0.619309 0.293702 0.062090 0.000000 0.000000 0.000000
# 2 0.293702 -0.123583 -0.030367 0.000000 0.000000 0.000000
# 3 0.062090 -0.030367 0.004427 0.000000 0.000000 0.000000
# 4 0.000000 0.000000 0.000000 0.040991 0.000000 0.000000
# 5 0.000000 0.000000 0.000000 0.000000 0.052066 0.000000
# 6 0.000000 0.000000 0.000000 0.000000 0.000000 0.046554
#
#
# Mechanical properties :
#
#
# Convention : Reuss Voigt Hill
#
# Bulk Modulus (GPa) = -11.41387 29.96322 9.27468
# Shear Modulus (GPa) = -3.90959 21.28890 8.68966
#
# Velocity S-wave (km/s) = -1.40838 3.28647 2.09969
# Velocity P-wave (km/s) = 2.90440 5.44087 3.25327
#
# Compressibility (1/GPa) = -0.08761270
#
# Stress axis : x y z
#
# Youngs Moduli (GPa) = -1.61470 -8.09175 225.86357
#
# Poissons Ratio (x) = 2.37657 -14.02390
# Poissons Ratio (y) = 0.47424 6.85876
# Poissons Ratio (z) = 0.10026 -0.24572
#
# Static dielectric constant tensor:
#      x y z
#    x 1.663940 0.000000 0.000000 
#    y 0.000000 1.708800 0.000000 
#    z 0.000000 0.000000 1.677100 
# 
# From -- ./inp_files/26172.got.cif
#   From: 2010.05.17/outbox.ucp.g08.bks.cvg/sg53_14_cif.got.tgz:26172.got - 2010.06.11 16:32:34.
