data_PCOD9420153
_publ_section_title
;
Structure prediction by ZEFSAII (Michael W. Deem and Ramdas Pophale) SiO2 
 PCOD9420153
Probable space group: P M N A
;
_chemical_formula_sum "Si O2"
_cell_formula_units_Z 48
_cell_length_a 24.000000
_cell_length_b 12.000000
_cell_length_c 9.000000
_cell_angle_alpha 90.000000
_cell_angle_beta 90.000000
_cell_angle_gamma 90.000000
_cell_volume 2592.000000
_symmetry_space_group_name_H-M "P M N A"
_symmetry_group_IT_number 53
_symmetry_cell_setting 'orthorhombic'
loop_
_space_group_symop_operation_xyz
x,y,z
1/2-x,-y,1/2+z
x,-y,-z
1/2-x,y,1/2-z
-x,-y,-z
1/2+x,y,1/2-z
-x,y,z
1/2+x,-y,1/2+z
loop_
_atom_site_type_symbol
_atom_site_label
_atom_site_fract_x
_atom_site_fract_y
_atom_site_fract_z
Si Si1 0.935976 0.348006 0.887254
Si Si2 0.659909 0.263786 0.078346
Si Si3 0.775254 0.630024 0.985578
Si Si4 0.390132 0.587252 0.689123
Si Si5 0.160384 0.216147 0.771839
Si Si6 0.692774 0.969328 0.827158
O O1 0.904850 0.455854 0.812947
O O2 0.899160 0.241496 0.845782
O O3 0.000000 0.343855 0.840435
O O4 0.932419 0.365043 0.065503
O O5 0.723757 0.306671 0.088726
O O6 0.616971 0.350112 0.154693
O O7 0.655356 0.142785 0.159330
O O8 0.654548 0.253864 0.899933
O O9 0.830326 0.612470 0.886929
O O10 0.755816 0.500000 0.000000
O O11 0.796529 0.706275 0.128463
O O12 0.174440 0.083822 0.757892
O O13 0.750000 0.935365 0.750000
O O14 0.702639 0.000000 0.000000
#
# Coordination Sequence:
#
# PCOD9420153 Si02
#       6
#     8   8   8   8   8   8
#     4  10  21  41  60  76 105 148 195 243 299 344
#     4  11  23  32  55  89 123 152 184 227 274 339
#     4  11  20  34  53  84 126 158 185 217 280 352
#     4  10  19  36  55  84 112 145 186 230 288 337
#     4  10  21  38  57  83 113 158 192 230 280 333
#     4  10  20  37  55  82 121 160 193 221 267 337
#
# _framework density 18.518519000000001
#
# number of rings (size 3 to 8) (size 9 to 14) (size 15 to 20)
#    0.000    1.667    3.333    5.000    2.333    2.667 
#    0.000    2.500    0.000    7.500    0.000    0.000 
#    0.000    0.000    0.000    0.000    0.000    0.000 
#
# Total GULP energy -267410.407810 kJ/mol
# GULP energy per Si atom -5571.050163 kJ/mol
# Density = 1.847637 g / cm^3
# Si number density = 18.518519 Si / 1000 Ang^3
#
#
#
# Elastic Constant Matrix: (Units=GPa)
#
#
# Indices 1 2 3 4 5 6 
#
# 1 69.3281 20.6288 14.1100 0.0000 0.0000 0.0000
# 2 20.6288 107.9092 38.8740 0.0000 0.0000 0.0000
# 3 14.1100 38.8740 54.5555 0.0000 0.0000 0.0000
# 4 0.0000 0.0000 0.0000 37.8586 0.0000 0.0000
# 5 0.0000 0.0000 0.0000 0.0000 18.8205 0.0000
# 6 0.0000 0.0000 0.0000 0.0000 0.0000 11.8994
#
#
#
# Elastic Compliance Matrix: (Units=1/GPa)
#
#
# Indices 1 2 3 4 5 6 
#
# 1 0.015556 -0.002051 -0.002562 0.000000 0.000000 0.000000
# 2 -0.002051 0.012738 -0.008546 0.000000 0.000000 0.000000
# 3 -0.002562 -0.008546 0.025082 0.000000 0.000000 0.000000
# 4 0.000000 0.000000 0.000000 0.026414 0.000000 0.000000
# 5 0.000000 0.000000 0.000000 0.000000 0.053133 0.000000
# 6 0.000000 0.000000 0.000000 0.000000 0.000000 0.084038
#
#
# Mechanical properties :
#
#
# Convention : Reuss Voigt Hill
#
# Bulk Modulus (GPa) = 36.95748 42.11316 39.53532
# Shear Modulus (GPa) = 19.81785 24.26104 22.03944
#
# Velocity S-wave (km/s) = 3.27488 3.62345 3.45357
# Velocity P-wave (km/s) = 5.85664 6.34794 6.10723
#
# Compressibility (1/GPa) = 0.02705812
#
# Stress axis : x y z
#
# Youngs Moduli (GPa) = 64.28462 78.50661 39.86905
#
# Poissons Ratio (x) = 0.16100 0.10214
# Poissons Ratio (y) = 0.13184 0.34072
# Poissons Ratio (z) = 0.16469 0.67092
#
# Static dielectric constant tensor:
#      x y z
#    x 1.634250 0.000000 0.000000 
#    y 0.000000 1.686710 0.000000 
#    z 0.000000 0.000000 1.695440 
# 
# From -- ./inp_files/11741.got.cif
#   From: 2010.05.17/outbox.ucp.g08.bks.cvg/sg53_6_cif.got.tgz:11741.got - 2010.06.11 16:32:34.
