data_PCOD9420293
_publ_section_title
;
Structure prediction by ZEFSAII (Michael W. Deem and Ramdas Pophale) SiO2 
 PCOD9420293
Probable space group: P M N A
;
_chemical_formula_sum "Si O2"
_cell_formula_units_Z 64
_cell_length_a 9.000000
_cell_length_b 24.000000
_cell_length_c 15.000000
_cell_angle_alpha 90.000000
_cell_angle_beta 90.000000
_cell_angle_gamma 90.000000
_cell_volume 3240.000000
_symmetry_space_group_name_H-M "P M N A"
_symmetry_group_IT_number 53
_symmetry_cell_setting 'orthorhombic'
loop_
_space_group_symop_operation_xyz
x,y,z
1/2-x,-y,1/2+z
x,-y,-z
1/2-x,y,1/2-z
-x,-y,-z
1/2+x,y,1/2-z
-x,y,z
1/2+x,-y,1/2+z
loop_
_atom_site_type_symbol
_atom_site_label
_atom_site_fract_x
_atom_site_fract_y
_atom_site_fract_z
Si Si1 0.320902 0.351203 0.650784
Si Si2 0.179088 0.308480 0.478555
Si Si3 0.321012 0.466371 0.848408
Si Si4 0.177220 0.018778 0.157599
Si Si5 0.177246 0.410186 0.348020
Si Si6 0.323132 0.219772 0.346890
Si Si7 0.822470 0.886389 0.965261
Si Si8 0.823956 0.885794 0.158041
O O1 0.250000 0.342564 0.750000
O O2 0.500000 0.350439 0.656770
O O3 0.258314 0.310199 0.574873
O O4 0.260393 0.411550 0.616795
O O5 0.216988 0.363393 0.419519
O O6 0.241875 0.259297 0.417563
O O7 0.000000 0.306221 0.488967
O O8 0.250000 0.471236 0.750000
O O9 0.500000 0.457197 0.846239
O O10 0.292007 0.527826 0.886768
O O11 0.250000 0.037738 0.250000
O O12 0.233211 0.054996 0.074127
O O13 0.000000 0.027092 0.163437
O O14 0.200970 0.952672 0.150189
O O15 0.250000 0.402468 0.250000
O O16 0.000000 0.407567 0.333579
O O17 0.250000 0.225612 0.250000
O O18 0.500000 0.231815 0.342472
O O19 0.303457 0.158146 0.387160
O O20 0.000000 0.893285 0.980426
O O21 0.765631 0.865581 0.061519
O O22 0.750000 0.866233 0.250000
O O23 0.000000 0.875128 0.166389
#
# Coordination Sequence:
#
# PCOD9420293 Si02
#       8
#     8   8   8   8   8   8   8   8
#     4  11  22  38  59  84 112 144 180 222 271 325
#     4  11  23  40  59  81 108 143 186 231 278 327
#     4   9  16  30  51  78 110 144 178 216 265 321
#     4   9  16  28  49  77 108 143 181 221 268 322
#     4   9  19  33  53  79 110 145 181 222 270 325
#     4  11  23  40  60  83 110 141 179 226 278 329
#     4   9  18  33  54  77 105 144 186 224 267 324
#     4   9  17  31  51  77 109 144 181 221 266 319
#
# _framework density 19.753086
#
# number of rings (size 3 to 8) (size 9 to 14) (size 15 to 20)
#    0.000    2.250    0.000    4.125    0.000    4.500 
#    0.000    5.625    0.000    4.500    0.000    0.000 
#    0.000    0.000    0.000    0.000    0.000    0.000 
#
# Total GULP energy -356902.381630 kJ/mol
# GULP energy per Si atom -5576.599713 kJ/mol
# Density = 1.970813 g / cm^3
# Si number density = 19.753086 Si / 1000 Ang^3
#
#
#
# Elastic Constant Matrix: (Units=GPa)
#
#
# Indices 1 2 3 4 5 6 
#
# 1 77.1706 23.4539 39.1910 0.0000 0.0000 0.0000
# 2 23.4539 12.1923 18.0818 0.0000 0.0000 0.0000
# 3 39.1910 18.0818 117.7843 0.0000 0.0000 0.0000
# 4 0.0000 0.0000 0.0000 21.7731 0.0000 0.0000
# 5 0.0000 0.0000 0.0000 0.0000 30.4639 0.0000
# 6 0.0000 0.0000 0.0000 0.0000 0.0000 -1.0744
#
#
#
# Elastic Compliance Matrix: (Units=1/GPa)
#
#
# Indices 1 2 3 4 5 6 
#
# 1 0.031407 -0.058161 -0.001522 0.000000 0.000000 0.000000
# 2 -0.058161 0.213900 -0.013485 0.000000 0.000000 0.000000
# 3 -0.001522 -0.013485 0.011067 0.000000 0.000000 0.000000
# 4 0.000000 0.000000 0.000000 0.045928 0.000000 0.000000
# 5 0.000000 0.000000 0.000000 0.000000 0.032826 0.000000
# 6 0.000000 0.000000 0.000000 0.000000 0.000000 -0.930770
#
#
# Mechanical properties :
#
#
# Convention : Reuss Voigt Hill
#
# Bulk Modulus (GPa) = 9.08766 40.95560 25.02163
# Shear Modulus (GPa) = -12.11749 18.66057 3.27154
#
# Velocity S-wave (km/s) = -2.47947 3.07692 1.28834
# Velocity P-wave (km/s) = 1.89379 5.77945 3.86106
#
# Compressibility (1/GPa) = 0.11003938
#
# Stress axis : x y z
#
# Youngs Moduli (GPa) = 31.83955 4.67507 90.36194
#
# Poissons Ratio (x) = 0.27191 0.13751
# Poissons Ratio (y) = 1.85181 1.21853
# Poissons Ratio (z) = 0.04845 0.06304
#
# Static dielectric constant tensor:
#      x y z
#    x 1.664420 0.000000 0.000000 
#    y 0.000000 1.769510 0.000000 
#    z 0.000000 0.000000 1.814880 
# 
# From -- ./inp_files/21025.got.cif
#   From: 2010.05.17/outbox.ucp.g08.bks.cvg/sg53_11_cif.got.tgz:21025.got - 2010.06.11 16:32:34.
