data_PCOD9420224
_publ_section_title
;
Structure prediction by ZEFSAII (Michael W. Deem and Ramdas Pophale) SiO2 
 PCOD9420224
Probable space group: P M N A
;
_chemical_formula_sum "Si O2"
_cell_formula_units_Z 48
_cell_length_a 9.000000
_cell_length_b 15.000000
_cell_length_c 18.000000
_cell_angle_alpha 90.000000
_cell_angle_beta 90.000000
_cell_angle_gamma 90.000000
_cell_volume 2430.000000
_symmetry_space_group_name_H-M "P M N A"
_symmetry_group_IT_number 53
_symmetry_cell_setting 'orthorhombic'
loop_
_space_group_symop_operation_xyz
x,y,z
1/2-x,-y,1/2+z
x,-y,-z
1/2-x,y,1/2-z
-x,-y,-z
1/2+x,y,1/2-z
-x,y,z
1/2+x,-y,1/2+z
loop_
_atom_site_type_symbol
_atom_site_label
_atom_site_fract_x
_atom_site_fract_y
_atom_site_fract_z
Si Si1 0.329652 0.768393 0.820100
Si Si2 0.178647 0.073099 0.102847
Si Si3 0.320039 0.880933 0.432322
Si Si4 0.321840 0.683994 0.409333
Si Si5 0.824042 0.486763 0.826624
Si Si6 0.672516 0.616208 0.941504
O O1 0.250000 0.725428 0.750000
O O2 0.500000 0.783440 0.801887
O O3 0.250986 0.860512 0.839692
O O4 0.319096 0.703849 0.890197
O O5 0.000000 0.076581 0.108814
O O6 0.229900 0.970746 0.108562
O O7 0.217420 0.106667 0.019401
O O8 0.500000 0.881972 0.429003
O O9 0.268598 0.785791 0.402470
O O10 0.500000 0.685777 0.421142
O O11 0.293021 0.617595 0.341746
O O12 0.247793 0.640499 0.481379
O O13 0.750000 0.514569 0.750000
O O14 0.756933 0.540663 0.895580
O O15 0.000000 0.501120 0.823623
O O16 0.500000 0.592474 0.951134
#
# Coordination Sequence:
#
# PCOD9420224 Si02
#       6
#     8   8   8   8   8   8
#     4  11  23  36  52  79 113 150 188 231 286 337
#     4   9  16  31  56  81 108 145 184 223 269 325
#     4   8  15  30  56  85 109 141 182 222 269 325
#     4  10  20  37  61  87 114 147 189 232 277 336
#     4  11  24  40  59  82 111 150 189 231 283 338
#     4  11  23  38  58  85 114 146 187 236 286 337
#
# _framework density 19.753086
#
# number of rings (size 3 to 8) (size 9 to 14) (size 15 to 20)
#    0.000    2.000    1.667    3.500    0.000    6.667 
#    0.000    3.333    0.000    2.000    0.000    0.000 
#    0.000    0.000    0.000    0.000    0.000    0.000 
#
# Total GULP energy -267880.929075 kJ/mol
# GULP energy per Si atom -5580.852689 kJ/mol
# Density = 1.970813 g / cm^3
# Si number density = 19.753086 Si / 1000 Ang^3
#
#
#
# Elastic Constant Matrix: (Units=GPa)
#
#
# Indices 1 2 3 4 5 6 
#
# 1 29.2188 46.2287 26.9984 0.0000 0.0000 0.0000
# 2 46.2287 140.4684 28.3479 0.0000 0.0000 0.0000
# 3 26.9984 28.3479 44.6476 0.0000 0.0000 0.0000
# 4 0.0000 0.0000 0.0000 73.5554 0.0000 0.0000
# 5 0.0000 0.0000 0.0000 0.0000 23.6873 0.0000
# 6 0.0000 0.0000 0.0000 0.0000 0.0000 43.1493
#
#
#
# Elastic Compliance Matrix: (Units=1/GPa)
#
#
# Indices 1 2 3 4 5 6 
#
# 1 0.167092 -0.039684 -0.075844 0.000000 0.000000 0.000000
# 2 -0.039684 0.017590 0.012829 0.000000 0.000000 0.000000
# 3 -0.075844 0.012829 0.060115 0.000000 0.000000 0.000000
# 4 0.000000 0.000000 0.000000 0.013595 0.000000 0.000000
# 5 0.000000 0.000000 0.000000 0.000000 0.042217 0.000000
# 6 0.000000 0.000000 0.000000 0.000000 0.000000 0.023175
#
#
# Mechanical properties :
#
#
# Convention : Reuss Voigt Hill
#
# Bulk Modulus (GPa) = 25.38198 46.38720 35.88459
# Shear Modulus (GPa) = 9.21971 35.59569 22.40770
#
# Velocity S-wave (km/s) = 2.16278 4.24964 3.37172
# Velocity P-wave (km/s) = 4.37199 6.90027 5.77616
#
# Compressibility (1/GPa) = 0.03939803
#
# Stress axis : x y z
#
# Youngs Moduli (GPa) = 5.98474 56.84923 16.63474
#
# Poissons Ratio (x) = 2.25603 1.26164
# Poissons Ratio (y) = 0.23750 -0.21340
# Poissons Ratio (z) = 0.45391 -0.72930
#
# Static dielectric constant tensor:
#      x y z
#    x 1.855070 0.000000 0.000000 
#    y 0.000000 1.746990 0.000000 
#    z 0.000000 0.000000 1.481370 
# 
# From -- ./inp_files/26158.got.cif
#   From: 2010.05.17/outbox.ucp.g08.bks.cvg/sg53_14_cif.got.tgz:26158.got - 2010.06.11 16:32:34.
