data_PCOD9420778
_publ_section_title
;
Structure prediction by ZEFSAII (Michael W. Deem and Ramdas Pophale) SiO2 
 PCOD9420778
Probable space group: P C C A
;
_chemical_formula_sum "Si O2"
_cell_formula_units_Z 40
_cell_length_a 18.271458
_cell_length_b 6.771872
_cell_length_c 17.459323
_cell_angle_alpha 90.000000
_cell_angle_beta 90.000000
_cell_angle_gamma 90.000000
_cell_volume 2160.276514
_symmetry_space_group_name_H-M "P C C A"
_symmetry_group_IT_number 54
_symmetry_cell_setting 'orthorhombic'
loop_
_space_group_symop_operation_xyz
x,y,z
1/2-x,-y,z
1/2+x,-y,1/2-z
-x,y,1/2-z
-x,-y,-z
1/2+x,y,-z
1/2-x,y,1/2+z
x,-y,1/2+z
loop_
_atom_site_type_symbol
_atom_site_label
_atom_site_fract_x
_atom_site_fract_y
_atom_site_fract_z
Si Si1 0.475054 0.793701 0.965188
Si Si2 0.250000 0.000000 0.261989
Si Si3 0.326541 0.607586 0.231360
Si Si4 0.750000 0.500000 0.508379
Si Si5 0.340156 0.302646 0.363499
Si Si6 0.898392 0.510776 0.419849
O O1 0.414800 0.782097 0.898001
O O2 0.547322 0.690867 0.932352
O O3 0.437318 0.664712 0.032626
O O4 0.500000 0.000000 0.000000
O O5 0.194603 0.160838 0.224842
O O6 0.302200 0.142935 0.310152
O O7 0.250000 0.500000 0.212700
O O8 0.347753 0.507757 0.313943
O O9 0.384997 0.548670 0.167577
O O10 0.715323 0.659557 0.566130
O O11 0.819313 0.559584 0.457111
#
# Coordination Sequence:
#
# PCOD9420778 Si02
#       6
#     8   4   8   4   8   8
#     4  10  24  40  58  90 127 164 206 253 314 381
#     4  10  20  34  64  92 124 152 214 264 310 374
#     4  10  20  39  60  92 120 157 207 259 311 369
#     4  10  18  38  62  84 112 162 200 256 318 350
#     4  10  21  37  60  89 120 161 207 260 311 372
#     4  10  22  40  61  85 123 160 203 259 310 371
#
# _framework density 18.51615
#
# number of rings (size 3 to 8) (size 9 to 14) (size 15 to 20)
#    0.000    2.000    4.000    0.000    2.800    5.600 
#    0.000    0.000    0.000    0.000    0.000    0.000 
#    0.000    0.000    0.000    0.000    0.000    0.000 
#
# Total GULP energy -222684.482255 kJ/mol
# GULP energy per Si atom -5567.112056 kJ/mol
# Density = 1.847401 g / cm^3
# Si number density = 18.516150 Si / 1000 Ang^3
#
#
#
# Elastic Constant Matrix: (Units=GPa)
#
#
# Indices 1 2 3 4 5 6 
#
# 1 135.4674 46.6963 40.1019 0.0000 0.0000 0.0000
# 2 46.6963 104.7474 29.5135 0.0000 0.0000 0.0000
# 3 40.1019 29.5135 76.6217 0.0000 0.0000 0.0000
# 4 0.0000 0.0000 0.0000 63.0439 0.0000 0.0000
# 5 0.0000 0.0000 0.0000 0.0000 36.7233 0.0000
# 6 0.0000 0.0000 0.0000 0.0000 0.0000 18.2882
#
#
#
# Elastic Compliance Matrix: (Units=1/GPa)
#
#
# Indices 1 2 3 4 5 6 
#
# 1 0.009613 -0.003217 -0.003792 0.000000 0.000000 0.000000
# 2 -0.003217 0.011786 -0.002856 0.000000 0.000000 0.000000
# 3 -0.003792 -0.002856 0.016136 0.000000 0.000000 0.000000
# 4 0.000000 0.000000 0.000000 0.015862 0.000000 0.000000
# 5 0.000000 0.000000 0.000000 0.000000 0.027231 0.000000
# 6 0.000000 0.000000 0.000000 0.000000 0.000000 0.054680
#
#
# Mechanical properties :
#
#
# Convention : Reuss Voigt Hill
#
# Bulk Modulus (GPa) = 56.16562 61.05111 58.60837
# Shear Modulus (GPa) = 31.06109 36.97940 34.02024
#
# Velocity S-wave (km/s) = 4.10019 4.47379 4.29106
# Velocity P-wave (km/s) = 7.26736 7.72850 7.50148
#
# Compressibility (1/GPa) = 0.01780448
#
# Stress axis : x y z
#
# Youngs Moduli (GPa) = 104.02125 84.84896 61.97347
#
# Poissons Ratio (x) = 0.27297 0.23502
# Poissons Ratio (y) = 0.33465 0.17699
# Poissons Ratio (z) = 0.39447 0.24232
#
# Static dielectric constant tensor:
#      x y z
#    x 1.615750 0.000000 0.000000 
#    y 0.000000 1.637710 0.000000 
#    z 0.000000 0.000000 1.667660 
# 
# From -- ./inp_files/18417.got.cif
#   From: 2010.05.17/outbox.cif.g08.bks.cpg/sg54_10_cif.got.tgz:18417.got - 2010.06.03 13:09:01.
