data_PCOD9420131
_publ_section_title
;
Structure prediction by ZEFSAII (Michael W. Deem and Ramdas Pophale) SiO2 
 PCOD9420131
Probable space group: P M N A
;
_chemical_formula_sum "Si O2"
_cell_formula_units_Z 48
_cell_length_a 9.000000
_cell_length_b 12.000000
_cell_length_c 24.000000
_cell_angle_alpha 90.000000
_cell_angle_beta 90.000000
_cell_angle_gamma 90.000000
_cell_volume 2592.000000
_symmetry_space_group_name_H-M "P M N A"
_symmetry_group_IT_number 53
_symmetry_cell_setting 'orthorhombic'
loop_
_space_group_symop_operation_xyz
x,y,z
1/2-x,-y,1/2+z
x,-y,-z
1/2-x,y,1/2-z
-x,-y,-z
1/2+x,y,1/2-z
-x,y,z
1/2+x,-y,1/2+z
loop_
_atom_site_type_symbol
_atom_site_label
_atom_site_fract_x
_atom_site_fract_y
_atom_site_fract_z
Si Si1 0.822718 0.594602 0.874567
Si Si2 0.181697 0.634725 0.187124
Si Si3 0.321919 0.946929 0.911316
Si Si4 0.821007 0.212176 0.593904
Si Si5 0.822019 0.821967 0.809834
Si Si6 0.680460 0.744083 0.521591
O O1 0.771876 0.478433 0.847004
O O2 0.795323 0.696215 0.831881
O O3 0.772788 0.646485 0.934359
O O4 0.000000 0.581801 0.880631
O O5 0.250000 0.634245 0.250000
O O6 0.245692 0.736012 0.149315
O O7 0.000000 0.638966 0.190225
O O8 0.500000 0.931270 0.916600
O O9 0.259589 0.903947 0.852485
O O10 0.241122 0.862781 0.954539
O O11 0.292230 0.079286 0.914341
O O12 0.749440 0.270814 0.539516
O O13 0.000000 0.227275 0.595898
O O14 0.750000 0.835433 0.750000
O O15 0.000000 0.840315 0.810032
O O16 0.500000 0.747181 0.519688
#
# Coordination Sequence:
#
# PCOD9420131 Si02
#       6
#     8   8   8   8   8   8
#     4   8  18  36  58  85 114 145 182 229 283 337
#     4  11  23  41  62  83 112 150 191 232 278 332
#     4  10  21  37  56  80 114 152 189 233 282 334
#     4  11  24  40  57  82 116 153 192 231 276 331
#     4  10  19  33  55  83 113 145 187 236 287 341
#     4  10  20  37  62  90 117 145 183 231 284 338
#
# _framework density 18.518519000000001
#
# number of rings (size 3 to 8) (size 9 to 14) (size 15 to 20)
#    0.000    2.000    0.000    4.500    0.000    6.000 
#    0.000   12.500    0.000    0.000    0.000    0.000 
#    0.000    0.000    0.000    0.000    0.000    0.000 
#
# Total GULP energy -267858.570972 kJ/mol
# GULP energy per Si atom -5580.386895 kJ/mol
# Density = 1.847637 g / cm^3
# Si number density = 18.518519 Si / 1000 Ang^3
#
#
#
# Elastic Constant Matrix: (Units=GPa)
#
#
# Indices 1 2 3 4 5 6 
#
# 1 84.7998 26.9128 38.8533 0.0000 0.0000 0.0000
# 2 26.9128 69.0248 37.2154 0.0000 0.0000 0.0000
# 3 38.8533 37.2154 135.6446 0.0000 0.0000 0.0000
# 4 0.0000 0.0000 0.0000 19.8458 0.0000 0.0000
# 5 0.0000 0.0000 0.0000 0.0000 38.6640 0.0000
# 6 0.0000 0.0000 0.0000 0.0000 0.0000 24.8382
#
#
#
# Elastic Compliance Matrix: (Units=1/GPa)
#
#
# Indices 1 2 3 4 5 6 
#
# 1 0.014455 -0.003995 -0.003044 0.000000 0.000000 0.000000
# 2 -0.003995 0.018107 -0.003824 0.000000 0.000000 0.000000
# 3 -0.003044 -0.003824 0.009293 0.000000 0.000000 0.000000
# 4 0.000000 0.000000 0.000000 0.050388 0.000000 0.000000
# 5 0.000000 0.000000 0.000000 0.000000 0.025864 0.000000
# 6 0.000000 0.000000 0.000000 0.000000 0.000000 0.040261
#
#
# Mechanical properties :
#
#
# Convention : Reuss Voigt Hill
#
# Bulk Modulus (GPa) = 49.67775 55.04803 52.36289
# Shear Modulus (GPa) = 26.76617 29.10211 27.93414
#
# Velocity S-wave (km/s) = 3.80593 3.96853 3.88808
# Velocity P-wave (km/s) = 6.79689 7.12667 6.96373
#
# Compressibility (1/GPa) = 0.02012973
#
# Stress axis : x y z
#
# Youngs Moduli (GPa) = 69.17943 55.22870 107.60472
#
# Poissons Ratio (x) = 0.22062 0.32760
# Poissons Ratio (y) = 0.27634 0.41143
# Poissons Ratio (z) = 0.21062 0.21117
#
# Static dielectric constant tensor:
#      x y z
#    x 1.617270 0.000000 0.000000 
#    y 0.000000 1.651790 0.000000 
#    z 0.000000 0.000000 1.663930 
# 
# From -- ./inp_files/33844.got.cif
#   From: 2010.05.17/outbox.ucp.g08.bks.cvg/sg53_17_cif.got.tgz:33844.got - 2010.06.11 16:32:34.
