data_PCOD9420180
_publ_section_title
;
Structure prediction by ZEFSAII (Michael W. Deem and Ramdas Pophale) SiO2 
 PCOD9420180
Probable space group: P M N A
;
_chemical_formula_sum "Si O2"
_cell_formula_units_Z 64
_cell_length_a 9.000000
_cell_length_b 21.000000
_cell_length_c 18.000000
_cell_angle_alpha 90.000000
_cell_angle_beta 90.000000
_cell_angle_gamma 90.000000
_cell_volume 3402.000000
_symmetry_space_group_name_H-M "P M N A"
_symmetry_group_IT_number 53
_symmetry_cell_setting 'orthorhombic'
loop_
_space_group_symop_operation_xyz
x,y,z
1/2-x,-y,1/2+z
x,-y,-z
1/2-x,y,1/2-z
-x,-y,-z
1/2+x,y,1/2-z
-x,y,z
1/2+x,-y,1/2+z
loop_
_atom_site_type_symbol
_atom_site_label
_atom_site_fract_x
_atom_site_fract_y
_atom_site_fract_z
Si Si1 0.173390 0.888319 0.111748
Si Si2 0.323759 0.092053 0.438109
Si Si3 0.326355 0.002641 0.175443
Si Si4 0.321193 0.428909 0.982967
Si Si5 0.827211 0.740202 0.110342
Si Si6 0.824385 0.623764 0.324502
Si Si7 0.322333 0.789018 0.670027
Si Si8 0.677860 0.688790 0.553004
O O1 0.276962 0.930229 0.163331
O O2 0.186965 0.813976 0.127483
O O3 0.000000 0.907313 0.122091
O O4 0.210421 0.898240 0.024525
O O5 0.500000 0.078376 0.433398
O O6 0.293616 0.154097 0.388065
O O7 0.233936 0.037005 0.397935
O O8 0.250000 0.028710 0.250000
O O9 0.500000 0.010174 0.182719
O O10 0.500000 0.424049 0.986200
O O11 0.274015 0.411166 0.899527
O O12 0.275565 0.500000 0.000000
O O13 0.252527 0.378627 0.039434
O O14 0.724712 0.696204 0.160328
O O15 0.000000 0.721120 0.120773
O O16 0.791628 0.728390 0.023033
O O17 0.750000 0.599356 0.250000
O O18 0.000000 0.618961 0.318188
O O19 0.250000 0.797941 0.750000
O O20 0.500000 0.785882 0.679706
O O21 0.270825 0.726050 0.625986
O O22 0.500000 0.682725 0.557330
#
# Coordination Sequence:
#
# PCOD9420180 Si02
#       8
#     8   8   8   8   8   8   8   8
#     4  10  20  37  61  84 107 142 180 221 276 334
#     4  10  20  38  61  82 108 142 181 223 275 334
#     4  12  26  41  55  76 107 143 184 232 279 328
#     4   9  19  36  57  81 110 146 185 224 269 318
#     4   9  17  33  57  81 106 139 176 218 267 322
#     4  10  20  34  54  81 112 146 182 224 271 320
#     4  10  20  34  54  82 112 143 179 222 271 323
#     4   9  17  33  55  80 109 139 178 221 261 315
#
# _framework density 18.812463000000001
#
# number of rings (size 3 to 8) (size 9 to 14) (size 15 to 20)
#    0.000    2.125    1.250    2.250    0.000    5.750 
#    0.000    0.625    0.000    3.000    0.000    0.000 
#    0.000    0.000    0.000    0.000    0.000    0.000 
#
# Total GULP energy -357175.948306 kJ/mol
# GULP energy per Si atom -5580.874192 kJ/mol
# Density = 1.876965 g / cm^3
# Si number density = 18.812463 Si / 1000 Ang^3
#
#
#
# Elastic Constant Matrix: (Units=GPa)
#
#
# Indices 1 2 3 4 5 6 
#
# 1 14.6563 32.7872 33.7884 0.0000 0.0000 0.0000
# 2 32.7872 71.9245 19.2751 0.0000 0.0000 0.0000
# 3 33.7884 19.2751 71.5275 0.0000 0.0000 0.0000
# 4 0.0000 0.0000 0.0000 25.5856 0.0000 0.0000
# 5 0.0000 0.0000 0.0000 0.0000 62.8791 0.0000
# 6 0.0000 0.0000 0.0000 0.0000 0.0000 19.0789
#
#
#
# Elastic Compliance Matrix: (Units=1/GPa)
#
#
# Indices 1 2 3 4 5 6 
#
# 1 -0.102994 0.036552 0.038803 0.000000 0.000000 0.000000
# 2 0.036552 0.002014 -0.017809 0.000000 0.000000 0.000000
# 3 0.038803 -0.017809 0.000450 0.000000 0.000000 0.000000
# 4 0.000000 0.000000 0.000000 0.039084 0.000000 0.000000
# 5 0.000000 0.000000 0.000000 0.000000 0.015904 0.000000
# 6 0.000000 0.000000 0.000000 0.000000 0.000000 0.052414
#
#
# Mechanical properties :
#
#
# Convention : Reuss Voigt Hill
#
# Bulk Modulus (GPa) = 68.67862 36.64553 52.66208
# Shear Modulus (GPa) = -48.37212 26.32590 -11.02311
#
# Velocity S-wave (km/s) = -5.07628 3.74490 -2.42326
# Velocity P-wave (km/s) = 1.49267 6.18229 4.49715
#
# Compressibility (1/GPa) = 0.01456057
#
# Stress axis : x y z
#
# Youngs Moduli (GPa) = -9.70931 496.56439 2222.23336
#
# Poissons Ratio (x) = -18.15025 -86.22885
# Poissons Ratio (y) = 0.35489 39.57594
# Poissons Ratio (z) = 0.37675 8.84336
#
# Static dielectric constant tensor:
#      x y z
#    x 1.630600 0.000000 0.000000 
#    y 0.000000 1.696510 0.000000 
#    z 0.000000 0.000000 1.610240 
# 
# From -- ./inp_files/26920.got.cif
#   From: 2010.05.17/outbox.ucp.g08.bks.cvg/sg53_14_cif.got.tgz:26920.got - 2010.06.11 16:32:34.
