data_PCOD9420964
_publ_section_title
;
Structure prediction by ZEFSAII (Michael W. Deem and Ramdas Pophale) SiO2 
 PCOD9420964
Probable space group: P C C A
;
_chemical_formula_sum "Si O2"
_cell_formula_units_Z 48
_cell_length_a 5.292249
_cell_length_b 15.681002
_cell_length_c 25.011823
_cell_angle_alpha 90.000000
_cell_angle_beta 90.000000
_cell_angle_gamma 90.000000
_cell_volume 2075.675343
_symmetry_space_group_name_H-M "P C C A"
_symmetry_group_IT_number 54
_symmetry_cell_setting 'orthorhombic'
loop_
_space_group_symop_operation_xyz
x,y,z
1/2-x,-y,z
1/2+x,-y,1/2-z
-x,y,1/2-z
-x,-y,-z
1/2+x,y,-z
1/2-x,y,1/2+z
x,-y,1/2+z
loop_
_atom_site_type_symbol
_atom_site_label
_atom_site_fract_x
_atom_site_fract_y
_atom_site_fract_z
Si Si1 0.576321 0.110510 0.132020
Si Si2 0.829658 0.094346 0.981342
Si Si3 0.075335 0.684664 0.690605
Si Si4 0.080506 0.107577 0.191261
Si Si5 0.000302 0.462397 0.939466
Si Si6 0.924238 0.315389 0.628066
O O1 0.451177 0.083300 0.076543
O O2 0.859945 0.084509 0.148610
O O3 0.575887 0.213269 0.125971
O O4 0.367183 0.084971 0.175968
O O5 0.750000 0.000000 0.000986
O O6 0.551652 0.137292 0.983379
O O7 0.079575 0.788576 0.692312
O O8 0.849601 0.660527 0.650702
O O9 0.000000 0.655530 0.750000
O O10 0.349911 0.659084 0.668620
O O11 0.000000 0.078744 0.250000
O O12 0.250000 0.500000 0.913744
O O13 0.750000 0.500000 0.914070
O O14 0.016487 0.361872 0.928238
O O15 0.000000 0.500000 0.000000
#
# Coordination Sequence:
#
# PCOD9420964 Si02
#       6
#     8   8   8   8   8   8
#     4  10  19  33  54  84 110 140 187 227 271 318
#     4  10  21  38  56  78 110 150 187 226 278 328
#     4   9  17  30  52  80 108 137 170 218 273 315
#     4   9  17  30  52  82 116 143 174 222 276 328
#     4  10  21  38  54  71  98 140 179 210 268 334
#     4  10  19  33  54  79 105 136 179 225 260 320
#
# _framework density 23.125001999999999
#
# number of rings (size 3 to 8) (size 9 to 14) (size 15 to 20)
#    0.000    2.333    0.000    3.000    0.000    4.000 
#    6.000    0.000    0.000   12.000    0.000    0.000 
#    0.000    0.000    0.000    0.000    0.000    0.000 
#
# Total GULP energy -267765.971475 kJ/mol
# GULP energy per Si atom -5578.457739 kJ/mol
# Density = 2.307237 g / cm^3
# Si number density = 23.125002 Si / 1000 Ang^3
#
#
#
# Elastic Constant Matrix: (Units=GPa)
#
#
# Indices 1 2 3 4 5 6 
#
# 1 185.0901 4.7985 15.5319 0.0000 0.0000 0.0000
# 2 4.7985 50.6916 3.1324 0.0000 0.0000 0.0000
# 3 15.5319 3.1324 75.5650 0.0000 0.0000 0.0000
# 4 0.0000 0.0000 0.0000 30.7495 0.0000 0.0000
# 5 0.0000 0.0000 0.0000 0.0000 25.3636 0.0000
# 6 0.0000 0.0000 0.0000 0.0000 0.0000 19.2530
#
#
#
# Elastic Compliance Matrix: (Units=1/GPa)
#
#
# Indices 1 2 3 4 5 6 
#
# 1 0.005508 -0.000453 -0.001113 0.000000 0.000000 0.000000
# 2 -0.000453 0.019815 -0.000728 0.000000 0.000000 0.000000
# 3 -0.001113 -0.000728 0.013493 0.000000 0.000000 0.000000
# 4 0.000000 0.000000 0.000000 0.032521 0.000000 0.000000
# 5 0.000000 0.000000 0.000000 0.000000 0.039427 0.000000
# 6 0.000000 0.000000 0.000000 0.000000 0.000000 0.051940
#
#
# Mechanical properties :
#
#
# Convention : Reuss Voigt Hill
#
# Bulk Modulus (GPa) = 29.21673 39.80805 34.51239
# Shear Modulus (GPa) = 27.97978 34.26550 31.12264
#
# Velocity S-wave (km/s) = 3.48219 3.85353 3.67255
# Velocity P-wave (km/s) = 5.36928 6.08697 5.73936
#
# Compressibility (1/GPa) = 0.03422697
#
# Stress axis : x y z
#
# Youngs Moduli (GPa) = 181.55627 50.46681 74.11429
#
# Poissons Ratio (x) = 0.02284 0.08252
# Poissons Ratio (y) = 0.08217 0.05398
# Poissons Ratio (z) = 0.20214 0.03676
#
# Static dielectric constant tensor:
#      x y z
#    x 1.962780 0.000000 0.000000 
#    y 0.000000 1.888250 0.000000 
#    z 0.000000 0.000000 1.865100 
# 
# From -- ./inp_files/22928.got.cif
#   From: 2010.05.17/outbox.cif.g08.bks.cpg/sg54_12_cif.got.tgz:22928.got - 2010.06.03 13:09:01.
