data_PCOD9420682
_publ_section_title
;
Structure prediction by ZEFSAII (Michael W. Deem and Ramdas Pophale) SiO2 
 PCOD9420682
Probable space group: P C C A
;
_chemical_formula_sum "Si O2"
_cell_formula_units_Z 40
_cell_length_a 24.334897
_cell_length_b 8.710996
_cell_length_c 8.934555
_cell_angle_alpha 90.000000
_cell_angle_beta 90.000000
_cell_angle_gamma 90.000000
_cell_volume 1893.957605
_symmetry_space_group_name_H-M "P C C A"
_symmetry_group_IT_number 54
_symmetry_cell_setting 'orthorhombic'
loop_
_space_group_symop_operation_xyz
x,y,z
1/2-x,-y,z
1/2+x,-y,1/2-z
-x,y,1/2-z
-x,-y,-z
1/2+x,y,-z
1/2-x,y,1/2+z
x,-y,1/2+z
loop_
_atom_site_type_symbol
_atom_site_label
_atom_site_fract_x
_atom_site_fract_y
_atom_site_fract_z
Si Si1 0.263817 0.323469 0.524999
Si Si2 0.448963 0.784995 0.318384
Si Si3 0.320951 0.788122 0.318765
Si Si4 0.078558 0.058949 0.599825
Si Si5 0.650842 0.121630 0.148492
O O1 0.250000 0.500000 0.500490
O O2 0.208137 0.236891 0.477800
O O3 0.285861 0.295278 0.691459
O O4 0.310684 0.251857 0.417503
O O5 0.500000 0.690029 0.250000
O O6 0.384701 0.733225 0.316146
O O7 0.458303 0.840745 0.488631
O O8 0.446981 0.932733 0.208482
O O9 0.318355 0.970492 0.288575
O O10 0.111604 0.167222 0.714882
O O11 0.116243 0.957331 0.486807
#
# Coordination Sequence:
#
# PCOD9420682 Si02
#       5
#     8   8   8   8   8
#     4  12  24  40  60  90 124 162 202 258 306 365
#     4  10  18  34  57  86 121 158 205 260 306 350
#     4  10  24  38  58  90 119 166 199 253 307 368
#     4   8  17  31  56  89 119 154 202 252 308 348
#     4  10  18  37  60  88 118 161 197 248 304 369
#
# _framework density 21.119797999999999
#
# number of rings (size 3 to 8) (size 9 to 14) (size 15 to 20)
#    0.000    2.400    4.000    1.800    5.600    1.600 
#    0.000    0.000    0.000    1.200    0.000    0.000 
#    0.000    0.000    0.000    0.000    0.000    0.000 
#
# Total GULP energy -222857.698485 kJ/mol
# GULP energy per Si atom -5571.442462 kJ/mol
# Density = 2.107173 g / cm^3
# Si number density = 21.119798 Si / 1000 Ang^3
#
#
#
# Elastic Constant Matrix: (Units=GPa)
#
#
# Indices 1 2 3 4 5 6 
#
# 1 97.5106 -4.4319 29.5467 0.0000 0.0000 0.0000
# 2 -4.4319 46.5708 2.3264 0.0000 0.0000 0.0000
# 3 29.5467 2.3264 92.8245 0.0000 0.0000 0.0000
# 4 0.0000 0.0000 0.0000 19.9442 0.0000 0.0000
# 5 0.0000 0.0000 0.0000 0.0000 41.1644 0.0000
# 6 0.0000 0.0000 0.0000 0.0000 0.0000 -12.6591
#
#
#
# Elastic Compliance Matrix: (Units=1/GPa)
#
#
# Indices 1 2 3 4 5 6 
#
# 1 0.011425 0.001270 -0.003668 0.000000 0.000000 0.000000
# 2 0.001270 0.021641 -0.000947 0.000000 0.000000 0.000000
# 3 -0.003668 -0.000947 0.011964 0.000000 0.000000 0.000000
# 4 0.000000 0.000000 0.000000 0.050140 0.000000 0.000000
# 5 0.000000 0.000000 0.000000 0.000000 0.024293 0.000000
# 6 0.000000 0.000000 0.000000 0.000000 0.000000 -0.078994
#
#
# Mechanical properties :
#
#
# Convention : Reuss Voigt Hill
#
# Bulk Modulus (GPa) = 26.08203 32.42092 29.25147
# Shear Modulus (GPa) = 83.41996 23.65422 53.53709
#
# Velocity S-wave (km/s) = 6.29160 3.35027 5.04027
# Velocity P-wave (km/s) = 8.07188 5.50909 6.91033
#
# Compressibility (1/GPa) = 0.03834057
#
# Stress axis : x y z
#
# Youngs Moduli (GPa) = 87.53050 46.20883 83.58122
#
# Poissons Ratio (x) = -0.05871 0.30661
# Poissons Ratio (y) = -0.11121 0.07913
# Poissons Ratio (z) = 0.32109 0.04375
#
# Static dielectric constant tensor:
#      x y z
#    x 1.930820 0.000000 0.000000 
#    y 0.000000 1.750480 0.000000 
#    z 0.000000 0.000000 1.810010 
# 
# From -- ./inp_files/5440.got.cif
#   From: 2010.05.17/outbox.cif.g08.bks.cpg/sg54_3_cif.got.tgz:5440.got - 2010.06.03 13:09:01.
