data_PCOD9420620
_publ_section_title
;
Structure prediction by ZEFSAII (Michael W. Deem and Ramdas Pophale) SiO2 
 PCOD9420620
Probable space group: P C C A
;
_chemical_formula_sum "Si O2"
_cell_formula_units_Z 36
_cell_length_a 23.866345
_cell_length_b 9.534412
_cell_length_c 5.553354
_cell_angle_alpha 90.000000
_cell_angle_beta 90.000000
_cell_angle_gamma 90.000000
_cell_volume 1263.674400
_symmetry_space_group_name_H-M "P C C A"
_symmetry_group_IT_number 54
_symmetry_cell_setting 'orthorhombic'
loop_
_space_group_symop_operation_xyz
x,y,z
1/2-x,-y,z
1/2+x,-y,1/2-z
-x,y,1/2-z
-x,-y,-z
1/2+x,y,-z
1/2-x,y,1/2+z
x,-y,1/2+z
loop_
_atom_site_type_symbol
_atom_site_label
_atom_site_fract_x
_atom_site_fract_y
_atom_site_fract_z
Si Si1 0.108652 0.828160 0.026896
Si Si2 0.552127 0.633985 0.367108
Si Si3 0.339962 0.549398 0.640376
Si Si4 0.272947 0.844971 0.316450
Si Si5 0.500000 0.154847 0.250000
O O1 0.141361 0.710684 0.190774
O O2 0.161965 0.880114 0.875967
O O3 0.056986 0.917833 0.142388
O O4 0.075336 0.734877 0.838352
O O5 0.500000 0.552496 0.250000
O O6 0.602244 0.531695 0.424171
O O7 0.529742 0.740162 0.564630
O O8 0.313227 0.529571 0.371122
O O9 0.257449 0.778753 0.054630
O O10 0.250000 0.000000 0.281321
#
# Coordination Sequence:
#
# PCOD9420620 Si02
#       5
#     8   8   8   8   4
#     4  10  21  34  60  91 130 164 215 257 313 377
#     4   9  19  30  49  87 134 178 205 234 289 373
#     4  10  19  30  48  81 129 172 205 238 283 366
#     4  10  24  46  73  93 110 154 222 284 324 372
#     4  10  18  32  54  96 136 176 192 248 310 386
#
# _framework density 28.488354000000001
#
# number of rings (size 3 to 8) (size 9 to 14) (size 15 to 20)
#    0.000    2.222    2.222    0.000    4.667    2.667 
#    0.000    0.000    0.000   21.333    0.000    0.000 
#    0.000    0.000    0.000    0.000    0.000    0.000 
#
# Total GULP energy -200901.939396 kJ/mol
# GULP energy per Si atom -5580.609428 kJ/mol
# Density = 2.842351 g / cm^3
# Si number density = 28.488354 Si / 1000 Ang^3
#
#
#
# Elastic Constant Matrix: (Units=GPa)
#
#
# Indices 1 2 3 4 5 6 
#
# 1 171.9259 8.3722 31.8762 0.0000 0.0000 0.0000
# 2 8.3722 34.7425 6.7129 0.0000 0.0000 0.0000
# 3 31.8762 6.7129 177.3712 0.0000 0.0000 0.0000
# 4 0.0000 0.0000 0.0000 31.1359 0.0000 0.0000
# 5 0.0000 0.0000 0.0000 0.0000 24.7623 0.0000
# 6 0.0000 0.0000 0.0000 0.0000 0.0000 30.8533
#
#
#
# Elastic Compliance Matrix: (Units=1/GPa)
#
#
# Indices 1 2 3 4 5 6 
#
# 1 0.006071 -0.001261 -0.001043 0.000000 0.000000 0.000000
# 2 -0.001261 0.029257 -0.000881 0.000000 0.000000 0.000000
# 3 -0.001043 -0.000881 0.005859 0.000000 0.000000 0.000000
# 4 0.000000 0.000000 0.000000 0.032117 0.000000 0.000000
# 5 0.000000 0.000000 0.000000 0.000000 0.040384 0.000000
# 6 0.000000 0.000000 0.000000 0.000000 0.000000 0.032411
#
#
# Mechanical properties :
#
#
# Convention : Reuss Voigt Hill
#
# Bulk Modulus (GPa) = 28.72199 53.10691 40.91445
# Shear Modulus (GPa) = 30.47362 39.82220 35.14791
#
# Velocity S-wave (km/s) = 3.27416 3.74283 3.51631
# Velocity P-wave (km/s) = 4.93937 6.11232 5.55688
#
# Compressibility (1/GPa) = 0.03481653
#
# Stress axis : x y z
#
# Youngs Moduli (GPa) = 164.70846 34.17951 170.68552
#
# Poissons Ratio (x) = 0.04312 0.17809
# Poissons Ratio (y) = 0.20777 0.15030
# Poissons Ratio (z) = 0.17185 0.03010
#
# Static dielectric constant tensor:
#      x y z
#    x 2.428580 0.000000 0.000000 
#    y 0.000000 2.286020 0.000000 
#    z 0.000000 0.000000 2.505620 
# 
# From -- ./inp_files/1563.got.cif
#   From: 2010.05.17/outbox.cif.g08.bks.cpg/sg54_1_cif.got.tgz:1563.got - 2010.06.03 13:09:01.
