data_PCOD9420611
_publ_section_title
;
Structure prediction by ZEFSAII (Michael W. Deem and Ramdas Pophale) SiO2 
 PCOD9420611
Probable space group: P C C A
;
_chemical_formula_sum "Si O2"
_cell_formula_units_Z 40
_cell_length_a 5.348881
_cell_length_b 23.733126
_cell_length_c 14.864414
_cell_angle_alpha 90.000000
_cell_angle_beta 90.000000
_cell_angle_gamma 90.000000
_cell_volume 1886.972946
_symmetry_space_group_name_H-M "P C C A"
_symmetry_group_IT_number 54
_symmetry_cell_setting 'orthorhombic'
loop_
_space_group_symop_operation_xyz
x,y,z
1/2-x,-y,z
1/2+x,-y,1/2-z
-x,y,1/2-z
-x,-y,-z
1/2+x,y,-z
1/2-x,y,1/2+z
x,-y,1/2+z
loop_
_atom_site_type_symbol
_atom_site_label
_atom_site_fract_x
_atom_site_fract_y
_atom_site_fract_z
Si Si1 0.760429 0.884957 0.353500
Si Si2 0.497748 0.470027 0.142772
Si Si3 0.897168 0.774238 0.441662
Si Si4 0.747232 0.066969 0.649864
Si Si5 0.382978 0.645238 0.556016
O O1 0.822051 0.819539 0.366502
O O2 0.499371 0.906384 0.392774
O O3 0.752968 0.905044 0.249660
O O4 0.996057 0.916224 0.396586
O O5 0.250000 0.500000 0.105801
O O6 0.500000 0.477690 0.250000
O O7 0.463064 0.404278 0.122422
O O8 0.750000 0.500000 0.108116
O O9 0.673675 0.782105 0.515501
O O10 0.895956 0.709448 0.409550
O O11 0.750000 0.000000 0.660321
O O12 0.597671 0.639346 0.478868
#
# Coordination Sequence:
#
# PCOD9420611 Si02
#       5
#     8   8   8   8   8
#     4  10  18  32  54  77 102 135 176 211 269 328
#     4  10  21  37  57  83 118 149 179 230 291 327
#     4  10  21  37  55  75 108 146 177 221 269 314
#     4  10  19  33  56  79 104 134 170 231 275 312
#     4  10  21  37  58  82 110 148 194 229 268 326
#
# _framework density 21.197973000000001
#
# number of rings (size 3 to 8) (size 9 to 14) (size 15 to 20)
#    0.000    2.000    0.000    5.400    0.000    2.400 
#    3.600    0.000    8.800   20.400    0.000    0.000 
#    0.000    0.000    0.000    0.000    0.000    0.000 
#
# Total GULP energy -223056.878904 kJ/mol
# GULP energy per Si atom -5576.421973 kJ/mol
# Density = 2.114973 g / cm^3
# Si number density = 21.197973 Si / 1000 Ang^3
#
#
#
# Elastic Constant Matrix: (Units=GPa)
#
#
# Indices 1 2 3 4 5 6 
#
# 1 191.2268 59.9709 15.5361 0.0000 0.0000 0.0000
# 2 59.9709 159.8392 27.2607 0.0000 0.0000 0.0000
# 3 15.5361 27.2607 46.0605 0.0000 0.0000 0.0000
# 4 0.0000 0.0000 0.0000 82.4288 0.0000 0.0000
# 5 0.0000 0.0000 0.0000 0.0000 -5.9932 0.0000
# 6 0.0000 0.0000 0.0000 0.0000 0.0000 -2.8089
#
#
#
# Elastic Compliance Matrix: (Units=1/GPa)
#
#
# Indices 1 2 3 4 5 6 
#
# 1 0.005951 -0.002103 -0.000763 0.000000 0.000000 0.000000
# 2 -0.002103 0.007702 -0.003849 0.000000 0.000000 0.000000
# 3 -0.000763 -0.003849 0.024246 0.000000 0.000000 0.000000
# 4 0.000000 0.000000 0.000000 0.012132 0.000000 0.000000
# 5 0.000000 0.000000 0.000000 0.000000 -0.166854 0.000000
# 6 0.000000 0.000000 0.000000 0.000000 0.000000 -0.356017
#
#
# Mechanical properties :
#
#
# Convention : Reuss Voigt Hill
#
# Bulk Modulus (GPa) = 40.86708 66.96244 53.91476
# Shear Modulus (GPa) = -11.08018 34.34926 11.63454
#
# Velocity S-wave (km/s) = -2.28874 4.02979 2.34530
# Velocity P-wave (km/s) = 3.51229 7.30136 5.72914
#
# Compressibility (1/GPa) = 0.02446957
#
# Stress axis : x y z
#
# Youngs Moduli (GPa) = 168.04562 129.84275 41.24415
#
# Poissons Ratio (x) = 0.27301 0.03146
# Poissons Ratio (y) = 0.35333 0.15875
# Poissons Ratio (z) = 0.12818 0.49976
#
# Static dielectric constant tensor:
#      x y z
#    x 2.007110 0.000000 0.000000 
#    y 0.000000 1.808850 0.000000 
#    z 0.000000 0.000000 1.716060 
# 
# From -- ./inp_files/15794.got.cif
#   From: 2010.05.17/outbox.cif.g08.bks.cpg/sg54_8_cif.got.tgz:15794.got - 2010.06.03 13:09:01.
