data_PCOD9420019
_publ_section_title
;
Structure prediction by ZEFSAII (Michael W. Deem and Ramdas Pophale) SiO2 
 PCOD9420019
Probable space group: P M N A
;
_chemical_formula_sum "Si O2"
_cell_formula_units_Z 40
_cell_length_a 8.989468
_cell_length_b 13.553511
_cell_length_c 16.387769
_cell_angle_alpha 90.000000
_cell_angle_beta 90.000000
_cell_angle_gamma 90.000000
_cell_volume 1996.666985
_symmetry_space_group_name_H-M "P M N A"
_symmetry_group_IT_number 53
_symmetry_cell_setting 'orthorhombic'
loop_
_space_group_symop_operation_xyz
x,y,z
1/2-x,-y,1/2+z
x,-y,-z
1/2-x,y,1/2-z
-x,-y,-z
1/2+x,y,1/2-z
-x,y,z
1/2+x,-y,1/2+z
loop_
_atom_site_type_symbol
_atom_site_label
_atom_site_fract_x
_atom_site_fract_y
_atom_site_fract_z
Si Si1 0.680469 0.406888 0.393920
Si Si2 0.319574 0.382683 0.586617
Si Si3 0.324819 0.007557 0.831725
Si Si4 0.327486 0.169070 0.569220
Si Si5 0.672823 0.805706 0.626877
O O1 0.500000 0.405542 0.388248
O O2 0.732214 0.516754 0.369116
O O3 0.715535 0.396529 0.490440
O O4 0.730340 0.304676 0.353124
O O5 0.500000 0.380684 0.591682
O O6 0.270609 0.272213 0.608722
O O7 0.250000 0.049035 0.750000
O O8 0.500000 0.010351 0.825806
O O9 0.267030 0.075510 0.904953
O O10 0.268551 0.895831 0.841365
O O11 0.500000 0.152618 0.592910
O O12 0.326617 0.184699 0.471790
O O13 0.500000 0.816051 0.653155
#
# Coordination Sequence:
#
# PCOD9420019 Si02
#       5
#     8   8   8   8   8
#     4   7  10  19  40  72 104 129 154 186 226 275
#     4   7  10  19  40  72 104 129 154 186 226 275
#     4  12  25  38  51  67  93 129 169 212 253 294
#     4   9  17  31  53  79 105 131 160 196 238 287
#     4   9  17  31  53  79 105 131 160 196 238 287
#
# _framework density 20.033386
#
# number of rings (size 3 to 8) (size 9 to 14) (size 15 to 20)
#    0.000    3.200    0.000    6.000    0.000    3.200 
#    0.000    0.000    0.000    2.400    0.000    5.600 
#    0.000    0.000    0.000    0.000    0.000    0.000 
#
# Total GULP energy -222696.100122 kJ/mol
# GULP energy per Si atom -5567.402503 kJ/mol
# Density = 1.998779 g / cm^3
# Si number density = 20.033386 Si / 1000 Ang^3
#
#
#
# Elastic Constant Matrix: (Units=GPa)
#
#
# Indices 1 2 3 4 5 6 
#
# 1 63.4282 42.9756 12.1609 0.0000 0.0000 0.0000
# 2 42.9756 142.6998 16.9641 0.0000 0.0000 0.0000
# 3 12.1609 16.9641 20.9513 0.0000 0.0000 0.0000
# 4 0.0000 0.0000 0.0000 -6.3305 0.0000 0.0000
# 5 0.0000 0.0000 0.0000 0.0000 11.1291 0.0000
# 6 0.0000 0.0000 0.0000 0.0000 0.0000 -5.8680
#
#
#
# Elastic Compliance Matrix: (Units=1/GPa)
#
#
# Indices 1 2 3 4 5 6 
#
# 1 0.020895 -0.005368 -0.007782 0.000000 0.000000 0.000000
# 2 -0.005368 0.009133 -0.004279 0.000000 0.000000 0.000000
# 3 -0.007782 -0.004279 0.055711 0.000000 0.000000 0.000000
# 4 0.000000 0.000000 0.000000 -0.157965 0.000000 0.000000
# 5 0.000000 0.000000 0.000000 0.000000 0.089855 0.000000
# 6 0.000000 0.000000 0.000000 0.000000 0.000000 -0.170415
#
#
# Mechanical properties :
#
#
# Convention : Reuss Voigt Hill
#
# Bulk Modulus (GPa) = 19.65355 41.25339 30.45347
# Shear Modulus (GPa) = -49.52019 10.11803 -19.70108
#
# Velocity S-wave (km/s) = -4.97720 2.24979 -3.13934
# Velocity P-wave (km/s) = 4.81646 5.23314 1.44697
#
# Compressibility (1/GPa) = 0.05088140
#
# Stress axis : x y z
#
# Youngs Moduli (GPa) = 47.85920 109.49383 17.94962
#
# Poissons Ratio (x) = 0.58771 0.13968
# Poissons Ratio (y) = 0.25689 0.07681
# Poissons Ratio (z) = 0.37244 0.46856
#
# Static dielectric constant tensor:
#      x y z
#    x 1.652580 0.000000 0.000000 
#    y 0.000000 1.791260 0.000000 
#    z 0.000000 0.000000 1.991050 
# 
# From -- ./inp_files/25991.got.cif
#   From: 2010.05.17/outbox.cif.g08.bks.cpg/sg53_13_cif.got.tgz:25991.got - 2010.06.03 12:45:16.
