data_PCOD9420073
_publ_section_title
;
Structure prediction by ZEFSAII (Michael W. Deem and Ramdas Pophale) SiO2 
 PCOD9420073
Probable space group: P M N A
;
_chemical_formula_sum "Si O2"
_cell_formula_units_Z 24
_cell_length_a 22.277680
_cell_length_b 9.466051
_cell_length_c 5.301919
_cell_angle_alpha 90.000000
_cell_angle_beta 90.000000
_cell_angle_gamma 90.000000
_cell_volume 1118.077454
_symmetry_space_group_name_H-M "P M N A"
_symmetry_group_IT_number 53
_symmetry_cell_setting 'orthorhombic'
loop_
_space_group_symop_operation_xyz
x,y,z
1/2-x,-y,1/2+z
x,-y,-z
1/2-x,y,1/2-z
-x,-y,-z
1/2+x,y,1/2-z
-x,y,z
1/2+x,-y,1/2+z
loop_
_atom_site_type_symbol
_atom_site_label
_atom_site_fract_x
_atom_site_fract_y
_atom_site_fract_z
Si Si1 0.428006 0.076340 0.253950
Si Si2 0.315095 0.597566 0.252855
Si Si3 0.566540 0.666604 0.053278
O O1 0.500000 0.057066 0.261848
O O2 0.402981 0.000000 0.500000
O O3 0.420361 0.242546 0.197477
O O4 0.406081 0.000000 0.000000
O O5 0.318778 0.500000 0.500000
O O6 0.250000 0.672302 0.250000
O O7 0.376099 0.686356 0.231026
O O8 0.314112 0.500000 0.000000
O O9 0.500000 0.711147 0.150307
O O10 0.562515 0.500000 0.000000
#
# Coordination Sequence:
#
# PCOD9420073 Si02
#       3
#     8   8   8
#     4   9  18  32  48  70 106 146 176 210 268 335
#     4   9  18  32  49  73 107 143 179 227 290 348
#     4   9  18  32  53  82 112 144 189 240 281 329
#
# _framework density 21.465416999999999
#
# number of rings (size 3 to 8) (size 9 to 14) (size 15 to 20)
#    0.000    3.000    0.000    0.000    0.000    6.000 
#    0.000   10.000    0.000    0.000    0.000   21.000 
#    0.000    0.000    0.000    0.000    0.000    0.333 
#
# Total GULP energy -133627.770511 kJ/mol
# GULP energy per Si atom -5567.823771 kJ/mol
# Density = 2.141656 g / cm^3
# Si number density = 21.465417 Si / 1000 Ang^3
#
#
#
# Elastic Constant Matrix: (Units=GPa)
#
#
# Indices 1 2 3 4 5 6 
#
# 1 188.7080 3.5866 31.0412 0.0000 0.0000 0.0000
# 2 3.5866 124.9915 56.1608 0.0000 0.0000 0.0000
# 3 31.0412 56.1608 162.9327 0.0000 0.0000 0.0000
# 4 0.0000 0.0000 0.0000 27.9135 0.0000 0.0000
# 5 0.0000 0.0000 0.0000 0.0000 18.7242 0.0000
# 6 0.0000 0.0000 0.0000 0.0000 0.0000 -4.1297
#
#
#
# Elastic Compliance Matrix: (Units=1/GPa)
#
#
# Indices 1 2 3 4 5 6 
#
# 1 0.005485 0.000369 -0.001172 0.000000 0.000000 0.000000
# 2 0.000369 0.009492 -0.003342 0.000000 0.000000 0.000000
# 3 -0.001172 -0.003342 0.007513 0.000000 0.000000 0.000000
# 4 0.000000 0.000000 0.000000 0.035825 0.000000 0.000000
# 5 0.000000 0.000000 0.000000 0.000000 0.053407 0.000000
# 6 0.000000 0.000000 0.000000 0.000000 0.000000 -0.242146
#
#
# Mechanical properties :
#
#
# Convention : Reuss Voigt Hill
#
# Bulk Modulus (GPa) = 70.42511 73.13438 71.77974
# Shear Modulus (GPa) = -42.58873 34.22451 -4.18211
#
# Velocity S-wave (km/s) = -4.45911 3.99733 -1.39733
# Velocity P-wave (km/s) = 2.52354 7.44645 5.55958
#
# Compressibility (1/GPa) = 0.01419948
#
# Stress axis : x y z
#
# Youngs Moduli (GPa) = 182.31525 105.35684 133.10652
#
# Poissons Ratio (x) = -0.03891 0.15604
# Poissons Ratio (y) = -0.06734 0.44484
# Poissons Ratio (z) = 0.21373 0.35210
#
# Static dielectric constant tensor:
#      x y z
#    x 1.856630 0.000000 0.000000 
#    y 0.000000 1.829110 0.000000 
#    z 0.000000 0.000000 1.824010 
# 
# From -- ./inp_files/3245.got.cif
#   From: 2010.05.17/outbox.cif.g08.bks.cpg/sg53_2_cif.got.tgz:3245.got - 2010.06.03 12:45:16.
