data_PCOD9420288
_publ_section_title
;
Structure prediction by ZEFSAII (Michael W. Deem and Ramdas Pophale) SiO2 
 PCOD9420288
Probable space group: P M N A
;
_chemical_formula_sum "Si O2"
_cell_formula_units_Z 64
_cell_length_a 9.000000
_cell_length_b 21.000000
_cell_length_c 18.000000
_cell_angle_alpha 90.000000
_cell_angle_beta 90.000000
_cell_angle_gamma 90.000000
_cell_volume 3402.000000
_symmetry_space_group_name_H-M "P M N A"
_symmetry_group_IT_number 53
_symmetry_cell_setting 'orthorhombic'
loop_
_space_group_symop_operation_xyz
x,y,z
1/2-x,-y,1/2+z
x,-y,-z
1/2-x,y,1/2-z
-x,-y,-z
1/2+x,y,1/2-z
-x,y,z
1/2+x,-y,1/2+z
loop_
_atom_site_type_symbol
_atom_site_label
_atom_site_fract_x
_atom_site_fract_y
_atom_site_fract_z
Si Si1 0.679355 0.642266 0.168850
Si Si2 0.824099 0.378205 0.168793
Si Si3 0.176895 0.760822 0.424606
Si Si4 0.673951 0.258369 0.100139
Si Si5 0.175326 0.113558 0.382722
Si Si6 0.322009 0.099232 0.940328
Si Si7 0.675194 0.992939 0.325556
Si Si8 0.178064 0.502862 0.332581
O O1 0.750000 0.644946 0.250000
O O2 0.500000 0.645639 0.175301
O O3 0.736666 0.701953 0.121992
O O4 0.710714 0.572533 0.134196
O O5 0.750000 0.374021 0.250000
O O6 0.778399 0.313550 0.128948
O O7 0.751622 0.440888 0.131303
O O8 0.000000 0.385767 0.174742
O O9 0.192028 0.747567 0.511736
O O10 0.232300 0.832080 0.410080
O O11 0.000000 0.763651 0.410254
O O12 0.500000 0.273503 0.115687
O O13 0.704898 0.187963 0.131639
O O14 0.200021 0.100498 0.470820
O O15 0.000000 0.101458 0.368432
O O16 0.275557 0.065843 0.336856
O O17 0.500000 0.092911 0.928885
O O18 0.239316 0.044556 0.896265
O O19 0.750000 0.968292 0.250000
O O20 0.500000 0.986813 0.321041
O O21 0.250000 0.505661 0.250000
O O22 0.000000 0.494839 0.327507
#
# Coordination Sequence:
#
# PCOD9420288 Si02
#       8
#     8   8   8   8   8   8   8   8
#     4   9  17  30  50  76 103 133 171 212 254 300
#     4  11  21  33  51  74 101 133 170 213 258 306
#     4   8  16  33  56  79 104 136 172 208 249 302
#     4   9  18  35  57  78 102 134 171 209 251 302
#     4   9  19  37  60  81 103 136 173 209 254 309
#     4   9  18  36  60  81 105 138 173 209 253 308
#     4  12  25  38  54  78 109 140 172 215 259 301
#     4   9  16  28  47  70  98 132 170 211 252 299
#
# _framework density 18.812463000000001
#
# number of rings (size 3 to 8) (size 9 to 14) (size 15 to 20)
#    0.000    2.500    0.000    5.250    0.000    4.000 
#    0.000    5.000    0.000    3.750    0.000    0.000 
#    0.000    0.000    0.000    0.000    0.000    0.000 
#
# Total GULP energy -356794.162360 kJ/mol
# GULP energy per Si atom -5574.908787 kJ/mol
# Density = 1.876965 g / cm^3
# Si number density = 18.812463 Si / 1000 Ang^3
#
#
#
# Elastic Constant Matrix: (Units=GPa)
#
#
# Indices 1 2 3 4 5 6 
#
# 1 72.8091 46.5321 15.9628 0.0000 0.0000 0.0000
# 2 46.5321 102.7212 18.3704 0.0000 0.0000 0.0000
# 3 15.9628 18.3704 6.3138 0.0000 0.0000 0.0000
# 4 0.0000 0.0000 0.0000 69.1933 0.0000 0.0000
# 5 0.0000 0.0000 0.0000 0.0000 19.1092 0.0000
# 6 0.0000 0.0000 0.0000 0.0000 0.0000 22.5009
#
#
#
# Elastic Compliance Matrix: (Units=1/GPa)
#
#
# Indices 1 2 3 4 5 6 
#
# 1 0.030815 -0.000055 -0.077749 0.000000 0.000000 0.000000
# 2 -0.000055 0.020296 -0.058913 0.000000 0.000000 0.000000
# 3 -0.077749 -0.058913 0.526360 0.000000 0.000000 0.000000
# 4 0.000000 0.000000 0.000000 0.014452 0.000000 0.000000
# 5 0.000000 0.000000 0.000000 0.000000 0.052331 0.000000
# 6 0.000000 0.000000 0.000000 0.000000 0.000000 0.044443
#
#
# Mechanical properties :
#
#
# Convention : Reuss Voigt Hill
#
# Bulk Modulus (GPa) = 3.28906 38.17497 20.73201
# Shear Modulus (GPa) = 4.70156 28.89261 16.79709
#
# Velocity S-wave (km/s) = 1.58259 3.92321 2.99133
# Velocity P-wave (km/s) = 2.25646 6.39207 4.79323
#
# Compressibility (1/GPa) = 0.30403809
#
# Stress axis : x y z
#
# Youngs Moduli (GPa) = 32.45144 49.27134 1.89984
#
# Poissons Ratio (x) = 0.00270 0.14771
# Poissons Ratio (y) = 0.00178 0.11193
# Poissons Ratio (z) = 2.52306 2.90273
#
# Static dielectric constant tensor:
#      x y z
#    x 1.621120 0.000000 0.000000 
#    y 0.000000 1.719310 0.000000 
#    z 0.000000 0.000000 1.640450 
# 
# From -- ./inp_files/26972.got.cif
#   From: 2010.05.17/outbox.ucp.g08.bks.cvg/sg53_14_cif.got.tgz:26972.got - 2010.06.11 16:32:34.
