data_PCOD9420500
_publ_section_title
;
Structure prediction by ZEFSAII (Michael W. Deem and Ramdas Pophale) SiO2 
 PCOD9420500
Probable space group: P C C A
;
_chemical_formula_sum "Si O2"
_cell_formula_units_Z 32
_cell_length_a 5.165996
_cell_length_b 14.320338
_cell_length_c 23.406032
_cell_angle_alpha 90.000000
_cell_angle_beta 90.000000
_cell_angle_gamma 90.000000
_cell_volume 1731.550367
_symmetry_space_group_name_H-M "P C C A"
_symmetry_group_IT_number 54
_symmetry_cell_setting 'orthorhombic'
loop_
_space_group_symop_operation_xyz
x,y,z
1/2-x,-y,z
1/2+x,-y,1/2-z
-x,y,1/2-z
-x,-y,-z
1/2+x,y,-z
1/2-x,y,1/2+z
x,-y,1/2+z
loop_
_atom_site_type_symbol
_atom_site_label
_atom_site_fract_x
_atom_site_fract_y
_atom_site_fract_z
Si Si1 0.659975 0.100303 0.574002
Si Si2 0.111705 0.900177 0.689887
Si Si3 0.165804 0.203987 0.590406
Si Si4 0.792899 0.603427 0.961435
O O1 0.610523 0.087750 0.642265
O O2 0.378973 0.139953 0.557019
O O3 0.883894 0.176366 0.568869
O O4 0.750000 0.000000 0.551281
O O5 0.299461 0.828834 0.656092
O O6 0.000000 0.868151 0.750000
O O7 0.250000 0.000000 0.697715
O O8 0.236768 0.310528 0.579952
O O9 0.750000 0.500000 0.936143
O O10 0.579466 0.610261 0.012139
#
# Coordination Sequence:
#
# PCOD9420500 Si02
#       4
#     8   8   8   8
#     4  10  17  32  48  74 109 145 176 210 255 310
#     4  10  20  29  52  79 113 146 187 216 251 308
#     4  10  20  32  53  80 108 142 175 224 274 317
#     4  10  21  39  62  84 102 131 184 239 283 327
#
# _framework density 18.480547999999999
#
# number of rings (size 3 to 8) (size 9 to 14) (size 15 to 20)
#    1.500    0.500    2.500    3.000    0.000    0.000 
#    0.000    0.000    0.000   25.500    6.500    0.000 
#    0.000    0.000    0.000    0.000    0.000    0.000 
#
# Total GULP energy -178326.266573 kJ/mol
# GULP energy per Si atom -5572.695830 kJ/mol
# Density = 1.843849 g / cm^3
# Si number density = 18.480548 Si / 1000 Ang^3
#
#
#
# Elastic Constant Matrix: (Units=GPa)
#
#
# Indices 1 2 3 4 5 6 
#
# 1 76.8459 -10.9296 -15.1456 0.0000 0.0000 0.0000
# 2 -10.9296 83.6753 0.1161 0.0000 0.0000 0.0000
# 3 -15.1456 0.1161 71.7413 0.0000 0.0000 0.0000
# 4 0.0000 0.0000 0.0000 -41.8222 0.0000 0.0000
# 5 0.0000 0.0000 0.0000 0.0000 -1.3616 0.0000
# 6 0.0000 0.0000 0.0000 0.0000 0.0000 26.3063
#
#
#
# Elastic Compliance Matrix: (Units=1/GPa)
#
#
# Indices 1 2 3 4 5 6 
#
# 1 0.013845 0.001804 0.002920 0.000000 0.000000 0.000000
# 2 0.001804 0.012186 0.000361 0.000000 0.000000 0.000000
# 3 0.002920 0.000361 0.014555 0.000000 0.000000 0.000000
# 4 0.000000 0.000000 0.000000 -0.023911 0.000000 0.000000
# 5 0.000000 0.000000 0.000000 0.000000 -0.734430 0.000000
# 6 0.000000 0.000000 0.000000 0.000000 0.000000 0.038014
#
#
# Mechanical properties :
#
#
# Convention : Reuss Voigt Hill
#
# Bulk Modulus (GPa) = 19.70155 20.03824 19.86990
# Shear Modulus (GPa) = -7.42949 13.83927 3.20489
#
# Velocity S-wave (km/s) = -2.00721 2.73949 1.31832
# Velocity P-wave (km/s) = 2.30477 4.56868 3.61834
#
# Compressibility (1/GPa) = 0.05075743
#
# Stress axis : x y z
#
# Youngs Moduli (GPa) = 72.22723 82.06035 68.70562
#
# Poissons Ratio (x) = -0.14807 -0.20062
# Poissons Ratio (y) = -0.13033 -0.02482
# Poissons Ratio (z) = -0.21090 -0.02964
#
# Static dielectric constant tensor:
#      x y z
#    x 1.678690 0.000000 0.000000 
#    y 0.000000 1.633160 0.000000 
#    z 0.000000 0.000000 1.662280 
# 
# From -- ./inp_files/22766.got.cif
#   From: 2010.05.17/outbox.cif.g08.bks.cpg/sg54_12_cif.got.tgz:22766.got - 2010.06.03 13:09:01.
