data_PCOD9420428
_publ_section_title
;
Structure prediction by ZEFSAII (Michael W. Deem and Ramdas Pophale) SiO2 
 PCOD9420428
Probable space group: P C C A
;
_chemical_formula_sum "Si O2"
_cell_formula_units_Z 60
_cell_length_a 22.999260
_cell_length_b 24.622867
_cell_length_c 5.187485
_cell_angle_alpha 90.000000
_cell_angle_beta 90.000000
_cell_angle_gamma 90.000000
_cell_volume 2937.712803
_symmetry_space_group_name_H-M "P C C A"
_symmetry_group_IT_number 54
_symmetry_cell_setting 'orthorhombic'
loop_
_space_group_symop_operation_xyz
x,y,z
1/2-x,-y,z
1/2+x,-y,1/2-z
-x,y,1/2-z
-x,-y,-z
1/2+x,y,-z
1/2-x,y,1/2+z
x,-y,1/2+z
loop_
_atom_site_type_symbol
_atom_site_label
_atom_site_fract_x
_atom_site_fract_y
_atom_site_fract_z
Si Si1 0.500000 0.778294 0.250000
Si Si2 0.545990 0.876461 0.935084
Si Si3 0.896355 0.964808 0.726285
Si Si4 0.815854 0.523428 0.791795
Si Si5 0.278775 0.079404 0.019487
Si Si6 0.130175 0.250632 0.172052
Si Si7 0.839811 0.818381 0.324456
Si Si8 0.710548 0.647911 0.391892
O O1 0.480703 0.819612 0.473868
O O2 0.440567 0.748467 0.163905
O O3 0.500000 0.903988 0.750000
O O4 0.561797 0.914345 0.173092
O O5 0.606798 0.861244 0.800566
O O6 0.833639 0.941011 0.643538
O O7 0.904682 0.989507 0.006372
O O8 0.750000 0.500000 0.755516
O O9 0.843990 0.511936 0.516979
O O10 0.811307 0.586009 0.866204
O O11 0.228384 0.061652 0.817744
O O12 0.286954 0.144059 0.073597
O O13 0.146654 0.223204 0.444413
O O14 0.159260 0.309239 0.146705
O O15 0.158259 0.213800 0.943892
O O16 0.741964 0.655707 0.665742
#
# Coordination Sequence:
#
# PCOD9420428 Si02
#       8
#     4   8   8   8   8   8   8   8
#     4  10  22  42  64  84 112 158 204 228 288 362
#     4  10  21  39  66  79 106 144 183 225 283 357
#     4  11  26  41  57  88 117 131 178 242 285 331
#     4  10  16  31  53  74 112 158 197 233 273 346
#     4  11  23  39  63  80 107 157 191 211 273 359
#     4  11  23  37  59  85 119 153 189 250 289 335
#     4  10  22  39  56  85 110 143 193 233 275 335
#     4  12  22  34  53  88 124 153 194 239 299 340
#
# _framework density 20.424052
#
# number of rings (size 3 to 8) (size 9 to 14) (size 15 to 20)
#    0.000    1.333    4.000    2.400    1.867    7.467 
#    0.000    0.000    0.000    0.000    0.000    0.933 
#    0.000    0.000    0.000    0.000    0.000    0.000 
#
# Total GULP energy -334945.234135 kJ/mol
# GULP energy per Si atom -5582.420569 kJ/mol
# Density = 2.037757 g / cm^3
# Si number density = 20.424052 Si / 1000 Ang^3
#
#
#
# Elastic Constant Matrix: (Units=GPa)
#
#
# Indices 1 2 3 4 5 6 
#
# 1 46.3892 26.7156 8.0924 0.0000 0.0000 0.0000
# 2 26.7156 80.6832 -8.5693 0.0000 0.0000 0.0000
# 3 8.0924 -8.5693 92.0705 0.0000 0.0000 0.0000
# 4 0.0000 0.0000 0.0000 655.7793 0.0000 0.0000
# 5 0.0000 0.0000 0.0000 0.0000 21.1840 0.0000
# 6 0.0000 0.0000 0.0000 0.0000 0.0000 61.4813
#
#
#
# Elastic Compliance Matrix: (Units=1/GPa)
#
#
# Indices 1 2 3 4 5 6 
#
# 1 0.027599 -0.009490 -0.003309 0.000000 0.000000 0.000000
# 2 -0.009490 0.015781 0.002303 0.000000 0.000000 0.000000
# 3 -0.003309 0.002303 0.011366 0.000000 0.000000 0.000000
# 4 0.000000 0.000000 0.000000 0.001525 0.000000 0.000000
# 5 0.000000 0.000000 0.000000 0.000000 0.047205 0.000000
# 6 0.000000 0.000000 0.000000 0.000000 0.000000 0.016265
#
#
# Mechanical properties :
#
#
# Convention : Reuss Voigt Hill
#
# Bulk Modulus (GPa) = 29.62580 30.18003 29.90292
# Shear Modulus (GPa) = 32.89774 160.54921 96.72348
#
# Velocity S-wave (km/s) = 4.01775 8.87573 6.88915
# Velocity P-wave (km/s) = 6.00499 10.94746 8.82912
#
# Compressibility (1/GPa) = 0.03375436
#
# Stress axis : x y z
#
# Youngs Moduli (GPa) = 36.23278 63.36702 87.97842
#
# Poissons Ratio (x) = 0.60136 0.29113
# Poissons Ratio (y) = 0.34385 -0.20261
# Poissons Ratio (z) = 0.11990 -0.14593
#
# Static dielectric constant tensor:
#      x y z
#    x 1.879570 0.000000 0.000000 
#    y 0.000000 1.711920 0.000000 
#    z 0.000000 0.000000 1.779430 
# 
# From -- ./inp_files/1704.got.cif
#   From: 2010.05.17/outbox.cif.g08.bks.cpg/sg54_1_cif.got.tgz:1704.got - 2010.06.03 13:09:01.
