data_PCOD9420600
_publ_section_title
;
Structure prediction by ZEFSAII (Michael W. Deem and Ramdas Pophale) SiO2 
 PCOD9420600
Probable space group: P C C A
;
_chemical_formula_sum "Si O2"
_cell_formula_units_Z 48
_cell_length_a 27.652994
_cell_length_b 13.661437
_cell_length_c 5.227846
_cell_angle_alpha 90.000000
_cell_angle_beta 90.000000
_cell_angle_gamma 90.000000
_cell_volume 1974.973756
_symmetry_space_group_name_H-M "P C C A"
_symmetry_group_IT_number 54
_symmetry_cell_setting 'orthorhombic'
loop_
_space_group_symop_operation_xyz
x,y,z
1/2-x,-y,z
1/2+x,-y,1/2-z
-x,y,1/2-z
-x,-y,-z
1/2+x,y,-z
1/2-x,y,1/2+z
x,-y,1/2+z
loop_
_atom_site_type_symbol
_atom_site_label
_atom_site_fract_x
_atom_site_fract_y
_atom_site_fract_z
Si Si1 0.873514 0.600922 0.957009
Si Si2 0.404703 0.377075 0.045651
Si Si3 0.781231 0.139606 0.226215
Si Si4 0.500000 0.430815 0.250000
Si Si5 0.391850 0.935467 0.209636
Si Si6 0.500000 0.068586 0.750000
Si Si7 0.724562 0.626104 0.201080
O O1 0.902178 0.661748 0.740272
O O2 0.897704 0.494710 0.000578
O O3 0.823928 0.582676 0.813832
O O4 0.867309 0.651897 0.231780
O O5 0.454178 0.363787 0.196527
O O6 0.748092 0.109430 0.469800
O O7 0.838166 0.111485 0.247368
O O8 0.781347 0.257501 0.219310
O O9 0.500000 0.500000 0.500000
O O10 0.445302 0.883724 0.248142
O O11 0.392178 0.022018 0.422033
O O12 0.500000 0.000000 0.500000
O O13 0.764578 0.600036 0.411261
#
# Coordination Sequence:
#
# PCOD9420600 Si02
#       7
#     8   8   8   4   8   4   8
#     4  10  18  32  48  69  94 121 159 200 241 286
#     4  10  19  30  48  74  96 121 155 204 249 289
#     4  10  21  35  52  76 104 135 172 209 254 308
#     4  12  16  30  48  71 101 128 152 190 256 314
#     4  10  19  32  53  79 106 136 167 210 254 295
#     4   8  16  30  48  73 103 134 168 194 238 302
#     4  10  21  37  52  67  93 134 169 197 243 305
#
# _framework density 24.304119
#
# number of rings (size 3 to 8) (size 9 to 14) (size 15 to 20)
#    0.000    2.000    3.333    2.000    0.000    2.000 
#    0.000   10.000    0.000    3.000    0.000    2.333 
#    0.000    0.000    0.000    0.000    0.000    0.000 
#
# Total GULP energy -267424.672117 kJ/mol
# GULP energy per Si atom -5571.347336 kJ/mol
# Density = 2.424880 g / cm^3
# Si number density = 24.304119 Si / 1000 Ang^3
#
#
#
# Elastic Constant Matrix: (Units=GPa)
#
#
# Indices 1 2 3 4 5 6 
#
# 1 180.1739 25.8001 7.8952 0.0000 0.0000 0.0000
# 2 25.8001 56.8364 -6.7198 0.0000 0.0000 0.0000
# 3 7.8952 -6.7198 155.8937 0.0000 0.0000 0.0000
# 4 0.0000 0.0000 0.0000 -1.1575 0.0000 0.0000
# 5 0.0000 0.0000 0.0000 0.0000 40.8328 0.0000
# 6 0.0000 0.0000 0.0000 0.0000 0.0000 8.2688
#
#
#
# Elastic Compliance Matrix: (Units=1/GPa)
#
#
# Indices 1 2 3 4 5 6 
#
# 1 0.005963 -0.002757 -0.000421 0.000000 0.000000 0.000000
# 2 -0.002757 0.018959 0.000957 0.000000 0.000000 0.000000
# 3 -0.000421 0.000957 0.006477 0.000000 0.000000 0.000000
# 4 0.000000 0.000000 0.000000 -0.863965 0.000000 0.000000
# 5 0.000000 0.000000 0.000000 0.000000 0.024490 0.000000
# 6 0.000000 0.000000 0.000000 0.000000 0.000000 0.120937
#
#
# Mechanical properties :
#
#
# Convention : Reuss Voigt Hill
#
# Bulk Modulus (GPa) = 37.09485 49.65055 43.37270
# Shear Modulus (GPa) = -7.42158 33.98405 13.28123
#
# Velocity S-wave (km/s) = -1.74936 3.74342 2.34018
# Velocity P-wave (km/s) = 3.34897 6.25759 5.01862
#
# Compressibility (1/GPa) = 0.02695792
#
# Stress axis : x y z
#
# Youngs Moduli (GPa) = 167.68986 52.74578 154.38803
#
# Poissons Ratio (x) = 0.14541 0.06497
# Poissons Ratio (y) = 0.46228 -0.14772
# Poissons Ratio (z) = 0.07057 -0.05047
#
# Static dielectric constant tensor:
#      x y z
#    x 2.120860 0.000000 0.000000 
#    y 0.000000 2.145010 0.000000 
#    z 0.000000 0.000000 1.989810 
# 
# From -- ./inp_files/1655.got.cif
#   From: 2010.05.17/outbox.cif.g08.bks.cpg/sg54_1_cif.got.tgz:1655.got - 2010.06.03 13:09:01.
