data_PCOD9420192
_publ_section_title
;
Structure prediction by ZEFSAII (Michael W. Deem and Ramdas Pophale) SiO2 
 PCOD9420192
Probable space group: P M N A
;
_chemical_formula_sum "Si O2"
_cell_formula_units_Z 56
_cell_length_a 9.000000
_cell_length_b 15.000000
_cell_length_c 21.000000
_cell_angle_alpha 90.000000
_cell_angle_beta 90.000000
_cell_angle_gamma 90.000000
_cell_volume 2835.000000
_symmetry_space_group_name_H-M "P M N A"
_symmetry_group_IT_number 53
_symmetry_cell_setting 'orthorhombic'
loop_
_space_group_symop_operation_xyz
x,y,z
1/2-x,-y,1/2+z
x,-y,-z
1/2-x,y,1/2-z
-x,-y,-z
1/2+x,y,1/2-z
-x,y,z
1/2+x,-y,1/2+z
loop_
_atom_site_type_symbol
_atom_site_label
_atom_site_fract_x
_atom_site_fract_y
_atom_site_fract_z
Si Si1 0.171854 0.723917 0.421227
Si Si2 0.175613 0.789117 0.688280
Si Si3 0.323012 0.901119 0.433746
Si Si4 0.168287 0.599507 0.986836
Si Si5 0.178065 0.082898 0.427813
Si Si6 0.667243 0.604816 0.663936
Si Si7 0.672443 0.418682 0.809862
O O1 0.269803 0.808873 0.403450
O O2 0.232842 0.677400 0.484695
O O3 0.184371 0.645499 0.369893
O O4 0.000000 0.750578 0.428122
O O5 0.250000 0.832501 0.750000
O O6 0.211112 0.843023 0.624527
O O7 0.238034 0.689624 0.683448
O O8 0.000000 0.787691 0.696040
O O9 0.500000 0.911368 0.432962
O O10 0.262186 0.896720 0.506403
O O11 0.240768 0.987344 0.405616
O O12 0.157917 0.609004 0.911983
O O13 0.000000 0.603880 0.014641
O O14 0.228174 0.500000 0.000000
O O15 0.000000 0.078477 0.438327
O O16 0.500000 0.609118 0.690456
O O17 0.743646 0.511565 0.679800
O O18 0.750000 0.373126 0.750000
O O19 0.500000 0.435790 0.797428
#
# Coordination Sequence:
#
# PCOD9420192 Si02
#       7
#     8   8   8   8   8   8   8
#     4  11  23  38  58  85 117 153 192 238 287 341
#     4  11  24  40  60  86 118 156 198 242 290 346
#     4  11  22  37  63  93 120 152 189 235 291 351
#     4  10  20  35  56  85 117 151 190 236 290 341
#     4  10  21  40  64  90 120 152 189 238 291 348
#     4  11  22  37  59  84 117 155 193 238 286 344
#     4  11  24  40  58  79 109 151 197 241 285 336
#
# _framework density 19.753086
#
# number of rings (size 3 to 8) (size 9 to 14) (size 15 to 20)
#    0.000    1.286    1.429    5.571    0.000    7.714 
#    0.000    0.714    0.000    0.000    0.000    0.000 
#    0.000    0.000    0.000    0.000    0.000    0.000 
#
# Total GULP energy -312852.825529 kJ/mol
# GULP energy per Si atom -5586.657599 kJ/mol
# Density = 1.970813 g / cm^3
# Si number density = 19.753086 Si / 1000 Ang^3
#
#
#
# Elastic Constant Matrix: (Units=GPa)
#
#
# Indices 1 2 3 4 5 6 
#
# 1 77.2652 30.5974 21.9952 0.0000 0.0000 0.0000
# 2 30.5974 88.7632 13.2277 0.0000 0.0000 0.0000
# 3 21.9952 13.2277 53.9632 0.0000 0.0000 0.0000
# 4 0.0000 0.0000 0.0000 -18.6979 0.0000 0.0000
# 5 0.0000 0.0000 0.0000 0.0000 25.8443 0.0000
# 6 0.0000 0.0000 0.0000 0.0000 0.0000 17.7798
#
#
#
# Elastic Compliance Matrix: (Units=1/GPa)
#
#
# Indices 1 2 3 4 5 6 
#
# 1 0.016428 -0.004842 -0.005509 0.000000 0.000000 0.000000
# 2 -0.004842 0.013120 -0.001243 0.000000 0.000000 0.000000
# 3 -0.005509 -0.001243 0.021081 0.000000 0.000000 0.000000
# 4 0.000000 0.000000 0.000000 -0.053482 0.000000 0.000000
# 5 0.000000 0.000000 0.000000 0.000000 0.038693 0.000000
# 6 0.000000 0.000000 0.000000 0.000000 0.000000 0.056244
#
#
# Mechanical properties :
#
#
# Convention : Reuss Voigt Hill
#
# Bulk Modulus (GPa) = 36.44008 39.07023 37.75516
# Shear Modulus (GPa) = 40.18671 15.26332 27.72502
#
# Velocity S-wave (km/s) = 4.51538 2.78277 3.75050
# Velocity P-wave (km/s) = 6.75816 5.49066 6.15711
#
# Compressibility (1/GPa) = 0.02744231
#
# Stress axis : x y z
#
# Youngs Moduli (GPa) = 60.87102 76.21863 47.43551
#
# Poissons Ratio (x) = 0.36905 0.26133
# Poissons Ratio (y) = 0.29473 0.05894
# Poissons Ratio (z) = 0.33535 0.09470
#
# Static dielectric constant tensor:
#      x y z
#    x 1.696720 0.000000 0.000000 
#    y 0.000000 1.690460 0.000000 
#    z 0.000000 0.000000 1.704070 
# 
# From -- ./inp_files/30867.got.cif
#   From: 2010.05.17/outbox.ucp.g08.bks.cvg/sg53_16_cif.got.tgz:30867.got - 2010.06.11 16:32:34.
