data_PCOD9420869
_publ_section_title
;
Structure prediction by ZEFSAII (Michael W. Deem and Ramdas Pophale) SiO2 
 PCOD9420869
Probable space group: P C C A
;
_chemical_formula_sum "Si O2"
_cell_formula_units_Z 32
_cell_length_a 5.555631
_cell_length_b 9.556174
_cell_length_c 23.627584
_cell_angle_alpha 90.000000
_cell_angle_beta 90.000000
_cell_angle_gamma 90.000000
_cell_volume 1254.402056
_symmetry_space_group_name_H-M "P C C A"
_symmetry_group_IT_number 54
_symmetry_cell_setting 'orthorhombic'
loop_
_space_group_symop_operation_xyz
x,y,z
1/2-x,-y,z
1/2+x,-y,1/2-z
-x,y,1/2-z
-x,-y,-z
1/2+x,y,-z
1/2-x,y,1/2+z
x,-y,1/2+z
loop_
_atom_site_type_symbol
_atom_site_label
_atom_site_fract_x
_atom_site_fract_y
_atom_site_fract_z
Si Si1 0.485947 0.197056 0.854912
Si Si2 0.314599 0.842509 0.481495
Si Si3 0.492683 0.238693 0.186086
Si Si4 0.499952 0.505014 0.901045
O O1 0.424779 0.149772 0.918654
O O2 0.744926 0.158871 0.829208
O O3 0.499557 0.366531 0.861401
O O4 0.246446 0.159523 0.820692
O O5 0.541585 0.779103 0.516531
O O6 0.250000 0.000000 0.501467
O O7 0.500000 0.293335 0.250000
O O8 0.501784 0.362345 0.140059
O O9 0.250000 0.500000 0.933661
O O10 0.750000 0.500000 0.933472
#
# Coordination Sequence:
#
# PCOD9420869 Si02
#       4
#     8   8   8   8
#     4  10  19  32  52  77 107 137 174 222 265 308
#     4  10  21  38  60  81  98 127 177 233 285 327
#     4  10  19  31  51  79 112 148 180 207 245 309
#     4   8  16  27  44  69 104 138 171 205 244 294
#
# _framework density 25.510164
#
# number of rings (size 3 to 8) (size 9 to 14) (size 15 to 20)
#    0.000    2.500    0.000    2.250    0.000    9.000 
#    0.000    0.000    0.000   43.500    0.000    0.000 
#    0.000    0.000    0.000    0.000    0.000    0.000 
#
# Total GULP energy -178451.996937 kJ/mol
# GULP energy per Si atom -5576.624904 kJ/mol
# Density = 2.545210 g / cm^3
# Si number density = 25.510164 Si / 1000 Ang^3
#
#
#
# Elastic Constant Matrix: (Units=GPa)
#
#
# Indices 1 2 3 4 5 6 
#
# 1 357.3584 22.0025 53.2329 0.0000 0.0000 0.0000
# 2 22.0025 86.0451 1.0433 0.0000 0.0000 0.0000
# 3 53.2329 1.0433 125.9021 0.0000 0.0000 0.0000
# 4 0.0000 0.0000 0.0000 5.3929 0.0000 0.0000
# 5 0.0000 0.0000 0.0000 0.0000 33.0286 0.0000
# 6 0.0000 0.0000 0.0000 0.0000 0.0000 -9.5167
#
#
#
# Elastic Compliance Matrix: (Units=1/GPa)
#
#
# Indices 1 2 3 4 5 6 
#
# 1 0.003035 -0.000761 -0.001277 0.000000 0.000000 0.000000
# 2 -0.000761 0.011814 0.000224 0.000000 0.000000 0.000000
# 3 -0.001277 0.000224 0.008481 0.000000 0.000000 0.000000
# 4 0.000000 0.000000 0.000000 0.185427 0.000000 0.000000
# 5 0.000000 0.000000 0.000000 0.000000 0.030277 0.000000
# 6 0.000000 0.000000 0.000000 0.000000 0.000000 -0.105078
#
#
# Mechanical properties :
#
#
# Convention : Reuss Voigt Hill
#
# Bulk Modulus (GPa) = 50.75705 80.20701 65.48203
# Shear Modulus (GPa) = 34.68585 38.64943 36.66764
#
# Velocity S-wave (km/s) = 3.69139 3.89660 3.79538
# Velocity P-wave (km/s) = 6.17321 7.19403 6.70308
#
# Compressibility (1/GPa) = 0.01970170
#
# Stress axis : x y z
#
# Youngs Moduli (GPa) = 329.44743 84.64809 117.91350
#
# Poissons Ratio (x) = 0.06439 0.15059
# Poissons Ratio (y) = 0.25061 -0.02638
# Poissons Ratio (z) = 0.42074 -0.01894
#
# Static dielectric constant tensor:
#      x y z
#    x 2.260480 0.000000 0.000000 
#    y 0.000000 2.016750 0.000000 
#    z 0.000000 0.000000 1.911850 
# 
# From -- ./inp_files/19499.got.cif
#   From: 2010.05.17/outbox.cif.g08.bks.cpg/sg54_10_cif.got.tgz:19499.got - 2010.06.03 13:09:01.
