data_PCOD9420057
_publ_section_title
;
Structure prediction by ZEFSAII (Michael W. Deem and Ramdas Pophale) SiO2 
 PCOD9420057
Probable space group: P M N A
;
_chemical_formula_sum "Si O2"
_cell_formula_units_Z 48
_cell_length_a 15.817965
_cell_length_b 19.375786
_cell_length_c 7.686814
_cell_angle_alpha 90.000000
_cell_angle_beta 90.000000
_cell_angle_gamma 90.000000
_cell_volume 2355.897069
_symmetry_space_group_name_H-M "P M N A"
_symmetry_group_IT_number 53
_symmetry_cell_setting 'orthorhombic'
loop_
_space_group_symop_operation_xyz
x,y,z
1/2-x,-y,1/2+z
x,-y,-z
1/2-x,y,1/2-z
-x,-y,-z
1/2+x,y,1/2-z
-x,y,z
1/2+x,-y,1/2+z
loop_
_atom_site_type_symbol
_atom_site_label
_atom_site_fract_x
_atom_site_fract_y
_atom_site_fract_z
Si Si1 0.396599 0.922293 0.447512
Si Si2 0.103192 0.076615 0.555814
Si Si3 0.094297 0.330166 0.341571
Si Si4 0.270529 0.421596 0.041063
Si Si5 0.089617 0.416846 0.986034
Si Si6 0.396672 0.821830 0.750909
O O1 0.500000 0.922520 0.451715
O O2 0.369521 0.908310 0.251225
O O3 0.367789 0.864050 0.581971
O O4 0.370851 0.000000 0.500000
O O5 0.129596 0.133268 0.416923
O O6 0.000000 0.075741 0.554219
O O7 0.130423 0.000000 0.500000
O O8 0.154633 0.367436 0.477863
O O9 0.086000 0.380195 0.174332
O O10 0.129574 0.257214 0.273316
O O11 0.000000 0.318709 0.412307
O O12 0.250000 0.420205 0.250000
O O13 0.186239 0.402678 0.932101
O O14 0.296075 0.500000 0.000000
O O15 0.000000 0.397319 0.896355
O O16 0.089057 0.500000 0.000000
O O17 0.500000 0.820988 0.743509
#
# Coordination Sequence:
#
# PCOD9420057 Si02
#       6
#     8   8   8   8   8   8
#     4   9  14  21  36  58  83 123 177 220 260 308
#     4   9  14  21  36  57  84 124 173 222 265 304
#     4   9  17  28  44  67 101 139 171 207 254 306
#     4   9  17  30  51  73  93 125 166 203 250 309
#     4   8  14  27  49  74  96 119 155 203 250 306
#     4   9  16  25  38  58  92 133 169 215 264 304
#
# _framework density 20.374406
#
# number of rings (size 3 to 8) (size 9 to 14) (size 15 to 20)
#    0.000    3.167    1.667    0.000    0.000    0.333 
#    0.000    0.000   14.667    0.000    0.000    0.000 
#    0.000   12.000    0.000    1.667    0.000    4.000 
#
# Total GULP energy -267242.775100 kJ/mol
# GULP energy per Si atom -5567.557815 kJ/mol
# Density = 2.032803 g / cm^3
# Si number density = 20.374406 Si / 1000 Ang^3
#
#
#
# Elastic Constant Matrix: (Units=GPa)
#
#
# Indices 1 2 3 4 5 6 
#
# 1 67.1576 58.5694 19.1513 0.0000 0.0000 0.0000
# 2 58.5694 119.2871 49.5610 0.0000 0.0000 0.0000
# 3 19.1513 49.5610 97.6575 0.0000 0.0000 0.0000
# 4 0.0000 0.0000 0.0000 31.3801 0.0000 0.0000
# 5 0.0000 0.0000 0.0000 0.0000 6.9480 0.0000
# 6 0.0000 0.0000 0.0000 0.0000 0.0000 18.2404
#
#
#
# Elastic Compliance Matrix: (Units=1/GPa)
#
#
# Indices 1 2 3 4 5 6 
#
# 1 0.026280 -0.013638 0.001767 0.000000 0.000000 0.000000
# 2 -0.013638 0.017700 -0.006308 0.000000 0.000000 0.000000
# 3 0.001767 -0.006308 0.013095 0.000000 0.000000 0.000000
# 4 0.000000 0.000000 0.000000 0.031867 0.000000 0.000000
# 5 0.000000 0.000000 0.000000 0.000000 0.143927 0.000000
# 6 0.000000 0.000000 0.000000 0.000000 0.000000 0.054823
#
#
# Mechanical properties :
#
#
# Convention : Reuss Voigt Hill
#
# Bulk Modulus (GPa) = 48.26800 59.85174 54.05987
# Shear Modulus (GPa) = 15.10778 21.76840 18.43809
#
# Velocity S-wave (km/s) = 2.72602 3.27221 3.01152
# Velocity P-wave (km/s) = 5.80088 6.61182 6.21958
#
# Compressibility (1/GPa) = 0.02071766
#
# Stress axis : x y z
#
# Youngs Moduli (GPa) = 38.05168 56.49669 76.36654
#
# Poissons Ratio (x) = 0.77048 -0.13497
# Poissons Ratio (y) = 0.51894 0.48175
# Poissons Ratio (z) = -0.06725 0.35640
#
# Static dielectric constant tensor:
#      x y z
#    x 1.846470 0.000000 0.000000 
#    y 0.000000 1.683690 0.000000 
#    z 0.000000 0.000000 1.641440 
# 
# From -- ./inp_files/10109.got.cif
#   From: 2010.05.17/outbox.cif.g08.bks.cpg/sg53_6_cif.got.tgz:10109.got - 2010.06.03 12:45:16.
