data_PCOD9420481
_publ_section_title
;
Structure prediction by ZEFSAII (Michael W. Deem and Ramdas Pophale) SiO2 
 PCOD9420481
Probable space group: P C C A
;
_chemical_formula_sum "Si O2"
_cell_formula_units_Z 40
_cell_length_a 8.845179
_cell_length_b 7.981105
_cell_length_c 28.783132
_cell_angle_alpha 90.000000
_cell_angle_beta 90.000000
_cell_angle_gamma 90.000000
_cell_volume 2031.925123
_symmetry_space_group_name_H-M "P C C A"
_symmetry_group_IT_number 54
_symmetry_cell_setting 'orthorhombic'
loop_
_space_group_symop_operation_xyz
x,y,z
1/2-x,-y,z
1/2+x,-y,1/2-z
-x,y,1/2-z
-x,-y,-z
1/2+x,y,-z
1/2-x,y,1/2+z
x,-y,1/2+z
loop_
_atom_site_type_symbol
_atom_site_label
_atom_site_fract_x
_atom_site_fract_y
_atom_site_fract_z
Si Si1 0.032863 0.665455 0.028578
Si Si2 0.658717 0.173905 0.955880
Si Si3 0.065398 0.166593 0.377181
Si Si4 0.570907 0.963428 0.800579
Si Si5 0.093895 0.784721 0.379653
O O1 0.208865 0.699211 0.031664
O O2 0.969833 0.666844 0.080715
O O3 0.000000 0.500000 0.000000
O O4 0.953682 0.815209 0.999446
O O5 0.563154 0.233848 0.911139
O O6 0.750000 0.000000 0.946927
O O7 0.228457 0.251365 0.372727
O O8 0.088648 0.977807 0.397918
O O9 0.002934 0.124503 0.326201
O O10 0.500000 0.941834 0.750000
O O11 0.511309 0.810252 0.833864
O O12 0.750000 0.000000 0.799819
#
# Coordination Sequence:
#
# PCOD9420481 Si02
#       5
#     8   8   8   8   8
#     4  12  25  37  52  80 116 153 197 248 298 350
#     4  12  22  36  57  77 106 153 200 239 291 358
#     4   9  18  33  54  80 106 149 195 244 284 345
#     4  10  17  29  51  85 120 149 189 248 301 344
#     4   9  19  34  52  77 113 149 194 239 292 345
#
# _framework density 19.685763999999999
#
# number of rings (size 3 to 8) (size 9 to 14) (size 15 to 20)
#    1.200    0.400    2.000    5.400    2.800    0.000 
#    0.000    0.000    0.000    0.000    0.000    1.400 
#    0.000    9.600    0.000    0.200    0.000    0.400 
#
# Total GULP energy -222699.615359 kJ/mol
# GULP energy per Si atom -5567.490384 kJ/mol
# Density = 1.964096 g / cm^3
# Si number density = 19.685764 Si / 1000 Ang^3
#
#
#
# Elastic Constant Matrix: (Units=GPa)
#
#
# Indices 1 2 3 4 5 6 
#
# 1 154.5713 34.3011 68.2091 0.0000 0.0000 0.0000
# 2 34.3011 51.8597 29.3265 0.0000 0.0000 0.0000
# 3 68.2091 29.3265 164.5763 0.0000 0.0000 0.0000
# 4 0.0000 0.0000 0.0000 11.5210 0.0000 0.0000
# 5 0.0000 0.0000 0.0000 0.0000 38.0319 0.0000
# 6 0.0000 0.0000 0.0000 0.0000 0.0000 20.2306
#
#
#
# Elastic Compliance Matrix: (Units=1/GPa)
#
#
# Indices 1 2 3 4 5 6 
#
# 1 0.008637 -0.004102 -0.002849 0.000000 0.000000 0.000000
# 2 -0.004102 0.023392 -0.002468 0.000000 0.000000 0.000000
# 3 -0.002849 -0.002468 0.007697 0.000000 0.000000 0.000000
# 4 0.000000 0.000000 0.000000 0.086798 0.000000 0.000000
# 5 0.000000 0.000000 0.000000 0.000000 0.026294 0.000000
# 6 0.000000 0.000000 0.000000 0.000000 0.000000 0.049430
#
#
# Mechanical properties :
#
#
# Convention : Reuss Voigt Hill
#
# Bulk Modulus (GPa) = 47.87479 70.52005 59.19742
# Shear Modulus (GPa) = 21.92538 29.90141 25.91340
#
# Velocity S-wave (km/s) = 3.34094 3.90158 3.63209
# Velocity P-wave (km/s) = 6.26536 7.49647 6.90840
#
# Compressibility (1/GPa) = 0.02088782
#
# Stress axis : x y z
#
# Youngs Moduli (GPa) = 115.78435 42.75052 129.92633
#
# Poissons Ratio (x) = 0.17535 0.37011
# Poissons Ratio (y) = 0.47490 0.32070
# Poissons Ratio (z) = 0.32983 0.10552
#
# Static dielectric constant tensor:
#      x y z
#    x 1.733060 0.000000 0.000000 
#    y 0.000000 1.756450 0.000000 
#    z 0.000000 0.000000 1.696920 
# 
# From -- ./inp_files/27570.got.cif
#   From: 2010.05.17/outbox.cif.g08.bks.cpg/sg54_14_cif.got.tgz:27570.got - 2010.06.03 13:09:01.
