data_PCOD9420081
_publ_section_title
;
Structure prediction by ZEFSAII (Michael W. Deem and Ramdas Pophale) SiO2 
 PCOD9420081
Probable space group: P M N A
;
_chemical_formula_sum "Si O2"
_cell_formula_units_Z 64
_cell_length_a 9.000000
_cell_length_b 21.000000
_cell_length_c 18.000000
_cell_angle_alpha 90.000000
_cell_angle_beta 90.000000
_cell_angle_gamma 90.000000
_cell_volume 3402.000000
_symmetry_space_group_name_H-M "P M N A"
_symmetry_group_IT_number 53
_symmetry_cell_setting 'orthorhombic'
loop_
_space_group_symop_operation_xyz
x,y,z
1/2-x,-y,1/2+z
x,-y,-z
1/2-x,y,1/2-z
-x,-y,-z
1/2+x,y,1/2-z
-x,y,z
1/2+x,-y,1/2+z
loop_
_atom_site_type_symbol
_atom_site_label
_atom_site_fract_x
_atom_site_fract_y
_atom_site_fract_z
Si Si1 0.319081 0.325869 0.092691
Si Si2 0.818552 0.716244 0.428714
Si Si3 0.179458 0.454733 0.331784
Si Si4 0.179658 0.909344 0.560837
Si Si5 0.179504 0.016479 0.674020
Si Si6 0.821022 0.596471 0.330817
Si Si7 0.177761 0.201899 0.325777
Si Si8 0.681217 0.140387 0.902489
O O1 0.500000 0.326393 0.091099
O O2 0.271495 0.396413 0.116204
O O3 0.272644 0.272840 0.152210
O O4 0.271273 0.300292 0.012459
O O5 0.771470 0.656866 0.378458
O O6 0.768791 0.786182 0.401695
O O7 0.000000 0.717692 0.428760
O O8 0.250000 0.447836 0.250000
O O9 0.216343 0.525713 0.360974
O O10 0.000000 0.451437 0.324679
O O11 0.227784 0.972108 0.604969
O O12 0.215091 0.847816 0.610093
O O13 0.232151 0.893395 0.478647
O O14 0.000000 0.914395 0.555568
O O15 0.250000 0.992520 0.750000
O O16 0.000000 0.012868 0.678257
O O17 0.223630 0.089974 0.660423
O O18 0.750000 0.600502 0.250000
O O19 0.000000 0.599204 0.325353
O O20 0.250000 0.180902 0.250000
O O21 0.000000 0.202269 0.318753
O O22 0.500000 0.142305 0.903485
#
# Coordination Sequence:
#
# PCOD9420081 Si02
#       8
#     8   8   8   8   8   8   8   8
#     4   9  16  27  44  67  94 120 150 190 231 268
#     4   9  16  28  47  71  94 117 152 197 235 266
#     4   9  17  29  45  67  94 123 153 187 229 275
#     4   9  16  29  48  70  93 120 155 192 226 267
#     4  10  20  32  49  73  97 121 153 193 233 274
#     4   9  18  31  48  69  92 120 154 191 232 275
#     4  10  18  28  45  68  93 122 152 184 224 270
#     4   9  16  29  49  71  93 120 157 196 230 268
#
# _framework density 18.812463000000001
#
# number of rings (size 3 to 8) (size 9 to 14) (size 15 to 20)
#    0.000    2.750    1.250    1.125    0.000    2.500 
#    0.000    2.500    0.000    3.750    0.000    3.500 
#    0.000    0.000    0.000    0.000    0.000    0.000 
#
# Total GULP energy -356483.897688 kJ/mol
# GULP energy per Si atom -5570.060901 kJ/mol
# Density = 1.876965 g / cm^3
# Si number density = 18.812463 Si / 1000 Ang^3
#
#
#
# Elastic Constant Matrix: (Units=GPa)
#
#
# Indices 1 2 3 4 5 6 
#
# 1 -9.1606 11.9410 5.3142 0.0000 0.0000 0.0000
# 2 11.9410 139.0546 28.7156 0.0000 0.0000 0.0000
# 3 5.3142 28.7156 42.8745 0.0000 0.0000 0.0000
# 4 0.0000 0.0000 0.0000 -18.0348 0.0000 0.0000
# 5 0.0000 0.0000 0.0000 0.0000 15.2957 0.0000
# 6 0.0000 0.0000 0.0000 0.0000 0.0000 5.5840
#
#
#
# Elastic Compliance Matrix: (Units=1/GPa)
#
#
# Indices 1 2 3 4 5 6 
#
# 1 -0.096102 0.006723 0.007409 0.000000 0.000000 0.000000
# 2 0.006723 0.007875 -0.006108 0.000000 0.000000 0.000000
# 3 0.007409 -0.006108 0.026496 0.000000 0.000000 0.000000
# 4 0.000000 0.000000 0.000000 -0.055448 0.000000 0.000000
# 5 0.000000 0.000000 0.000000 0.000000 0.065378 0.000000
# 6 0.000000 0.000000 0.000000 0.000000 0.000000 0.179082
#
#
# Mechanical properties :
#
#
# Convention : Reuss Voigt Hill
#
# Bulk Modulus (GPa) = -21.88993 29.41223 3.76115
# Shear Modulus (GPa) = 52.08041 9.02218 30.55129
#
# Velocity S-wave (km/s) = 5.26727 2.19232 4.03425
# Velocity P-wave (km/s) = 5.03299 4.69859 4.86866
#
# Compressibility (1/GPa) = -0.04568310
#
# Stress axis : x y z
#
# Youngs Moduli (GPa) = -10.40556 126.97672 37.74100
#
# Poissons Ratio (x) = -0.85360 -0.27963
# Poissons Ratio (y) = 0.06995 0.23052
# Poissons Ratio (z) = 0.07710 0.77556
#
# Static dielectric constant tensor:
#      x y z
#    x 1.606380 0.000000 0.000000 
#    y 0.000000 1.683260 0.000000 
#    z 0.000000 0.000000 1.653320 
# 
# From -- ./inp_files/26912.got.cif
#   From: 2010.05.17/outbox.ucp.g08.bks.cvg/sg53_14_cif.got.tgz:26912.got - 2010.06.11 16:32:34.
