data_PCOD9420513
_publ_section_title
;
Structure prediction by ZEFSAII (Michael W. Deem and Ramdas Pophale) SiO2 
 PCOD9420513
Probable space group: P C C A
;
_chemical_formula_sum "Si O2"
_cell_formula_units_Z 56
_cell_length_a 21.357835
_cell_length_b 7.897830
_cell_length_c 13.809699
_cell_angle_alpha 90.000000
_cell_angle_beta 90.000000
_cell_angle_gamma 90.000000
_cell_volume 2329.427623
_symmetry_space_group_name_H-M "P C C A"
_symmetry_group_IT_number 54
_symmetry_cell_setting 'orthorhombic'
loop_
_space_group_symop_operation_xyz
x,y,z
1/2-x,-y,z
1/2+x,-y,1/2-z
-x,y,1/2-z
-x,-y,-z
1/2+x,y,-z
1/2-x,y,1/2+z
x,-y,1/2+z
loop_
_atom_site_type_symbol
_atom_site_label
_atom_site_fract_x
_atom_site_fract_y
_atom_site_fract_z
Si Si1 0.720609 0.682421 0.777709
Si Si2 0.869298 0.506058 0.133003
Si Si3 0.007141 0.519831 0.115485
Si Si4 0.080090 0.991638 0.425565
Si Si5 0.345684 0.141432 0.767861
Si Si6 0.950667 0.848865 0.884747
Si Si7 0.623261 0.303746 0.440827
O O1 0.750000 0.500000 0.806814
O O2 0.680956 0.629389 0.682091
O O3 0.774050 0.819750 0.756652
O O4 0.679215 0.737602 0.868889
O O5 0.865341 0.324225 0.187139
O O6 0.939412 0.572458 0.151649
O O7 0.860502 0.451886 0.019817
O O8 0.025434 0.333084 0.148790
O O9 0.066206 0.638437 0.127076
O O10 0.000000 0.500000 0.000000
O O11 0.134547 0.000154 0.346371
O O12 0.097355 0.149041 0.496169
O O13 0.011985 0.031672 0.379735
O O14 0.070684 0.843080 0.502641
O O15 0.390469 0.105003 0.677500
#
# Coordination Sequence:
#
# PCOD9420513 Si02
#       7
#     8   8   8   8   8   8   8
#     4  10  21  35  59  92 123 167 217 252 316 387
#     4   9  19  35  59  91 127 161 203 261 318 375
#     4  10  17  33  60  93 124 152 201 259 321 368
#     4  10  22  38  64  90 124 159 211 261 318 381
#     4  10  20  38  61  90 121 168 212 253 314 389
#     4  11  20  37  65  93 119 163 207 258 323 384
#     4  10  20  37  60  91 126 157 204 266 309 379
#
# _framework density 24.040239
#
# number of rings (size 3 to 8) (size 9 to 14) (size 15 to 20)
#    0.000    2.000    4.286    2.143    0.000    4.571 
#    0.000    3.571    6.286    3.429    0.000    0.000 
#    0.000    0.000    0.000    0.000    0.000    0.000 
#
# Total GULP energy -313093.615916 kJ/mol
# GULP energy per Si atom -5590.957427 kJ/mol
# Density = 2.398552 g / cm^3
# Si number density = 24.040239 Si / 1000 Ang^3
#
#
#
# Elastic Constant Matrix: (Units=GPa)
#
#
# Indices 1 2 3 4 5 6 
#
# 1 180.8527 33.9948 86.4526 0.0000 0.0000 0.0000
# 2 33.9948 72.2723 31.6217 0.0000 0.0000 0.0000
# 3 86.4526 31.6217 114.0773 0.0000 0.0000 0.0000
# 4 0.0000 0.0000 0.0000 4.4425 0.0000 0.0000
# 5 0.0000 0.0000 0.0000 0.0000 42.5269 0.0000
# 6 0.0000 0.0000 0.0000 0.0000 0.0000 27.8626
#
#
#
# Elastic Compliance Matrix: (Units=1/GPa)
#
#
# Indices 1 2 3 4 5 6 
#
# 1 0.008791 -0.001388 -0.006277 0.000000 0.000000 0.000000
# 2 -0.001388 0.015966 -0.003373 0.000000 0.000000 0.000000
# 3 -0.006277 -0.003373 0.014458 0.000000 0.000000 0.000000
# 4 0.000000 0.000000 0.000000 0.225100 0.000000 0.000000
# 5 0.000000 0.000000 0.000000 0.000000 0.023515 0.000000
# 6 0.000000 0.000000 0.000000 0.000000 0.000000 0.035890
#
#
# Mechanical properties :
#
#
# Convention : Reuss Voigt Hill
#
# Bulk Modulus (GPa) = 58.35460 74.59340 66.47400
# Shear Modulus (GPa) = 14.22432 29.30860 21.76646
#
# Velocity S-wave (km/s) = 2.43510 3.49542 3.01228
# Velocity P-wave (km/s) = 5.67739 6.88379 6.30949
#
# Compressibility (1/GPa) = 0.01713661
#
# Stress axis : x y z
#
# Youngs Moduli (GPa) = 113.75093 62.63460 69.16416
#
# Poissons Ratio (x) = 0.08697 0.43417
# Poissons Ratio (y) = 0.15794 0.23331
# Poissons Ratio (z) = 0.71406 0.21129
#
# Static dielectric constant tensor:
#      x y z
#    x 1.952770 0.000000 0.000000 
#    y 0.000000 2.020250 0.000000 
#    z 0.000000 0.000000 1.958190 
# 
# From -- ./inp_files/14668.got.cif
#   From: 2010.05.17/outbox.cif.g08.bks.cpg/sg54_8_cif.got.tgz:14668.got - 2010.06.03 13:09:01.
