data_PCOD9420596
_publ_section_title
;
Structure prediction by ZEFSAII (Michael W. Deem and Ramdas Pophale) SiO2 
 PCOD9420596
Probable space group: P C C A
;
_chemical_formula_sum "Si O2"
_cell_formula_units_Z 40
_cell_length_a 8.203709
_cell_length_b 8.779965
_cell_length_c 23.388042
_cell_angle_alpha 90.000000
_cell_angle_beta 90.000000
_cell_angle_gamma 90.000000
_cell_volume 1684.600388
_symmetry_space_group_name_H-M "P C C A"
_symmetry_group_IT_number 54
_symmetry_cell_setting 'orthorhombic'
loop_
_space_group_symop_operation_xyz
x,y,z
1/2-x,-y,z
1/2+x,-y,1/2-z
-x,y,1/2-z
-x,-y,-z
1/2+x,y,-z
1/2-x,y,1/2+z
x,-y,1/2+z
loop_
_atom_site_type_symbol
_atom_site_label
_atom_site_fract_x
_atom_site_fract_y
_atom_site_fract_z
Si Si1 0.021047 0.769314 0.091856
Si Si2 0.415606 0.090911 0.893261
Si Si3 0.322633 0.826060 0.018611
Si Si4 0.176715 0.830969 0.777037
Si Si5 0.106670 0.396183 0.701627
O O1 0.188492 0.740804 0.056876
O O2 0.007871 0.665836 0.147702
O O3 0.030211 0.942202 0.118413
O O4 0.880282 0.762266 0.043026
O O5 0.508477 0.166222 0.945768
O O6 0.368781 0.206170 0.842989
O O7 0.250000 0.000000 0.903706
O O8 0.250000 0.000000 0.015775
O O9 0.301972 0.732409 0.739915
O O10 0.000000 0.838029 0.750000
O O11 0.250000 0.000000 0.779728
O O12 0.250000 0.500000 0.678468
O O13 0.000000 0.480253 0.750000
#
# Coordination Sequence:
#
# PCOD9420596 Si02
#       5
#     8   8   8   8   8
#     4  11  21  38  61  90 126 163 206 259 317 383
#     4  10  18  31  57  93 128 162 201 255 315 373
#     4  10  20  34  59  94 128 161 202 256 321 380
#     4  11  21  37  63  97 130 166 212 266 318 374
#     4  12  27  46  65  90 127 174 220 266 322 386
#
# _framework density 23.744503000000002
#
# number of rings (size 3 to 8) (size 9 to 14) (size 15 to 20)
#    0.000    1.200    0.000   10.200    0.000    1.600 
#    0.000    1.000    0.000    1.200    0.000    0.000 
#    0.000    0.000    0.000    0.000    0.000    0.000 
#
# Total GULP energy -223100.782382 kJ/mol
# GULP energy per Si atom -5577.519560 kJ/mol
# Density = 2.369046 g / cm^3
# Si number density = 23.744503 Si / 1000 Ang^3
#
#
#
# Elastic Constant Matrix: (Units=GPa)
#
#
# Indices 1 2 3 4 5 6 
#
# 1 122.6090 -6.2947 60.7833 0.0000 0.0000 0.0000
# 2 -6.2947 21.3092 21.7928 0.0000 0.0000 0.0000
# 3 60.7833 21.7928 181.6612 0.0000 0.0000 0.0000
# 4 0.0000 0.0000 0.0000 18.7111 0.0000 0.0000
# 5 0.0000 0.0000 0.0000 0.0000 35.1069 0.0000
# 6 0.0000 0.0000 0.0000 0.0000 0.0000 23.1146
#
#
#
# Elastic Compliance Matrix: (Units=1/GPa)
#
#
# Indices 1 2 3 4 5 6 
#
# 1 0.010823 0.007866 -0.004565 0.000000 0.000000 0.000000
# 2 0.007866 0.059207 -0.009735 0.000000 0.000000 0.000000
# 3 -0.004565 -0.009735 0.008200 0.000000 0.000000 0.000000
# 4 0.000000 0.000000 0.000000 0.053444 0.000000 0.000000
# 5 0.000000 0.000000 0.000000 0.000000 0.028484 0.000000
# 6 0.000000 0.000000 0.000000 0.000000 0.000000 0.043263
#
#
# Mechanical properties :
#
#
# Convention : Reuss Voigt Hill
#
# Bulk Modulus (GPa) = 15.29937 53.12693 34.21315
# Shear Modulus (GPa) = 21.00166 32.00638 26.50402
#
# Velocity S-wave (km/s) = 2.97726 3.67543 3.34461
# Velocity P-wave (km/s) = 4.27505 6.35883 5.41806
#
# Compressibility (1/GPa) = 0.06536215
#
# Stress axis : x y z
#
# Youngs Moduli (GPa) = 92.39713 16.88987 121.95217
#
# Poissons Ratio (x) = -0.13285 0.55670
# Poissons Ratio (y) = -0.72675 1.18714
# Poissons Ratio (z) = 0.42178 0.16441
#
# Static dielectric constant tensor:
#      x y z
#    x 1.939260 0.000000 0.000000 
#    y 0.000000 1.945960 0.000000 
#    z 0.000000 0.000000 2.012670 
# 
# From -- ./inp_files/23187.got.cif
#   From: 2010.05.17/outbox.cif.g08.bks.cpg/sg54_12_cif.got.tgz:23187.got - 2010.06.03 13:09:01.
