data_PCOD9420711
_publ_section_title
;
Structure prediction by ZEFSAII (Michael W. Deem and Ramdas Pophale) SiO2 
 PCOD9420711
Probable space group: P C C A
;
_chemical_formula_sum "Si O2"
_cell_formula_units_Z 44
_cell_length_a 15.282580
_cell_length_b 8.340211
_cell_length_c 17.547235
_cell_angle_alpha 90.000000
_cell_angle_beta 90.000000
_cell_angle_gamma 90.000000
_cell_volume 2236.569552
_symmetry_space_group_name_H-M "P C C A"
_symmetry_group_IT_number 54
_symmetry_cell_setting 'orthorhombic'
loop_
_space_group_symop_operation_xyz
x,y,z
1/2-x,-y,z
1/2+x,-y,1/2-z
-x,y,1/2-z
-x,-y,-z
1/2+x,y,-z
1/2-x,y,1/2+z
x,-y,1/2+z
loop_
_atom_site_type_symbol
_atom_site_label
_atom_site_fract_x
_atom_site_fract_y
_atom_site_fract_z
Si Si1 0.683691 0.208471 0.136675
Si Si2 0.250000 0.000000 0.736885
Si Si3 0.490118 0.767844 0.657700
Si Si4 0.116790 0.910119 0.617748
Si Si5 0.250000 0.500000 0.264915
Si Si6 0.750000 0.000000 0.512214
Si Si7 0.930001 0.579667 0.819901
O O1 0.682911 0.080306 0.205444
O O2 0.583188 0.227476 0.115011
O O3 0.719027 0.361641 0.179053
O O4 0.748386 0.149391 0.070610
O O5 0.193998 0.892105 0.680586
O O6 0.500000 0.765546 0.750000
O O7 0.449499 0.592440 0.640547
O O8 0.438734 0.930950 0.638091
O O9 0.068243 0.738775 0.626502
O O10 0.167248 0.959945 0.540728
O O11 0.166392 0.447347 0.215709
O O12 0.000000 0.601889 0.750000
#
# Coordination Sequence:
#
# PCOD9420711 Si02
#       7
#     8   4   8   8   4   4   8
#     4  11  22  42  63  95 133 175 219 267 333 398
#     4  10  18  34  66  88 120 166 226 266 316 386
#     4  11  21  40  67 102 133 161 219 295 328 381
#     4  11  22  41  64  95 131 175 216 274 332 388
#     4  12  20  40  68  96 136 170 218 292 326 386
#     4  10  28  44  60  96 136 188 222 250 340 418
#     4  11  23  37  67 110 123 163 230 287 336 379
#
# _framework density 19.672985000000001
#
# number of rings (size 3 to 8) (size 9 to 14) (size 15 to 20)
#    0.000    1.091    7.273    0.545    2.545    0.727 
#    3.273    0.909    0.000    0.000    0.000    0.000 
#    0.000    0.000    0.000    0.000    0.000    0.000 
#
# Total GULP energy -244942.146598 kJ/mol
# GULP energy per Si atom -5566.866968 kJ/mol
# Density = 1.962821 g / cm^3
# Si number density = 19.672985 Si / 1000 Ang^3
#
#
#
# Elastic Constant Matrix: (Units=GPa)
#
#
# Indices 1 2 3 4 5 6 
#
# 1 95.4757 48.7108 17.0624 0.0000 0.0000 0.0000
# 2 48.7108 161.0731 39.9729 0.0000 0.0000 0.0000
# 3 17.0624 39.9729 60.5384 0.0000 0.0000 0.0000
# 4 0.0000 0.0000 0.0000 16.3992 0.0000 0.0000
# 5 0.0000 0.0000 0.0000 0.0000 16.0426 0.0000
# 6 0.0000 0.0000 0.0000 0.0000 0.0000 28.4415
#
#
#
# Elastic Compliance Matrix: (Units=1/GPa)
#
#
# Indices 1 2 3 4 5 6 
#
# 1 0.012460 -0.003464 -0.001224 0.000000 0.000000 0.000000
# 2 -0.003464 0.008388 -0.004562 0.000000 0.000000 0.000000
# 3 -0.001224 -0.004562 0.019876 0.000000 0.000000 0.000000
# 4 0.000000 0.000000 0.000000 0.060979 0.000000 0.000000
# 5 0.000000 0.000000 0.000000 0.000000 0.062334 0.000000
# 6 0.000000 0.000000 0.000000 0.000000 0.000000 0.035160
#
#
# Mechanical properties :
#
#
# Convention : Reuss Voigt Hill
#
# Bulk Modulus (GPa) = 44.99960 58.73105 51.86533
# Shear Modulus (GPa) = 22.21174 26.26606 24.23890
#
# Velocity S-wave (km/s) = 3.36378 3.65791 3.51392
# Velocity P-wave (km/s) = 6.16523 6.91078 6.54863
#
# Compressibility (1/GPa) = 0.02222242
#
# Stress axis : x y z
#
# Youngs Moduli (GPa) = 80.25607 119.21506 50.31207
#
# Poissons Ratio (x) = 0.41299 0.06160
# Poissons Ratio (y) = 0.27803 0.22954
# Poissons Ratio (z) = 0.09827 0.54389
#
# Static dielectric constant tensor:
#      x y z
#    x 1.759970 0.000000 0.000000 
#    y 0.000000 1.713640 0.000000 
#    z 0.000000 0.000000 1.691590 
# 
# From -- ./inp_files/17952.got.cif
#   From: 2010.05.17/outbox.cif.g08.bks.cpg/sg54_9_cif.got.tgz:17952.got - 2010.06.03 13:09:01.
