data_PCOD9420520
_publ_section_title
;
Structure prediction by ZEFSAII (Michael W. Deem and Ramdas Pophale) SiO2 
 PCOD9420520
Probable space group: P C C A
;
_chemical_formula_sum "Si O2"
_cell_formula_units_Z 56
_cell_length_a 15.460304
_cell_length_b 8.062122
_cell_length_c 20.625737
_cell_angle_alpha 90.000000
_cell_angle_beta 90.000000
_cell_angle_gamma 90.000000
_cell_volume 2570.850788
_symmetry_space_group_name_H-M "P C C A"
_symmetry_group_IT_number 54
_symmetry_cell_setting 'orthorhombic'
loop_
_space_group_symop_operation_xyz
x,y,z
1/2-x,-y,z
1/2+x,-y,1/2-z
-x,y,1/2-z
-x,-y,-z
1/2+x,y,-z
1/2-x,y,1/2+z
x,-y,1/2+z
loop_
_atom_site_type_symbol
_atom_site_label
_atom_site_fract_x
_atom_site_fract_y
_atom_site_fract_z
Si Si1 0.147257 0.314739 0.280720
Si Si2 0.572289 0.150831 0.842586
Si Si3 0.165998 0.881919 0.422774
Si Si4 0.421519 0.791908 0.421930
Si Si5 0.500000 0.897187 0.750000
Si Si6 0.777220 0.683019 0.481941
Si Si7 0.250000 0.000000 0.107467
Si Si8 0.658919 0.292565 0.212506
O O1 0.090014 0.271207 0.218362
O O2 0.121055 0.243406 0.350897
O O3 0.150021 0.511246 0.289166
O O4 0.244086 0.251340 0.266153
O O5 0.522935 0.230682 0.904231
O O6 0.507226 0.014256 0.812535
O O7 0.663809 0.067265 0.858070
O O8 0.197873 0.744814 0.472937
O O9 0.145041 0.786590 0.357637
O O10 0.250000 0.000000 0.413062
O O11 0.094248 0.016079 0.442283
O O12 0.365253 0.686614 0.474003
O O13 0.415371 0.786750 0.745183
O O14 0.750000 0.500000 0.457207
O O15 0.782306 0.836909 0.432277
#
# Coordination Sequence:
#
# PCOD9420520 Si02
#       8
#     8   8   8   8   4   8   4   8
#     4  11  22  40  63  98 141 177 222 283 348 415
#     4  12  25  44  67  97 140 186 226 280 363 424
#     4  10  17  35  66  96 125 163 224 284 331 389
#     4  11  20  39  72 101 126 176 230 285 338 407
#     4  12  24  38  62  96 136 182 222 276 330 432
#     4  11  23  47  74 100 132 177 239 290 343 408
#     4  12  28  50  70  94 144 190 228 292 358 414
#     4  11  22  35  61 100 135 175 226 278 339 407
#
# _framework density 21.782671000000001
#
# number of rings (size 3 to 8) (size 9 to 14) (size 15 to 20)
#    0.000    0.857    7.857    1.714    2.000    0.571 
#    5.143    0.714    0.000    0.000    0.000    0.000 
#    0.000    0.000    0.000    0.000    0.000    0.000 
#
# Total GULP energy -312376.865899 kJ/mol
# GULP energy per Si atom -5578.158320 kJ/mol
# Density = 2.173309 g / cm^3
# Si number density = 21.782671 Si / 1000 Ang^3
#
#
#
# Elastic Constant Matrix: (Units=GPa)
#
#
# Indices 1 2 3 4 5 6 
#
# 1 100.1623 23.6040 17.1727 0.0000 0.0000 0.0000
# 2 23.6040 96.7349 23.8820 0.0000 0.0000 0.0000
# 3 17.1727 23.8820 36.3906 0.0000 0.0000 0.0000
# 4 0.0000 0.0000 0.0000 11.7583 0.0000 0.0000
# 5 0.0000 0.0000 0.0000 0.0000 28.8535 0.0000
# 6 0.0000 0.0000 0.0000 0.0000 0.0000 24.5679
#
#
#
# Elastic Compliance Matrix: (Units=1/GPa)
#
#
# Indices 1 2 3 4 5 6 
#
# 1 0.011089 -0.001687 -0.004125 0.000000 0.000000 0.000000
# 2 -0.001687 0.012593 -0.007468 0.000000 0.000000 0.000000
# 3 -0.004125 -0.007468 0.034328 0.000000 0.000000 0.000000
# 4 0.000000 0.000000 0.000000 0.085047 0.000000 0.000000
# 5 0.000000 0.000000 0.000000 0.000000 0.034658 0.000000
# 6 0.000000 0.000000 0.000000 0.000000 0.000000 0.040704
#
#
# Mechanical properties :
#
#
# Convention : Reuss Voigt Hill
#
# Bulk Modulus (GPa) = 31.79902 40.28947 36.04424
# Shear Modulus (GPa) = 19.57241 24.27786 21.92514
#
# Velocity S-wave (km/s) = 3.00080 3.34211 3.17604
# Velocity P-wave (km/s) = 5.16105 5.78180 5.48022
#
# Compressibility (1/GPa) = 0.03144751
#
# Stress axis : x y z
#
# Youngs Moduli (GPa) = 90.18182 79.40937 29.13108
#
# Poissons Ratio (x) = 0.13398 0.12018
# Poissons Ratio (y) = 0.15216 0.21756
# Poissons Ratio (z) = 0.37204 0.59304
#
# Static dielectric constant tensor:
#      x y z
#    x 2.126790 0.000000 0.000000 
#    y 0.000000 1.793220 0.000000 
#    z 0.000000 0.000000 1.875900 
# 
# From -- ./inp_files/21671.got.cif
#   From: 2010.05.17/outbox.cif.g08.bks.cpg/sg54_11_cif.got.tgz:21671.got - 2010.06.03 13:09:01.
