data_PCOD9420140
_publ_section_title
;
Structure prediction by ZEFSAII (Michael W. Deem and Ramdas Pophale) SiO2 
 PCOD9420140
Probable space group: P M N A
;
_chemical_formula_sum "Si O2"
_cell_formula_units_Z 56
_cell_length_a 21.000000
_cell_length_b 9.000000
_cell_length_c 15.000000
_cell_angle_alpha 90.000000
_cell_angle_beta 90.000000
_cell_angle_gamma 90.000000
_cell_volume 2835.000000
_symmetry_space_group_name_H-M "P M N A"
_symmetry_group_IT_number 53
_symmetry_cell_setting 'orthorhombic'
loop_
_space_group_symop_operation_xyz
x,y,z
1/2-x,-y,1/2+z
x,-y,-z
1/2-x,y,1/2-z
-x,-y,-z
1/2+x,y,1/2-z
-x,y,z
1/2+x,-y,1/2+z
loop_
_atom_site_type_symbol
_atom_site_label
_atom_site_fract_x
_atom_site_fract_y
_atom_site_fract_z
Si Si1 0.773734 0.148469 0.059339
Si Si2 0.869257 0.890055 0.581225
Si Si3 0.819446 0.985338 0.229862
Si Si4 0.074533 0.422073 0.410725
Si Si5 0.386584 0.663057 0.537512
Si Si6 0.425398 0.468936 0.284692
Si Si7 0.071132 0.200877 0.866526
O O1 0.699326 0.178552 0.055889
O O2 0.814511 0.285012 0.024614
O O3 0.796408 0.112321 0.160204
O O4 0.785067 0.000000 0.000000
O O5 0.918154 0.755307 0.585597
O O6 0.886300 0.000000 0.500000
O O7 0.853264 0.965937 0.677249
O O8 0.750000 0.909299 0.250000
O O9 0.871900 0.894227 0.174518
O O10 0.101271 0.500000 0.500000
O O11 0.103450 0.465444 0.314441
O O12 0.000000 0.465430 0.408014
O O13 0.400266 0.500000 0.500000
O O14 0.400287 0.647696 0.642225
O O15 0.423997 0.777061 0.473686
O O16 0.500000 0.433758 0.276665
O O17 0.420850 0.634662 0.324259
O O18 0.000000 0.145923 0.844046
#
# Coordination Sequence:
#
# PCOD9420140 Si02
#       7
#     8   8   8   8   8   8   8
#     4  10  19  37  57  80 119 152 184 232 288 348
#     4  10  23  38  58  82 109 151 196 241 290 344
#     4  10  21  38  58  82 118 159 195 238 294 351
#     4  10  22  40  59  81 111 150 199 252 299 342
#     4  10  19  34  59  89 118 150 186 232 290 359
#     4   9  19  36  57  81 117 154 186 236 301 353
#     4  10  20  35  59  91 119 150 191 237 293 361
#
# _framework density 19.753086
#
# number of rings (size 3 to 8) (size 9 to 14) (size 15 to 20)
#    0.000    2.143    1.429    1.286    2.000    3.143 
#    0.000    5.000    0.000    0.000    0.000    0.000 
#    0.000    0.000    0.000    0.000    0.000    0.000 
#
# Total GULP energy -311823.936408 kJ/mol
# GULP energy per Si atom -5568.284579 kJ/mol
# Density = 1.970813 g / cm^3
# Si number density = 19.753086 Si / 1000 Ang^3
#
#
#
# Elastic Constant Matrix: (Units=GPa)
#
#
# Indices 1 2 3 4 5 6 
#
# 1 52.4013 9.7628 2.9047 0.0000 0.0000 0.0000
# 2 9.7628 7.4804 7.8503 0.0000 0.0000 0.0000
# 3 2.9047 7.8503 133.1469 0.0000 0.0000 0.0000
# 4 0.0000 0.0000 0.0000 18.3285 0.0000 0.0000
# 5 0.0000 0.0000 0.0000 0.0000 16.9045 0.0000
# 6 0.0000 0.0000 0.0000 0.0000 0.0000 14.7939
#
#
#
# Elastic Compliance Matrix: (Units=1/GPa)
#
#
# Indices 1 2 3 4 5 6 
#
# 1 0.025492 -0.034842 0.001498 0.000000 0.000000 0.000000
# 2 -0.034842 0.190122 -0.010449 0.000000 0.000000 0.000000
# 3 0.001498 -0.010449 0.008094 0.000000 0.000000 0.000000
# 4 0.000000 0.000000 0.000000 0.054560 0.000000 0.000000
# 5 0.000000 0.000000 0.000000 0.000000 0.059156 0.000000
# 6 0.000000 0.000000 0.000000 0.000000 0.000000 0.067595
#
#
# Mechanical properties :
#
#
# Convention : Reuss Voigt Hill
#
# Bulk Modulus (GPa) = 7.34642 26.00715 16.67678
# Shear Modulus (GPa) = 9.29404 21.50612 15.40008
#
# Velocity S-wave (km/s) = 2.17148 3.30320 2.79521
# Velocity P-wave (km/s) = 3.16454 5.26715 4.34495
#
# Compressibility (1/GPa) = 0.13612072
#
# Stress axis : x y z
#
# Youngs Moduli (GPa) = 39.22823 5.25978 123.54955
#
# Poissons Ratio (x) = 0.18326 -0.18510
# Poissons Ratio (y) = 1.36680 1.29103
# Poissons Ratio (z) = -0.05877 0.05496
#
# Static dielectric constant tensor:
#      x y z
#    x 1.701910 0.000000 0.000000 
#    y 0.000000 1.684540 0.000000 
#    z 0.000000 0.000000 1.762630 
# 
# From -- ./inp_files/24314.got.cif
#   From: 2010.05.17/outbox.ucp.g08.bks.cvg/sg53_13_cif.got.tgz:24314.got - 2010.06.11 16:32:34.
