data_PCOD9420755
_publ_section_title
;
Structure prediction by ZEFSAII (Michael W. Deem and Ramdas Pophale) SiO2 
 PCOD9420755
Probable space group: P C C A
;
_chemical_formula_sum "Si O2"
_cell_formula_units_Z 48
_cell_length_a 9.727399
_cell_length_b 8.623351
_cell_length_c 29.339699
_cell_angle_alpha 90.000000
_cell_angle_beta 90.000000
_cell_angle_gamma 90.000000
_cell_volume 2461.095396
_symmetry_space_group_name_H-M "P C C A"
_symmetry_group_IT_number 54
_symmetry_cell_setting 'orthorhombic'
loop_
_space_group_symop_operation_xyz
x,y,z
1/2-x,-y,z
1/2+x,-y,1/2-z
-x,y,1/2-z
-x,-y,-z
1/2+x,y,-z
1/2-x,y,1/2+z
x,-y,1/2+z
loop_
_atom_site_type_symbol
_atom_site_label
_atom_site_fract_x
_atom_site_fract_y
_atom_site_fract_z
Si Si1 0.750000 0.500000 0.102608
Si Si2 0.312481 0.828864 0.036473
Si Si3 0.882227 0.733190 0.536698
Si Si4 0.500000 0.674824 0.750000
Si Si5 0.750000 0.500000 0.292454
Si Si6 0.931117 0.238058 0.650118
Si Si7 0.236088 0.670863 0.121775
Si Si8 0.250000 0.000000 0.900740
O O1 0.638973 0.584306 0.069300
O O2 0.671775 0.375384 0.134115
O O3 0.466844 0.788621 0.021873
O O4 0.310204 0.792169 0.090048
O O5 0.250000 0.000000 0.029382
O O6 0.210506 0.718885 0.008199
O O7 0.817800 0.871288 0.567052
O O8 0.373496 0.566243 0.736089
O O9 0.544519 0.766046 0.704470
O O10 0.795909 0.364386 0.327892
O O11 0.865093 0.082912 0.629909
O O12 0.078998 0.278094 0.628333
O O13 0.250000 0.500000 0.099681
#
# Coordination Sequence:
#
# PCOD9420755 Si02
#       8
#     4   8   8   4   4   8   8   4
#     4  10  23  37  60  92 120 156 200 249 311 354
#     4  12  24  38  59  85 121 162 207 245 295 361
#     4  11  25  38  60  86 120 161 206 247 296 353
#     4  10  18  36  66  90 118 146 200 244 320 356
#     4   8  19  35  62  90 116 148 188 251 305 364
#     4  10  20  38  64  86 120 156 194 250 306 368
#     4   9  20  37  59  85 118 156 195 246 305 345
#     4  10  22  42  58  84 124 158 198 240 304 360
#
# _framework density 19.503511
#
# number of rings (size 3 to 8) (size 9 to 14) (size 15 to 20)
#    0.500    1.333    0.833    3.000    5.833    0.667 
#    0.000    0.000   14.667    2.000    0.000    0.000 
#    0.000    0.000    0.000    0.000    0.000    0.000 
#
# Total GULP energy -267620.741537 kJ/mol
# GULP energy per Si atom -5575.432115 kJ/mol
# Density = 1.945912 g / cm^3
# Si number density = 19.503511 Si / 1000 Ang^3
#
#
#
# Elastic Constant Matrix: (Units=GPa)
#
#
# Indices 1 2 3 4 5 6 
#
# 1 83.7119 2.2502 22.7712 0.0000 0.0000 0.0000
# 2 2.2502 46.1171 14.6756 0.0000 0.0000 0.0000
# 3 22.7712 14.6756 77.3449 0.0000 0.0000 0.0000
# 4 0.0000 0.0000 0.0000 34.5696 0.0000 0.0000
# 5 0.0000 0.0000 0.0000 0.0000 17.2555 0.0000
# 6 0.0000 0.0000 0.0000 0.0000 0.0000 27.9742
#
#
#
# Elastic Compliance Matrix: (Units=1/GPa)
#
#
# Indices 1 2 3 4 5 6 
#
# 1 0.013002 0.000621 -0.003946 0.000000 0.000000 0.000000
# 2 0.000621 0.023107 -0.004567 0.000000 0.000000 0.000000
# 3 -0.003946 -0.004567 0.014957 0.000000 0.000000 0.000000
# 4 0.000000 0.000000 0.000000 0.028927 0.000000 0.000000
# 5 0.000000 0.000000 0.000000 0.000000 0.057953 0.000000
# 6 0.000000 0.000000 0.000000 0.000000 0.000000 0.035747
#
#
# Mechanical properties :
#
#
# Convention : Reuss Voigt Hill
#
# Bulk Modulus (GPa) = 28.34230 31.84088 30.09159
# Shear Modulus (GPa) = 24.84612 27.12499 25.98556
#
# Velocity S-wave (km/s) = 3.57309 3.73335 3.65410
# Velocity P-wave (km/s) = 5.62015 5.91144 5.76763
#
# Compressibility (1/GPa) = 0.03528295
#
# Stress axis : x y z
#
# Youngs Moduli (GPa) = 76.90890 43.27687 66.85635
#
# Poissons Ratio (x) = -0.02689 0.26381
# Poissons Ratio (y) = -0.04778 0.30535
# Poissons Ratio (z) = 0.30348 0.19766
#
# Static dielectric constant tensor:
#      x y z
#    x 1.681800 0.000000 0.000000 
#    y 0.000000 1.728740 0.000000 
#    z 0.000000 0.000000 1.680860 
# 
# From -- ./inp_files/27855.got.cif
#   From: 2010.05.17/outbox.cif.g08.bks.cpg/sg54_14_cif.got.tgz:27855.got - 2010.06.03 13:09:01.
