data_PCOD9420971
_publ_section_title
;
Structure prediction by ZEFSAII (Michael W. Deem and Ramdas Pophale) SiO2 
 PCOD9420971
Probable space group: P C C A
;
_chemical_formula_sum "Si O2"
_cell_formula_units_Z 56
_cell_length_a 5.357868
_cell_length_b 26.454125
_cell_length_c 17.244539
_cell_angle_alpha 90.000000
_cell_angle_beta 90.000000
_cell_angle_gamma 90.000000
_cell_volume 2444.201465
_symmetry_space_group_name_H-M "P C C A"
_symmetry_group_IT_number 54
_symmetry_cell_setting 'orthorhombic'
loop_
_space_group_symop_operation_xyz
x,y,z
1/2-x,-y,z
1/2+x,-y,1/2-z
-x,y,1/2-z
-x,-y,-z
1/2+x,y,-z
1/2-x,y,1/2+z
x,-y,1/2+z
loop_
_atom_site_type_symbol
_atom_site_label
_atom_site_fract_x
_atom_site_fract_y
_atom_site_fract_z
Si Si1 0.250037 0.439400 0.702672
Si Si2 0.772047 0.166379 0.948505
Si Si3 0.838648 0.417712 0.470854
Si Si4 0.850873 0.696397 0.031767
Si Si5 0.749645 0.180595 0.776286
Si Si6 0.805570 0.052435 0.451025
Si Si7 0.749893 0.707131 0.710323
O O1 0.250000 0.500000 0.689170
O O2 0.500000 0.427602 0.750000
O O3 0.262902 0.414716 0.618415
O O4 0.000000 0.427374 0.750000
O O5 0.752360 0.195210 0.866785
O O6 0.746629 0.107961 0.918247
O O7 0.535524 0.172951 0.006484
O O8 0.609629 0.442409 0.517353
O O9 0.879634 0.361484 0.504509
O O10 0.765286 0.697654 0.119784
O O11 0.623688 0.719646 0.982464
O O12 0.500000 0.152977 0.750000
O O13 0.749260 0.232614 0.726163
O O14 0.000000 0.153149 0.750000
O O15 0.591789 0.050944 0.519085
O O16 0.750000 0.000000 0.406616
O O17 0.500000 0.686920 0.750000
O O18 0.000000 0.687050 0.750000
#
# Coordination Sequence:
#
# PCOD9420971 Si02
#       7
#     8   8   8   8   8   8   8
#     4  10  21  38  60  87 119 154 189 226 274 330
#     4  10  19  33  55  81 106 138 183 228 267 318
#     4  10  21  38  58  87 117 149 189 232 274 318
#     4  10  21  40  60  84 113 143 188 233 274 326
#     4  10  21  38  55  78 109 145 178 219 282 335
#     4   8  14  25  44  72 103 133 170 218 266 311
#     4  10  21  40  60  81 109 144 181 224 283 336
#
# _framework density 22.911366000000001
#
# number of rings (size 3 to 8) (size 9 to 14) (size 15 to 20)
#    0.000    2.286    0.000    2.571    0.000    0.571 
#    0.000   34.286    0.000    0.857    0.000    0.000 
#    0.000    0.000    0.000    0.000    0.000    0.000 
#
# Total GULP energy -312803.125078 kJ/mol
# GULP energy per Si atom -5585.770091 kJ/mol
# Density = 2.285922 g / cm^3
# Si number density = 22.911366 Si / 1000 Ang^3
#
#
#
# Elastic Constant Matrix: (Units=GPa)
#
#
# Indices 1 2 3 4 5 6 
#
# 1 213.1012 -22.3793 42.9417 0.0000 0.0000 0.0000
# 2 -22.3793 63.3959 -8.6169 0.0000 0.0000 0.0000
# 3 42.9417 -8.6169 142.1178 0.0000 0.0000 0.0000
# 4 0.0000 0.0000 0.0000 -80.6139 0.0000 0.0000
# 5 0.0000 0.0000 0.0000 0.0000 40.4950 0.0000
# 6 0.0000 0.0000 0.0000 0.0000 0.0000 24.0334
#
#
#
# Elastic Compliance Matrix: (Units=1/GPa)
#
#
# Indices 1 2 3 4 5 6 
#
# 1 0.005157 0.001622 -0.001460 0.000000 0.000000 0.000000
# 2 0.001622 0.016415 0.000505 0.000000 0.000000 0.000000
# 3 -0.001460 0.000505 0.007508 0.000000 0.000000 0.000000
# 4 0.000000 0.000000 0.000000 -0.012405 0.000000 0.000000
# 5 0.000000 0.000000 0.000000 0.000000 0.024694 0.000000
# 6 0.000000 0.000000 0.000000 0.000000 0.000000 0.041609
#
#
# Mechanical properties :
#
#
# Convention : Reuss Voigt Hill
#
# Bulk Modulus (GPa) = 32.87837 49.16733 41.02285
# Shear Modulus (GPa) = 54.47661 23.89420 39.18540
#
# Velocity S-wave (km/s) = 4.88147 3.23290 4.14007
# Velocity P-wave (km/s) = 6.79360 5.95331 6.38729
#
# Compressibility (1/GPa) = 0.03041514
#
# Stress axis : x y z
#
# Youngs Moduli (GPa) = 193.90603 60.91929 133.18832
#
# Poissons Ratio (x) = -0.09882 0.19444
# Poissons Ratio (y) = -0.31453 -0.06728
# Poissons Ratio (z) = 0.28309 -0.03077
#
# Static dielectric constant tensor:
#      x y z
#    x 1.981520 0.000000 0.000000 
#    y 0.000000 2.105290 0.000000 
#    z 0.000000 0.000000 1.781870 
# 
# From -- ./inp_files/10993.got.cif
#   From: 2010.05.17/outbox.cif.g08.bks.cpg/sg54_6_cif.got.tgz:10993.got - 2010.06.03 13:09:01.
