data_PCOD9420598
_publ_section_title
;
Structure prediction by ZEFSAII (Michael W. Deem and Ramdas Pophale) SiO2 
 PCOD9420598
Probable space group: P C C A
;
_chemical_formula_sum "Si O2"
_cell_formula_units_Z 56
_cell_length_a 16.254909
_cell_length_b 8.810200
_cell_length_c 21.308892
_cell_angle_alpha 90.000000
_cell_angle_beta 90.000000
_cell_angle_gamma 90.000000
_cell_volume 3051.625099
_symmetry_space_group_name_H-M "P C C A"
_symmetry_group_IT_number 54
_symmetry_cell_setting 'orthorhombic'
loop_
_space_group_symop_operation_xyz
x,y,z
1/2-x,-y,z
1/2+x,-y,1/2-z
-x,y,1/2-z
-x,-y,-z
1/2+x,y,-z
1/2-x,y,1/2+z
x,-y,1/2+z
loop_
_atom_site_type_symbol
_atom_site_label
_atom_site_fract_x
_atom_site_fract_y
_atom_site_fract_z
Si Si1 0.065232 0.217698 0.431618
Si Si2 0.331527 0.582050 0.518567
Si Si3 0.429569 0.298425 0.474551
Si Si4 0.410245 0.245783 0.271354
Si Si5 0.159036 0.929237 0.389458
Si Si6 0.831609 0.409759 0.836937
Si Si7 0.987532 0.489902 0.641995
O O1 0.138178 0.283100 0.475168
O O2 0.046804 0.350289 0.381425
O O3 0.987454 0.206717 0.478233
O O4 0.093393 0.062523 0.401450
O O5 0.250000 0.500000 0.494531
O O6 0.396911 0.444674 0.512198
O O7 0.181675 0.366907 0.590106
O O8 0.358829 0.195678 0.443656
O O9 0.480082 0.369473 0.415916
O O10 0.500000 0.183472 0.250000
O O11 0.363575 0.147948 0.323273
O O12 0.353835 0.276101 0.210969
O O13 0.433948 0.407129 0.304458
O O14 0.250000 0.000000 0.390796
O O15 0.750000 0.500000 0.817034
O O16 0.917424 0.503433 0.838350
#
# Coordination Sequence:
#
# PCOD9420598 Si02
#       7
#     8   8   8   8   8   8   8
#     4  11  19  34  57  83 113 142 181 220 272 332
#     4  10  18  31  58  89 113 134 176 231 280 322
#     4  10  18  35  56  82 117 141 176 219 275 331
#     4   9  21  40  59  73 104 150 191 221 272 319
#     4  11  24  38  55  79 114 152 183 220 270 327
#     4  10  18  32  57  85 108 135 177 232 277 313
#     4   9  17  35  59  84 104 141 182 229 266 320
#
# _framework density 18.350878000000002
#
# number of rings (size 3 to 8) (size 9 to 14) (size 15 to 20)
#    0.000    2.000    2.857    2.143    0.000    1.143 
#    0.000    5.000    0.000    0.857    0.000    0.000 
#    0.000    0.000    0.000    0.000    0.000    0.000 
#
# Total GULP energy -312195.071623 kJ/mol
# GULP energy per Si atom -5574.911993 kJ/mol
# Density = 1.830911 g / cm^3
# Si number density = 18.350878 Si / 1000 Ang^3
#
#
#
# Elastic Constant Matrix: (Units=GPa)
#
#
# Indices 1 2 3 4 5 6 
#
# 1 91.2328 17.1311 28.3224 0.0000 0.0000 0.0000
# 2 17.1311 61.7524 37.4377 0.0000 0.0000 0.0000
# 3 28.3224 37.4377 84.0866 0.0000 0.0000 0.0000
# 4 0.0000 0.0000 0.0000 26.5668 0.0000 0.0000
# 5 0.0000 0.0000 0.0000 0.0000 13.1731 0.0000
# 6 0.0000 0.0000 0.0000 0.0000 0.0000 27.9045
#
#
#
# Elastic Compliance Matrix: (Units=1/GPa)
#
#
# Indices 1 2 3 4 5 6 
#
# 1 0.012309 -0.001234 -0.003596 0.000000 0.000000 0.000000
# 2 -0.001234 0.022305 -0.009515 0.000000 0.000000 0.000000
# 3 -0.003596 -0.009515 0.017340 0.000000 0.000000 0.000000
# 4 0.000000 0.000000 0.000000 0.037641 0.000000 0.000000
# 5 0.000000 0.000000 0.000000 0.000000 0.075912 0.000000
# 6 0.000000 0.000000 0.000000 0.000000 0.000000 0.035837
#
#
# Mechanical properties :
#
#
# Convention : Reuss Voigt Hill
#
# Bulk Modulus (GPa) = 42.98756 44.76158 43.87457
# Shear Modulus (GPa) = 21.02703 23.80759 22.41731
#
# Velocity S-wave (km/s) = 3.38869 3.60579 3.49892
# Velocity P-wave (km/s) = 6.22793 6.46379 6.34696
#
# Compressibility (1/GPa) = 0.02326254
#
# Stress axis : x y z
#
# Youngs Moduli (GPa) = 81.23973 44.83391 57.66966
#
# Poissons Ratio (x) = 0.05534 0.20741
# Poissons Ratio (y) = 0.10028 0.54872
# Poissons Ratio (z) = 0.29218 0.42659
#
# Static dielectric constant tensor:
#      x y z
#    x 1.671070 0.000000 0.000000 
#    y 0.000000 1.602980 0.000000 
#    z 0.000000 0.000000 1.663520 
# 
# From -- ./inp_files/21896.got.cif
#   From: 2010.05.17/outbox.cif.g08.bks.cpg/sg54_11_cif.got.tgz:21896.got - 2010.06.03 13:09:01.
