data_PCOD9420735
_publ_section_title
;
Structure prediction by ZEFSAII (Michael W. Deem and Ramdas Pophale) SiO2 
 PCOD9420735
Probable space group: P C C A
;
_chemical_formula_sum "Si O2"
_cell_formula_units_Z 52
_cell_length_a 5.298025
_cell_length_b 21.604701
_cell_length_c 20.286033
_cell_angle_alpha 90.000000
_cell_angle_beta 90.000000
_cell_angle_gamma 90.000000
_cell_volume 2321.984900
_symmetry_space_group_name_H-M "P C C A"
_symmetry_group_IT_number 54
_symmetry_cell_setting 'orthorhombic'
loop_
_space_group_symop_operation_xyz
x,y,z
1/2-x,-y,z
1/2+x,-y,1/2-z
-x,y,1/2-z
-x,-y,-z
1/2+x,y,-z
1/2-x,y,1/2+z
x,-y,1/2+z
loop_
_atom_site_type_symbol
_atom_site_label
_atom_site_fract_x
_atom_site_fract_y
_atom_site_fract_z
Si Si1 0.550679 0.824838 0.539244
Si Si2 0.628111 0.248326 0.821765
Si Si3 0.250000 0.000000 0.793511
Si Si4 0.103099 0.366421 0.673193
Si Si5 0.000000 0.816732 0.250000
Si Si6 0.395306 0.676165 0.958279
Si Si7 0.166620 0.127670 0.344673
Si Si8 0.250000 0.500000 0.706191
O O1 0.779419 0.840206 0.489823
O O2 0.580396 0.750952 0.549358
O O3 0.107560 0.863710 0.395879
O O4 0.500000 0.253731 0.750000
O O5 0.669866 0.318035 0.844346
O O6 0.506268 0.189148 0.858464
O O7 0.914768 0.227209 0.808255
O O8 0.125966 0.945109 0.838285
O O9 0.500000 0.981265 0.750000
O O10 0.905878 0.352473 0.614909
O O11 0.195541 0.436675 0.668171
O O12 0.000000 0.358559 0.750000
O O13 0.768320 0.857374 0.228616
O O14 0.142654 0.659951 0.998331
O O15 0.500000 0.488662 0.750000
#
# Coordination Sequence:
#
# PCOD9420735 Si02
#       8
#     8   8   4   8   4   8   8   4
#     4  10  24  42  65  94 132 179 224 278 342 408
#     4  10  21  33  59  99 126 164 218 287 334 395
#     4  12  26  46  66  98 140 180 212 272 362 420
#     4  11  23  42  70 103 141 185 240 291 349 422
#     4  10  18  36  56  92 126 154 204 274 340 382
#     4  10  24  43  66 100 140 183 226 292 362 412
#     4  11  24  39  65  93 134 170 220 273 339 408
#     4  10  24  44  66 100 148 194 228 286 362 422
#
# _framework density 22.394632000000001
#
# number of rings (size 3 to 8) (size 9 to 14) (size 15 to 20)
#    0.000    1.538    1.538    2.769   10.769    2.462 
#    0.000    1.538    0.000    0.000    0.000    0.000 
#    0.000    0.000    0.000    0.000    0.000    0.000 
#
# Total GULP energy -289680.801875 kJ/mol
# GULP energy per Si atom -5570.784651 kJ/mol
# Density = 2.234366 g / cm^3
# Si number density = 22.394632 Si / 1000 Ang^3
#
#
#
# Elastic Constant Matrix: (Units=GPa)
#
#
# Indices 1 2 3 4 5 6 
#
# 1 112.3450 26.8691 41.2417 0.0000 0.0000 0.0000
# 2 26.8691 134.2003 29.9511 0.0000 0.0000 0.0000
# 3 41.2417 29.9511 97.8996 0.0000 0.0000 0.0000
# 4 0.0000 0.0000 0.0000 4.1905 0.0000 0.0000
# 5 0.0000 0.0000 0.0000 0.0000 21.8916 0.0000
# 6 0.0000 0.0000 0.0000 0.0000 0.0000 20.1475
#
#
#
# Elastic Compliance Matrix: (Units=1/GPa)
#
#
# Indices 1 2 3 4 5 6 
#
# 1 0.010713 -0.001221 -0.004139 0.000000 0.000000 0.000000
# 2 -0.001221 0.008137 -0.001975 0.000000 0.000000 0.000000
# 3 -0.004139 -0.001975 0.012563 0.000000 0.000000 0.000000
# 4 0.000000 0.000000 0.000000 0.238637 0.000000 0.000000
# 5 0.000000 0.000000 0.000000 0.000000 0.045680 0.000000
# 6 0.000000 0.000000 0.000000 0.000000 0.000000 0.049634
#
#
# Mechanical properties :
#
#
# Convention : Reuss Voigt Hill
#
# Bulk Modulus (GPa) = 59.73231 60.06319 59.89775
# Shear Modulus (GPa) = 12.96634 25.67145 19.31889
#
# Velocity S-wave (km/s) = 2.40884 3.38941 2.94029
# Velocity P-wave (km/s) = 5.87088 6.49585 6.19125
#
# Compressibility (1/GPa) = 0.01674136
#
# Stress axis : x y z
#
# Youngs Moduli (GPa) = 93.34694 122.89842 79.60192
#
# Poissons Ratio (x) = 0.15006 0.32950
# Poissons Ratio (y) = 0.11398 0.15721
# Poissons Ratio (z) = 0.38639 0.24272
#
# Static dielectric constant tensor:
#      x y z
#    x 1.947970 0.000000 0.000000 
#    y 0.000000 1.888600 0.000000 
#    z 0.000000 0.000000 1.899080 
# 
# From -- ./inp_files/19832.got.cif
#   From: 2010.05.17/outbox.cif.g08.bks.cpg/sg54_10_cif.got.tgz:19832.got - 2010.06.03 13:09:01.
