data_PCOD9420236
_publ_section_title
;
Structure prediction by ZEFSAII (Michael W. Deem and Ramdas Pophale) SiO2 
 PCOD9420236
Probable space group: P M N A
;
_chemical_formula_sum "Si O2"
_cell_formula_units_Z 44
_cell_length_a 15.000000
_cell_length_b 9.000000
_cell_length_c 18.000000
_cell_angle_alpha 90.000000
_cell_angle_beta 90.000000
_cell_angle_gamma 90.000000
_cell_volume 2430.000000
_symmetry_space_group_name_H-M "P M N A"
_symmetry_group_IT_number 53
_symmetry_cell_setting 'orthorhombic'
loop_
_space_group_symop_operation_xyz
x,y,z
1/2-x,-y,1/2+z
x,-y,-z
1/2-x,y,1/2-z
-x,-y,-z
1/2+x,y,1/2-z
-x,y,z
1/2+x,-y,1/2+z
loop_
_atom_site_type_symbol
_atom_site_label
_atom_site_fract_x
_atom_site_fract_y
_atom_site_fract_z
Si Si1 0.757679 0.610884 0.569604
Si Si2 0.602240 0.170367 0.820238
Si Si3 0.399461 0.177359 0.994962
Si Si4 0.892034 0.265511 0.173502
Si Si5 0.897700 0.499315 0.692291
Si Si6 0.750000 0.040550 0.250000
O O1 0.745196 0.500000 0.500000
O O2 0.820914 0.744285 0.539799
O O3 0.663314 0.665263 0.603889
O O4 0.819860 0.537111 0.633705
O O5 0.500000 0.112108 0.806999
O O6 0.606969 0.210578 0.907475
O O7 0.612355 0.329406 0.780362
O O8 0.682324 0.060680 0.798812
O O9 0.500000 0.221030 0.020618
O O10 0.393336 0.000000 0.000000
O O11 0.891843 0.386304 0.239789
O O12 0.822174 0.137948 0.202662
O O13 0.000000 0.228864 0.161177
O O14 0.000000 0.510080 0.661409
#
# Coordination Sequence:
#
# PCOD9420236 Si02
#       6
#     8   8   8   8   8   4
#     4  12  22  37  64  90 120 166 200 248 311 367
#     4  10  22  37  58  91 122 154 196 251 305 361
#     4  10  21  35  55  89 127 154 190 245 307 366
#     4  11  25  43  62  89 121 161 213 256 298 362
#     4  10  21  39  62  91 124 155 205 258 302 357
#     4  12  22  38  68  84 124 166 204 246 306 368
#
# _framework density 18.106995999999999
#
# number of rings (size 3 to 8) (size 9 to 14) (size 15 to 20)
#    0.000    1.273    3.636    2.182    2.545    1.091 
#    0.000    0.000    0.000    6.000    0.000    0.000 
#    0.000    0.000    0.000    0.000    0.000    0.000 
#
# Total GULP energy -245387.396014 kJ/mol
# GULP energy per Si atom -5576.986273 kJ/mol
# Density = 1.806578 g / cm^3
# Si number density = 18.106996 Si / 1000 Ang^3
#
#
#
# Elastic Constant Matrix: (Units=GPa)
#
#
# Indices 1 2 3 4 5 6 
#
# 1 188.3830 57.5434 50.3841 0.0000 0.0000 0.0000
# 2 57.5434 82.2045 24.4756 0.0000 0.0000 0.0000
# 3 50.3841 24.4756 59.9551 0.0000 0.0000 0.0000
# 4 0.0000 0.0000 0.0000 27.4701 0.0000 0.0000
# 5 0.0000 0.0000 0.0000 0.0000 40.4027 0.0000
# 6 0.0000 0.0000 0.0000 0.0000 0.0000 34.2778
#
#
#
# Elastic Compliance Matrix: (Units=1/GPa)
#
#
# Indices 1 2 3 4 5 6 
#
# 1 0.007867 -0.004028 -0.004967 0.000000 0.000000 0.000000
# 2 -0.004028 0.015911 -0.003110 0.000000 0.000000 0.000000
# 3 -0.004967 -0.003110 0.022123 0.000000 0.000000 0.000000
# 4 0.000000 0.000000 0.000000 0.036403 0.000000 0.000000
# 5 0.000000 0.000000 0.000000 0.000000 0.024751 0.000000
# 6 0.000000 0.000000 0.000000 0.000000 0.000000 0.029173
#
#
# Mechanical properties :
#
#
# Convention : Reuss Voigt Hill
#
# Bulk Modulus (GPa) = 46.10366 66.14989 56.12678
# Shear Modulus (GPa) = 29.82078 33.63940 31.73009
#
# Velocity S-wave (km/s) = 4.06263 4.31491 4.19067
# Velocity P-wave (km/s) = 6.89374 7.83816 7.38107
#
# Compressibility (1/GPa) = 0.02169025
#
# Stress axis : x y z
#
# Youngs Moduli (GPa) = 127.10976 62.85138 45.20237
#
# Poissons Ratio (x) = 0.25318 0.22451
# Poissons Ratio (y) = 0.51203 0.14058
# Poissons Ratio (z) = 0.63134 0.19547
#
# Static dielectric constant tensor:
#      x y z
#    x 1.619860 0.000000 0.000000 
#    y 0.000000 1.685780 0.000000 
#    z 0.000000 0.000000 1.659840 
# 
# From -- ./inp_files/28161.got.cif
#   From: 2010.05.17/outbox.ucp.g08.bks.cvg/sg53_15_cif.got.tgz:28161.got - 2010.06.11 16:32:34.
