data_PCOD9420209
_publ_section_title
;
Structure prediction by ZEFSAII (Michael W. Deem and Ramdas Pophale) SiO2 
 PCOD9420209
Probable space group: P M N A
;
_chemical_formula_sum "Si O2"
_cell_formula_units_Z 48
_cell_length_a 9.000000
_cell_length_b 30.000000
_cell_length_c 9.000000
_cell_angle_alpha 90.000000
_cell_angle_beta 90.000000
_cell_angle_gamma 90.000000
_cell_volume 2430.000000
_symmetry_space_group_name_H-M "P M N A"
_symmetry_group_IT_number 53
_symmetry_cell_setting 'orthorhombic'
loop_
_space_group_symop_operation_xyz
x,y,z
1/2-x,-y,1/2+z
x,-y,-z
1/2-x,y,1/2-z
-x,-y,-z
1/2+x,y,1/2-z
-x,y,z
1/2+x,-y,1/2+z
loop_
_atom_site_type_symbol
_atom_site_label
_atom_site_fract_x
_atom_site_fract_y
_atom_site_fract_z
Si Si1 0.668767 0.381622 0.612860
Si Si2 0.177426 0.138620 0.588893
Si Si3 0.822930 0.958168 0.409989
Si Si4 0.166695 0.537356 0.898675
Si Si5 0.176916 0.711644 0.404684
Si Si6 0.323498 0.215901 0.405184
O O1 0.750000 0.405231 0.750000
O O2 0.500000 0.367163 0.650303
O O3 0.661107 0.416196 0.482212
O O4 0.770317 0.339166 0.580904
O O5 0.250000 0.135172 0.750000
O O6 0.201221 0.090055 0.516146
O O7 0.266698 0.177333 0.511618
O O8 0.000000 0.147575 0.595104
O O9 0.750000 0.958509 0.250000
O O10 0.000000 0.962544 0.391391
O O11 0.765031 0.000000 0.500000
O O12 0.250000 0.543649 0.750000
O O13 0.000000 0.521266 0.866142
O O14 0.240557 0.500000 0.000000
O O15 0.250000 0.728049 0.250000
O O16 0.251712 0.738814 0.535591
O O17 0.000000 0.716567 0.402250
O O18 0.250000 0.205326 0.250000
O O19 0.500000 0.218868 0.398872
#
# Coordination Sequence:
#
# PCOD9420209 Si02
#       6
#     8   8   8   8   8   8
#     4  10  20  36  58  85 115 147 188 233 278 330
#     4  10  20  37  59  83 112 148 190 232 277 331
#     4   9  19  35  55  81 112 146 185 228 274 327
#     4  10  22  38  57  83 114 149 189 232 278 331
#     4  11  22  39  62  87 115 150 190 230 278 334
#     4  12  25  41  59  83 114 147 186 232 284 336
#
# _framework density 19.753086
#
# number of rings (size 3 to 8) (size 9 to 14) (size 15 to 20)
#    0.000    1.667    0.000    6.000    0.000    4.000 
#    0.000    3.333    0.000    0.000    0.000    0.000 
#    0.000    0.000    0.000    0.000    0.000    0.000 
#
# Total GULP energy -267600.463612 kJ/mol
# GULP energy per Si atom -5575.009659 kJ/mol
# Density = 1.970813 g / cm^3
# Si number density = 19.753086 Si / 1000 Ang^3
#
#
#
# Elastic Constant Matrix: (Units=GPa)
#
#
# Indices 1 2 3 4 5 6 
#
# 1 137.4463 39.4405 35.4070 0.0000 0.0000 0.0000
# 2 39.4405 46.8394 42.0594 0.0000 0.0000 0.0000
# 3 35.4070 42.0594 60.8456 0.0000 0.0000 0.0000
# 4 0.0000 0.0000 0.0000 14.6046 0.0000 0.0000
# 5 0.0000 0.0000 0.0000 0.0000 21.7083 0.0000
# 6 0.0000 0.0000 0.0000 0.0000 0.0000 88.0212
#
#
#
# Elastic Compliance Matrix: (Units=1/GPa)
#
#
# Indices 1 2 3 4 5 6 
#
# 1 0.009594 -0.008081 0.000004 0.000000 0.000000 0.000000
# 2 -0.008081 0.063095 -0.038912 0.000000 0.000000 0.000000
# 3 0.000004 -0.038912 0.043330 0.000000 0.000000 0.000000
# 4 0.000000 0.000000 0.000000 0.068472 0.000000 0.000000
# 5 0.000000 0.000000 0.000000 0.000000 0.046065 0.000000
# 6 0.000000 0.000000 0.000000 0.000000 0.000000 0.011361
#
#
# Mechanical properties :
#
#
# Convention : Reuss Voigt Hill
#
# Bulk Modulus (GPa) = 45.37143 53.21612 49.29377
# Shear Modulus (GPa) = 14.56697 33.41511 23.99104
#
# Velocity S-wave (km/s) = 2.71855 4.11742 3.48882
# Velocity P-wave (km/s) = 5.73352 7.04296 6.42170
#
# Compressibility (1/GPa) = 0.02204030
#
# Stress axis : x y z
#
# Youngs Moduli (GPa) = 104.23588 15.84915 23.07845
#
# Poissons Ratio (x) = 0.12808 -0.00008
# Poissons Ratio (y) = 0.84237 0.89802
# Poissons Ratio (z) = -0.00037 0.61671
#
# Static dielectric constant tensor:
#      x y z
#    x 1.648560 0.000000 0.000000 
#    y 0.000000 1.706110 0.000000 
#    z 0.000000 0.000000 1.647590 
# 
# From -- ./inp_files/6739.got.cif
#   From: 2010.05.17/outbox.ucp.g08.bks.cvg/sg53_4_cif.got.tgz:6739.got - 2010.06.11 16:32:34.
