data_PCOD9420912
_publ_section_title
;
Structure prediction by ZEFSAII (Michael W. Deem and Ramdas Pophale) SiO2 
 PCOD9420912
Probable space group: P C C A
;
_chemical_formula_sum "Si O2"
_cell_formula_units_Z 48
_cell_length_a 13.470414
_cell_length_b 32.065110
_cell_length_c 5.249527
_cell_angle_alpha 90.000000
_cell_angle_beta 90.000000
_cell_angle_gamma 90.000000
_cell_volume 2267.429807
_symmetry_space_group_name_H-M "P C C A"
_symmetry_group_IT_number 54
_symmetry_cell_setting 'orthorhombic'
loop_
_space_group_symop_operation_xyz
x,y,z
1/2-x,-y,z
1/2+x,-y,1/2-z
-x,y,1/2-z
-x,-y,-z
1/2+x,y,-z
1/2-x,y,1/2+z
x,-y,1/2+z
loop_
_atom_site_type_symbol
_atom_site_label
_atom_site_fract_x
_atom_site_fract_y
_atom_site_fract_z
Si Si1 0.684425 0.302840 0.722853
Si Si2 0.863564 0.982391 0.359930
Si Si3 0.616602 0.520589 0.232405
Si Si4 0.818070 0.789695 0.664565
Si Si5 0.500000 0.148097 0.750000
Si Si6 0.000000 0.907994 0.250000
Si Si7 0.814046 0.610929 0.588174
O O1 0.773705 0.303815 0.511076
O O2 0.638059 0.257449 0.681430
O O3 0.629131 0.345921 0.654633
O O4 0.900737 0.936963 0.274715
O O5 0.750000 0.000000 0.387537
O O6 0.904453 0.988110 0.640411
O O7 0.500000 0.513423 0.250000
O O8 0.654141 0.511665 0.517429
O O9 0.632810 0.567490 0.140007
O O10 0.762206 0.793814 0.393605
O O11 0.903938 0.823057 0.705388
O O12 0.488608 0.119736 0.500421
O O13 0.774688 0.611625 0.299087
#
# Coordination Sequence:
#
# PCOD9420912 Si02
#       7
#     8   8   8   8   4   4   8
#     4   8  16  32  57  80 109 147 183 237 294 344
#     4  10  21  41  65  92 123 168 209 250 310 357
#     4  10  21  35  48  67 105 145 175 223 291 350
#     4  10  21  43  65  89 130 170 204 255 318 370
#     4  12  26  43  64 104 130 170 216 253 312 384
#     4  12  24  43  64  96 138 158 210 277 294 352
#     4  10  19  32  53  81 103 132 188 237 280 341
#
# _framework density 21.169345
#
# number of rings (size 3 to 8) (size 9 to 14) (size 15 to 20)
#    0.000    2.000    0.000    3.500    0.000    2.000 
#   19.500    0.000    0.000    0.000    0.000    0.000 
#    0.000    0.000    0.000    0.000    0.000    0.000 
#
# Total GULP energy -267414.963510 kJ/mol
# GULP energy per Si atom -5571.145073 kJ/mol
# Density = 2.112116 g / cm^3
# Si number density = 21.169345 Si / 1000 Ang^3
#
#
#
# Elastic Constant Matrix: (Units=GPa)
#
#
# Indices 1 2 3 4 5 6 
#
# 1 52.8101 -3.8882 7.0694 0.0000 0.0000 0.0000
# 2 -3.8882 88.6032 25.4191 0.0000 0.0000 0.0000
# 3 7.0694 25.4191 125.4997 0.0000 0.0000 0.0000
# 4 0.0000 0.0000 0.0000 47.3871 0.0000 0.0000
# 5 0.0000 0.0000 0.0000 0.0000 6.6988 0.0000
# 6 0.0000 0.0000 0.0000 0.0000 0.0000 3271.1538
#
#
#
# Elastic Compliance Matrix: (Units=1/GPa)
#
#
# Indices 1 2 3 4 5 6 
#
# 1 0.019204 0.001224 -0.001330 0.000000 0.000000 0.000000
# 2 0.001224 0.012061 -0.002512 0.000000 0.000000 0.000000
# 3 -0.001330 -0.002512 0.008552 0.000000 0.000000 0.000000
# 4 0.000000 0.000000 0.000000 0.021103 0.000000 0.000000
# 5 0.000000 0.000000 0.000000 0.000000 0.149279 0.000000
# 6 0.000000 0.000000 0.000000 0.000000 0.000000 0.000306
#
#
# Mechanical properties :
#
#
# Convention : Reuss Voigt Hill
#
# Bulk Modulus (GPa) = 28.91695 36.01260 32.46477
# Shear Modulus (GPa) = 22.00065 680.93548 351.46807
#
# Velocity S-wave (km/s) = 3.22727 17.95437 12.89912
# Velocity P-wave (km/s) = 5.25133 21.13909 15.40191
#
# Compressibility (1/GPa) = 0.03458180
#
# Stress axis : x y z
#
# Youngs Moduli (GPa) = 52.07273 82.91473 116.93468
#
# Poissons Ratio (x) = -0.10151 0.15549
# Poissons Ratio (y) = -0.06375 0.29371
# Poissons Ratio (z) = 0.06924 0.20826
#
# Static dielectric constant tensor:
#      x y z
#    x 1.769960 0.000000 0.000000 
#    y 0.000000 1.805870 0.000000 
#    z 0.000000 0.000000 1.766980 
# 
# From -- ./inp_files/639.got.cif
#   From: 2010.05.17/outbox.cif.g08.bks.cpg/sg54_1_cif.got.tgz:639.got - 2010.06.03 13:09:01.
