data_PCOD9421506
_publ_section_title
;
Structure prediction by ZEFSAII (Michael W. Deem and Ramdas Pophale) SiO2 
 PCOD9421506
Probable space group: P C C A
;
_chemical_formula_sum "Si O2"
_cell_formula_units_Z 36
_cell_length_a 19.305366
_cell_length_b 8.186064
_cell_length_c 9.483248
_cell_angle_alpha 90.000000
_cell_angle_beta 90.000000
_cell_angle_gamma 90.000000
_cell_volume 1498.684734
_symmetry_space_group_name_H-M "P C C A"
_symmetry_group_IT_number 54
_symmetry_cell_setting 'orthorhombic'
loop_
_space_group_symop_operation_xyz
x,y,z
1/2-x,-y,z
1/2+x,-y,1/2-z
-x,y,1/2-z
-x,-y,-z
1/2+x,y,-z
1/2-x,y,1/2+z
x,-y,1/2+z
loop_
_atom_site_type_symbol
_atom_site_label
_atom_site_fract_x
_atom_site_fract_y
_atom_site_fract_z
Si Si1 0.316545 0.609526 0.660174
Si Si2 0.419426 0.166377 0.789679
Si Si3 0.102744 0.524488 0.412628
Si Si4 0.377913 0.070259 0.085703
Si Si5 0.000000 0.739517 0.250000
O O1 0.250000 0.500000 0.636419
O O2 0.377289 0.516350 0.572042
O O3 0.335467 0.609873 0.825104
O O4 0.317211 0.796035 0.604193
O O5 0.500000 0.159821 0.750000
O O6 0.404555 0.347173 0.842343
O O7 0.372454 0.103562 0.660942
O O8 0.400602 0.055145 0.924730
O O9 0.036026 0.630354 0.371787
O O10 0.441494 0.155126 0.171852
#
# Coordination Sequence:
#
# PCOD9421506 Si02
#       5
#     8   8   8   8   4
#     4  10  22  41  60  84 113 159 207 251 289 349
#     4  11  21  35  55  90 125 158 185 240 305 364
#     4  10  22  35  63  86 120 153 202 249 303 353
#     4  10  23  35  59  86 123 156 194 241 300 356
#     4  10  20  36  56  94 118 154 200 248 304 358
#
# _framework density 24.021063999999999
#
# number of rings (size 3 to 8) (size 9 to 14) (size 15 to 20)
#    0.000    1.778    2.222    1.333    3.111    4.444 
#    0.000    1.111    0.000    5.333    0.000    0.000 
#    0.000    0.000    0.000    0.000    0.000    0.000 
#
# Total GULP energy -201349.797793 kJ/mol
# GULP energy per Si atom -5593.049939 kJ/mol
# Density = 2.396639 g / cm^3
# Si number density = 24.021064 Si / 1000 Ang^3
#
#
#
# Elastic Constant Matrix: (Units=GPa)
#
#
# Indices 1 2 3 4 5 6 
#
# 1 62.2724 9.3855 -14.3162 0.0000 0.0000 0.0000
# 2 9.3855 55.3774 -5.6694 0.0000 0.0000 0.0000
# 3 -14.3162 -5.6694 95.0573 0.0000 0.0000 0.0000
# 4 0.0000 0.0000 0.0000 15.7817 0.0000 0.0000
# 5 0.0000 0.0000 0.0000 0.0000 16.0415 0.0000
# 6 0.0000 0.0000 0.0000 0.0000 0.0000 0.9467
#
#
#
# Elastic Compliance Matrix: (Units=1/GPa)
#
#
# Indices 1 2 3 4 5 6 
#
# 1 0.017009 -0.002637 0.002404 0.000000 0.000000 0.000000
# 2 -0.002637 0.018578 0.000711 0.000000 0.000000 0.000000
# 3 0.002404 0.000711 0.010924 0.000000 0.000000 0.000000
# 4 0.000000 0.000000 0.000000 0.063365 0.000000 0.000000
# 5 0.000000 0.000000 0.000000 0.000000 0.062338 0.000000
# 6 0.000000 0.000000 0.000000 0.000000 0.000000 1.056338
#
#
# Mechanical properties :
#
#
# Convention : Reuss Voigt Hill
#
# Bulk Modulus (GPa) = 21.06677 21.27855 21.17266
# Shear Modulus (GPa) = 4.02118 21.44112 12.73115
#
# Velocity S-wave (km/s) = 1.29524 2.99088 2.30467
# Velocity P-wave (km/s) = 3.32055 4.56121 3.98940
#
# Compressibility (1/GPa) = 0.04746813
#
# Stress axis : x y z
#
# Youngs Moduli (GPa) = 58.79381 53.82844 91.53758
#
# Poissons Ratio (x) = 0.14192 -0.22009
# Poissons Ratio (y) = 0.15501 -0.06508
# Poissons Ratio (z) = -0.14136 -0.03827
#
# Static dielectric constant tensor:
#      x y z
#    x 1.942540 0.000000 0.000000 
#    y 0.000000 1.982660 0.000000 
#    z 0.000000 0.000000 1.919720 
# 
# From -- ./inp_files/4537.got.cif
#   From: 2010.05.17/outbox.cif.g08.bks.cpg/sg54_3_cif.got.tgz:4537.got - 2010.06.03 13:09:01.
