data_PCOD9421479
_publ_section_title
;
Structure prediction by ZEFSAII (Michael W. Deem and Ramdas Pophale) SiO2 
 PCOD9421479
Probable space group: P C C A
;
_chemical_formula_sum "Si O2"
_cell_formula_units_Z 40
_cell_length_a 11.046797
_cell_length_b 10.052390
_cell_length_c 17.212828
_cell_angle_alpha 90.000000
_cell_angle_beta 90.000000
_cell_angle_gamma 90.000000
_cell_volume 1911.427948
_symmetry_space_group_name_H-M "P C C A"
_symmetry_group_IT_number 54
_symmetry_cell_setting 'orthorhombic'
loop_
_space_group_symop_operation_xyz
x,y,z
1/2-x,-y,z
1/2+x,-y,1/2-z
-x,y,1/2-z
-x,-y,-z
1/2+x,y,-z
1/2-x,y,1/2+z
x,-y,1/2+z
loop_
_atom_site_type_symbol
_atom_site_label
_atom_site_fract_x
_atom_site_fract_y
_atom_site_fract_z
Si Si1 0.374845 0.229464 0.523876
Si Si2 0.501266 0.406115 0.424590
Si Si3 0.625869 0.449422 0.703415
Si Si4 0.750000 0.500000 0.423036
Si Si5 0.051630 0.840645 0.835635
Si Si6 0.250000 0.000000 0.429248
O O1 0.479204 0.262341 0.460197
O O2 0.297224 0.365432 0.533921
O O3 0.441466 0.193035 0.604614
O O4 0.294300 0.116657 0.486094
O O5 0.500000 0.500000 0.500000
O O6 0.395187 0.452226 0.368765
O O7 0.628671 0.440092 0.385256
O O8 0.750000 0.500000 0.740775
O O9 0.500000 0.455950 0.750000
O O10 0.627588 0.296445 0.675683
O O11 0.000000 0.876884 0.750000
O O12 0.140094 0.947261 0.875386
#
# Coordination Sequence:
#
# PCOD9421479 Si02
#       6
#     8   8   8   4   8   4
#     4  11  23  42  69 106 137 186 240 303 352 441
#     4  10  20  35  65  97 133 168 227 279 359 414
#     4  11  24  41  65  98 142 182 226 295 367 433
#     4  10  20  36  66 102 134 170 222 300 362 416
#     4  11  25  46  65  99 145 186 239 301 364 436
#     4  12  26  44  72  96 138 198 252 290 366 426
#
# _framework density 20.926763999999999
#
# number of rings (size 3 to 8) (size 9 to 14) (size 15 to 20)
#    0.000    1.200    4.000    3.000    9.800    0.800 
#    0.000    4.000    0.000    0.000    0.000    0.000 
#    0.000    0.000    0.000    0.000    0.000    0.000 
#
# Total GULP energy -222907.744988 kJ/mol
# GULP energy per Si atom -5572.693625 kJ/mol
# Density = 2.087913 g / cm^3
# Si number density = 20.926764 Si / 1000 Ang^3
#
#
#
# Elastic Constant Matrix: (Units=GPa)
#
#
# Indices 1 2 3 4 5 6 
#
# 1 123.9704 58.9062 45.0557 0.0000 0.0000 0.0000
# 2 58.9062 108.7550 53.3542 0.0000 0.0000 0.0000
# 3 45.0557 53.3542 98.5031 0.0000 0.0000 0.0000
# 4 0.0000 0.0000 0.0000 11.7107 0.0000 0.0000
# 5 0.0000 0.0000 0.0000 0.0000 37.8768 0.0000
# 6 0.0000 0.0000 0.0000 0.0000 0.0000 40.8359
#
#
#
# Elastic Compliance Matrix: (Units=1/GPa)
#
#
# Indices 1 2 3 4 5 6 
#
# 1 0.011305 -0.004884 -0.002525 0.000000 0.000000 0.000000
# 2 -0.004884 0.014633 -0.005692 0.000000 0.000000 0.000000
# 3 -0.002525 -0.005692 0.014390 0.000000 0.000000 0.000000
# 4 0.000000 0.000000 0.000000 0.085392 0.000000 0.000000
# 5 0.000000 0.000000 0.000000 0.000000 0.026401 0.000000
# 6 0.000000 0.000000 0.000000 0.000000 0.000000 0.024488
#
#
# Mechanical properties :
#
#
# Convention : Reuss Voigt Hill
#
# Bulk Modulus (GPa) = 70.79660 71.76232 71.27946
# Shear Modulus (GPa) = 24.09392 29.67884 26.88638
#
# Velocity S-wave (km/s) = 3.39683 3.77002 3.58828
# Velocity P-wave (km/s) = 7.02059 7.30187 7.16261
#
# Compressibility (1/GPa) = 0.01412497
#
# Stress axis : x y z
#
# Youngs Moduli (GPa) = 88.45521 68.33910 69.49257
#
# Poissons Ratio (x) = 0.33380 0.17549
# Poissons Ratio (y) = 0.43205 0.39554
# Poissons Ratio (z) = 0.22338 0.38897
#
# Static dielectric constant tensor:
#      x y z
#    x 1.889970 0.000000 0.000000 
#    y 0.000000 1.711220 0.000000 
#    z 0.000000 0.000000 1.795310 
# 
# From -- ./inp_files/17124.got.cif
#   From: 2010.05.17/outbox.cif.g08.bks.cpg/sg54_9_cif.got.tgz:17124.got - 2010.06.03 13:09:01.
