data_PCOD9421988
_publ_section_title
;
Structure prediction by ZEFSAII (Michael W. Deem and Ramdas Pophale) SiO2 
 PCOD9421988
Probable space group: P C C A
;
_chemical_formula_sum "Si O2"
_cell_formula_units_Z 44
_cell_length_a 28.045696
_cell_length_b 8.054510
_cell_length_c 8.928748
_cell_angle_alpha 90.000000
_cell_angle_beta 90.000000
_cell_angle_gamma 90.000000
_cell_volume 2016.953627
_symmetry_space_group_name_H-M "P C C A"
_symmetry_group_IT_number 54
_symmetry_cell_setting 'orthorhombic'
loop_
_space_group_symop_operation_xyz
x,y,z
1/2-x,-y,z
1/2+x,-y,1/2-z
-x,y,1/2-z
-x,-y,-z
1/2+x,y,-z
1/2-x,y,1/2+z
x,-y,1/2+z
loop_
_atom_site_type_symbol
_atom_site_label
_atom_site_fract_x
_atom_site_fract_y
_atom_site_fract_z
Si Si1 0.206858 0.873690 0.374751
Si Si2 0.355599 0.181503 0.874989
Si Si3 0.566828 0.617475 0.996778
Si Si4 0.000000 0.499661 0.250000
Si Si5 0.356247 0.635764 0.079091
Si Si6 0.290137 0.638140 0.601025
O O1 0.184507 0.735276 0.486134
O O2 0.221270 0.779803 0.221605
O O3 0.250000 0.000000 0.420893
O O4 0.162381 0.996536 0.354815
O O5 0.398669 0.225183 0.985433
O O6 0.371096 0.247073 0.713745
O O7 0.310748 0.283909 0.947694
O O8 0.528832 0.608314 0.129899
O O9 0.538119 0.605968 0.843195
O O10 0.600398 0.451126 0.008171
O O11 0.333041 0.475483 0.160765
O O12 0.250000 0.500000 0.578447
#
# Coordination Sequence:
#
# PCOD9421988 Si02
#       6
#     8   8   8   4   8   8
#     4  12  26  43  65  96 139 184 223 278 335 394
#     4  11  23  40  62  97 138 172 214 276 341 391
#     4  10  21  40  71 106 132 177 221 287 327 414
#     4  10  20  40  74 106 130 170 240 272 342 406
#     4  11  23  41  64  98 131 177 225 274 326 397
#     4  11  23  41  64  90 128 177 233 273 316 390
#
# _framework density 21.815076999999999
#
# number of rings (size 3 to 8) (size 9 to 14) (size 15 to 20)
#    0.000    1.091    1.818    5.455    2.545    2.909 
#    0.000    0.000    0.000    6.545    0.000    0.000 
#    0.000    0.000    0.000    0.000    0.000    0.000 
#
# Total GULP energy -245481.556365 kJ/mol
# GULP energy per Si atom -5579.126281 kJ/mol
# Density = 2.176542 g / cm^3
# Si number density = 21.815077 Si / 1000 Ang^3
#
#
#
# Elastic Constant Matrix: (Units=GPa)
#
#
# Indices 1 2 3 4 5 6 
#
# 1 88.4782 30.5973 16.1232 0.0000 0.0000 0.0000
# 2 30.5973 93.2452 8.4528 0.0000 0.0000 0.0000
# 3 16.1232 8.4528 53.1759 0.0000 0.0000 0.0000
# 4 0.0000 0.0000 0.0000 31.6131 0.0000 0.0000
# 5 0.0000 0.0000 0.0000 0.0000 38.6007 0.0000
# 6 0.0000 0.0000 0.0000 0.0000 0.0000 23.4754
#
#
#
# Elastic Compliance Matrix: (Units=1/GPa)
#
#
# Indices 1 2 3 4 5 6 
#
# 1 0.013327 -0.004065 -0.003394 0.000000 0.000000 0.000000
# 2 -0.004065 0.012121 -0.000694 0.000000 0.000000 0.000000
# 3 -0.003394 -0.000694 0.019945 0.000000 0.000000 0.000000
# 4 0.000000 0.000000 0.000000 0.031632 0.000000 0.000000
# 5 0.000000 0.000000 0.000000 0.000000 0.025906 0.000000
# 6 0.000000 0.000000 0.000000 0.000000 0.000000 0.042598
#
#
# Mechanical properties :
#
#
# Convention : Reuss Voigt Hill
#
# Bulk Modulus (GPa) = 34.38183 38.36068 36.37126
# Shear Modulus (GPa) = 29.14902 30.71959 29.93430
#
# Velocity S-wave (km/s) = 3.65935 3.75665 3.70832
# Velocity P-wave (km/s) = 5.80080 6.03649 5.91982
#
# Compressibility (1/GPa) = 0.02908513
#
# Stress axis : x y z
#
# Youngs Moduli (GPa) = 75.03771 82.49935 50.13770
#
# Poissons Ratio (x) = 0.33538 0.17019
# Poissons Ratio (y) = 0.30505 0.03481
# Poissons Ratio (z) = 0.25471 0.05727
#
# Static dielectric constant tensor:
#      x y z
#    x 1.888870 0.000000 0.000000 
#    y 0.000000 1.795850 0.000000 
#    z 0.000000 0.000000 1.812900 
# 
# From -- ./inp_files/5778.got.cif
#   From: 2010.05.17/outbox.cif.g08.bks.cpg/sg54_3_cif.got.tgz:5778.got - 2010.06.03 13:09:01.
