data_PCOD9421104
_publ_section_title
;
Structure prediction by ZEFSAII (Michael W. Deem and Ramdas Pophale) SiO2 
 PCOD9421104
Probable space group: P C C A
;
_chemical_formula_sum "Si O2"
_cell_formula_units_Z 48
_cell_length_a 15.054860
_cell_length_b 6.194793
_cell_length_c 25.264299
_cell_angle_alpha 90.000000
_cell_angle_beta 90.000000
_cell_angle_gamma 90.000000
_cell_volume 2356.192519
_symmetry_space_group_name_H-M "P C C A"
_symmetry_group_IT_number 54
_symmetry_cell_setting 'orthorhombic'
loop_
_space_group_symop_operation_xyz
x,y,z
1/2-x,-y,z
1/2+x,-y,1/2-z
-x,y,1/2-z
-x,-y,-z
1/2+x,y,-z
1/2-x,y,1/2+z
x,-y,1/2+z
loop_
_atom_site_type_symbol
_atom_site_label
_atom_site_fract_x
_atom_site_fract_y
_atom_site_fract_z
Si Si1 0.147217 0.551078 0.676776
Si Si2 0.904132 0.898844 0.615741
Si Si3 0.152199 0.600689 0.794259
Si Si4 0.945998 0.813458 0.030555
Si Si5 0.496053 0.777121 0.808621
Si Si6 0.452649 0.584193 0.072019
O O1 0.250000 0.500000 0.671717
O O2 0.131976 0.671027 0.733287
O O3 0.109293 0.639355 0.621754
O O4 0.090399 0.332579 0.682186
O O5 0.845719 0.783595 0.660535
O O6 0.956287 0.711243 0.584944
O O7 0.877073 0.071724 0.570547
O O8 0.971638 0.039498 0.650733
O O9 0.250000 0.500000 0.792564
O O10 0.077668 0.418508 0.808807
O O11 0.015103 0.661254 0.062777
O O12 0.910589 0.665296 0.982961
O O13 0.000000 0.000000 0.000000
O O14 0.500000 0.870341 0.750000
#
# Coordination Sequence:
#
# PCOD9421104 Si02
#       6
#     8   8   8   8   8   8
#     4  10  20  38  59  87 127 162 200 254 315 371
#     4  11  19  34  63  86 116 156 206 249 307 369
#     4  10  22  37  57  87 127 165 199 254 312 368
#     4   9  19  34  60  88 110 153 207 251 307 364
#     4  10  21  35  57  90 120 157 205 243 306 377
#     4  10  19  35  59  87 118 156 202 257 313 356
#
# _framework density 20.371849000000001
#
# number of rings (size 3 to 8) (size 9 to 14) (size 15 to 20)
#    0.000    2.000    3.333    0.000    2.333    0.667 
#    0.000    0.833    0.000   24.000    0.000    0.000 
#    0.000    0.000    0.000    0.000    0.000    0.000 
#
# Total GULP energy -267228.483104 kJ/mol
# GULP energy per Si atom -5567.260065 kJ/mol
# Density = 2.032548 g / cm^3
# Si number density = 20.371849 Si / 1000 Ang^3
#
#
#
# Elastic Constant Matrix: (Units=GPa)
#
#
# Indices 1 2 3 4 5 6 
#
# 1 68.9362 19.0212 15.0381 0.0000 0.0000 0.0000
# 2 19.0212 67.2216 46.5095 0.0000 0.0000 0.0000
# 3 15.0381 46.5095 159.2982 0.0000 0.0000 0.0000
# 4 0.0000 0.0000 0.0000 41.7346 0.0000 0.0000
# 5 0.0000 0.0000 0.0000 0.0000 22.4846 0.0000
# 6 0.0000 0.0000 0.0000 0.0000 0.0000 11.4092
#
#
#
# Elastic Compliance Matrix: (Units=1/GPa)
#
#
# Indices 1 2 3 4 5 6 
#
# 1 0.015742 -0.004293 -0.000233 0.000000 0.000000 0.000000
# 2 -0.004293 0.019813 -0.005379 0.000000 0.000000 0.000000
# 3 -0.000233 -0.005379 0.007870 0.000000 0.000000 0.000000
# 4 0.000000 0.000000 0.000000 0.023961 0.000000 0.000000
# 5 0.000000 0.000000 0.000000 0.000000 0.044475 0.000000
# 6 0.000000 0.000000 0.000000 0.000000 0.000000 0.087649
#
#
# Mechanical properties :
#
#
# Convention : Reuss Voigt Hill
#
# Bulk Modulus (GPa) = 42.34779 50.73261 46.54020
# Shear Modulus (GPa) = 22.00793 29.45150 25.72971
#
# Velocity S-wave (km/s) = 3.29037 3.80636 3.55773
# Velocity P-wave (km/s) = 5.93868 6.65396 6.30647
#
# Compressibility (1/GPa) = 0.02361398
#
# Stress axis : x y z
#
# Youngs Moduli (GPa) = 63.52623 50.47211 127.06361
#
# Poissons Ratio (x) = 0.21670 0.02954
# Poissons Ratio (y) = 0.27274 0.68352
# Poissons Ratio (z) = 0.01477 0.27151
#
# Static dielectric constant tensor:
#      x y z
#    x 1.684980 0.000000 0.000000 
#    y 0.000000 1.750040 0.000000 
#    z 0.000000 0.000000 1.828980 
# 
# From -- ./inp_files/26466.got.cif
#   From: 2010.05.17/outbox.cif.g08.bks.cpg/sg54_14_cif.got.tgz:26466.got - 2010.06.03 13:09:01.
