data_PCOD9421068
_publ_section_title
;
Structure prediction by ZEFSAII (Michael W. Deem and Ramdas Pophale) SiO2 
 PCOD9421068
Probable space group: P C C A
;
_chemical_formula_sum "Si O2"
_cell_formula_units_Z 56
_cell_length_a 15.950714
_cell_length_b 32.499698
_cell_length_c 5.309335
_cell_angle_alpha 90.000000
_cell_angle_beta 90.000000
_cell_angle_gamma 90.000000
_cell_volume 2752.324158
_symmetry_space_group_name_H-M "P C C A"
_symmetry_group_IT_number 54
_symmetry_cell_setting 'orthorhombic'
loop_
_space_group_symop_operation_xyz
x,y,z
1/2-x,-y,z
1/2+x,-y,1/2-z
-x,y,1/2-z
-x,-y,-z
1/2+x,y,-z
1/2-x,y,1/2+z
x,-y,1/2+z
loop_
_atom_site_type_symbol
_atom_site_label
_atom_site_fract_x
_atom_site_fract_y
_atom_site_fract_z
Si Si1 0.034408 0.453596 0.998335
Si Si2 0.300147 0.578981 0.870334
Si Si3 0.306282 0.755318 0.799656
Si Si4 0.195916 0.670402 0.438381
Si Si5 0.898035 0.109844 0.247374
Si Si6 0.654494 0.017708 0.727042
Si Si7 0.399450 0.159396 0.253809
O O1 0.000000 0.433403 0.250000
O O2 0.133108 0.454014 0.963281
O O3 0.000000 0.432235 0.750000
O O4 0.000000 0.500000 0.000000
O O5 0.273422 0.575769 0.579392
O O6 0.339515 0.624668 0.905153
O O7 0.261899 0.755850 0.526296
O O8 0.352678 0.711849 0.860017
O O9 0.361664 0.795946 0.806002
O O10 0.229321 0.671886 0.726171
O O11 0.852067 0.066509 0.210868
O O12 0.874904 0.129771 0.514976
O O13 0.000000 0.103760 0.250000
O O14 0.875373 0.139891 0.015544
O O15 0.750000 0.000000 0.735130
O O16 0.613478 0.997406 0.484049
O O17 0.500000 0.162321 0.250000
#
# Coordination Sequence:
#
# PCOD9421068 Si02
#       7
#     8   8   8   8   8   8   8
#     4  10  21  38  54  77 117 153 182 241 312 344
#     4  10  19  35  59  84 104 149 203 244 280 351
#     4  10  19  35  54  85 112 143 181 221 273 325
#     4   8  16  30  53  78 111 138 178 234 278 317
#     4  10  21  38  58  77 104 144 179 211 265 322
#     4  10  21  38  53  77 105 133 167 224 271 302
#     4  10  21  38  56  80 113 144 177 217 261 325
#
# _framework density 20.346440999999999
#
# number of rings (size 3 to 8) (size 9 to 14) (size 15 to 20)
#    0.000    2.286    0.000    2.571    0.000    0.571 
#   15.429    9.286    0.000    2.571    0.000    0.000 
#    0.000    0.000    0.000    0.000    0.000    0.000 
#
# Total GULP energy -312030.750617 kJ/mol
# GULP energy per Si atom -5571.977690 kJ/mol
# Density = 2.030013 g / cm^3
# Si number density = 20.346441 Si / 1000 Ang^3
#
#
#
# Elastic Constant Matrix: (Units=GPa)
#
#
# Indices 1 2 3 4 5 6 
#
# 1 20.8465 28.5611 4.4120 0.0000 0.0000 0.0000
# 2 28.5611 111.4991 8.3218 0.0000 0.0000 0.0000
# 3 4.4120 8.3218 154.7747 0.0000 0.0000 0.0000
# 4 0.0000 0.0000 0.0000 136.7975 0.0000 0.0000
# 5 0.0000 0.0000 0.0000 0.0000 11.4761 0.0000
# 6 0.0000 0.0000 0.0000 0.0000 0.0000 -11.8725
#
#
#
# Elastic Compliance Matrix: (Units=1/GPa)
#
#
# Indices 1 2 3 4 5 6 
#
# 1 0.074092 -0.018897 -0.001096 0.000000 0.000000 0.000000
# 2 -0.018897 0.013825 -0.000205 0.000000 0.000000 0.000000
# 3 -0.001096 -0.000205 0.006503 0.000000 0.000000 0.000000
# 4 0.000000 0.000000 0.000000 0.007310 0.000000 0.000000
# 5 0.000000 0.000000 0.000000 0.000000 0.087138 0.000000
# 6 0.000000 0.000000 0.000000 0.000000 0.000000 -0.084229
#
#
# Mechanical properties :
#
#
# Convention : Reuss Voigt Hill
#
# Bulk Modulus (GPa) = 18.51021 41.07891 29.79456
# Shear Modulus (GPa) = 30.66664 43.66859 37.16762
#
# Velocity S-wave (km/s) = 3.88651 4.63779 4.27867
# Velocity P-wave (km/s) = 5.40899 6.99374 6.25178
#
# Compressibility (1/GPa) = 0.05402423
#
# Stress axis : x y z
#
# Youngs Moduli (GPa) = 13.49666 72.33467 153.76930
#
# Poissons Ratio (x) = 1.36694 0.16853
# Poissons Ratio (y) = 0.25505 0.03146
# Poissons Ratio (z) = 0.01479 0.01480
#
# Static dielectric constant tensor:
#      x y z
#    x 1.736350 0.000000 0.000000 
#    y 0.000000 1.758470 0.000000 
#    z 0.000000 0.000000 1.766580 
# 
# From -- ./inp_files/751.got.cif
#   From: 2010.05.17/outbox.cif.g08.bks.cpg/sg54_1_cif.got.tgz:751.got - 2010.06.03 13:09:01.
