data_PCOD9421456
_publ_section_title
;
Structure prediction by ZEFSAII (Michael W. Deem and Ramdas Pophale) SiO2 
 PCOD9421456
Probable space group: P C C A
;
_chemical_formula_sum "Si O2"
_cell_formula_units_Z 52
_cell_length_a 10.822876
_cell_length_b 10.105954
_cell_length_c 24.519205
_cell_angle_alpha 90.000000
_cell_angle_beta 90.000000
_cell_angle_gamma 90.000000
_cell_volume 2681.799988
_symmetry_space_group_name_H-M "P C C A"
_symmetry_group_IT_number 54
_symmetry_cell_setting 'orthorhombic'
loop_
_space_group_symop_operation_xyz
x,y,z
1/2-x,-y,z
1/2+x,-y,1/2-z
-x,y,1/2-z
-x,-y,-z
1/2+x,y,-z
1/2-x,y,1/2+z
x,-y,1/2+z
loop_
_atom_site_type_symbol
_atom_site_label
_atom_site_fract_x
_atom_site_fract_y
_atom_site_fract_z
Si Si1 0.500000 0.926931 0.750000
Si Si2 0.760803 0.652735 0.371830
Si Si3 0.476330 0.677344 0.051164
Si Si4 0.337298 0.894372 0.180426
Si Si5 0.026573 0.620334 0.424945
Si Si6 0.408366 0.889794 0.381751
Si Si7 0.143080 0.173925 0.853184
O O1 0.442523 0.842993 0.799750
O O2 0.614189 0.021306 0.768020
O O3 0.750000 0.500000 0.353681
O O4 0.654953 0.682556 0.417087
O O5 0.737134 0.757117 0.322869
O O6 0.892700 0.662532 0.401184
O O7 0.533703 0.538234 0.071683
O O8 0.567202 0.797338 0.066552
O O9 0.457321 0.669174 0.986707
O O10 0.467775 0.868989 0.152334
O O11 0.250000 0.000000 0.149580
O O12 0.120289 0.690688 0.384413
O O13 0.289477 0.845098 0.347136
O O14 0.394821 0.046827 0.390619
#
# Coordination Sequence:
#
# PCOD9421456 Si02
#       7
#     4   8   8   8   8   8   8
#     4  10  22  36  60  90 112 156 204 242 306 350
#     4   9  18  35  55  82 116 152 196 242 290 352
#     4   9  20  35  58  85 121 155 194 234 300 360
#     4  10  20  35  61  84 109 153 194 244 293 353
#     4  10  20  35  58  89 115 158 196 240 293 360
#     4   9  20  37  54  87 117 152 187 246 295 351
#     4  10  21  37  57  85 120 151 199 248 288 352
#
# _framework density 19.389963000000002
#
# number of rings (size 3 to 8) (size 9 to 14) (size 15 to 20)
#    0.000    2.462    0.000    1.846    6.462    1.231 
#    0.000    0.000    0.000   23.077    4.000    0.000 
#    0.000    0.000    0.000    0.000    0.000    0.000 
#
# Total GULP energy -289505.535073 kJ/mol
# GULP energy per Si atom -5567.414136 kJ/mol
# Density = 1.934583 g / cm^3
# Si number density = 19.389963 Si / 1000 Ang^3
#
#
#
# Elastic Constant Matrix: (Units=GPa)
#
#
# Indices 1 2 3 4 5 6 
#
# 1 79.4066 22.2894 6.8630 0.0000 0.0000 0.0000
# 2 22.2894 50.3410 23.1099 0.0000 0.0000 0.0000
# 3 6.8630 23.1099 47.0567 0.0000 0.0000 0.0000
# 4 0.0000 0.0000 0.0000 27.1364 0.0000 0.0000
# 5 0.0000 0.0000 0.0000 0.0000 12.5142 0.0000
# 6 0.0000 0.0000 0.0000 0.0000 0.0000 22.9353
#
#
#
# Elastic Compliance Matrix: (Units=1/GPa)
#
#
# Indices 1 2 3 4 5 6 
#
# 1 0.014445 -0.007009 0.001335 0.000000 0.000000 0.000000
# 2 -0.007009 0.029047 -0.013243 0.000000 0.000000 0.000000
# 3 0.001335 -0.013243 0.027560 0.000000 0.000000 0.000000
# 4 0.000000 0.000000 0.000000 0.036851 0.000000 0.000000
# 5 0.000000 0.000000 0.000000 0.000000 0.079909 0.000000
# 6 0.000000 0.000000 0.000000 0.000000 0.000000 0.043601
#
#
# Mechanical properties :
#
#
# Convention : Reuss Voigt Hill
#
# Bulk Modulus (GPa) = 30.10304 31.25878 30.68091
# Shear Modulus (GPa) = 17.83673 20.81998 19.32835
#
# Velocity S-wave (km/s) = 3.03627 3.28037 3.16067
# Velocity P-wave (km/s) = 5.27737 5.52303 5.40160
#
# Compressibility (1/GPa) = 0.03321924
#
# Stress axis : x y z
#
# Youngs Moduli (GPa) = 69.22611 34.42651 36.28442
#
# Poissons Ratio (x) = 0.24130 -0.04845
# Poissons Ratio (y) = 0.48521 0.48052
# Poissons Ratio (z) = -0.09244 0.45592
#
# Static dielectric constant tensor:
#      x y z
#    x 1.716350 0.000000 0.000000 
#    y 0.000000 1.703920 0.000000 
#    z 0.000000 0.000000 1.703160 
# 
# From -- ./inp_files/26243.got.cif
#   From: 2010.05.17/outbox.cif.g08.bks.cpg/sg54_14_cif.got.tgz:26243.got - 2010.06.03 13:09:01.
