data_PCOD9421728
_publ_section_title
;
Structure prediction by ZEFSAII (Michael W. Deem and Ramdas Pophale) SiO2 
 PCOD9421728
Probable space group: P C C A
;
_chemical_formula_sum "Si O2"
_cell_formula_units_Z 40
_cell_length_a 5.436395
_cell_length_b 12.100474
_cell_length_c 24.740681
_cell_angle_alpha 90.000000
_cell_angle_beta 90.000000
_cell_angle_gamma 90.000000
_cell_volume 1627.515138
_symmetry_space_group_name_H-M "P C C A"
_symmetry_group_IT_number 54
_symmetry_cell_setting 'orthorhombic'
loop_
_space_group_symop_operation_xyz
x,y,z
1/2-x,-y,z
1/2+x,-y,1/2-z
-x,y,1/2-z
-x,-y,-z
1/2+x,y,-z
1/2-x,y,1/2+z
x,-y,1/2+z
loop_
_atom_site_type_symbol
_atom_site_label
_atom_site_fract_x
_atom_site_fract_y
_atom_site_fract_z
Si Si1 0.519500 0.666190 0.809705
Si Si2 0.452954 0.818219 0.528588
Si Si3 0.710215 0.622601 0.575357
Si Si4 0.182440 0.124309 0.296982
Si Si5 0.378669 0.776548 0.118879
O O1 0.500000 0.612330 0.750000
O O2 0.385026 0.614400 0.862025
O O3 0.396855 0.786757 0.801787
O O4 0.786502 0.692756 0.834404
O O5 0.719191 0.856932 0.507450
O O6 0.511970 0.687050 0.538617
O O7 0.345978 0.836682 0.588719
O O8 0.750000 0.500000 0.555423
O O9 0.950561 0.701830 0.579992
O O10 0.000000 0.162015 0.250000
O O11 0.042729 0.131325 0.353563
O O12 0.250000 0.000000 0.284371
#
# Coordination Sequence:
#
# PCOD9421728 Si02
#       5
#     8   8   8   8   8
#     4  10  20  38  58  86 128 174 208 259 319 390
#     4  11  22  42  68  94 125 173 221 279 339 383
#     4  10  23  40  59  93 129 168 219 273 324 388
#     4  11  22  36  63  97 131 166 210 262 326 393
#     4  10  22  41  62  91 133 168 213 267 323 391
#
# _framework density 24.577342999999999
#
# number of rings (size 3 to 8) (size 9 to 14) (size 15 to 20)
#    0.000    1.600    4.000    0.600    0.000    4.000 
#    3.600    0.000    0.000    1.200    0.000    0.000 
#    0.000    0.000    0.000    0.000    0.000    0.000 
#
# Total GULP energy -223042.468999 kJ/mol
# GULP energy per Si atom -5576.061725 kJ/mol
# Density = 2.452140 g / cm^3
# Si number density = 24.577343 Si / 1000 Ang^3
#
#
#
# Elastic Constant Matrix: (Units=GPa)
#
#
# Indices 1 2 3 4 5 6 
#
# 1 130.7023 7.4499 41.8151 0.0000 0.0000 0.0000
# 2 7.4499 30.2288 -8.3569 0.0000 0.0000 0.0000
# 3 41.8151 -8.3569 122.1779 0.0000 0.0000 0.0000
# 4 0.0000 0.0000 0.0000 -2.2544 0.0000 0.0000
# 5 0.0000 0.0000 0.0000 0.0000 56.9863 0.0000
# 6 0.0000 0.0000 0.0000 0.0000 0.0000 3.3246
#
#
#
# Elastic Compliance Matrix: (Units=1/GPa)
#
#
# Indices 1 2 3 4 5 6 
#
# 1 0.008865 -0.003082 -0.003245 0.000000 0.000000 0.000000
# 2 -0.003082 0.034790 0.003434 0.000000 0.000000 0.000000
# 3 -0.003245 0.003434 0.009530 0.000000 0.000000 0.000000
# 4 0.000000 0.000000 0.000000 -0.443584 0.000000 0.000000
# 5 0.000000 0.000000 0.000000 0.000000 0.017548 0.000000
# 6 0.000000 0.000000 0.000000 0.000000 0.000000 0.300791
#
#
# Mechanical properties :
#
#
# Convention : Reuss Voigt Hill
#
# Bulk Modulus (GPa) = 21.09676 40.54723 30.82200
# Shear Modulus (GPa) = -99.05796 27.75803 -35.64996
#
# Velocity S-wave (km/s) = -6.35548 3.36432 -3.81270
# Velocity P-wave (km/s) = 6.72708 5.62363 2.61041
#
# Compressibility (1/GPa) = 0.04740065
#
# Stress axis : x y z
#
# Youngs Moduli (GPa) = 112.80706 28.74393 104.92973
#
# Poissons Ratio (x) = 0.08858 0.34047
# Poissons Ratio (y) = 0.34764 -0.36036
# Poissons Ratio (z) = 0.36603 -0.09872
#
# Static dielectric constant tensor:
#      x y z
#    x 2.057970 0.000000 0.000000 
#    y 0.000000 1.877210 0.000000 
#    z 0.000000 0.000000 2.034040 
# 
# From -- ./inp_files/25145.got.cif
#   From: 2010.05.17/outbox.cif.g08.bks.cpg/sg54_13_cif.got.tgz:25145.got - 2010.06.03 13:09:01.
