data_PCOD9421809
_publ_section_title
;
Structure prediction by ZEFSAII (Michael W. Deem and Ramdas Pophale) SiO2 
 PCOD9421809
Probable space group: P C C A
;
_chemical_formula_sum "Si O2"
_cell_formula_units_Z 28
_cell_length_a 14.313517
_cell_length_b 8.864453
_cell_length_c 8.106502
_cell_angle_alpha 90.000000
_cell_angle_beta 90.000000
_cell_angle_gamma 90.000000
_cell_volume 1028.565123
_symmetry_space_group_name_H-M "P C C A"
_symmetry_group_IT_number 54
_symmetry_cell_setting 'orthorhombic'
loop_
_space_group_symop_operation_xyz
x,y,z
1/2-x,-y,z
1/2+x,-y,1/2-z
-x,y,1/2-z
-x,-y,-z
1/2+x,y,-z
1/2-x,y,1/2+z
x,-y,1/2+z
loop_
_atom_site_type_symbol
_atom_site_label
_atom_site_fract_x
_atom_site_fract_y
_atom_site_fract_z
Si Si1 0.750000 0.000000 0.468088
Si Si2 0.054494 0.138762 0.582912
Si Si3 0.623946 0.610110 0.143817
Si Si4 0.673754 0.313048 0.018980
O O1 0.837847 0.912742 0.387015
O O2 0.690605 0.864295 0.550653
O O3 0.055227 0.278151 0.453261
O O4 0.000000 0.171567 0.750000
O O5 0.000000 0.000000 0.500000
O O6 0.612981 0.429352 0.129977
O O7 0.719778 0.635708 0.045704
O O8 0.641398 0.661587 0.330665
#
# Coordination Sequence:
#
# PCOD9421809 Si02
#       4
#     4   8   8   8
#     4  10  24  44  72 100 142 192 236 302 370 440
#     4  11  25  44  67 102 141 188 249 306 370 445
#     4  10  21  38  65  99 140 181 235 297 356 443
#     4  10  20  38  65  98 132 184 234 287 362 432
#
# _framework density 27.222390000000001
#
# number of rings (size 3 to 8) (size 9 to 14) (size 15 to 20)
#    0.000    1.714    0.000    5.143    0.000   17.143 
#    0.000    7.143    0.000    1.714    0.000    0.000 
#    0.000    0.000    0.000    0.000    0.000    0.000 
#
# Total GULP energy -156359.192980 kJ/mol
# GULP energy per Si atom -5584.256892 kJ/mol
# Density = 2.716043 g / cm^3
# Si number density = 27.222390 Si / 1000 Ang^3
#
#
#
# Elastic Constant Matrix: (Units=GPa)
#
#
# Indices 1 2 3 4 5 6 
#
# 1 173.9291 52.3570 69.6623 0.0000 0.0000 0.0000
# 2 52.3570 236.8857 72.3196 0.0000 0.0000 0.0000
# 3 69.6623 72.3196 162.1737 0.0000 0.0000 0.0000
# 4 0.0000 0.0000 0.0000 8.6954 0.0000 0.0000
# 5 0.0000 0.0000 0.0000 0.0000 -8.9818 0.0000
# 6 0.0000 0.0000 0.0000 0.0000 0.0000 66.1657
#
#
#
# Elastic Compliance Matrix: (Units=1/GPa)
#
#
# Indices 1 2 3 4 5 6 
#
# 1 0.007053 -0.000734 -0.002702 0.000000 0.000000 0.000000
# 2 -0.000734 0.004963 -0.001898 0.000000 0.000000 0.000000
# 3 -0.002702 -0.001898 0.008173 0.000000 0.000000 0.000000
# 4 0.000000 0.000000 0.000000 0.115003 0.000000 0.000000
# 5 0.000000 0.000000 0.000000 0.000000 -0.111336 0.000000
# 6 0.000000 0.000000 0.000000 0.000000 0.000000 0.015114
#
#
# Mechanical properties :
#
#
# Convention : Reuss Voigt Hill
#
# Bulk Modulus (GPa) = 105.03145 106.85181 105.94163
# Shear Modulus (GPa) = 94.67726 38.41918 66.54822
#
# Velocity S-wave (km/s) = 5.90379 3.76081 4.94967
# Velocity P-wave (km/s) = 9.22710 7.62856 8.46565
#
# Compressibility (1/GPa) = 0.00952096
#
# Stress axis : x y z
#
# Youngs Moduli (GPa) = 141.79006 201.48753 122.34813
#
# Poissons Ratio (x) = 0.14785 0.33062
# Poissons Ratio (y) = 0.10405 0.23222
# Poissons Ratio (z) = 0.38315 0.38243
#
# Static dielectric constant tensor:
#      x y z
#    x 2.294060 0.000000 0.000000 
#    y 0.000000 1.689790 0.000000 
#    z 0.000000 0.000000 2.076880 
# 
# From -- ./inp_files/3875.got.cif
#   From: 2010.05.17/outbox.cif.g08.bks.cpg/sg54_2_cif.got.tgz:3875.got - 2010.06.03 13:09:01.
