data_PCOD9421908
_publ_section_title
;
Structure prediction by ZEFSAII (Michael W. Deem and Ramdas Pophale) SiO2 
 PCOD9421908
Probable space group: P C C A
;
_chemical_formula_sum "Si O2"
_cell_formula_units_Z 56
_cell_length_a 14.550887
_cell_length_b 12.276047
_cell_length_c 14.243114
_cell_angle_alpha 90.000000
_cell_angle_beta 90.000000
_cell_angle_gamma 90.000000
_cell_volume 2544.210033
_symmetry_space_group_name_H-M "P C C A"
_symmetry_group_IT_number 54
_symmetry_cell_setting 'orthorhombic'
loop_
_space_group_symop_operation_xyz
x,y,z
1/2-x,-y,z
1/2+x,-y,1/2-z
-x,y,1/2-z
-x,-y,-z
1/2+x,y,-z
1/2-x,y,1/2+z
x,-y,1/2+z
loop_
_atom_site_type_symbol
_atom_site_label
_atom_site_fract_x
_atom_site_fract_y
_atom_site_fract_z
Si Si1 0.605262 0.739508 0.777035
Si Si2 0.000000 0.045841 0.250000
Si Si3 0.650339 0.942427 0.888309
Si Si4 0.250000 0.500000 0.967196
Si Si5 0.603568 0.139547 0.575005
Si Si6 0.458039 0.676556 0.029458
Si Si7 0.921330 0.535972 0.393365
Si Si8 0.208577 0.266659 0.912347
O O1 0.500000 0.764613 0.750000
O O2 0.648283 0.813799 0.859656
O O3 0.607403 0.612441 0.807520
O O4 0.659540 0.765042 0.683096
O O5 0.933207 0.105612 0.176244
O O6 0.926657 0.986938 0.317513
O O7 0.750000 0.000000 0.878392
O O8 0.612893 0.952377 0.994736
O O9 0.236135 0.393128 0.906256
O O10 0.336492 0.473599 0.034176
O O11 0.532112 0.231298 0.543315
O O12 0.704076 0.191785 0.576098
O O13 0.449635 0.590698 0.115296
O O14 0.495365 0.602136 0.942934
O O15 0.362751 0.731861 0.999131
#
# Coordination Sequence:
#
# PCOD9421908 Si02
#       8
#     8   4   8   4   8   8   8   8
#     4  12  22  42  69 104 143 189 244 303 364 440
#     4  12  30  52  72 112 146 182 254 320 372 458
#     4  12  27  49  78 106 143 195 249 310 385 441
#     4  10  20  40  58  96 144 190 240 282 348 440
#     4  12  26  51  74 106 148 193 241 311 385 442
#     4  10  21  42  72 100 145 192 235 288 368 448
#     4  10  20  40  65 101 139 194 237 288 362 447
#     4  11  23  39  72 102 143 189 243 289 355 443
#
# _framework density 22.010762
#
# number of rings (size 3 to 8) (size 9 to 14) (size 15 to 20)
#    0.000    0.857    5.000    1.286    2.000    2.286 
#    9.000    0.000    0.000    0.000    0.000    0.000 
#    0.000    0.000    0.000    0.000    0.000    0.000 
#
# Total GULP energy -312844.806099 kJ/mol
# GULP energy per Si atom -5586.514395 kJ/mol
# Density = 2.196066 g / cm^3
# Si number density = 22.010762 Si / 1000 Ang^3
#
#
#
# Elastic Constant Matrix: (Units=GPa)
#
#
# Indices 1 2 3 4 5 6 
#
# 1 151.2771 51.9748 50.3434 0.0000 0.0000 0.0000
# 2 51.9748 57.1613 42.6502 0.0000 0.0000 0.0000
# 3 50.3434 42.6502 93.3910 0.0000 0.0000 0.0000
# 4 0.0000 0.0000 0.0000 47.0132 0.0000 0.0000
# 5 0.0000 0.0000 0.0000 0.0000 35.9179 0.0000
# 6 0.0000 0.0000 0.0000 0.0000 0.0000 22.0210
#
#
#
# Elastic Compliance Matrix: (Units=1/GPa)
#
#
# Indices 1 2 3 4 5 6 
#
# 1 0.009819 -0.007552 -0.001844 0.000000 0.000000 0.000000
# 2 -0.007552 0.032345 -0.010701 0.000000 0.000000 0.000000
# 3 -0.001844 -0.010701 0.016589 0.000000 0.000000 0.000000
# 4 0.000000 0.000000 0.000000 0.021271 0.000000 0.000000
# 5 0.000000 0.000000 0.000000 0.000000 0.027841 0.000000
# 6 0.000000 0.000000 0.000000 0.000000 0.000000 0.045411
#
#
# Mechanical properties :
#
#
# Convention : Reuss Voigt Hill
#
# Bulk Modulus (GPa) = 53.88134 65.75179 59.81656
# Shear Modulus (GPa) = 25.04321 31.44782 28.24551
#
# Velocity S-wave (km/s) = 3.37675 3.78398 3.58615
# Velocity P-wave (km/s) = 6.30364 7.00205 6.66201
#
# Compressibility (1/GPa) = 0.01855930
#
# Stress axis : x y z
#
# Youngs Moduli (GPa) = 101.84655 30.91653 60.28269
#
# Poissons Ratio (x) = 0.23348 0.11116
# Poissons Ratio (y) = 0.76913 0.64506
# Poissons Ratio (z) = 0.18781 0.33083
#
# Static dielectric constant tensor:
#      x y z
#    x 1.584630 0.000000 0.000000 
#    y 0.000000 1.649030 0.000000 
#    z 0.000000 0.000000 1.810490 
# 
# From -- ./inp_files/13540.got.cif
#   From: 2010.05.17/outbox.cif.g08.bks.cpg/sg54_7_cif.got.tgz:13540.got - 2010.06.03 13:09:01.
