data_PCOD9421135
_publ_section_title
;
Structure prediction by ZEFSAII (Michael W. Deem and Ramdas Pophale) SiO2 
 PCOD9421135
Probable space group: P C C A
;
_chemical_formula_sum "Si O2"
_cell_formula_units_Z 64
_cell_length_a 25.326689
_cell_length_b 5.156675
_cell_length_c 23.729062
_cell_angle_alpha 90.000000
_cell_angle_beta 90.000000
_cell_angle_gamma 90.000000
_cell_volume 3099.051186
_symmetry_space_group_name_H-M "P C C A"
_symmetry_group_IT_number 54
_symmetry_cell_setting 'orthorhombic'
loop_
_space_group_symop_operation_xyz
x,y,z
1/2-x,-y,z
1/2+x,-y,1/2-z
-x,y,1/2-z
-x,-y,-z
1/2+x,y,-z
1/2-x,y,1/2+z
x,-y,1/2+z
loop_
_atom_site_type_symbol
_atom_site_label
_atom_site_fract_x
_atom_site_fract_y
_atom_site_fract_z
Si Si1 0.093772 0.407919 0.333811
Si Si2 0.940999 0.085356 0.731321
Si Si3 0.214971 0.240683 0.581673
Si Si4 0.837497 0.129148 0.799375
Si Si5 0.604699 0.424272 0.443272
Si Si6 0.436860 0.921817 0.059833
Si Si7 0.194964 0.629459 0.766212
Si Si8 0.056739 0.760524 0.954007
O O1 0.077589 0.695767 0.313783
O O2 0.154599 0.365348 0.317694
O O3 0.084540 0.333581 0.398168
O O4 0.061691 0.196760 0.297299
O O5 0.898520 0.080194 0.782391
O O6 0.000000 0.145279 0.750000
O O7 0.250000 0.500000 0.591791
O O8 0.187074 0.133676 0.638517
O O9 0.164079 0.333375 0.545547
O O10 0.250000 0.000000 0.559358
O O11 0.827761 0.421480 0.778100
O O12 0.806568 0.909767 0.763212
O O13 0.601263 0.703600 0.415671
O O14 0.567895 0.458122 0.498780
O O15 0.574196 0.197008 0.410507
O O16 0.497094 0.833248 0.061943
O O17 0.423609 0.004240 0.994598
O O18 0.250000 0.500000 0.782717
#
# Coordination Sequence:
#
# PCOD9421135 Si02
#       8
#     8   8   8   8   8   8   8   8
#     4  10  22  34  59  83 112 154 189 232 287 351
#     4  10  22  39  54  87 123 152 186 235 301 350
#     4  12  24  38  58  86 114 157 202 239 297 352
#     4  10  21  36  58  81 110 150 192 237 281 345
#     4  10  21  38  56  84 117 144 192 246 282 339
#     4   9  20  35  60  83 114 148 192 233 287 335
#     4  10  19  36  56  79 108 140 189 242 282 326
#     4   9  21  36  61  85 118 147 196 237 288 348
#
# _framework density 20.651481
#
# number of rings (size 3 to 8) (size 9 to 14) (size 15 to 20)
#    0.750    1.250    0.000    3.750    1.750    2.000 
#    0.000    0.625    0.000    3.000    0.000    0.000 
#    0.000    0.000    0.000    0.000    0.000    0.000 
#
# Total GULP energy -356354.232909 kJ/mol
# GULP energy per Si atom -5568.034889 kJ/mol
# Density = 2.060448 g / cm^3
# Si number density = 20.651481 Si / 1000 Ang^3
#
#
#
# Elastic Constant Matrix: (Units=GPa)
#
#
# Indices 1 2 3 4 5 6 
#
# 1 103.1213 22.5329 11.3225 0.0000 0.0000 0.0000
# 2 22.5329 113.9535 1.0542 0.0000 0.0000 0.0000
# 3 11.3225 1.0542 33.3525 0.0000 0.0000 0.0000
# 4 0.0000 0.0000 0.0000 13.5692 0.0000 0.0000
# 5 0.0000 0.0000 0.0000 0.0000 17.5150 0.0000
# 6 0.0000 0.0000 0.0000 0.0000 0.0000 28.1482
#
#
#
# Elastic Compliance Matrix: (Units=1/GPa)
#
#
# Indices 1 2 3 4 5 6 
#
# 1 0.010531 -0.002050 -0.003510 0.000000 0.000000 0.000000
# 2 -0.002050 0.009177 0.000406 0.000000 0.000000 0.000000
# 3 -0.003510 0.000406 0.031162 0.000000 0.000000 0.000000
# 4 0.000000 0.000000 0.000000 0.073696 0.000000 0.000000
# 5 0.000000 0.000000 0.000000 0.000000 0.057094 0.000000
# 6 0.000000 0.000000 0.000000 0.000000 0.000000 0.035526
#
#
# Mechanical properties :
#
#
# Convention : Reuss Voigt Hill
#
# Bulk Modulus (GPa) = 24.65423 35.58293 30.11858
# Shear Modulus (GPa) = 20.74566 26.21434 23.48000
#
# Velocity S-wave (km/s) = 3.17292 3.56668 3.37555
# Velocity P-wave (km/s) = 5.03859 5.85058 5.45970
#
# Compressibility (1/GPa) = 0.04056099
#
# Stress axis : x y z
#
# Youngs Moduli (GPa) = 94.96110 108.96703 32.09080
#
# Poissons Ratio (x) = 0.22336 0.11264
# Poissons Ratio (y) = 0.19465 -0.01302
# Poissons Ratio (z) = 0.33333 -0.04422
#
# Static dielectric constant tensor:
#      x y z
#    x 1.765450 0.000000 0.000000 
#    y 0.000000 1.827380 0.000000 
#    z 0.000000 0.000000 1.756540 
# 
# From -- ./inp_files/24845.got.cif
#   From: 2010.05.17/outbox.cif.g08.bks.cpg/sg54_13_cif.got.tgz:24845.got - 2010.06.03 13:09:01.
