data_PCOD9421499
_publ_section_title
;
Structure prediction by ZEFSAII (Michael W. Deem and Ramdas Pophale) SiO2 
 PCOD9421499
Probable space group: P C C A
;
_chemical_formula_sum "Si O2"
_cell_formula_units_Z 48
_cell_length_a 11.226623
_cell_length_b 9.155618
_cell_length_c 24.095852
_cell_angle_alpha 90.000000
_cell_angle_beta 90.000000
_cell_angle_gamma 90.000000
_cell_volume 2476.732427
_symmetry_space_group_name_H-M "P C C A"
_symmetry_group_IT_number 54
_symmetry_cell_setting 'orthorhombic'
loop_
_space_group_symop_operation_xyz
x,y,z
1/2-x,-y,z
1/2+x,-y,1/2-z
-x,y,1/2-z
-x,-y,-z
1/2+x,y,-z
1/2-x,y,1/2+z
x,-y,1/2+z
loop_
_atom_site_type_symbol
_atom_site_label
_atom_site_fract_x
_atom_site_fract_y
_atom_site_fract_z
Si Si1 0.313652 0.136934 0.352061
Si Si2 0.516015 0.618123 0.686230
Si Si3 0.905611 0.637224 0.954314
Si Si4 0.850016 0.395305 0.106068
Si Si5 0.342801 0.328705 0.089173
Si Si6 0.535993 0.872406 0.541515
O O1 0.412513 0.228895 0.318806
O O2 0.215662 0.255413 0.369848
O O3 0.378202 0.081917 0.408375
O O4 0.250000 0.000000 0.323791
O O5 0.500000 0.580442 0.750000
O O6 0.594520 0.497383 0.654236
O O7 0.395618 0.630791 0.649491
O O8 0.797967 0.692070 0.914958
O O9 0.879972 0.463041 0.952101
O O10 0.038660 0.652027 0.930914
O O11 0.902369 0.736223 0.009157
O O12 0.750000 0.500000 0.078131
O O13 0.415718 0.190633 0.068262
O O14 0.500000 0.000000 0.500000
#
# Coordination Sequence:
#
# PCOD9421499 Si02
#       6
#     8   8   8   8   8   8
#     4  10  21  38  59  87 119 154 200 241 283 368
#     4   9  19  41  66  83 117 151 196 255 309 347
#     4  10  20  36  56  82 121 152 193 244 293 343
#     4   9  19  37  58  88 112 151 198 245 300 359
#     4   9  21  38  54  88 114 152 201 243 293 352
#     4  11  23  35  57  83 119 168 194 231 288 355
#
# _framework density 19.380374
#
# number of rings (size 3 to 8) (size 9 to 14) (size 15 to 20)
#    0.000    2.333    0.000    2.500    4.667    0.000 
#   24.000    0.833    7.333    0.000    0.000    0.000 
#    0.000    0.000    0.000    0.000    0.000    0.000 
#
# Total GULP energy -267796.084574 kJ/mol
# GULP energy per Si atom -5579.085095 kJ/mol
# Density = 1.933626 g / cm^3
# Si number density = 19.380374 Si / 1000 Ang^3
#
#
#
# Elastic Constant Matrix: (Units=GPa)
#
#
# Indices 1 2 3 4 5 6 
#
# 1 114.0243 2.6360 17.0654 0.0000 0.0000 0.0000
# 2 2.6360 50.5253 3.5225 0.0000 0.0000 0.0000
# 3 17.0654 3.5225 78.2494 0.0000 0.0000 0.0000
# 4 0.0000 0.0000 0.0000 16.7629 0.0000 0.0000
# 5 0.0000 0.0000 0.0000 0.0000 11.3174 0.0000
# 6 0.0000 0.0000 0.0000 0.0000 0.0000 22.9801
#
#
#
# Elastic Compliance Matrix: (Units=1/GPa)
#
#
# Indices 1 2 3 4 5 6 
#
# 1 0.009072 -0.000336 -0.001963 0.000000 0.000000 0.000000
# 2 -0.000336 0.019867 -0.000821 0.000000 0.000000 0.000000
# 3 -0.001963 -0.000821 0.013245 0.000000 0.000000 0.000000
# 4 0.000000 0.000000 0.000000 0.059656 0.000000 0.000000
# 5 0.000000 0.000000 0.000000 0.000000 0.088360 0.000000
# 6 0.000000 0.000000 0.000000 0.000000 0.000000 0.043516
#
#
# Mechanical properties :
#
#
# Convention : Reuss Voigt Hill
#
# Bulk Modulus (GPa) = 27.82265 32.13855 29.98060
# Shear Modulus (GPa) = 19.84625 24.85040 22.34833
#
# Velocity S-wave (km/s) = 3.20353 3.58473 3.39948
# Velocity P-wave (km/s) = 5.29818 5.80971 5.55983
#
# Compressibility (1/GPa) = 0.03594194
#
# Stress axis : x y z
#
# Youngs Moduli (GPa) = 110.23321 50.33512 75.50137
#
# Poissons Ratio (x) = 0.01693 0.14823
# Poissons Ratio (y) = 0.03708 0.06198
# Poissons Ratio (z) = 0.21642 0.04132
#
# Static dielectric constant tensor:
#      x y z
#    x 1.704700 0.000000 0.000000 
#    y 0.000000 1.692660 0.000000 
#    z 0.000000 0.000000 1.662400 
# 
# From -- ./inp_files/24032.got.cif
#   From: 2010.05.17/outbox.cif.g08.bks.cpg/sg54_13_cif.got.tgz:24032.got - 2010.06.03 13:09:01.
