data_PCOD9421025
_publ_section_title
;
Structure prediction by ZEFSAII (Michael W. Deem and Ramdas Pophale) SiO2 
 PCOD9421025
Probable space group: P C C A
;
_chemical_formula_sum "Si O2"
_cell_formula_units_Z 40
_cell_length_a 25.135312
_cell_length_b 7.919290
_cell_length_c 7.899883
_cell_angle_alpha 90.000000
_cell_angle_beta 90.000000
_cell_angle_gamma 90.000000
_cell_volume 1572.501928
_symmetry_space_group_name_H-M "P C C A"
_symmetry_group_IT_number 54
_symmetry_cell_setting 'orthorhombic'
loop_
_space_group_symop_operation_xyz
x,y,z
1/2-x,-y,z
1/2+x,-y,1/2-z
-x,y,1/2-z
-x,-y,-z
1/2+x,y,-z
1/2-x,y,1/2+z
x,-y,1/2+z
loop_
_atom_site_type_symbol
_atom_site_label
_atom_site_fract_x
_atom_site_fract_y
_atom_site_fract_z
Si Si1 0.714277 0.235745 0.106043
Si Si2 0.615616 0.389807 0.221744
Si Si3 0.517595 0.690247 0.555972
Si Si4 0.183092 0.880422 0.764987
Si Si5 0.416841 0.743116 0.408603
O O1 0.694375 0.191214 0.919631
O O2 0.677734 0.385173 0.176270
O O3 0.777982 0.232286 0.115265
O O4 0.699556 0.074841 0.222171
O O5 0.580825 0.293116 0.076515
O O6 0.604725 0.312340 0.405696
O O7 0.591265 0.577182 0.208195
O O8 0.500000 0.713187 0.750000
O O9 0.500000 0.500000 0.500000
O O10 0.478010 0.795702 0.437031
O O11 0.122900 0.874770 0.827607
#
# Coordination Sequence:
#
# PCOD9421025 Si02
#       5
#     8   8   8   8   8
#     4  11  22  38  57  78 104 139 176 217 265 317
#     4  10  19  34  55  82 110 140 176 217 260 309
#     4   8  16  30  51  76 107 140 172 210 258 308
#     4  11  22  38  57  78 104 139 176 217 265 317
#     4  10  19  34  55  82 110 140 176 217 260 309
#
# _framework density 25.437169999999998
#
# number of rings (size 3 to 8) (size 9 to 14) (size 15 to 20)
#    0.000    2.000    0.000    6.000    0.000    2.400 
#    0.000    5.000    0.000    0.000    0.000    0.000 
#    0.000    0.000    0.000    0.000    0.000    0.000 
#
# Total GULP energy -223491.572046 kJ/mol
# GULP energy per Si atom -5587.289301 kJ/mol
# Density = 2.537927 g / cm^3
# Si number density = 25.437170 Si / 1000 Ang^3
#
#
#
# Elastic Constant Matrix: (Units=GPa)
#
#
# Indices 1 2 3 4 5 6 
#
# 1 64.3198 6.1375 3.4439 0.0000 0.0000 0.0000
# 2 6.1375 28.3252 0.1801 0.0000 0.0000 0.0000
# 3 3.4439 0.1801 129.7388 0.0000 0.0000 0.0000
# 4 0.0000 0.0000 0.0000 15.5268 0.0000 0.0000
# 5 0.0000 0.0000 0.0000 0.0000 33.8204 0.0000
# 6 0.0000 0.0000 0.0000 0.0000 0.0000 26.5328
#
#
#
# Elastic Compliance Matrix: (Units=1/GPa)
#
#
# Indices 1 2 3 4 5 6 
#
# 1 0.015898 -0.003442 -0.000417 0.000000 0.000000 0.000000
# 2 -0.003442 0.036050 0.000041 0.000000 0.000000 0.000000
# 3 -0.000417 0.000041 0.007719 0.000000 0.000000 0.000000
# 4 0.000000 0.000000 0.000000 0.064405 0.000000 0.000000
# 5 0.000000 0.000000 0.000000 0.000000 0.029568 0.000000
# 6 0.000000 0.000000 0.000000 0.000000 0.000000 0.037689
#
#
# Mechanical properties :
#
#
# Convention : Reuss Voigt Hill
#
# Bulk Modulus (GPa) = 19.21945 26.87855 23.04900
# Shear Modulus (GPa) = 23.11513 29.35080 26.23296
#
# Velocity S-wave (km/s) = 3.01776 3.40053 3.21485
# Velocity P-wave (km/s) = 4.44011 5.09978 4.78133
#
# Compressibility (1/GPa) = 0.05203061
#
# Stress axis : x y z
#
# Youngs Moduli (GPa) = 62.90059 27.73935 129.55356
#
# Poissons Ratio (x) = 0.09548 0.05405
# Poissons Ratio (y) = 0.21651 -0.00535
# Poissons Ratio (z) = 0.02624 -0.00115
#
# Static dielectric constant tensor:
#      x y z
#    x 2.135720 0.000000 0.000000 
#    y 0.000000 2.031900 0.000000 
#    z 0.000000 0.000000 1.970920 
# 
# From -- ./inp_files/5435.got.cif
#   From: 2010.05.17/outbox.cif.g08.bks.cpg/sg54_3_cif.got.tgz:5435.got - 2010.06.03 13:09:01.
