data_PCOD9421253
_publ_section_title
;
Structure prediction by ZEFSAII (Michael W. Deem and Ramdas Pophale) SiO2 
 PCOD9421253
Probable space group: P C C A
;
_chemical_formula_sum "Si O2"
_cell_formula_units_Z 64
_cell_length_a 30.733776
_cell_length_b 5.333343
_cell_length_c 17.328447
_cell_angle_alpha 90.000000
_cell_angle_beta 90.000000
_cell_angle_gamma 90.000000
_cell_volume 2840.371060
_symmetry_space_group_name_H-M "P C C A"
_symmetry_group_IT_number 54
_symmetry_cell_setting 'orthorhombic'
loop_
_space_group_symop_operation_xyz
x,y,z
1/2-x,-y,z
1/2+x,-y,1/2-z
-x,y,1/2-z
-x,-y,-z
1/2+x,y,-z
1/2-x,y,1/2+z
x,-y,1/2+z
loop_
_atom_site_type_symbol
_atom_site_label
_atom_site_fract_x
_atom_site_fract_y
_atom_site_fract_z
Si Si1 0.455606 0.795411 0.529623
Si Si2 0.604107 0.189014 0.009670
Si Si3 0.134294 0.943632 0.842535
Si Si4 0.277732 0.255835 0.064742
Si Si5 0.464588 0.465331 0.390485
Si Si6 0.130613 0.556126 0.102529
Si Si7 0.902850 0.545068 0.225978
Si Si8 0.223649 0.745258 0.880579
O O1 0.468378 0.722039 0.441101
O O2 0.494374 0.699128 0.582859
O O3 0.410949 0.667677 0.557863
O O4 0.438402 0.078159 0.532882
O O5 0.637592 0.308062 0.949796
O O6 0.580565 0.366399 0.071511
O O7 0.627907 0.995179 0.066273
O O8 0.102954 0.727642 0.813250
O O9 0.180348 0.806232 0.833815
O O10 0.125276 0.208808 0.800525
O O11 0.250000 0.500000 0.090163
O O12 0.325781 0.278811 0.101967
O O13 0.250000 0.000000 0.077998
O O14 0.284917 0.286460 0.972211
O O15 0.453072 0.418618 0.300853
O O16 0.111974 0.506039 0.186713
O O17 0.250000 0.500000 0.854606
O O18 0.250000 0.000000 0.873310
#
# Coordination Sequence:
#
# PCOD9421253 Si02
#       8
#     8   8   8   8   8   8   8   8
#     4  10  19  38  67  95 134 172 236 278 332 412
#     4  10  21  37  70  97 130 179 233 285 328 412
#     4  11  23  42  66  92 133 178 222 279 343 405
#     4  10  24  41  65  97 133 168 224 293 343 409
#     4   9  20  38  62  99 133 178 223 282 343 390
#     4  11  26  40  66  99 132 185 229 279 351 413
#     4  11  25  43  63  97 141 184 222 279 343 414
#     4  10  21  37  64  97 125 156 218 291 343 394
#
# _framework density 22.532266
#
# number of rings (size 3 to 8) (size 9 to 14) (size 15 to 20)
#    0.000    1.750    1.250    1.875   12.250    0.500 
#    0.000    3.750    0.000    0.000    0.000    0.000 
#    0.000    0.000    0.000    0.000    0.000    0.000 
#
# Total GULP energy -356369.612958 kJ/mol
# GULP energy per Si atom -5568.275202 kJ/mol
# Density = 2.248098 g / cm^3
# Si number density = 22.532266 Si / 1000 Ang^3
#
#
#
# Elastic Constant Matrix: (Units=GPa)
#
#
# Indices 1 2 3 4 5 6 
#
# 1 80.2293 17.4637 25.0295 0.0000 0.0000 0.0000
# 2 17.4637 98.8604 41.8118 0.0000 0.0000 0.0000
# 3 25.0295 41.8118 63.8171 0.0000 0.0000 0.0000
# 4 0.0000 0.0000 0.0000 14.7942 0.0000 0.0000
# 5 0.0000 0.0000 0.0000 0.0000 16.3050 0.0000
# 6 0.0000 0.0000 0.0000 0.0000 0.0000 29.5055
#
#
#
# Elastic Compliance Matrix: (Units=1/GPa)
#
#
# Indices 1 2 3 4 5 6 
#
# 1 0.014205 -0.000212 -0.005433 0.000000 0.000000 0.000000
# 2 -0.000212 0.013996 -0.009087 0.000000 0.000000 0.000000
# 3 -0.005433 -0.009087 0.023754 0.000000 0.000000 0.000000
# 4 0.000000 0.000000 0.000000 0.067594 0.000000 0.000000
# 5 0.000000 0.000000 0.000000 0.000000 0.061331 0.000000
# 6 0.000000 0.000000 0.000000 0.000000 0.000000 0.033892
#
#
# Mechanical properties :
#
#
# Convention : Reuss Voigt Hill
#
# Bulk Modulus (GPa) = 44.45878 45.72409 45.09143
# Shear Modulus (GPa) = 19.86241 22.69440 21.27840
#
# Velocity S-wave (km/s) = 2.97224 3.17708 3.07637
# Velocity P-wave (km/s) = 5.61720 5.81336 5.71613
#
# Compressibility (1/GPa) = 0.02249275
#
# Stress axis : x y z
#
# Youngs Moduli (GPa) = 70.39663 71.44986 42.09806
#
# Poissons Ratio (x) = 0.01512 0.22871
# Poissons Ratio (y) = 0.01490 0.38254
# Poissons Ratio (z) = 0.38245 0.64925
#
# Static dielectric constant tensor:
#      x y z
#    x 2.069940 0.000000 0.000000 
#    y 0.000000 2.047340 0.000000 
#    z 0.000000 0.000000 1.907610 
# 
# From -- ./inp_files/19356.got.cif
#   From: 2010.05.17/outbox.cif.g08.bks.cpg/sg54_10_cif.got.tgz:19356.got - 2010.06.03 13:09:01.
