data_PCOD9421957
_publ_section_title
;
Structure prediction by ZEFSAII (Michael W. Deem and Ramdas Pophale) SiO2 
 PCOD9421957
Probable space group: P C C A
;
_chemical_formula_sum "Si O2"
_cell_formula_units_Z 56
_cell_length_a 23.503235
_cell_length_b 6.456806
_cell_length_c 14.394878
_cell_angle_alpha 90.000000
_cell_angle_beta 90.000000
_cell_angle_gamma 90.000000
_cell_volume 2184.506641
_symmetry_space_group_name_H-M "P C C A"
_symmetry_group_IT_number 54
_symmetry_cell_setting 'orthorhombic'
loop_
_space_group_symop_operation_xyz
x,y,z
1/2-x,-y,z
1/2+x,-y,1/2-z
-x,y,1/2-z
-x,-y,-z
1/2+x,y,-z
1/2-x,y,1/2+z
x,-y,1/2+z
loop_
_atom_site_type_symbol
_atom_site_label
_atom_site_fract_x
_atom_site_fract_y
_atom_site_fract_z
Si Si1 0.704734 0.165794 0.117420
Si Si2 0.099351 0.912524 0.953702
Si Si3 0.517429 0.418224 0.600521
Si Si4 0.178848 0.531662 0.013293
Si Si5 0.128174 0.842115 0.626917
Si Si6 0.194154 0.220001 0.679119
Si Si7 0.089210 0.508304 0.736487
O O1 0.724262 0.214474 0.222472
O O2 0.750000 0.000000 0.078587
O O3 0.642348 0.060310 0.104255
O O4 0.703306 0.383180 0.065299
O O5 0.041618 0.816873 0.910839
O O6 0.137033 0.707624 0.974551
O O7 0.089899 0.026727 0.054067
O O8 0.500000 0.500000 0.500000
O O9 0.463284 0.464716 0.665419
O O10 0.566759 0.531694 0.659962
O O11 0.143685 0.363517 0.071814
O O12 0.215554 0.658263 0.089630
O O13 0.112263 0.744783 0.726645
O O14 0.180888 0.990337 0.645521
O O15 0.134086 0.334127 0.706729
#
# Coordination Sequence:
#
# PCOD9421957 Si02
#       7
#     8   8   8   8   8   8   8
#     4  11  24  42  68 103 134 173 233 286 348 426
#     4  10  21  40  66  92 131 176 220 285 343 411
#     4  11  21  37  61  89 125 174 224 271 338 409
#     4   9  20  41  66  91 131 174 214 278 344 397
#     4   9  18  37  62  91 126 171 216 265 338 405
#     4  10  20  40  67  93 130 175 218 276 343 408
#     4  10  22  37  58  91 131 171 219 279 335 405
#
# _framework density 25.635082000000001
#
# number of rings (size 3 to 8) (size 9 to 14) (size 15 to 20)
#    0.000    2.000    0.000    4.286    0.000    3.429 
#    0.000   19.286    0.000    1.714    0.000    1.000 
#    0.000    0.000    0.000    0.000    0.000    0.000 
#
# Total GULP energy -312709.721335 kJ/mol
# GULP energy per Si atom -5584.102167 kJ/mol
# Density = 2.557673 g / cm^3
# Si number density = 25.635082 Si / 1000 Ang^3
#
#
#
# Elastic Constant Matrix: (Units=GPa)
#
#
# Indices 1 2 3 4 5 6 
#
# 1 74.1043 36.9785 16.0425 0.0000 0.0000 0.0000
# 2 36.9785 152.1975 44.1488 0.0000 0.0000 0.0000
# 3 16.0425 44.1488 129.2521 0.0000 0.0000 0.0000
# 4 0.0000 0.0000 0.0000 46.0166 0.0000 0.0000
# 5 0.0000 0.0000 0.0000 0.0000 33.9367 0.0000
# 6 0.0000 0.0000 0.0000 0.0000 0.0000 52.5558
#
#
#
# Elastic Compliance Matrix: (Units=1/GPa)
#
#
# Indices 1 2 3 4 5 6 
#
# 1 0.015414 -0.003541 -0.000704 0.000000 0.000000 0.000000
# 2 -0.003541 0.008106 -0.002329 0.000000 0.000000 0.000000
# 3 -0.000704 -0.002329 0.008620 0.000000 0.000000 0.000000
# 4 0.000000 0.000000 0.000000 0.021731 0.000000 0.000000
# 5 0.000000 0.000000 0.000000 0.000000 0.029467 0.000000
# 6 0.000000 0.000000 0.000000 0.000000 0.000000 0.019027
#
#
# Mechanical properties :
#
#
# Convention : Reuss Voigt Hill
#
# Bulk Modulus (GPa) = 52.65359 61.09928 56.87644
# Shear Modulus (GPa) = 41.03610 43.72742 42.38176
#
# Velocity S-wave (km/s) = 4.00531 4.13457 4.07046
# Velocity P-wave (km/s) = 6.47876 6.83220 6.65782
#
# Compressibility (1/GPa) = 0.01899206
#
# Stress axis : x y z
#
# Youngs Moduli (GPa) = 64.87716 123.35899 116.01165
#
# Poissons Ratio (x) = 0.43680 0.08163
# Poissons Ratio (y) = 0.22972 0.27024
# Poissons Ratio (z) = 0.04565 0.28736
#
# Static dielectric constant tensor:
#      x y z
#    x 2.224020 0.000000 0.000000 
#    y 0.000000 1.977680 0.000000 
#    z 0.000000 0.000000 2.081510 
# 
# From -- ./inp_files/15368.got.cif
#   From: 2010.05.17/outbox.cif.g08.bks.cpg/sg54_8_cif.got.tgz:15368.got - 2010.06.03 13:09:01.
