data_PCOD9421851
_publ_section_title
;
Structure prediction by ZEFSAII (Michael W. Deem and Ramdas Pophale) SiO2 
 PCOD9421851
Probable space group: P C C A
;
_chemical_formula_sum "Si O2"
_cell_formula_units_Z 40
_cell_length_a 11.928892
_cell_length_b 7.934708
_cell_length_c 20.180365
_cell_angle_alpha 90.000000
_cell_angle_beta 90.000000
_cell_angle_gamma 90.000000
_cell_volume 1910.117453
_symmetry_space_group_name_H-M "P C C A"
_symmetry_group_IT_number 54
_symmetry_cell_setting 'orthorhombic'
loop_
_space_group_symop_operation_xyz
x,y,z
1/2-x,-y,z
1/2+x,-y,1/2-z
-x,y,1/2-z
-x,-y,-z
1/2+x,y,-z
1/2-x,y,1/2+z
x,-y,1/2+z
loop_
_atom_site_type_symbol
_atom_site_label
_atom_site_fract_x
_atom_site_fract_y
_atom_site_fract_z
Si Si1 0.370756 0.437065 0.515898
Si Si2 0.250000 0.000000 0.355188
Si Si3 0.500000 0.404019 0.750000
Si Si4 0.081566 0.364057 0.642622
Si Si5 0.061191 0.889657 0.446151
Si Si6 0.758674 0.306021 0.243674
O O1 0.250000 0.500000 0.487379
O O2 0.500000 0.500000 0.500000
O O3 0.368507 0.499180 0.591748
O O4 0.372058 0.247106 0.490050
O O5 0.141725 0.004497 0.401857
O O6 0.234281 0.835569 0.309916
O O7 0.505763 0.530929 0.687523
O O8 0.390128 0.293169 0.739228
O O9 0.175930 0.297018 0.693416
O O10 0.022298 0.215596 0.601719
O O11 0.000000 0.000000 0.500000
O O12 0.750000 0.500000 0.219555
#
# Coordination Sequence:
#
# PCOD9421851 Si02
#       6
#     8   4   4   8   8   8
#     4  10  23  43  73 101 141 198 244 296 360 445
#     4  12  28  46  68 106 144 184 248 298 378 436
#     4  10  20  38  76 102 128 184 238 292 362 430
#     4  10  22  46  70 102 140 186 243 295 368 438
#     4  11  27  45  68 106 149 193 238 306 365 445
#     4  10  23  45  71 104 140 186 233 309 361 431
#
# _framework density 20.941120000000002
#
# number of rings (size 3 to 8) (size 9 to 14) (size 15 to 20)
#    0.000    1.600    0.000    4.200    8.400    4.000 
#    7.200    0.000    0.000    0.000    0.000    0.000 
#    0.000    0.000    0.000    0.000    0.000    0.000 
#
# Total GULP energy -222868.359402 kJ/mol
# GULP energy per Si atom -5571.708985 kJ/mol
# Density = 2.089346 g / cm^3
# Si number density = 20.941120 Si / 1000 Ang^3
#
#
#
# Elastic Constant Matrix: (Units=GPa)
#
#
# Indices 1 2 3 4 5 6 
#
# 1 138.9323 26.2481 62.2220 0.0000 0.0000 0.0000
# 2 26.2481 76.0906 55.0367 0.0000 0.0000 0.0000
# 3 62.2220 55.0367 134.3187 0.0000 0.0000 0.0000
# 4 0.0000 0.0000 0.0000 31.0431 0.0000 0.0000
# 5 0.0000 0.0000 0.0000 0.0000 38.4409 0.0000
# 6 0.0000 0.0000 0.0000 0.0000 0.0000 29.1045
#
#
#
# Elastic Compliance Matrix: (Units=1/GPa)
#
#
# Indices 1 2 3 4 5 6 
#
# 1 0.009083 -0.000128 -0.004155 0.000000 0.000000 0.000000
# 2 -0.000128 0.018680 -0.007595 0.000000 0.000000 0.000000
# 3 -0.004155 -0.007595 0.012482 0.000000 0.000000 0.000000
# 4 0.000000 0.000000 0.000000 0.032213 0.000000 0.000000
# 5 0.000000 0.000000 0.000000 0.000000 0.026014 0.000000
# 6 0.000000 0.000000 0.000000 0.000000 0.000000 0.034359
#
#
# Mechanical properties :
#
#
# Convention : Reuss Voigt Hill
#
# Bulk Modulus (GPa) = 60.64705 70.70615 65.67660
# Shear Modulus (GPa) = 30.84857 33.44002 32.14429
#
# Velocity S-wave (km/s) = 3.84227 4.00041 3.92214
# Velocity P-wave (km/s) = 6.97909 7.42800 7.20704
#
# Compressibility (1/GPa) = 0.01648885
#
# Stress axis : x y z
#
# Youngs Moduli (GPa) = 110.09788 53.53431 80.11675
#
# Poissons Ratio (x) = 0.00684 0.33290
# Poissons Ratio (y) = 0.01406 0.60847
# Poissons Ratio (z) = 0.45748 0.40658
#
# Static dielectric constant tensor:
#      x y z
#    x 1.852220 0.000000 0.000000 
#    y 0.000000 1.709980 0.000000 
#    z 0.000000 0.000000 1.796540 
# 
# From -- ./inp_files/17133.got.cif
#   From: 2010.05.17/outbox.cif.g08.bks.cpg/sg54_9_cif.got.tgz:17133.got - 2010.06.03 13:09:01.
