data_PCOD9421738
_publ_section_title
;
Structure prediction by ZEFSAII (Michael W. Deem and Ramdas Pophale) SiO2 
 PCOD9421738
Probable space group: P C C A
;
_chemical_formula_sum "Si O2"
_cell_formula_units_Z 60
_cell_length_a 28.376896
_cell_length_b 11.858814
_cell_length_c 8.933623
_cell_angle_alpha 90.000000
_cell_angle_beta 90.000000
_cell_angle_gamma 90.000000
_cell_volume 3006.310040
_symmetry_space_group_name_H-M "P C C A"
_symmetry_group_IT_number 54
_symmetry_cell_setting 'orthorhombic'
loop_
_space_group_symop_operation_xyz
x,y,z
1/2-x,-y,z
1/2+x,-y,1/2-z
-x,y,1/2-z
-x,-y,-z
1/2+x,y,-z
1/2-x,y,1/2+z
x,-y,1/2+z
loop_
_atom_site_type_symbol
_atom_site_label
_atom_site_fract_x
_atom_site_fract_y
_atom_site_fract_z
Si Si1 0.974475 0.840919 0.406288
Si Si2 0.314807 0.067739 0.227295
Si Si3 0.290759 0.354664 0.591742
Si Si4 0.803486 0.401385 0.763591
Si Si5 0.642840 0.179558 0.742561
Si Si6 0.956832 0.093273 0.363736
Si Si7 0.750000 0.000000 0.534510
Si Si8 0.876444 0.747145 0.407015
O O1 0.932508 0.753043 0.415272
O O2 0.000000 0.838519 0.250000
O O3 0.018046 0.827499 0.517032
O O4 0.950494 0.966197 0.429876
O O5 0.357409 0.151713 0.200164
O O6 0.332594 0.942204 0.261235
O O7 0.285635 0.062374 0.074938
O O8 0.278408 0.088172 0.362118
O O9 0.300089 0.468448 0.688205
O O10 0.236663 0.332296 0.642834
O O11 0.295868 0.380966 0.414132
O O12 0.326970 0.259203 0.647210
O O13 0.853166 0.359029 0.827391
O O14 0.590075 0.148509 0.798937
O O15 0.640801 0.233202 0.577226
O O16 0.000000 0.078136 0.250000
#
# Coordination Sequence:
#
# PCOD9421738 Si02
#       8
#     8   8   8   8   8   8   4   8
#     4  10  22  36  61  89 130 166 212 257 309 374
#     4  11  24  36  55  85 128 167 210 245 309 372
#     4  11  25  45  69  94 123 166 209 263 312 377
#     4  11  25  45  69  93 125 162 214 258 318 371
#     4  12  24  38  64  91 128 165 215 257 312 374
#     4  10  20  38  59  89 128 172 206 255 312 371
#     4  10  24  38  48  78 130 174 200 248 302 378
#     4  12  24  39  62  93 127 166 212 262 308 376
#
# _framework density 19.958022
#
# number of rings (size 3 to 8) (size 9 to 14) (size 15 to 20)
#    0.000    1.067    4.000    3.200    7.467    0.000 
#    0.000    0.000    0.000    1.600    0.000    0.000 
#    0.000    0.000    0.000    0.000    0.000    0.000 
#
# Total GULP energy -335025.221572 kJ/mol
# GULP energy per Si atom -5583.753693 kJ/mol
# Density = 1.991260 g / cm^3
# Si number density = 19.958022 Si / 1000 Ang^3
#
#
#
# Elastic Constant Matrix: (Units=GPa)
#
#
# Indices 1 2 3 4 5 6 
#
# 1 84.7128 3.6037 12.5000 0.0000 0.0000 0.0000
# 2 3.6037 33.9066 -6.4811 0.0000 0.0000 0.0000
# 3 12.5000 -6.4811 104.9080 0.0000 0.0000 0.0000
# 4 0.0000 0.0000 0.0000 21.9635 0.0000 0.0000
# 5 0.0000 0.0000 0.0000 0.0000 31.6597 0.0000
# 6 0.0000 0.0000 0.0000 0.0000 0.0000 31.7740
#
#
#
# Elastic Compliance Matrix: (Units=1/GPa)
#
#
# Indices 1 2 3 4 5 6 
#
# 1 0.012099 -0.001580 -0.001539 0.000000 0.000000 0.000000
# 2 -0.001580 0.030052 0.002045 0.000000 0.000000 0.000000
# 3 -0.001539 0.002045 0.009842 0.000000 0.000000 0.000000
# 4 0.000000 0.000000 0.000000 0.045530 0.000000 0.000000
# 5 0.000000 0.000000 0.000000 0.000000 0.031586 0.000000
# 6 0.000000 0.000000 0.000000 0.000000 0.000000 0.031472
#
#
# Mechanical properties :
#
#
# Convention : Reuss Voigt Hill
#
# Bulk Modulus (GPa) = 20.06284 26.97472 23.51878
# Shear Modulus (GPa) = 27.87933 31.33974 29.60953
#
# Velocity S-wave (km/s) = 3.74157 3.96698 3.85592
# Velocity P-wave (km/s) = 5.36098 5.87602 5.62440
#
# Compressibility (1/GPa) = 0.04984340
#
# Stress axis : x y z
#
# Youngs Moduli (GPa) = 82.65190 33.27608 101.60647
#
# Poissons Ratio (x) = 0.05258 0.15640
# Poissons Ratio (y) = 0.13060 -0.20777
# Poissons Ratio (z) = 0.12722 -0.06804
#
# Static dielectric constant tensor:
#      x y z
#    x 1.712490 0.000000 0.000000 
#    y 0.000000 1.724300 0.000000 
#    z 0.000000 0.000000 1.718440 
# 
# From -- ./inp_files/5569.got.cif
#   From: 2010.05.17/outbox.cif.g08.bks.cpg/sg54_3_cif.got.tgz:5569.got - 2010.06.03 13:09:01.
