data_PCOD9421636
_publ_section_title
;
Structure prediction by ZEFSAII (Michael W. Deem and Ramdas Pophale) SiO2 
 PCOD9421636
Probable space group: P C C A
;
_chemical_formula_sum "Si O2"
_cell_formula_units_Z 32
_cell_length_a 5.330486
_cell_length_b 13.189050
_cell_length_c 22.362143
_cell_angle_alpha 90.000000
_cell_angle_beta 90.000000
_cell_angle_gamma 90.000000
_cell_volume 1572.149139
_symmetry_space_group_name_H-M "P C C A"
_symmetry_group_IT_number 54
_symmetry_cell_setting 'orthorhombic'
loop_
_space_group_symop_operation_xyz
x,y,z
1/2-x,-y,z
1/2+x,-y,1/2-z
-x,y,1/2-z
-x,-y,-z
1/2+x,y,-z
1/2-x,y,1/2+z
x,-y,1/2+z
loop_
_atom_site_type_symbol
_atom_site_label
_atom_site_fract_x
_atom_site_fract_y
_atom_site_fract_z
Si Si1 0.000000 0.568573 0.750000
Si Si2 0.837228 0.195889 0.928165
Si Si3 0.250000 0.500000 0.459343
Si Si4 0.334810 0.114899 0.937275
Si Si5 0.406225 0.606027 0.119694
O O1 0.250000 0.500000 0.759953
O O2 0.046842 0.629404 0.689032
O O3 0.605958 0.125296 0.907674
O O4 0.750512 0.308824 0.914203
O O5 0.107533 0.167563 0.902475
O O6 0.867013 0.172094 0.998984
O O7 0.500000 0.500000 0.500000
O O8 0.329000 0.589970 0.414322
O O9 0.250000 0.000000 0.949102
O O10 0.250000 0.500000 0.118912
#
# Coordination Sequence:
#
# PCOD9421636 Si02
#       5
#     4   8   4   8   8
#     4  10  22  42  62  76 112 172 222 248 280 338
#     4  10  21  31  56  81 110 150 193 236 293 344
#     4  12  26  36  56  82 130 160 194 240 314 364
#     4  10  20  37  55  80 118 155 190 233 299 377
#     4  11  25  41  59  87 124 167 210 249 299 358
#
# _framework density 20.354305
#
# number of rings (size 3 to 8) (size 9 to 14) (size 15 to 20)
#    0.000    1.500    2.500    3.750   10.500    0.000 
#    0.000    0.000    0.000    0.000    0.000    5.250 
#    0.000    0.000    0.000    0.000    0.000    0.000 
#
# Total GULP energy -178444.763440 kJ/mol
# GULP energy per Si atom -5576.398857 kJ/mol
# Density = 2.030798 g / cm^3
# Si number density = 20.354305 Si / 1000 Ang^3
#
#
#
# Elastic Constant Matrix: (Units=GPa)
#
#
# Indices 1 2 3 4 5 6 
#
# 1 136.1329 -3.3540 6.9429 0.0000 0.0000 0.0000
# 2 -3.3540 81.4540 24.2402 0.0000 0.0000 0.0000
# 3 6.9429 24.2402 73.1304 0.0000 0.0000 0.0000
# 4 0.0000 0.0000 0.0000 -15.5403 0.0000 0.0000
# 5 0.0000 0.0000 0.0000 0.0000 5.5654 0.0000
# 6 0.0000 0.0000 0.0000 0.0000 0.0000 37.1402
#
#
#
# Elastic Compliance Matrix: (Units=1/GPa)
#
#
# Indices 1 2 3 4 5 6 
#
# 1 0.007405 0.000570 -0.000892 0.000000 0.000000 0.000000
# 2 0.000570 0.013664 -0.004583 0.000000 0.000000 0.000000
# 3 -0.000892 -0.004583 0.015278 0.000000 0.000000 0.000000
# 4 0.000000 0.000000 0.000000 -0.064349 0.000000 0.000000
# 5 0.000000 0.000000 0.000000 0.000000 0.179680 0.000000
# 6 0.000000 0.000000 0.000000 0.000000 0.000000 0.026925
#
#
# Mechanical properties :
#
#
# Convention : Reuss Voigt Hill
#
# Bulk Modulus (GPa) = 37.68243 38.48617 38.08430
# Shear Modulus (GPa) = 25.34723 22.95896 24.15309
#
# Velocity S-wave (km/s) = 3.53271 3.36216 3.44849
# Velocity P-wave (km/s) = 5.93241 5.83278 5.88281
#
# Compressibility (1/GPa) = 0.02653757
#
# Stress axis : x y z
#
# Youngs Moduli (GPa) = 135.03813 73.18315 65.45294
#
# Poissons Ratio (x) = -0.04174 0.05839
# Poissons Ratio (y) = -0.07703 0.30000
# Poissons Ratio (z) = 0.12047 0.33543
#
# Static dielectric constant tensor:
#      x y z
#    x 1.854520 0.000000 0.000000 
#    y 0.000000 1.776140 0.000000 
#    z 0.000000 0.000000 1.756090 
# 
# From -- ./inp_files/22659.got.cif
#   From: 2010.05.17/outbox.cif.g08.bks.cpg/sg54_12_cif.got.tgz:22659.got - 2010.06.03 13:09:01.
