data_PCOD9421192
_publ_section_title
;
Structure prediction by ZEFSAII (Michael W. Deem and Ramdas Pophale) SiO2 
 PCOD9421192
Probable space group: P C C A
;
_chemical_formula_sum "Si O2"
_cell_formula_units_Z 40
_cell_length_a 12.824518
_cell_length_b 14.531012
_cell_length_c 9.132135
_cell_angle_alpha 90.000000
_cell_angle_beta 90.000000
_cell_angle_gamma 90.000000
_cell_volume 1701.802808
_symmetry_space_group_name_H-M "P C C A"
_symmetry_group_IT_number 54
_symmetry_cell_setting 'orthorhombic'
loop_
_space_group_symop_operation_xyz
x,y,z
1/2-x,-y,z
1/2+x,-y,1/2-z
-x,y,1/2-z
-x,-y,-z
1/2+x,y,-z
1/2-x,y,1/2+z
x,-y,1/2+z
loop_
_atom_site_type_symbol
_atom_site_label
_atom_site_fract_x
_atom_site_fract_y
_atom_site_fract_z
Si Si1 0.250000 0.000000 0.952741
Si Si2 0.916771 0.350617 0.528083
Si Si3 0.656644 0.451198 0.555883
Si Si4 0.642926 0.690190 0.832700
Si Si5 0.122818 0.098943 0.700422
Si Si6 0.000000 0.664959 0.750000
O O1 0.193788 0.071643 0.841157
O O2 0.340179 0.036377 0.063458
O O3 0.900024 0.458087 0.491948
O O4 0.842064 0.320418 0.659504
O O5 0.028222 0.340197 0.610512
O O6 0.932847 0.290181 0.381275
O O7 0.750000 0.500000 0.141593
O O8 0.704115 0.382153 0.433234
O O9 0.583566 0.395789 0.663858
O O10 0.649134 0.798343 0.855844
O O11 0.000000 0.094486 0.750000
#
# Coordination Sequence:
#
# PCOD9421192 Si02
#       6
#     4   8   8   8   8   4
#     4  10  26  44  80 118 132 176 240 290 362 480
#     4  10  19  37  58  86 125 175 229 269 326 396
#     4  11  23  38  60  91 135 186 238 284 341 385
#     4  10  21  40  66  90 132 188 227 279 342 414
#     4  11  22  49  77 105 149 181 225 296 379 422
#     4  10  20  36  58  84 122 170 232 284 324 394
#
# _framework density 23.504486
#
# number of rings (size 3 to 8) (size 9 to 14) (size 15 to 20)
#    0.000    1.600    2.000    5.400    0.000    4.800 
#    0.000   10.000    2.200    0.000    0.000    0.000 
#    0.000    0.000    0.000    0.000    0.000    0.000 
#
# Total GULP energy -222728.902792 kJ/mol
# GULP energy per Si atom -5568.222570 kJ/mol
# Density = 2.345099 g / cm^3
# Si number density = 23.504486 Si / 1000 Ang^3
#
#
#
# Elastic Constant Matrix: (Units=GPa)
#
#
# Indices 1 2 3 4 5 6 
#
# 1 73.4081 18.3073 16.2799 0.0000 0.0000 0.0000
# 2 18.3073 102.4839 33.7424 0.0000 0.0000 0.0000
# 3 16.2799 33.7424 172.6833 0.0000 0.0000 0.0000
# 4 0.0000 0.0000 0.0000 36.1663 0.0000 0.0000
# 5 0.0000 0.0000 0.0000 0.0000 36.2366 0.0000
# 6 0.0000 0.0000 0.0000 0.0000 0.0000 -76.6753
#
#
#
# Elastic Compliance Matrix: (Units=1/GPa)
#
#
# Indices 1 2 3 4 5 6 
#
# 1 0.014391 -0.002270 -0.000913 0.000000 0.000000 0.000000
# 2 -0.002270 0.010787 -0.001894 0.000000 0.000000 0.000000
# 3 -0.000913 -0.001894 0.006247 0.000000 0.000000 0.000000
# 4 0.000000 0.000000 0.000000 0.027650 0.000000 0.000000
# 5 0.000000 0.000000 0.000000 0.000000 0.027596 0.000000
# 6 0.000000 0.000000 0.000000 0.000000 0.000000 -0.013042
#
#
# Mechanical properties :
#
#
# Convention : Reuss Voigt Hill
#
# Bulk Modulus (GPa) = 47.01259 53.91495 50.46377
# Shear Modulus (GPa) = 55.02152 17.82856 36.42504
#
# Velocity S-wave (km/s) = 4.84353 2.75711 3.94090
# Velocity P-wave (km/s) = 7.16412 5.75530 6.49800
#
# Compressibility (1/GPa) = 0.02127090
#
# Stress axis : x y z
#
# Youngs Moduli (GPa) = 69.48726 92.70722 160.07515
#
# Poissons Ratio (x) = 0.21046 0.14617
# Poissons Ratio (y) = 0.15774 0.30313
# Poissons Ratio (z) = 0.06345 0.17556
#
# Static dielectric constant tensor:
#      x y z
#    x 2.670160 0.000000 0.000000 
#    y 0.000000 1.874430 0.000000 
#    z 0.000000 0.000000 2.051110 
# 
# From -- ./inp_files/3461.got.cif
#   From: 2010.05.17/outbox.cif.g08.bks.cpg/sg54_2_cif.got.tgz:3461.got - 2010.06.03 13:09:01.
