data_PCOD9421705
_publ_section_title
;
Structure prediction by ZEFSAII (Michael W. Deem and Ramdas Pophale) SiO2 
 PCOD9421705
Probable space group: P C C A
;
_chemical_formula_sum "Si O2"
_cell_formula_units_Z 64
_cell_length_a 9.533643
_cell_length_b 17.569276
_cell_length_c 17.862605
_cell_angle_alpha 90.000000
_cell_angle_beta 90.000000
_cell_angle_gamma 90.000000
_cell_volume 2991.972139
_symmetry_space_group_name_H-M "P C C A"
_symmetry_group_IT_number 54
_symmetry_cell_setting 'orthorhombic'
loop_
_space_group_symop_operation_xyz
x,y,z
1/2-x,-y,z
1/2+x,-y,1/2-z
-x,y,1/2-z
-x,-y,-z
1/2+x,y,-z
1/2-x,y,1/2+z
x,-y,1/2+z
loop_
_atom_site_type_symbol
_atom_site_label
_atom_site_fract_x
_atom_site_fract_y
_atom_site_fract_z
Si Si1 0.631161 0.231378 0.193390
Si Si2 0.314184 0.319627 0.597880
Si Si3 0.684653 0.178759 0.488963
Si Si4 0.639106 0.942867 0.702830
Si Si5 0.689056 0.418749 0.048413
Si Si6 0.932584 0.929563 0.041647
Si Si7 0.023963 0.631116 0.160121
Si Si8 0.877600 0.705023 0.626549
O O1 0.500000 0.227360 0.250000
O O2 0.678982 0.144719 0.188957
O O3 0.553015 0.288501 0.135368
O O4 0.779708 0.274665 0.197728
O O5 0.253949 0.239312 0.567354
O O6 0.350316 0.370595 0.524996
O O7 0.186949 0.359724 0.641984
O O8 0.458988 0.305453 0.640463
O O9 0.549462 0.137224 0.453866
O O10 0.797053 0.112714 0.507936
O O11 0.645062 0.227418 0.563949
O O12 0.500000 0.944228 0.750000
O O13 0.604308 0.968003 0.619907
O O14 0.750000 0.000000 0.737654
O O15 0.750000 0.500000 0.027050
O O16 0.558851 0.426405 0.106409
O O17 0.810724 0.370416 0.089965
O O18 0.000000 0.000000 0.000000
O O19 0.000000 0.618940 0.250000
#
# Coordination Sequence:
#
# PCOD9421705 Si02
#       8
#     8   8   8   8   8   8   8   8
#     4   9  19  40  65  84 120 170 212 265 333 396
#     4  11  22  36  67  99 128 175 223 285 335 394
#     4  11  21  38  60  93 129 158 219 270 332 398
#     4  11  24  42  61  84 123 171 216 266 329 400
#     4  10  22  41  65  99 140 181 227 275 332 408
#     4  12  24  39  62  92 128 167 211 276 338 392
#     4  10  22  43  66  95 134 180 224 274 349 408
#     4  10  20  37  64  96 124 165 221 277 327 396
#
# _framework density 21.390573
#
# number of rings (size 3 to 8) (size 9 to 14) (size 15 to 20)
#    0.000    1.500    2.500    3.375    1.750    3.000 
#    0.000   11.250    0.000    0.000    0.000    0.000 
#    0.000    0.000    0.000    0.000    0.000    0.000 
#
# Total GULP energy -356716.855948 kJ/mol
# GULP energy per Si atom -5573.700874 kJ/mol
# Density = 2.134189 g / cm^3
# Si number density = 21.390573 Si / 1000 Ang^3
#
#
#
# Elastic Constant Matrix: (Units=GPa)
#
#
# Indices 1 2 3 4 5 6 
#
# 1 164.7460 11.5218 35.9514 0.0000 0.0000 0.0000
# 2 11.5218 65.8255 -1.8371 0.0000 0.0000 0.0000
# 3 35.9514 -1.8371 58.1136 0.0000 0.0000 0.0000
# 4 0.0000 0.0000 0.0000 9.0131 0.0000 0.0000
# 5 0.0000 0.0000 0.0000 0.0000 30.3316 0.0000
# 6 0.0000 0.0000 0.0000 0.0000 0.0000 21.6999
#
#
#
# Elastic Compliance Matrix: (Units=1/GPa)
#
#
# Indices 1 2 3 4 5 6 
#
# 1 0.007139 -0.001374 -0.004460 0.000000 0.000000 0.000000
# 2 -0.001374 0.015470 0.001339 0.000000 0.000000 0.000000
# 3 -0.004460 0.001339 0.020009 0.000000 0.000000 0.000000
# 4 0.000000 0.000000 0.000000 0.110950 0.000000 0.000000
# 5 0.000000 0.000000 0.000000 0.000000 0.032969 0.000000
# 6 0.000000 0.000000 0.000000 0.000000 0.000000 0.046083
#
#
# Mechanical properties :
#
#
# Convention : Reuss Voigt Hill
#
# Bulk Modulus (GPa) = 29.73725 42.21749 35.97737
# Shear Modulus (GPa) = 19.77695 28.41219 24.09457
#
# Velocity S-wave (km/s) = 3.04396 3.64848 3.35985
# Velocity P-wave (km/s) = 5.12704 6.12600 5.64865
#
# Compressibility (1/GPa) = 0.03362786
#
# Stress axis : x y z
#
# Youngs Moduli (GPa) = 140.06870 64.64301 49.97698
#
# Poissons Ratio (x) = 0.08883 0.22290
# Poissons Ratio (y) = 0.19247 -0.06692
# Poissons Ratio (z) = 0.62472 -0.08656
#
# Static dielectric constant tensor:
#      x y z
#    x 1.809680 0.000000 0.000000 
#    y 0.000000 1.801550 0.000000 
#    z 0.000000 0.000000 1.850670 
# 
# From -- ./inp_files/20670.got.cif
#   From: 2010.05.17/outbox.cif.g08.bks.cpg/sg54_11_cif.got.tgz:20670.got - 2010.06.03 13:09:01.
