data_PCOD9421926
_publ_section_title
;
Structure prediction by ZEFSAII (Michael W. Deem and Ramdas Pophale) SiO2 
 PCOD9421926
Probable space group: P C C A
;
_chemical_formula_sum "Si O2"
_cell_formula_units_Z 48
_cell_length_a 8.804457
_cell_length_b 9.075398
_cell_length_c 28.297264
_cell_angle_alpha 90.000000
_cell_angle_beta 90.000000
_cell_angle_gamma 90.000000
_cell_volume 2261.063209
_symmetry_space_group_name_H-M "P C C A"
_symmetry_group_IT_number 54
_symmetry_cell_setting 'orthorhombic'
loop_
_space_group_symop_operation_xyz
x,y,z
1/2-x,-y,z
1/2+x,-y,1/2-z
-x,y,1/2-z
-x,-y,-z
1/2+x,y,-z
1/2-x,y,1/2+z
x,-y,1/2+z
loop_
_atom_site_type_symbol
_atom_site_label
_atom_site_fract_x
_atom_site_fract_y
_atom_site_fract_z
Si Si1 0.176877 0.660442 0.662420
Si Si2 0.750000 0.000000 0.072944
Si Si3 0.253610 0.172325 0.072122
Si Si4 0.859637 0.710885 0.613874
Si Si5 0.750000 0.500000 0.184798
Si Si6 0.000000 0.628685 0.750000
Si Si7 0.250000 0.500000 0.964914
Si Si8 0.947703 0.230560 0.510275
O O1 0.250000 0.500000 0.668716
O O2 0.274435 0.748393 0.622855
O O3 0.018075 0.661050 0.634917
O O4 0.118168 0.712801 0.714652
O O5 0.837033 0.117079 0.105652
O O6 0.644471 0.104480 0.040139
O O7 0.385897 0.221630 0.034603
O O8 0.250000 0.000000 0.081462
O O9 0.094263 0.193559 0.043789
O O10 0.737017 0.642102 0.650722
O O11 0.835089 0.619601 0.566680
O O12 0.605447 0.527303 0.217435
O O13 0.376281 0.605936 0.987117
#
# Coordination Sequence:
#
# PCOD9421926 Si02
#       8
#     8   4   8   8   4   4   4   8
#     4  11  23  40  69  95 129 165 222 284 345 405
#     4  10  20  40  62  88 134 188 226 264 322 402
#     4  12  26  41  63  96 139 187 230 274 331 409
#     4   9  19  36  62  92 123 169 217 272 326 397
#     4   9  18  36  65  90 122 152 209 278 343 398
#     4  10  20  42  68  96 122 160 210 280 352 408
#     4   9  20  36  57  90 128 168 233 266 317 374
#     4  11  24  39  62  90 139 187 229 274 327 390
#
# _framework density 21.228950999999999
#
# number of rings (size 3 to 8) (size 9 to 14) (size 15 to 20)
#    0.000    1.667    1.667    2.500    5.833    2.000 
#    0.000    0.000    7.333    2.000    0.000    0.000 
#    0.000    0.000    0.000    0.000    0.000    0.000 
#
# Total GULP energy -267354.119255 kJ/mol
# GULP energy per Si atom -5569.877484 kJ/mol
# Density = 2.118063 g / cm^3
# Si number density = 21.228951 Si / 1000 Ang^3
#
#
#
# Elastic Constant Matrix: (Units=GPa)
#
#
# Indices 1 2 3 4 5 6 
#
# 1 83.0422 36.1671 31.0396 0.0000 0.0000 0.0000
# 2 36.1671 126.4949 50.5137 0.0000 0.0000 0.0000
# 3 31.0396 50.5137 123.0706 0.0000 0.0000 0.0000
# 4 0.0000 0.0000 0.0000 59.3436 0.0000 0.0000
# 5 0.0000 0.0000 0.0000 0.0000 44.1146 0.0000
# 6 0.0000 0.0000 0.0000 0.0000 0.0000 26.9034
#
#
#
# Elastic Compliance Matrix: (Units=1/GPa)
#
#
# Indices 1 2 3 4 5 6 
#
# 1 0.014281 -0.003163 -0.002303 0.000000 0.000000 0.000000
# 2 -0.003163 0.010156 -0.003371 0.000000 0.000000 0.000000
# 3 -0.002303 -0.003371 0.010090 0.000000 0.000000 0.000000
# 4 0.000000 0.000000 0.000000 0.016851 0.000000 0.000000
# 5 0.000000 0.000000 0.000000 0.000000 0.022668 0.000000
# 6 0.000000 0.000000 0.000000 0.000000 0.000000 0.037170
#
#
# Mechanical properties :
#
#
# Convention : Reuss Voigt Hill
#
# Bulk Modulus (GPa) = 59.34066 63.11648 61.22857
# Shear Modulus (GPa) = 37.17262 40.39814 38.78538
#
# Velocity S-wave (km/s) = 4.18908 4.36704 4.27898
# Velocity P-wave (km/s) = 7.17016 7.43128 7.30189
#
# Compressibility (1/GPa) = 0.01685185
#
# Stress axis : x y z
#
# Youngs Moduli (GPa) = 70.02441 98.46497 99.10990
#
# Poissons Ratio (x) = 0.31147 0.22829
# Poissons Ratio (y) = 0.22151 0.33406
# Poissons Ratio (z) = 0.16129 0.33189
#
# Static dielectric constant tensor:
#      x y z
#    x 1.904580 0.000000 0.000000 
#    y 0.000000 1.769770 0.000000 
#    z 0.000000 0.000000 1.855660 
# 
# From -- ./inp_files/27852.got.cif
#   From: 2010.05.17/outbox.cif.g08.bks.cpg/sg54_14_cif.got.tgz:27852.got - 2010.06.03 13:09:01.
