data_PCOD9421091
_publ_section_title
;
Structure prediction by ZEFSAII (Michael W. Deem and Ramdas Pophale) SiO2 
 PCOD9421091
Probable space group: P C C A
;
_chemical_formula_sum "Si O2"
_cell_formula_units_Z 60
_cell_length_a 15.438714
_cell_length_b 12.442955
_cell_length_c 17.009313
_cell_angle_alpha 90.000000
_cell_angle_beta 90.000000
_cell_angle_gamma 90.000000
_cell_volume 3267.543858
_symmetry_space_group_name_H-M "P C C A"
_symmetry_group_IT_number 54
_symmetry_cell_setting 'orthorhombic'
loop_
_space_group_symop_operation_xyz
x,y,z
1/2-x,-y,z
1/2+x,-y,1/2-z
-x,y,1/2-z
-x,-y,-z
1/2+x,y,-z
1/2-x,y,1/2+z
x,-y,1/2+z
loop_
_atom_site_type_symbol
_atom_site_label
_atom_site_fract_x
_atom_site_fract_y
_atom_site_fract_z
Si Si1 0.006207 0.697845 0.656225
Si Si2 0.962859 0.065804 0.668685
Si Si3 0.918822 0.576244 0.979408
Si Si4 0.144671 0.197046 0.953363
Si Si5 0.750000 0.500000 0.565500
Si Si6 0.398052 0.083365 0.609055
Si Si7 0.680989 0.085369 0.731200
Si Si8 0.192387 0.718745 0.874345
O O1 0.910500 0.701163 0.616940
O O2 0.000000 0.680449 0.750000
O O3 0.065108 0.610169 0.611202
O O4 0.048362 0.812802 0.638684
O O5 0.908376 0.961005 0.696235
O O6 0.000000 0.112803 0.750000
O O7 0.040896 0.020844 0.615379
O O8 0.901901 0.147162 0.622511
O O9 0.905658 0.692872 0.022312
O O10 0.832489 0.515783 0.008443
O O11 0.000000 0.500000 0.000000
O O12 0.246281 0.220530 0.937673
O O13 0.134476 0.111462 0.023094
O O14 0.734407 0.398402 0.621744
O O15 0.324977 0.076548 0.675386
O O16 0.699011 0.205040 0.701887
O O17 0.750000 0.000000 0.700738
#
# Coordination Sequence:
#
# PCOD9421091 Si02
#       8
#     8   8   8   8   4   8   8   8
#     4  11  19  36  65  87 110 156 207 246 298 368
#     4  10  19  35  58  83 120 161 192 241 304 365
#     4  10  21  39  65  85 120 158 201 253 309 354
#     4  10  22  36  58  88 121 155 200 252 305 366
#     4  10  22  40  64  92 120 160 204 254 312 354
#     4  10  20  36  57  87 115 158 205 236 297 370
#     4  11  20  36  59  87 121 156 194 251 304 356
#     4  11  20  37  63  86 119 155 201 250 300 362
#
# _framework density 18.362416
#
# number of rings (size 3 to 8) (size 9 to 14) (size 15 to 20)
#    0.000    1.600    5.333    0.800    0.000    0.000 
#    2.400    4.000    2.933    0.000    0.000    0.000 
#    0.000    0.000    0.000    0.000    0.000    0.000 
#
# Total GULP energy -334081.138138 kJ/mol
# GULP energy per Si atom -5568.018969 kJ/mol
# Density = 1.832062 g / cm^3
# Si number density = 18.362416 Si / 1000 Ang^3
#
#
#
# Elastic Constant Matrix: (Units=GPa)
#
#
# Indices 1 2 3 4 5 6 
#
# 1 96.0405 30.8634 38.0046 0.0000 0.0000 0.0000
# 2 30.8634 53.3435 24.4437 0.0000 0.0000 0.0000
# 3 38.0046 24.4437 83.3062 0.0000 0.0000 0.0000
# 4 0.0000 0.0000 0.0000 15.3961 0.0000 0.0000
# 5 0.0000 0.0000 0.0000 0.0000 25.7380 0.0000
# 6 0.0000 0.0000 0.0000 0.0000 0.0000 20.5871
#
#
#
# Elastic Compliance Matrix: (Units=1/GPa)
#
#
# Indices 1 2 3 4 5 6 
#
# 1 0.014227 -0.006074 -0.004708 0.000000 0.000000 0.000000
# 2 -0.006074 0.024252 -0.004345 0.000000 0.000000 0.000000
# 3 -0.004708 -0.004345 0.015427 0.000000 0.000000 0.000000
# 4 0.000000 0.000000 0.000000 0.064951 0.000000 0.000000
# 5 0.000000 0.000000 0.000000 0.000000 0.038853 0.000000
# 6 0.000000 0.000000 0.000000 0.000000 0.000000 0.048574
#
#
# Mechanical properties :
#
#
# Convention : Reuss Voigt Hill
#
# Bulk Modulus (GPa) = 42.28124 46.59041 44.43583
# Shear Modulus (GPa) = 20.45634 21.63614 21.04624
#
# Velocity S-wave (km/s) = 3.34133 3.43634 3.38917
# Velocity P-wave (km/s) = 6.16133 6.41657 6.29024
#
# Compressibility (1/GPa) = 0.02365115
#
# Stress axis : x y z
#
# Youngs Moduli (GPa) = 70.28695 41.23410 64.82258
#
# Poissons Ratio (x) = 0.25046 0.30520
# Poissons Ratio (y) = 0.42694 0.28165
# Poissons Ratio (z) = 0.33093 0.17916
#
# Static dielectric constant tensor:
#      x y z
#    x 1.680590 0.000000 0.000000 
#    y 0.000000 1.630450 0.000000 
#    z 0.000000 0.000000 1.635420 
# 
# From -- ./inp_files/13608.got.cif
#   From: 2010.05.17/outbox.cif.g08.bks.cpg/sg54_7_cif.got.tgz:13608.got - 2010.06.03 13:09:01.
