data_PCOD9421895
_publ_section_title
;
Structure prediction by ZEFSAII (Michael W. Deem and Ramdas Pophale) SiO2 
 PCOD9421895
Probable space group: P C C A
;
_chemical_formula_sum "Si O2"
_cell_formula_units_Z 64
_cell_length_a 12.332772
_cell_length_b 10.888834
_cell_length_c 19.371415
_cell_angle_alpha 90.000000
_cell_angle_beta 90.000000
_cell_angle_gamma 90.000000
_cell_volume 2601.377772
_symmetry_space_group_name_H-M "P C C A"
_symmetry_group_IT_number 54
_symmetry_cell_setting 'orthorhombic'
loop_
_space_group_symop_operation_xyz
x,y,z
1/2-x,-y,z
1/2+x,-y,1/2-z
-x,y,1/2-z
-x,-y,-z
1/2+x,y,-z
1/2-x,y,1/2+z
x,-y,1/2+z
loop_
_atom_site_type_symbol
_atom_site_label
_atom_site_fract_x
_atom_site_fract_y
_atom_site_fract_z
Si Si1 0.652645 0.732182 0.451527
Si Si2 0.938338 0.866708 0.087529
Si Si3 0.249407 0.134545 0.300875
Si Si4 0.136987 0.484436 0.464088
Si Si5 0.486739 0.612177 0.636811
Si Si6 0.342655 0.900731 0.553962
Si Si7 0.581479 0.784928 0.083161
Si Si8 0.173720 0.388379 0.748033
O O1 0.621762 0.816023 0.519285
O O2 0.658223 0.589595 0.476969
O O3 0.768674 0.781086 0.426175
O O4 0.546087 0.757386 0.405096
O O5 0.847114 0.886704 0.143988
O O6 0.009725 0.748789 0.109389
O O7 0.043961 0.953084 0.085721
O O8 0.147083 0.179393 0.347720
O O9 0.277684 0.251436 0.253480
O O10 0.250000 0.000000 0.265168
O O11 0.250000 0.500000 0.422469
O O12 0.120383 0.338640 0.457915
O O13 0.030420 0.533112 0.425724
O O14 0.376092 0.581932 0.673481
O O15 0.578223 0.608265 0.695714
O O16 0.382760 0.884716 0.474268
O O17 0.250000 0.000000 0.561477
O O18 0.250000 0.500000 0.765485
#
# Coordination Sequence:
#
# PCOD9421895 Si02
#       8
#     8   8   8   8   8   8   8   8
#     4  10  21  34  54  86 121 168 205 246 294 345
#     4   9  20  37  57  83 122 155 210 246 295 365
#     4  11  22  38  64  94 116 161 210 261 310 373
#     4  11  18  36  60  88 123 158 205 254 300 365
#     4   9  19  37  62  87 111 153 198 246 320 371
#     4  11  22  35  54  82 124 176 206 244 294 355
#     4  11  21  34  55  86 126 159 212 252 297 357
#     4  10  20  39  67  90 114 147 201 260 322 382
#
# _framework density 24.602349
#
# number of rings (size 3 to 8) (size 9 to 14) (size 15 to 20)
#    0.000    1.750    2.500    3.375    1.750    1.000 
#    2.250    0.625    0.000   12.000    0.000    0.000 
#    0.000    0.000    0.000    0.000    0.000    0.000 
#
# Total GULP energy -356776.828842 kJ/mol
# GULP energy per Si atom -5574.637951 kJ/mol
# Density = 2.454635 g / cm^3
# Si number density = 24.602349 Si / 1000 Ang^3
#
#
#
# Elastic Constant Matrix: (Units=GPa)
#
#
# Indices 1 2 3 4 5 6 
#
# 1 153.3570 30.3303 18.5930 0.0000 0.0000 0.0000
# 2 30.3303 139.4284 9.1136 0.0000 0.0000 0.0000
# 3 18.5930 9.1136 30.0319 0.0000 0.0000 0.0000
# 4 0.0000 0.0000 0.0000 -44.8721 0.0000 0.0000
# 5 0.0000 0.0000 0.0000 0.0000 193.9604 0.0000
# 6 0.0000 0.0000 0.0000 0.0000 0.0000 18.9637
#
#
#
# Elastic Compliance Matrix: (Units=1/GPa)
#
#
# Indices 1 2 3 4 5 6 
#
# 1 0.007279 -0.001315 -0.004107 0.000000 0.000000 0.000000
# 2 -0.001315 0.007555 -0.001479 0.000000 0.000000 0.000000
# 3 -0.004107 -0.001479 0.036289 0.000000 0.000000 0.000000
# 4 0.000000 0.000000 0.000000 -0.022286 0.000000 0.000000
# 5 0.000000 0.000000 0.000000 0.000000 0.005156 0.000000
# 6 0.000000 0.000000 0.000000 0.000000 0.000000 0.052732
#
#
# Mechanical properties :
#
#
# Convention : Reuss Voigt Hill
#
# Bulk Modulus (GPa) = 26.79422 48.76568 37.77995
# Shear Modulus (GPa) = 44.26050 51.26243 47.76146
#
# Velocity S-wave (km/s) = 4.24611 4.56964 4.41084
# Velocity P-wave (km/s) = 5.91217 6.90701 6.42886
#
# Compressibility (1/GPa) = 0.03732149
#
# Stress axis : x y z
#
# Youngs Moduli (GPa) = 137.38606 132.36590 27.55624
#
# Poissons Ratio (x) = 0.17405 0.11318
# Poissons Ratio (y) = 0.18065 0.04074
# Poissons Ratio (z) = 0.56429 0.19571
#
# Static dielectric constant tensor:
#      x y z
#    x 1.978000 0.000000 0.000000 
#    y 0.000000 2.226960 0.000000 
#    z 0.000000 0.000000 1.993130 
# 
# From -- ./inp_files/24249.got.cif
#   From: 2010.05.17/outbox.cif.g08.bks.cpg/sg54_13_cif.got.tgz:24249.got - 2010.06.03 13:09:01.
