data_PCOD9421760
_publ_section_title
;
Structure prediction by ZEFSAII (Michael W. Deem and Ramdas Pophale) SiO2 
 PCOD9421760
Probable space group: P C C A
;
_chemical_formula_sum "Si O2"
_cell_formula_units_Z 40
_cell_length_a 22.352405
_cell_length_b 5.039371
_cell_length_c 15.339528
_cell_angle_alpha 90.000000
_cell_angle_beta 90.000000
_cell_angle_gamma 90.000000
_cell_volume 1727.876057
_symmetry_space_group_name_H-M "P C C A"
_symmetry_group_IT_number 54
_symmetry_cell_setting 'orthorhombic'
loop_
_space_group_symop_operation_xyz
x,y,z
1/2-x,-y,z
1/2+x,-y,1/2-z
-x,y,1/2-z
-x,-y,-z
1/2+x,y,-z
1/2-x,y,1/2+z
x,-y,1/2+z
loop_
_atom_site_type_symbol
_atom_site_label
_atom_site_fract_x
_atom_site_fract_y
_atom_site_fract_z
Si Si1 0.595867 0.020834 0.783352
Si Si2 0.143029 0.513169 0.142971
Si Si3 0.526092 0.953853 0.110708
Si Si4 0.288948 0.731887 0.989302
Si Si5 0.080962 0.575615 0.467830
O O1 0.643449 0.807386 0.819140
O O2 0.624791 0.310684 0.781908
O O3 0.540589 0.051397 0.850908
O O4 0.565901 0.941881 0.693117
O O5 0.195236 0.370646 0.087533
O O6 0.092977 0.525203 0.066005
O O7 0.556452 0.672704 0.086357
O O8 0.535093 0.183635 0.039420
O O9 0.250000 0.500000 0.947235
O O10 0.354626 0.715094 0.946358
O O11 0.250000 0.000000 0.988646
#
# Coordination Sequence:
#
# PCOD9421760 Si02
#       5
#     8   8   8   8   8
#     4  11  22  37  56  84 126 163 188 229 296 358
#     4  10  22  36  59  89 109 156 200 248 281 350
#     4  11  22  37  56  84 126 163 188 229 296 358
#     4  10  20  38  61  84 111 144 194 252 308 340
#     4  10  22  36  59  89 109 156 200 248 281 350
#
# _framework density 23.149809999999999
#
# number of rings (size 3 to 8) (size 9 to 14) (size 15 to 20)
#    1.200    0.400    0.000    6.000    0.000    8.000 
#    0.000    0.000    0.000   18.000    0.000    0.000 
#    0.000    0.000    0.000    0.000    0.000    0.000 
#
# Total GULP energy -223001.457339 kJ/mol
# GULP energy per Si atom -5575.036433 kJ/mol
# Density = 2.309712 g / cm^3
# Si number density = 23.149810 Si / 1000 Ang^3
#
#
#
# Elastic Constant Matrix: (Units=GPa)
#
#
# Indices 1 2 3 4 5 6 
#
# 1 100.0825 53.5032 -5.1529 0.0000 0.0000 0.0000
# 2 53.5032 168.7844 14.7269 0.0000 0.0000 0.0000
# 3 -5.1529 14.7269 21.5865 0.0000 0.0000 0.0000
# 4 0.0000 0.0000 0.0000 23.8960 0.0000 0.0000
# 5 0.0000 0.0000 0.0000 0.0000 17.2091 0.0000
# 6 0.0000 0.0000 0.0000 0.0000 0.0000 47.1694
#
#
#
# Elastic Compliance Matrix: (Units=1/GPa)
#
#
# Indices 1 2 3 4 5 6 
#
# 1 0.012760 -0.004583 0.006173 0.000000 0.000000 0.000000
# 2 -0.004583 0.007946 -0.006515 0.000000 0.000000 0.000000
# 3 0.006173 -0.006515 0.052244 0.000000 0.000000 0.000000
# 4 0.000000 0.000000 0.000000 0.041848 0.000000 0.000000
# 5 0.000000 0.000000 0.000000 0.000000 0.058109 0.000000
# 6 0.000000 0.000000 0.000000 0.000000 0.000000 0.021200
#
#
# Mechanical properties :
#
#
# Convention : Reuss Voigt Hill
#
# Bulk Modulus (GPa) = 15.84835 46.28975 31.06905
# Shear Modulus (GPa) = 22.22316 32.81330 27.51823
#
# Velocity S-wave (km/s) = 3.10170 3.76897 3.45150
# Velocity P-wave (km/s) = 4.43715 6.24334 5.41607
#
# Compressibility (1/GPa) = 0.06309804
#
# Stress axis : x y z
#
# Youngs Moduli (GPa) = 78.37128 125.84867 19.14111
#
# Poissons Ratio (x) = 0.57681 -0.11815
# Poissons Ratio (y) = 0.35920 0.12471
# Poissons Ratio (z) = -0.48377 0.81991
#
# Static dielectric constant tensor:
#      x y z
#    x 1.966130 0.000000 0.000000 
#    y 0.000000 1.836840 0.000000 
#    z 0.000000 0.000000 1.907220 
# 
# From -- ./inp_files/18782.got.cif
#   From: 2010.05.17/outbox.cif.g08.bks.cpg/sg54_10_cif.got.tgz:18782.got - 2010.06.03 13:09:01.
