data_PCOD9421278
_publ_section_title
;
Structure prediction by ZEFSAII (Michael W. Deem and Ramdas Pophale) SiO2 
 PCOD9421278
Probable space group: P C C A
;
_chemical_formula_sum "Si O2"
_cell_formula_units_Z 48
_cell_length_a 9.169277
_cell_length_b 13.961181
_cell_length_c 15.587499
_cell_angle_alpha 90.000000
_cell_angle_beta 90.000000
_cell_angle_gamma 90.000000
_cell_volume 1995.417097
_symmetry_space_group_name_H-M "P C C A"
_symmetry_group_IT_number 54
_symmetry_cell_setting 'orthorhombic'
loop_
_space_group_symop_operation_xyz
x,y,z
1/2-x,-y,z
1/2+x,-y,1/2-z
-x,y,1/2-z
-x,-y,-z
1/2+x,y,-z
1/2-x,y,1/2+z
x,-y,1/2+z
loop_
_atom_site_type_symbol
_atom_site_label
_atom_site_fract_x
_atom_site_fract_y
_atom_site_fract_z
Si Si1 0.185893 0.264838 0.511831
Si Si2 0.500000 0.878632 0.750000
Si Si3 0.209997 0.713695 0.318101
Si Si4 0.000000 0.779969 0.750000
Si Si5 0.000000 0.551992 0.250000
Si Si6 0.750000 0.000000 0.360524
Si Si7 0.404727 0.539544 0.574580
Si Si8 0.951841 0.848825 0.931197
O O1 0.228089 0.296945 0.414849
O O2 0.104115 0.345468 0.566871
O O3 0.336382 0.236690 0.555523
O O4 0.080041 0.173540 0.497364
O O5 0.600224 0.805362 0.692241
O O6 0.629024 0.939768 0.801346
O O7 0.348342 0.724512 0.254954
O O8 0.125063 0.620452 0.287519
O O9 0.987968 0.842796 0.664963
O O10 0.946475 0.498333 0.333220
O O11 0.647129 0.941086 0.425496
O O12 0.250000 0.500000 0.553103
O O13 0.500000 0.500000 0.500000
#
# Coordination Sequence:
#
# PCOD9421278 Si02
#       8
#     8   4   8   4   4   4   8   8
#     4  11  25  45  71 101 146 187 242 307 377 452
#     4  11  25  42  68 101 149 196 252 312 362 438
#     4  10  22  42  71 101 139 198 248 296 371 445
#     4  10  19  40  66  98 129 182 248 283 354 432
#     4  11  24  44  74 105 148 190 248 301 384 466
#     4  12  26  42  68 102 150 192 256 312 364 438
#     4  12  27  48  75 110 150 193 246 318 382 459
#     4  11  24  43  67  98 140 189 240 297 368 430
#
# _framework density 24.055121
#
# number of rings (size 3 to 8) (size 9 to 14) (size 15 to 20)
#    0.000    1.000    1.667    4.500    7.000    4.000 
#    0.000    1.667    0.000    0.000    0.000    0.000 
#    0.000    0.000    0.000    0.000    0.000    0.000 
#
# Total GULP energy -268142.481889 kJ/mol
# GULP energy per Si atom -5586.301706 kJ/mol
# Density = 2.400037 g / cm^3
# Si number density = 24.055121 Si / 1000 Ang^3
#
#
#
# Elastic Constant Matrix: (Units=GPa)
#
#
# Indices 1 2 3 4 5 6 
#
# 1 133.2276 11.1740 26.2112 0.0000 0.0000 0.0000
# 2 11.1740 30.9909 7.1865 0.0000 0.0000 0.0000
# 3 26.2112 7.1865 107.5934 0.0000 0.0000 0.0000
# 4 0.0000 0.0000 0.0000 31.0051 0.0000 0.0000
# 5 0.0000 0.0000 0.0000 0.0000 -975.1717 0.0000
# 6 0.0000 0.0000 0.0000 0.0000 0.0000 12.3999
#
#
#
# Elastic Compliance Matrix: (Units=1/GPa)
#
#
# Indices 1 2 3 4 5 6 
#
# 1 0.008069 -0.002492 -0.001799 0.000000 0.000000 0.000000
# 2 -0.002492 0.033545 -0.001633 0.000000 0.000000 0.000000
# 3 -0.001799 -0.001633 0.009842 0.000000 0.000000 0.000000
# 4 0.000000 0.000000 0.000000 0.032253 0.000000 0.000000
# 5 0.000000 0.000000 0.000000 0.000000 -0.001025 0.000000
# 6 0.000000 0.000000 0.000000 0.000000 0.000000 0.080646
#
#
# Mechanical properties :
#
#
# Convention : Reuss Voigt Hill
#
# Bulk Modulus (GPa) = 25.24878 40.10613 32.67746
# Shear Modulus (GPa) = 26.54208 -171.20399 -72.33096
#
# Velocity S-wave (km/s) = 3.32533 -8.44547 -5.48945
# Velocity P-wave (km/s) = 5.02621 8.85396 5.15412
#
# Compressibility (1/GPa) = 0.03960587
#
# Stress axis : x y z
#
# Youngs Moduli (GPa) = 123.93178 29.81086 101.60868
#
# Poissons Ratio (x) = 0.07429 0.18282
# Poissons Ratio (y) = 0.30885 0.16597
# Poissons Ratio (z) = 0.22298 0.04869
#
# Static dielectric constant tensor:
#      x y z
#    x 1.917970 0.000000 0.000000 
#    y 0.000000 2.008740 0.000000 
#    z 0.000000 0.000000 1.926760 
# 
# From -- ./inp_files/11795.got.cif
#   From: 2010.05.17/outbox.cif.g08.bks.cpg/sg54_6_cif.got.tgz:11795.got - 2010.06.03 13:09:01.
