data_PCOD9421537
_publ_section_title
;
Structure prediction by ZEFSAII (Michael W. Deem and Ramdas Pophale) SiO2 
 PCOD9421537
Probable space group: P C C A
;
_chemical_formula_sum "Si O2"
_cell_formula_units_Z 48
_cell_length_a 13.487190
_cell_length_b 17.783323
_cell_length_c 10.119589
_cell_angle_alpha 90.000000
_cell_angle_beta 90.000000
_cell_angle_gamma 90.000000
_cell_volume 2427.153631
_symmetry_space_group_name_H-M "P C C A"
_symmetry_group_IT_number 54
_symmetry_cell_setting 'orthorhombic'
loop_
_space_group_symop_operation_xyz
x,y,z
1/2-x,-y,z
1/2+x,-y,1/2-z
-x,y,1/2-z
-x,-y,-z
1/2+x,y,-z
1/2-x,y,1/2+z
x,-y,1/2+z
loop_
_atom_site_type_symbol
_atom_site_label
_atom_site_fract_x
_atom_site_fract_y
_atom_site_fract_z
Si Si1 0.756592 0.630876 0.544756
Si Si2 0.500000 0.594295 0.250000
Si Si3 0.185220 0.072197 0.866910
Si Si4 0.153393 0.296316 0.189993
Si Si5 0.500000 0.009086 0.750000
Si Si6 0.106868 0.499479 0.934268
Si Si7 0.838271 0.873806 0.851549
O O1 0.730419 0.686414 0.426561
O O2 0.802548 0.674222 0.670322
O O3 0.661083 0.579376 0.580735
O O4 0.829281 0.564344 0.495036
O O5 0.443620 0.653221 0.156239
O O6 0.586588 0.538500 0.206177
O O7 0.243054 0.103507 0.738243
O O8 0.250000 0.000000 0.909924
O O9 0.184901 0.126528 0.992672
O O10 0.074864 0.043411 0.832988
O O11 0.129451 0.208736 0.194099
O O12 0.575783 0.064112 0.827872
O O13 0.000000 0.500000 0.000000
#
# Coordination Sequence:
#
# PCOD9421537 Si02
#       7
#     8   4   8   8   4   8   8
#     4  10  23  36  60  84 117 151 200 246 289 350
#     4  10  21  36  60  81 118 152 202 244 292 351
#     4  10  21  39  63  92 118 154 200 250 290 349
#     4  11  22  40  56  87 120 158 191 236 306 360
#     4  10  21  38  64  93 116 152 206 246 292 349
#     4  10  20  36  59  84 110 151 203 248 291 330
#     4  11  22  38  63  87 125 159 194 243 306 364
#
# _framework density 19.776250999999998
#
# number of rings (size 3 to 8) (size 9 to 14) (size 15 to 20)
#    0.000    1.667    1.667    3.500    2.333    2.667 
#    0.000    3.333    0.000    0.000    0.000    0.000 
#    0.000    0.000    0.000    0.000    0.000    0.000 
#
# Total GULP energy -267375.844739 kJ/mol
# GULP energy per Si atom -5570.330099 kJ/mol
# Density = 1.973124 g / cm^3
# Si number density = 19.776251 Si / 1000 Ang^3
#
#
#
# Elastic Constant Matrix: (Units=GPa)
#
#
# Indices 1 2 3 4 5 6 
#
# 1 94.5268 25.5607 33.9701 0.0000 0.0000 0.0000
# 2 25.5607 87.8160 29.7345 0.0000 0.0000 0.0000
# 3 33.9701 29.7345 84.0757 0.0000 0.0000 0.0000
# 4 0.0000 0.0000 0.0000 25.5131 0.0000 0.0000
# 5 0.0000 0.0000 0.0000 0.0000 21.7608 0.0000
# 6 0.0000 0.0000 0.0000 0.0000 0.0000 18.1744
#
#
#
# Elastic Compliance Matrix: (Units=1/GPa)
#
#
# Indices 1 2 3 4 5 6 
#
# 1 0.012751 -0.002235 -0.004362 0.000000 0.000000 0.000000
# 2 -0.002235 0.013328 -0.003811 0.000000 0.000000 0.000000
# 3 -0.004362 -0.003811 0.015004 0.000000 0.000000 0.000000
# 4 0.000000 0.000000 0.000000 0.039196 0.000000 0.000000
# 5 0.000000 0.000000 0.000000 0.000000 0.045954 0.000000
# 6 0.000000 0.000000 0.000000 0.000000 0.000000 0.055023
#
#
# Mechanical properties :
#
#
# Convention : Reuss Voigt Hill
#
# Bulk Modulus (GPa) = 49.33622 49.43877 49.38750
# Shear Modulus (GPa) = 23.94345 24.89986 24.42166
#
# Velocity S-wave (km/s) = 3.48331 3.55220 3.51792
# Velocity P-wave (km/s) = 6.41711 6.47128 6.44425
#
# Compressibility (1/GPa) = 0.02026908
#
# Stress axis : x y z
#
# Youngs Moduli (GPa) = 78.42741 75.02877 66.64868
#
# Poissons Ratio (x) = 0.16765 0.29069
# Poissons Ratio (y) = 0.17525 0.25399
# Poissons Ratio (z) = 0.34206 0.28592
#
# Static dielectric constant tensor:
#      x y z
#    x 1.751290 0.000000 0.000000 
#    y 0.000000 1.681730 0.000000 
#    z 0.000000 0.000000 1.814720 
# 
# From -- ./inp_files/3598.got.cif
#   From: 2010.05.17/outbox.cif.g08.bks.cpg/sg54_2_cif.got.tgz:3598.got - 2010.06.03 13:09:01.
