data_PCOD9421515
_publ_section_title
;
Structure prediction by ZEFSAII (Michael W. Deem and Ramdas Pophale) SiO2 
 PCOD9421515
Probable space group: P C C A
;
_chemical_formula_sum "Si O2"
_cell_formula_units_Z 40
_cell_length_a 11.743597
_cell_length_b 6.635630
_cell_length_c 23.316311
_cell_angle_alpha 90.000000
_cell_angle_beta 90.000000
_cell_angle_gamma 90.000000
_cell_volume 1816.950688
_symmetry_space_group_name_H-M "P C C A"
_symmetry_group_IT_number 54
_symmetry_cell_setting 'orthorhombic'
loop_
_space_group_symop_operation_xyz
x,y,z
1/2-x,-y,z
1/2+x,-y,1/2-z
-x,y,1/2-z
-x,-y,-z
1/2+x,y,-z
1/2-x,y,1/2+z
x,-y,1/2+z
loop_
_atom_site_type_symbol
_atom_site_label
_atom_site_fract_x
_atom_site_fract_y
_atom_site_fract_z
Si Si1 0.871067 0.530118 0.702724
Si Si2 0.750000 0.500000 0.001808
Si Si3 0.854094 0.113735 0.048379
Si Si4 0.887090 0.836610 0.937496
Si Si5 0.904035 0.782320 0.814073
Si Si6 0.000000 0.156415 0.750000
O O1 0.750000 0.500000 0.672548
O O2 0.848426 0.650386 0.763005
O O3 0.920535 0.308863 0.714960
O O4 0.975567 0.660231 0.676856
O O5 0.843361 0.630285 0.966792
O O6 0.817814 0.340743 0.038933
O O7 0.979816 0.115455 0.072912
O O8 0.750000 0.000000 0.079586
O O9 0.861248 0.007449 0.985184
O O10 0.838550 0.813259 0.873435
O O11 0.930448 0.003435 0.789809
#
# Coordination Sequence:
#
# PCOD9421515 Si02
#       6
#     8   4   8   8   8   4
#     4   9  19  37  54  78 113 137 182 228 269 330
#     4  10  20  36  58  80 106 152 180 232 288 318
#     4   9  20  38  55  79 115 147 180 234 282 328
#     4  10  20  37  56  83 113 141 192 228 274 347
#     4   9  20  34  54  82 105 147 180 218 280 330
#     4   8  18  38  52  72 114 142 168 224 280 310
#
# _framework density 22.014907999999998
#
# number of rings (size 3 to 8) (size 9 to 14) (size 15 to 20)
#    0.000    3.200    0.000    0.600    1.400    6.400 
#   12.600    0.000    0.000    0.000    0.000    0.000 
#    0.000    0.000    0.000    0.000    0.000    0.000 
#
# Total GULP energy -222682.660341 kJ/mol
# GULP energy per Si atom -5567.066509 kJ/mol
# Density = 2.196480 g / cm^3
# Si number density = 22.014908 Si / 1000 Ang^3
#
#
#
# Elastic Constant Matrix: (Units=GPa)
#
#
# Indices 1 2 3 4 5 6 
#
# 1 87.0933 7.9097 -27.6699 0.0000 0.0000 0.0000
# 2 7.9097 137.1600 10.0038 0.0000 0.0000 0.0000
# 3 -27.6699 10.0038 52.8487 0.0000 0.0000 0.0000
# 4 0.0000 0.0000 0.0000 1.9357 0.0000 0.0000
# 5 0.0000 0.0000 0.0000 0.0000 0.4986 0.0000
# 6 0.0000 0.0000 0.0000 0.0000 0.0000 -9.3916
#
#
#
# Elastic Compliance Matrix: (Units=1/GPa)
#
#
# Indices 1 2 3 4 5 6 
#
# 1 0.014020 -0.001363 0.007598 0.000000 0.000000 0.000000
# 2 -0.001363 0.007525 -0.002138 0.000000 0.000000 0.000000
# 3 0.007598 -0.002138 0.023305 0.000000 0.000000 0.000000
# 4 0.000000 0.000000 0.000000 0.516611 0.000000 0.000000
# 5 0.000000 0.000000 0.000000 0.000000 2.005572 0.000000
# 6 0.000000 0.000000 0.000000 0.000000 0.000000 -0.106478
#
#
# Mechanical properties :
#
#
# Convention : Reuss Voigt Hill
#
# Bulk Modulus (GPa) = 18.85191 28.62102 23.73647
# Shear Modulus (GPa) = 2.02426 17.73243 9.87835
#
# Velocity S-wave (km/s) = 0.95994 2.84117 2.12058
# Velocity P-wave (km/s) = 3.13217 4.87770 4.09893
#
# Compressibility (1/GPa) = 0.05304502
#
# Stress axis : x y z
#
# Youngs Moduli (GPa) = 71.32827 132.88571 42.90960
#
# Poissons Ratio (x) = 0.18108 -0.32604
# Poissons Ratio (y) = 0.09720 0.09174
# Poissons Ratio (z) = -0.54197 0.28410
#
# Static dielectric constant tensor:
#      x y z
#    x 1.904880 0.000000 0.000000 
#    y 0.000000 1.848360 0.000000 
#    z 0.000000 0.000000 1.826780 
# 
# From -- ./inp_files/24367.got.cif
#   From: 2010.05.17/outbox.cif.g08.bks.cpg/sg54_13_cif.got.tgz:24367.got - 2010.06.03 13:09:01.
