data_PCOD9421217
_publ_section_title
;
Structure prediction by ZEFSAII (Michael W. Deem and Ramdas Pophale) SiO2 
 PCOD9421217
Probable space group: P C C A
;
_chemical_formula_sum "Si O2"
_cell_formula_units_Z 48
_cell_length_a 14.238850
_cell_length_b 8.154825
_cell_length_c 16.990638
_cell_angle_alpha 90.000000
_cell_angle_beta 90.000000
_cell_angle_gamma 90.000000
_cell_volume 1972.873537
_symmetry_space_group_name_H-M "P C C A"
_symmetry_group_IT_number 54
_symmetry_cell_setting 'orthorhombic'
loop_
_space_group_symop_operation_xyz
x,y,z
1/2-x,-y,z
1/2+x,-y,1/2-z
-x,y,1/2-z
-x,-y,-z
1/2+x,y,-z
1/2-x,y,1/2+z
x,-y,1/2+z
loop_
_atom_site_type_symbol
_atom_site_label
_atom_site_fract_x
_atom_site_fract_y
_atom_site_fract_z
Si Si1 0.132243 0.205309 0.600571
Si Si2 0.847324 0.090183 0.608328
Si Si3 0.402833 0.580234 0.471943
Si Si4 0.973326 0.105623 0.340812
Si Si5 0.955417 0.402401 0.668331
Si Si6 0.834660 0.275532 0.442331
O O1 0.117964 0.241738 0.506919
O O2 0.241574 0.245336 0.609042
O O3 0.051220 0.326141 0.631512
O O4 0.104946 0.035554 0.641041
O O5 0.881120 0.249177 0.661035
O O6 0.841099 0.152205 0.517467
O O7 0.750000 0.000000 0.629830
O O8 0.933831 0.967891 0.620115
O O9 0.500000 0.500000 0.500000
O O10 0.403569 0.546809 0.379313
O O11 0.336477 0.450273 0.515738
O O12 0.925641 0.254503 0.387140
O O13 0.000000 0.128862 0.250000
O O14 0.000000 0.456674 0.750000
#
# Coordination Sequence:
#
# PCOD9421217 Si02
#       6
#     8   8   8   8   8   8
#     4  10  19  37  64  91 122 167 213 259 316 386
#     4  10  20  34  57  88 120 162 215 264 314 384
#     4   9  20  38  64  90 119 162 214 258 304 379
#     4  11  24  40  60  91 128 165 206 263 332 389
#     4   9  19  37  61  90 126 166 206 262 331 384
#     4  11  22  38  63  92 122 166 215 266 317 380
#
# _framework density 24.329993999999999
#
# number of rings (size 3 to 8) (size 9 to 14) (size 15 to 20)
#    0.000    2.000    0.000    5.500    0.000    6.667 
#    0.000    4.167    0.000   22.000    0.000    1.167 
#    0.000    0.000    0.000    0.000    0.000    0.000 
#
# Total GULP energy -267758.245588 kJ/mol
# GULP energy per Si atom -5578.296783 kJ/mol
# Density = 2.427462 g / cm^3
# Si number density = 24.329994 Si / 1000 Ang^3
#
#
#
# Elastic Constant Matrix: (Units=GPa)
#
#
# Indices 1 2 3 4 5 6 
#
# 1 162.8042 23.1701 8.1359 0.0000 0.0000 0.0000
# 2 23.1701 63.2197 45.8402 0.0000 0.0000 0.0000
# 3 8.1359 45.8402 105.3441 0.0000 0.0000 0.0000
# 4 0.0000 0.0000 0.0000 13.4333 0.0000 0.0000
# 5 0.0000 0.0000 0.0000 0.0000 15.3398 0.0000
# 6 0.0000 0.0000 0.0000 0.0000 0.0000 28.5249
#
#
#
# Elastic Compliance Matrix: (Units=1/GPa)
#
#
# Indices 1 2 3 4 5 6 
#
# 1 0.006524 -0.002960 0.000784 0.000000 0.000000 0.000000
# 2 -0.002960 0.024452 -0.010412 0.000000 0.000000 0.000000
# 3 0.000784 -0.010412 0.013963 0.000000 0.000000 0.000000
# 4 0.000000 0.000000 0.000000 0.074442 0.000000 0.000000
# 5 0.000000 0.000000 0.000000 0.000000 0.065190 0.000000
# 6 0.000000 0.000000 0.000000 0.000000 0.000000 0.035057
#
#
# Mechanical properties :
#
#
# Convention : Reuss Voigt Hill
#
# Bulk Modulus (GPa) = 50.59571 53.96224 52.27897
# Shear Modulus (GPa) = 19.88935 28.40771 24.14853
#
# Velocity S-wave (km/s) = 2.86227 3.42072 3.15388
# Velocity P-wave (km/s) = 5.63597 6.15055 5.89887
#
# Compressibility (1/GPa) = 0.01976452
#
# Stress axis : x y z
#
# Youngs Moduli (GPa) = 153.27110 40.89647 71.61924
#
# Poissons Ratio (x) = 0.12104 -0.05615
# Poissons Ratio (y) = 0.45363 0.74567
# Poissons Ratio (z) = -0.12017 0.42580
#
# Static dielectric constant tensor:
#      x y z
#    x 1.952580 0.000000 0.000000 
#    y 0.000000 2.127360 0.000000 
#    z 0.000000 0.000000 2.101370 
# 
# From -- ./inp_files/18009.got.cif
#   From: 2010.05.17/outbox.cif.g08.bks.cpg/sg54_10_cif.got.tgz:18009.got - 2010.06.03 13:09:01.
