data_PCOD9421362
_publ_section_title
;
Structure prediction by ZEFSAII (Michael W. Deem and Ramdas Pophale) SiO2 
 PCOD9421362
Probable space group: P C C A
;
_chemical_formula_sum "Si O2"
_cell_formula_units_Z 40
_cell_length_a 20.311075
_cell_length_b 5.559564
_cell_length_c 13.338761
_cell_angle_alpha 90.000000
_cell_angle_beta 90.000000
_cell_angle_gamma 90.000000
_cell_volume 1506.222514
_symmetry_space_group_name_H-M "P C C A"
_symmetry_group_IT_number 54
_symmetry_cell_setting 'orthorhombic'
loop_
_space_group_symop_operation_xyz
x,y,z
1/2-x,-y,z
1/2+x,-y,1/2-z
-x,y,1/2-z
-x,-y,-z
1/2+x,y,-z
1/2-x,y,1/2+z
x,-y,1/2+z
loop_
_atom_site_type_symbol
_atom_site_label
_atom_site_fract_x
_atom_site_fract_y
_atom_site_fract_z
Si Si1 0.475005 0.152782 0.644257
Si Si2 0.119712 0.898772 0.903020
Si Si3 0.320961 0.594719 0.871946
Si Si4 0.340783 0.627706 0.106556
Si Si5 0.648603 0.120617 0.361751
O O1 0.500000 0.251815 0.750000
O O2 0.541052 0.077817 0.588213
O O3 0.420668 0.332318 0.597373
O O4 0.427766 0.924546 0.666460
O O5 0.132096 0.636652 0.854684
O O6 0.151689 0.134316 0.849347
O O7 0.147888 0.881493 0.015622
O O8 0.250000 0.500000 0.839965
O O9 0.315582 0.617232 0.994049
O O10 0.327386 0.382996 0.164650
O O11 0.316347 0.868795 0.160491
#
# Coordination Sequence:
#
# PCOD9421362 Si02
#       5
#     8   8   8   8   8
#     4  10  21  33  52  82 115 142 170 213 282 343
#     4  10  20  33  55  81 106 137 177 227 272 314
#     4  10  20  35  56  80 101 138 184 232 263 302
#     4   8  18  31  51  76 107 131 172 215 270 314
#     4   8  17  31  49  74 106 134 166 213 263 317
#
# _framework density 26.556498999999999
#
# number of rings (size 3 to 8) (size 9 to 14) (size 15 to 20)
#    1.200    1.600    0.000    1.200    2.800    2.400 
#    0.000    0.000    0.000    1.200   10.400    0.000 
#    0.000    0.000    0.000    0.000    0.000    0.000 
#
# Total GULP energy -223269.639278 kJ/mol
# GULP energy per Si atom -5581.740982 kJ/mol
# Density = 2.649605 g / cm^3
# Si number density = 26.556499 Si / 1000 Ang^3
#
#
#
# Elastic Constant Matrix: (Units=GPa)
#
#
# Indices 1 2 3 4 5 6 
#
# 1 124.7063 112.6897 19.4045 0.0000 0.0000 0.0000
# 2 112.6897 221.4447 30.0513 0.0000 0.0000 0.0000
# 3 19.4045 30.0513 56.5294 0.0000 0.0000 0.0000
# 4 0.0000 0.0000 0.0000 42.3093 0.0000 0.0000
# 5 0.0000 0.0000 0.0000 0.0000 28.6243 0.0000
# 6 0.0000 0.0000 0.0000 0.0000 0.0000 45.2107
#
#
#
# Elastic Compliance Matrix: (Units=1/GPa)
#
#
# Indices 1 2 3 4 5 6 
#
# 1 0.014917 -0.007432 -0.001169 0.000000 0.000000 0.000000
# 2 -0.007432 0.008570 -0.002005 0.000000 0.000000 0.000000
# 3 -0.001169 -0.002005 0.019157 0.000000 0.000000 0.000000
# 4 0.000000 0.000000 0.000000 0.023635 0.000000 0.000000
# 5 0.000000 0.000000 0.000000 0.000000 0.034935 0.000000
# 6 0.000000 0.000000 0.000000 0.000000 0.000000 0.022119
#
#
# Mechanical properties :
#
#
# Convention : Reuss Voigt Hill
#
# Bulk Modulus (GPa) = 46.66072 80.77459 63.71765
# Shear Modulus (GPa) = 32.96199 39.26451 36.11325
#
# Velocity S-wave (km/s) = 3.52689 3.84933 3.69164
# Velocity P-wave (km/s) = 5.84755 7.08792 6.49740
#
# Compressibility (1/GPa) = 0.02143130
#
# Stress axis : x y z
#
# Youngs Moduli (GPa) = 67.03789 116.68584 52.20024
#
# Poissons Ratio (x) = 0.86724 0.06104
# Poissons Ratio (y) = 0.49825 0.10464
# Poissons Ratio (z) = 0.07839 0.23391
#
# Static dielectric constant tensor:
#      x y z
#    x 2.037880 0.000000 0.000000 
#    y 0.000000 2.148940 0.000000 
#    z 0.000000 0.000000 2.184060 
# 
# From -- ./inp_files/21788.got.cif
#   From: 2010.05.17/outbox.cif.g08.bks.cpg/sg54_11_cif.got.tgz:21788.got - 2010.06.03 13:09:01.
