data_PCOD9421170
_publ_section_title
;
Structure prediction by ZEFSAII (Michael W. Deem and Ramdas Pophale) SiO2 
 PCOD9421170
Probable space group: P C C A
;
_chemical_formula_sum "Si O2"
_cell_formula_units_Z 40
_cell_length_a 17.428902
_cell_length_b 6.847390
_cell_length_c 16.702830
_cell_angle_alpha 90.000000
_cell_angle_beta 90.000000
_cell_angle_gamma 90.000000
_cell_volume 1993.357310
_symmetry_space_group_name_H-M "P C C A"
_symmetry_group_IT_number 54
_symmetry_cell_setting 'orthorhombic'
loop_
_space_group_symop_operation_xyz
x,y,z
1/2-x,-y,z
1/2+x,-y,1/2-z
-x,y,1/2-z
-x,-y,-z
1/2+x,y,-z
1/2-x,y,1/2+z
x,-y,1/2+z
loop_
_atom_site_type_symbol
_atom_site_label
_atom_site_fract_x
_atom_site_fract_y
_atom_site_fract_z
Si Si1 0.446502 0.902555 0.068068
Si Si2 0.177165 0.896388 0.455994
Si Si3 0.324637 0.392952 0.313820
Si Si4 0.657661 0.959049 0.797727
Si Si5 0.093042 0.783945 0.844940
O O1 0.504354 0.798726 0.129076
O O2 0.391670 0.040940 0.121219
O O3 0.381906 0.792441 0.015997
O O4 0.500000 0.000000 0.000000
O O5 0.200682 0.742204 0.388318
O O6 0.250000 0.000000 0.495728
O O7 0.135858 0.074752 0.408812
O O8 0.250000 0.500000 0.280580
O O9 0.355165 0.244667 0.247904
O O10 0.381449 0.560117 0.343568
O O11 0.750000 0.000000 0.804467
O O12 0.619847 0.122369 0.739342
#
# Coordination Sequence:
#
# PCOD9421170 Si02
#       5
#     8   8   8   8   8
#     4  10  23  40  59  87 132 171 201 251 330 384
#     4  10  19  36  63  90 125 171 211 255 311 380
#     4  11  19  37  69  95 117 160 220 265 310 364
#     4  11  21  39  68  92 118 162 220 265 309 376
#     4  10  20  39  62  92 125 160 212 269 311 368
#
# _framework density 20.066649000000002
#
# number of rings (size 3 to 8) (size 9 to 14) (size 15 to 20)
#    0.000    1.600    4.000    2.400    0.000    0.800 
#    0.000   16.000    0.000    0.000    0.000    0.000 
#    0.000    0.000    0.000    0.000    0.000    0.000 
#
# Total GULP energy -222757.648011 kJ/mol
# GULP energy per Si atom -5568.941200 kJ/mol
# Density = 2.002098 g / cm^3
# Si number density = 20.066649 Si / 1000 Ang^3
#
#
#
# Elastic Constant Matrix: (Units=GPa)
#
#
# Indices 1 2 3 4 5 6 
#
# 1 107.2206 26.2816 46.9933 0.0000 0.0000 0.0000
# 2 26.2816 94.3615 15.9728 0.0000 0.0000 0.0000
# 3 46.9933 15.9728 78.6239 0.0000 0.0000 0.0000
# 4 0.0000 0.0000 0.0000 1.7832 0.0000 0.0000
# 5 0.0000 0.0000 0.0000 0.0000 37.6348 0.0000
# 6 0.0000 0.0000 0.0000 0.0000 0.0000 22.5593
#
#
#
# Elastic Compliance Matrix: (Units=1/GPa)
#
#
# Indices 1 2 3 4 5 6 
#
# 1 0.013148 -0.002415 -0.007368 0.000000 0.000000 0.000000
# 2 -0.002415 0.011418 -0.000876 0.000000 0.000000 0.000000
# 3 -0.007368 -0.000876 0.017301 0.000000 0.000000 0.000000
# 4 0.000000 0.000000 0.000000 0.560802 0.000000 0.000000
# 5 0.000000 0.000000 0.000000 0.000000 0.026571 0.000000
# 6 0.000000 0.000000 0.000000 0.000000 0.000000 0.044328
#
#
# Mechanical properties :
#
#
# Convention : Reuss Voigt Hill
#
# Bulk Modulus (GPa) = 48.66468 50.96683 49.81575
# Shear Modulus (GPa) = 7.12519 25.12599 16.12559
#
# Velocity S-wave (km/s) = 1.88639 3.54238 2.83786
# Velocity P-wave (km/s) = 5.38969 6.49501 5.96800
#
# Compressibility (1/GPa) = 0.02054878
#
# Stress axis : x y z
#
# Youngs Moduli (GPa) = 76.05930 87.57753 57.80176
#
# Poissons Ratio (x) = 0.21148 0.42587
# Poissons Ratio (y) = 0.18366 0.05066
# Poissons Ratio (z) = 0.56039 0.07676
#
# Static dielectric constant tensor:
#      x y z
#    x 1.770880 0.000000 0.000000 
#    y 0.000000 1.658910 0.000000 
#    z 0.000000 0.000000 1.756220 
# 
# From -- ./inp_files/18354.got.cif
#   From: 2010.05.17/outbox.cif.g08.bks.cpg/sg54_10_cif.got.tgz:18354.got - 2010.06.03 13:09:01.
