data_PCOD9421166
_publ_section_title
;
Structure prediction by ZEFSAII (Michael W. Deem and Ramdas Pophale) SiO2 
 PCOD9421166
Probable space group: P C C A
;
_chemical_formula_sum "Si O2"
_cell_formula_units_Z 56
_cell_length_a 15.994282
_cell_length_b 7.376662
_cell_length_c 20.436080
_cell_angle_alpha 90.000000
_cell_angle_beta 90.000000
_cell_angle_gamma 90.000000
_cell_volume 2411.138887
_symmetry_space_group_name_H-M "P C C A"
_symmetry_group_IT_number 54
_symmetry_cell_setting 'orthorhombic'
loop_
_space_group_symop_operation_xyz
x,y,z
1/2-x,-y,z
1/2+x,-y,1/2-z
-x,y,1/2-z
-x,-y,-z
1/2+x,y,-z
1/2-x,y,1/2+z
x,-y,1/2+z
loop_
_atom_site_type_symbol
_atom_site_label
_atom_site_fract_x
_atom_site_fract_y
_atom_site_fract_z
Si Si1 0.673574 0.275629 0.933757
Si Si2 0.717159 0.206663 0.784439
Si Si3 0.006416 0.801354 0.928242
Si Si4 0.484643 0.580512 0.641992
Si Si5 0.113032 0.321514 0.765560
Si Si6 0.071134 0.912338 0.794268
Si Si7 0.862197 0.301685 0.961346
O O1 0.681664 0.273606 0.854123
O O2 0.589722 0.158590 0.951197
O O3 0.768249 0.221005 0.955674
O O4 0.656387 0.479313 0.961563
O O5 0.792833 0.323425 0.757144
O O6 0.653188 0.197736 0.723961
O O7 0.750000 0.000000 0.796619
O O8 0.041074 0.921085 0.868552
O O9 0.992126 0.604375 0.896422
O O10 0.079637 0.771673 0.980595
O O11 0.435318 0.571483 0.709633
O O12 0.579426 0.625988 0.663122
O O13 0.425487 0.715733 0.600560
O O14 0.087066 0.110150 0.764363
O O15 0.000000 0.825693 0.750000
#
# Coordination Sequence:
#
# PCOD9421166 Si02
#       7
#     8   8   8   8   8   8   8
#     4  10  19  38  67  82 120 163 205 251 303 366
#     4  10  21  37  62  90 121 159 207 250 306 376
#     4  11  24  40  62  94 123 165 209 256 314 377
#     4  10  19  36  62  89 123 158 205 257 306 373
#     4  10  21  37  61  92 125 161 198 257 315 362
#     4  11  21  39  62  90 127 157 202 262 316 364
#     4  10  22  40  60  88 123 164 209 254 307 371
#
# _framework density 23.225538
#
# number of rings (size 3 to 8) (size 9 to 14) (size 15 to 20)
#    0.000    1.714    4.286    1.714    2.000    0.000 
#    7.714    0.714    3.143    0.000    0.000    0.000 
#    0.000    0.000    0.000    0.000    0.000    0.000 
#
# Total GULP energy -312284.552344 kJ/mol
# GULP energy per Si atom -5576.509863 kJ/mol
# Density = 2.317268 g / cm^3
# Si number density = 23.225538 Si / 1000 Ang^3
#
#
#
# Elastic Constant Matrix: (Units=GPa)
#
#
# Indices 1 2 3 4 5 6 
#
# 1 165.7340 43.6281 73.0988 0.0000 0.0000 0.0000
# 2 43.6281 60.9300 32.0438 0.0000 0.0000 0.0000
# 3 73.0988 32.0438 93.6518 0.0000 0.0000 0.0000
# 4 0.0000 0.0000 0.0000 -57.9816 0.0000 0.0000
# 5 0.0000 0.0000 0.0000 0.0000 50.9401 0.0000
# 6 0.0000 0.0000 0.0000 0.0000 0.0000 16.9281
#
#
#
# Elastic Compliance Matrix: (Units=1/GPa)
#
#
# Indices 1 2 3 4 5 6 
#
# 1 0.009829 -0.003662 -0.006419 0.000000 0.000000 0.000000
# 2 -0.003662 0.021378 -0.004456 0.000000 0.000000 0.000000
# 3 -0.006419 -0.004456 0.017213 0.000000 0.000000 0.000000
# 4 0.000000 0.000000 0.000000 -0.017247 0.000000 0.000000
# 5 0.000000 0.000000 0.000000 0.000000 0.019631 0.000000
# 6 0.000000 0.000000 0.000000 0.000000 0.000000 0.059073
#
#
# Mechanical properties :
#
#
# Convention : Reuss Voigt Hill
#
# Bulk Modulus (GPa) = 51.69213 68.65080 60.17147
# Shear Modulus (GPa) = 34.38793 13.41366 23.90080
#
# Velocity S-wave (km/s) = 3.85204 2.40581 3.21140
# Velocity P-wave (km/s) = 6.48762 6.11062 6.30194
#
# Compressibility (1/GPa) = 0.01934531
#
# Stress axis : x y z
#
# Youngs Moduli (GPa) = 101.74134 46.77690 58.09669
#
# Poissons Ratio (x) = 0.17130 0.37291
# Poissons Ratio (y) = 0.37259 0.25890
# Poissons Ratio (z) = 0.65305 0.20845
#
# Static dielectric constant tensor:
#      x y z
#    x 2.051390 0.000000 0.000000 
#    y 0.000000 1.948580 0.000000 
#    z 0.000000 0.000000 1.851820 
# 
# From -- ./inp_files/21638.got.cif
#   From: 2010.05.17/outbox.cif.g08.bks.cpg/sg54_11_cif.got.tgz:21638.got - 2010.06.03 13:09:01.
