data_PCOD9421294
_publ_section_title
;
Structure prediction by ZEFSAII (Michael W. Deem and Ramdas Pophale) SiO2 
 PCOD9421294
Probable space group: P C C A
;
_chemical_formula_sum "Si O2"
_cell_formula_units_Z 48
_cell_length_a 9.617775
_cell_length_b 14.972326
_cell_length_c 17.927913
_cell_angle_alpha 90.000000
_cell_angle_beta 90.000000
_cell_angle_gamma 90.000000
_cell_volume 2581.627767
_symmetry_space_group_name_H-M "P C C A"
_symmetry_group_IT_number 54
_symmetry_cell_setting 'orthorhombic'
loop_
_space_group_symop_operation_xyz
x,y,z
1/2-x,-y,z
1/2+x,-y,1/2-z
-x,y,1/2-z
-x,-y,-z
1/2+x,y,-z
1/2-x,y,1/2+z
x,-y,1/2+z
loop_
_atom_site_type_symbol
_atom_site_label
_atom_site_fract_x
_atom_site_fract_y
_atom_site_fract_z
Si Si1 0.135775 0.824163 0.649844
Si Si2 0.000000 0.414521 0.250000
Si Si3 0.867560 0.744057 0.062783
Si Si4 0.848831 0.755724 0.685251
Si Si5 0.250000 0.500000 0.656100
Si Si6 0.818656 0.322544 0.933822
Si Si7 0.870514 0.062241 0.485912
O O1 0.156228 0.814245 0.738723
O O2 0.240713 0.751421 0.616395
O O3 0.155190 0.912724 0.601131
O O4 0.974324 0.796841 0.636397
O O5 0.904744 0.343930 0.203677
O O6 0.886730 0.471850 0.295811
O O7 0.796433 0.752834 0.143316
O O8 0.018694 0.699763 0.061823
O O9 0.758552 0.687714 0.012958
O O10 0.879503 0.842786 0.027174
O O11 0.290982 0.583354 0.604711
O O12 0.750000 0.000000 0.516228
O O13 0.000000 0.000000 0.500000
#
# Coordination Sequence:
#
# PCOD9421294 Si02
#       7
#     8   4   8   8   4   8   8
#     4   9  19  39  61  87 122 167 204 254 322 386
#     4  10  24  40  64  92 130 164 212 262 314 370
#     4  11  24  40  64  89 125 171 208 259 327 386
#     4  10  19  42  63  85 122 176 203 249 327 384
#     4  12  24  42  64  98 128 168 214 270 308 374
#     4  11  23  40  61  89 127 165 215 260 316 379
#     4  11  21  38  63  92 122 160 211 267 316 379
#
# _framework density 18.592921
#
# number of rings (size 3 to 8) (size 9 to 14) (size 15 to 20)
#    0.000    1.667    3.333    5.000    2.333    1.333 
#    0.000    4.167    0.000    0.000    0.000    0.000 
#    0.000    0.000    0.000    0.000    0.000    0.000 
#
# Total GULP energy -267593.195711 kJ/mol
# GULP energy per Si atom -5574.858244 kJ/mol
# Density = 1.855060 g / cm^3
# Si number density = 18.592921 Si / 1000 Ang^3
#
#
#
# Elastic Constant Matrix: (Units=GPa)
#
#
# Indices 1 2 3 4 5 6 
#
# 1 130.6575 53.9475 36.4745 0.0000 0.0000 0.0000
# 2 53.9475 125.1780 42.5039 0.0000 0.0000 0.0000
# 3 36.4745 42.5039 74.0578 0.0000 0.0000 0.0000
# 4 0.0000 0.0000 0.0000 1.1410 0.0000 0.0000
# 5 0.0000 0.0000 0.0000 0.0000 37.9307 0.0000
# 6 0.0000 0.0000 0.0000 0.0000 0.0000 14.2716
#
#
#
# Elastic Compliance Matrix: (Units=1/GPa)
#
#
# Indices 1 2 3 4 5 6 
#
# 1 0.009816 -0.003215 -0.002989 0.000000 0.000000 0.000000
# 2 -0.003215 0.010975 -0.004716 0.000000 0.000000 0.000000
# 3 -0.002989 -0.004716 0.017681 0.000000 0.000000 0.000000
# 4 0.000000 0.000000 0.000000 0.876393 0.000000 0.000000
# 5 0.000000 0.000000 0.000000 0.000000 0.026364 0.000000
# 6 0.000000 0.000000 0.000000 0.000000 0.000000 0.070069
#
#
# Mechanical properties :
#
#
# Convention : Reuss Voigt Hill
#
# Bulk Modulus (GPa) = 60.12185 66.19389 63.15787
# Shear Modulus (GPa) = 4.81379 23.79984 14.30682
#
# Velocity S-wave (km/s) = 1.61080 3.58166 2.77695
# Velocity P-wave (km/s) = 5.98879 7.26521 6.65766
#
# Compressibility (1/GPa) = 0.01663289
#
# Stress axis : x y z
#
# Youngs Moduli (GPa) = 101.87897 91.11239 56.55642
#
# Poissons Ratio (x) = 0.29295 0.16904
# Poissons Ratio (y) = 0.32757 0.26669
# Poissons Ratio (z) = 0.30451 0.42965
#
# Static dielectric constant tensor:
#      x y z
#    x 1.616400 0.000000 0.000000 
#    y 0.000000 1.626100 0.000000 
#    z 0.000000 0.000000 1.696550 
# 
# From -- ./inp_files/16662.got.cif
#   From: 2010.05.17/outbox.cif.g08.bks.cpg/sg54_9_cif.got.tgz:16662.got - 2010.06.03 13:09:01.
