data_PCOD9421320
_publ_section_title
;
Structure prediction by ZEFSAII (Michael W. Deem and Ramdas Pophale) SiO2 
 PCOD9421320
Probable space group: P C C A
;
_chemical_formula_sum "Si O2"
_cell_formula_units_Z 56
_cell_length_a 15.284071
_cell_length_b 18.776053
_cell_length_c 9.170013
_cell_angle_alpha 90.000000
_cell_angle_beta 90.000000
_cell_angle_gamma 90.000000
_cell_volume 2631.560145
_symmetry_space_group_name_H-M "P C C A"
_symmetry_group_IT_number 54
_symmetry_cell_setting 'orthorhombic'
loop_
_space_group_symop_operation_xyz
x,y,z
1/2-x,-y,z
1/2+x,-y,1/2-z
-x,y,1/2-z
-x,-y,-z
1/2+x,y,-z
1/2-x,y,1/2+z
x,-y,1/2+z
loop_
_atom_site_type_symbol
_atom_site_label
_atom_site_fract_x
_atom_site_fract_y
_atom_site_fract_z
Si Si1 0.997364 0.076563 0.074528
Si Si2 0.896340 0.720965 0.782336
Si Si3 0.601573 0.272950 0.292404
Si Si4 0.403141 0.430448 0.825163
Si Si5 0.657134 0.180934 0.545053
Si Si6 0.354653 0.187338 0.471532
Si Si7 0.097427 0.429409 0.678359
O O1 0.000000 0.071407 0.250000
O O2 0.907062 0.115004 0.032211
O O3 0.075308 0.128102 0.017956
O O4 0.000000 0.000000 0.000000
O O5 0.863803 0.644996 0.725365
O O6 0.848157 0.787274 0.707168
O O7 0.000000 0.727559 0.750000
O O8 0.879808 0.737573 0.950766
O O9 0.500000 0.275274 0.250000
O O10 0.615642 0.246533 0.455651
O O11 0.640817 0.209713 0.196526
O O12 0.638353 0.352916 0.281609
O O13 0.500000 0.427391 0.750000
O O14 0.361305 0.500760 0.752896
O O15 0.408154 0.435603 0.001479
O O16 0.755375 0.165974 0.498429
O O17 0.000000 0.426787 0.750000
#
# Coordination Sequence:
#
# PCOD9421320 Si02
#       7
#     8   8   8   8   8   8   8
#     4  12  28  51  73 102 137 173 213 262 329 401
#     4  11  20  41  67  94 133 180 226 276 332 387
#     4  11  22  37  67 100 134 169 230 278 329 385
#     4  10  20  31  56  88 131 175 227 281 335 391
#     4  12  23  46  69 102 134 170 225 267 325 393
#     4  12  25  42  73 100 132 179 216 276 325 387
#     4  10  20  32  53  92 130 174 227 282 332 394
#
# _framework density 21.280151
#
# number of rings (size 3 to 8) (size 9 to 14) (size 15 to 20)
#    0.000    0.857    5.714    2.571   10.000    0.571 
#    0.000    1.429    0.000    5.143    0.000    0.000 
#    0.000    0.000    0.000    0.000    0.000    0.000 
#
# Total GULP energy -312661.363747 kJ/mol
# GULP energy per Si atom -5583.238638 kJ/mol
# Density = 2.123172 g / cm^3
# Si number density = 21.280151 Si / 1000 Ang^3
#
#
#
# Elastic Constant Matrix: (Units=GPa)
#
#
# Indices 1 2 3 4 5 6 
#
# 1 121.3660 51.0047 27.3655 0.0000 0.0000 0.0000
# 2 51.0047 176.1520 44.1810 0.0000 0.0000 0.0000
# 3 27.3655 44.1810 83.0176 0.0000 0.0000 0.0000
# 4 0.0000 0.0000 0.0000 38.9991 0.0000 0.0000
# 5 0.0000 0.0000 0.0000 0.0000 19.5315 0.0000
# 6 0.0000 0.0000 0.0000 0.0000 0.0000 -6.8690
#
#
#
# Elastic Compliance Matrix: (Units=1/GPa)
#
#
# Indices 1 2 3 4 5 6 
#
# 1 0.009648 -0.002303 -0.001955 0.000000 0.000000 0.000000
# 2 -0.002303 0.007101 -0.003020 0.000000 0.000000 0.000000
# 3 -0.001955 -0.003020 0.014297 0.000000 0.000000 0.000000
# 4 0.000000 0.000000 0.000000 0.025642 0.000000 0.000000
# 5 0.000000 0.000000 0.000000 0.000000 0.051199 0.000000
# 6 0.000000 0.000000 0.000000 0.000000 0.000000 -0.145582
#
#
# Mechanical properties :
#
#
# Convention : Reuss Voigt Hill
#
# Bulk Modulus (GPa) = 60.63968 69.51532 65.07750
# Shear Modulus (GPa) = -283.41723 27.53130 -127.94297
#
# Velocity S-wave (km/s) = -11.55305 3.60078 -7.76232
# Velocity P-wave (km/s) = 12.22318 7.07285 7.04915
#
# Compressibility (1/GPa) = 0.01649085
#
# Stress axis : x y z
#
# Youngs Moduli (GPa) = 103.64542 140.81913 69.94421
#
# Poissons Ratio (x) = 0.32437 0.13671
# Poissons Ratio (y) = 0.23874 0.21123
# Poissons Ratio (z) = 0.20258 0.42527
#
# Static dielectric constant tensor:
#      x y z
#    x 1.811650 0.000000 0.000000 
#    y 0.000000 1.774560 0.000000 
#    z 0.000000 0.000000 1.755580 
# 
# From -- ./inp_files/3694.got.cif
#   From: 2010.05.17/outbox.cif.g08.bks.cpg/sg54_2_cif.got.tgz:3694.got - 2010.06.03 13:09:01.
