data_PCOD9421149
_publ_section_title
;
Structure prediction by ZEFSAII (Michael W. Deem and Ramdas Pophale) SiO2 
 PCOD9421149
Probable space group: P C C A
;
_chemical_formula_sum "Si O2"
_cell_formula_units_Z 44
_cell_length_a 9.247870
_cell_length_b 12.732119
_cell_length_c 17.163305
_cell_angle_alpha 90.000000
_cell_angle_beta 90.000000
_cell_angle_gamma 90.000000
_cell_volume 2020.893027
_symmetry_space_group_name_H-M "P C C A"
_symmetry_group_IT_number 54
_symmetry_cell_setting 'orthorhombic'
loop_
_space_group_symop_operation_xyz
x,y,z
1/2-x,-y,z
1/2+x,-y,1/2-z
-x,y,1/2-z
-x,-y,-z
1/2+x,y,-z
1/2-x,y,1/2+z
x,-y,1/2+z
loop_
_atom_site_type_symbol
_atom_site_label
_atom_site_fract_x
_atom_site_fract_y
_atom_site_fract_z
Si Si1 0.670746 0.278207 0.111943
Si Si2 0.969714 0.885650 0.465249
Si Si3 0.985606 0.757104 0.622447
Si Si4 0.500000 0.263462 0.250000
Si Si5 0.255515 0.881027 0.676271
Si Si6 0.123715 0.574104 0.534692
O O1 0.600632 0.167033 0.084131
O O2 0.556542 0.323876 0.174321
O O3 0.825647 0.264961 0.152554
O O4 0.680278 0.352428 0.036449
O O5 0.951562 0.810768 0.539042
O O6 0.829474 0.885947 0.409925
O O7 0.000000 0.000000 0.500000
O O8 0.096720 0.831396 0.667878
O O9 0.065865 0.649609 0.601818
O O10 0.632842 0.189448 0.275764
O O11 0.250000 0.000000 0.706658
O O12 0.250000 0.500000 0.563659
O O13 0.000000 0.500000 0.500000
#
# Coordination Sequence:
#
# PCOD9421149 Si02
#       6
#     8   8   8   4   8   8
#     4  10  23  40  62  92 126 168 204 261 305 378
#     4  10  19  36  59  93 128 157 200 257 322 367
#     4  11  22  36  64  99 127 154 207 266 322 366
#     4  10  26  44  58  80 132 176 220 248 300 374
#     4  11  23  40  61  89 127 175 213 254 306 374
#     4  11  22  40  71 101 126 152 200 265 335 378
#
# _framework density 21.772552999999998
#
# number of rings (size 3 to 8) (size 9 to 14) (size 15 to 20)
#    0.000    1.455    3.636    2.182    5.091    2.182 
#    0.000    0.000    4.000    0.000    0.000    0.000 
#    0.000    0.000    0.000    0.000    0.000    0.000 
#
# Total GULP energy -245979.631577 kJ/mol
# GULP energy per Si atom -5590.446172 kJ/mol
# Density = 2.172300 g / cm^3
# Si number density = 21.772553 Si / 1000 Ang^3
#
#
#
# Elastic Constant Matrix: (Units=GPa)
#
#
# Indices 1 2 3 4 5 6 
#
# 1 142.4641 40.8847 17.0631 0.0000 0.0000 0.0000
# 2 40.8847 89.3340 0.6638 0.0000 0.0000 0.0000
# 3 17.0631 0.6638 53.7189 0.0000 0.0000 0.0000
# 4 0.0000 0.0000 0.0000 6.4156 0.0000 0.0000
# 5 0.0000 0.0000 0.0000 0.0000 29.2642 0.0000
# 6 0.0000 0.0000 0.0000 0.0000 0.0000 33.6005
#
#
#
# Elastic Compliance Matrix: (Units=1/GPa)
#
#
# Indices 1 2 3 4 5 6 
#
# 1 0.008437 -0.003842 -0.002632 0.000000 0.000000 0.000000
# 2 -0.003842 0.012944 0.001060 0.000000 0.000000 0.000000
# 3 -0.002632 0.001060 0.019438 0.000000 0.000000 0.000000
# 4 0.000000 0.000000 0.000000 0.155871 0.000000 0.000000
# 5 0.000000 0.000000 0.000000 0.000000 0.034171 0.000000
# 6 0.000000 0.000000 0.000000 0.000000 0.000000 0.029761
#
#
# Mechanical properties :
#
#
# Convention : Reuss Voigt Hill
#
# Bulk Modulus (GPa) = 33.34212 44.74892 39.04552
# Shear Modulus (GPa) = 17.76523 28.98309 23.37416
#
# Velocity S-wave (km/s) = 2.85958 3.65249 3.28008
# Velocity P-wave (km/s) = 5.12347 6.19557 5.68485
#
# Compressibility (1/GPa) = 0.02999209
#
# Stress axis : x y z
#
# Youngs Moduli (GPa) = 118.52365 77.25407 51.44430
#
# Poissons Ratio (x) = 0.29679 0.13543
# Poissons Ratio (y) = 0.45534 -0.05455
# Poissons Ratio (z) = 0.31201 -0.08192
#
# Static dielectric constant tensor:
#      x y z
#    x 1.807250 0.000000 0.000000 
#    y 0.000000 1.764990 0.000000 
#    z 0.000000 0.000000 1.824640 
# 
# From -- ./inp_files/16545.got.cif
#   From: 2010.05.17/outbox.cif.g08.bks.cpg/sg54_9_cif.got.tgz:16545.got - 2010.06.03 13:09:01.
