data_PCOD9421302
_publ_section_title
;
Structure prediction by ZEFSAII (Michael W. Deem and Ramdas Pophale) SiO2 
 PCOD9421302
Probable space group: P C C A
;
_chemical_formula_sum "Si O2"
_cell_formula_units_Z 48
_cell_length_a 14.350540
_cell_length_b 7.296320
_cell_length_c 18.910532
_cell_angle_alpha 90.000000
_cell_angle_beta 90.000000
_cell_angle_gamma 90.000000
_cell_volume 1980.048660
_symmetry_space_group_name_H-M "P C C A"
_symmetry_group_IT_number 54
_symmetry_cell_setting 'orthorhombic'
loop_
_space_group_symop_operation_xyz
x,y,z
1/2-x,-y,z
1/2+x,-y,1/2-z
-x,y,1/2-z
-x,-y,-z
1/2+x,y,-z
1/2-x,y,1/2+z
x,-y,1/2+z
loop_
_atom_site_type_symbol
_atom_site_label
_atom_site_fract_x
_atom_site_fract_y
_atom_site_fract_z
Si Si1 0.250000 0.500000 0.054528
Si Si2 0.946722 0.912142 0.178405
Si Si3 0.320572 0.207622 0.636147
Si Si4 0.489604 0.651676 0.329122
Si Si5 0.427060 0.897302 0.550585
Si Si6 0.596331 0.549968 0.036199
Si Si7 0.750000 0.000000 0.729082
O O1 0.263962 0.327633 0.106591
O O2 0.326400 0.574015 0.999253
O O3 0.964658 0.131922 0.171660
O O4 0.000000 0.855397 0.250000
O O5 0.834288 0.902306 0.186317
O O6 0.004419 0.824507 0.113484
O O7 0.407358 0.347959 0.637961
O O8 0.300106 0.137697 0.715163
O O9 0.355444 0.037427 0.588518
O O10 0.500000 0.582623 0.250000
O O11 0.415851 0.557638 0.380430
O O12 0.382607 0.749727 0.497451
O O13 0.500000 0.000000 0.500000
O O14 0.500000 0.500000 0.000000
#
# Coordination Sequence:
#
# PCOD9421302 Si02
#       7
#     4   8   8   8   8   8   4
#     4  12  26  42  66 104 138 178 234 274 352 412
#     4  10  20  38  65  97 130 168 225 282 331 403
#     4  11  22  41  68  97 134 182 223 283 343 407
#     4  10  19  44  68  88 134 183 213 274 349 396
#     4  11  20  42  70  97 129 178 228 278 350 399
#     4  12  24  45  68  97 140 178 225 285 340 422
#     4  12  20  40  70  98 134 172 236 282 334 410
#
# _framework density 24.241828999999999
#
# number of rings (size 3 to 8) (size 9 to 14) (size 15 to 20)
#    0.000    1.000   10.000    1.000    0.000    0.000 
#    6.000    3.333    0.000    0.000    0.000    0.000 
#    0.000    0.000    0.000    0.000    0.000    0.000 
#
# Total GULP energy -267964.524790 kJ/mol
# GULP energy per Si atom -5582.594266 kJ/mol
# Density = 2.418665 g / cm^3
# Si number density = 24.241829 Si / 1000 Ang^3
#
#
#
# Elastic Constant Matrix: (Units=GPa)
#
#
# Indices 1 2 3 4 5 6 
#
# 1 90.5840 -3.9084 15.4778 0.0000 0.0000 0.0000
# 2 -3.9084 66.6773 12.0500 0.0000 0.0000 0.0000
# 3 15.4778 12.0500 155.0548 0.0000 0.0000 0.0000
# 4 0.0000 0.0000 0.0000 15.0299 0.0000 0.0000
# 5 0.0000 0.0000 0.0000 0.0000 49.2914 0.0000
# 6 0.0000 0.0000 0.0000 0.0000 0.0000 23.2747
#
#
#
# Elastic Compliance Matrix: (Units=1/GPa)
#
#
# Indices 1 2 3 4 5 6 
#
# 1 0.011281 0.000877 -0.001194 0.000000 0.000000 0.000000
# 2 0.000877 0.015279 -0.001275 0.000000 0.000000 0.000000
# 3 -0.001194 -0.001275 0.006668 0.000000 0.000000 0.000000
# 4 0.000000 0.000000 0.000000 0.066534 0.000000 0.000000
# 5 0.000000 0.000000 0.000000 0.000000 0.020288 0.000000
# 6 0.000000 0.000000 0.000000 0.000000 0.000000 0.042965
#
#
# Mechanical properties :
#
#
# Convention : Reuss Voigt Hill
#
# Bulk Modulus (GPa) = 33.28439 39.95057 36.61748
# Shear Modulus (GPa) = 28.37458 36.76565 32.57011
#
# Velocity S-wave (km/s) = 3.42494 3.89861 3.66942
# Velocity P-wave (km/s) = 5.42220 6.06476 5.75246
#
# Compressibility (1/GPa) = 0.03004411
#
# Stress axis : x y z
#
# Youngs Moduli (GPa) = 88.64163 65.44743 149.97828
#
# Poissons Ratio (x) = -0.05740 0.17912
# Poissons Ratio (y) = -0.07775 0.19122
# Poissons Ratio (z) = 0.10586 0.08344
#
# Static dielectric constant tensor:
#      x y z
#    x 2.474220 0.000000 0.000000 
#    y 0.000000 2.030810 0.000000 
#    z 0.000000 0.000000 1.938550 
# 
# From -- ./inp_files/21498.got.cif
#   From: 2010.05.17/outbox.cif.g08.bks.cpg/sg54_11_cif.got.tgz:21498.got - 2010.06.03 13:09:01.
