data_PCOD9421879
_publ_section_title
;
Structure prediction by ZEFSAII (Michael W. Deem and Ramdas Pophale) SiO2 
 PCOD9421879
Probable space group: P C C A
;
_chemical_formula_sum "Si O2"
_cell_formula_units_Z 40
_cell_length_a 7.382718
_cell_length_b 11.066349
_cell_length_c 19.819790
_cell_angle_alpha 90.000000
_cell_angle_beta 90.000000
_cell_angle_gamma 90.000000
_cell_volume 1619.271570
_symmetry_space_group_name_H-M "P C C A"
_symmetry_group_IT_number 54
_symmetry_cell_setting 'orthorhombic'
loop_
_space_group_symop_operation_xyz
x,y,z
1/2-x,-y,z
1/2+x,-y,1/2-z
-x,y,1/2-z
-x,-y,-z
1/2+x,y,-z
1/2-x,y,1/2+z
x,-y,1/2+z
loop_
_atom_site_type_symbol
_atom_site_label
_atom_site_fract_x
_atom_site_fract_y
_atom_site_fract_z
Si Si1 0.121772 0.648510 0.195207
Si Si2 0.750000 0.500000 0.425688
Si Si3 0.000000 0.757766 0.750000
Si Si4 0.931085 0.821911 0.101930
Si Si5 0.068637 0.073755 0.127331
Si Si6 0.765204 0.749205 0.985671
O O1 0.123283 0.566460 0.128806
O O2 0.318320 0.684519 0.225896
O O3 0.006884 0.765601 0.170555
O O4 0.000000 0.584088 0.250000
O O5 0.678849 0.611134 0.469560
O O6 0.977655 0.846936 0.685871
O O7 0.061812 0.769476 0.042978
O O8 0.944254 0.964491 0.103485
O O9 0.751941 0.776486 0.065398
O O10 0.139820 0.155774 0.065872
O O11 0.250000 0.000000 0.152981
#
# Coordination Sequence:
#
# PCOD9421879 Si02
#       6
#     8   4   4   8   8   8
#     4  11  26  44  67 104 139 181 242 287 344 436
#     4  10  22  46  68  98 138 182 240 296 344 428
#     4  12  22  44  72  96 148 188 222 294 370 402
#     4  10  22  43  63 100 135 173 237 284 354 429
#     4  10  20  39  65 100 135 176 231 284 345 435
#     4  10  21  40  68  92 136 177 224 296 344 409
#
# _framework density 24.702465
#
# number of rings (size 3 to 8) (size 9 to 14) (size 15 to 20)
#    0.000    1.600    6.000    0.600    2.800    4.800 
#    0.000    3.000    0.000    0.000    0.000    0.000 
#    0.000    0.000    0.000    0.000    0.000    0.000 
#
# Total GULP energy -223095.278833 kJ/mol
# GULP energy per Si atom -5577.381971 kJ/mol
# Density = 2.464624 g / cm^3
# Si number density = 24.702465 Si / 1000 Ang^3
#
#
#
# Elastic Constant Matrix: (Units=GPa)
#
#
# Indices 1 2 3 4 5 6 
#
# 1 59.0765 14.4003 25.2676 0.0000 0.0000 0.0000
# 2 14.4003 150.2670 45.5728 0.0000 0.0000 0.0000
# 3 25.2676 45.5728 139.7540 0.0000 0.0000 0.0000
# 4 0.0000 0.0000 0.0000 42.1763 0.0000 0.0000
# 5 0.0000 0.0000 0.0000 0.0000 24.8670 0.0000
# 6 0.0000 0.0000 0.0000 0.0000 0.0000 4.6476
#
#
#
# Elastic Compliance Matrix: (Units=1/GPa)
#
#
# Indices 1 2 3 4 5 6 
#
# 1 0.018441 -0.000839 -0.003061 0.000000 0.000000 0.000000
# 2 -0.000839 0.007423 -0.002269 0.000000 0.000000 0.000000
# 3 -0.003061 -0.002269 0.008449 0.000000 0.000000 0.000000
# 4 0.000000 0.000000 0.000000 0.023710 0.000000 0.000000
# 5 0.000000 0.000000 0.000000 0.000000 0.040214 0.000000
# 6 0.000000 0.000000 0.000000 0.000000 0.000000 0.215165
#
#
# Mechanical properties :
#
#
# Convention : Reuss Voigt Hill
#
# Bulk Modulus (GPa) = 45.50477 57.73099 51.61788
# Shear Modulus (GPa) = 15.01214 31.92864 23.47039
#
# Velocity S-wave (km/s) = 2.46787 3.59908 3.08575
# Velocity P-wave (km/s) = 5.15574 6.37906 5.79974
#
# Compressibility (1/GPa) = 0.02197572
#
# Stress axis : x y z
#
# Youngs Moduli (GPa) = 54.22779 134.70970 118.36165
#
# Poissons Ratio (x) = 0.11302 0.36225
# Poissons Ratio (y) = 0.04550 0.26856
# Poissons Ratio (z) = 0.16596 0.30566
#
# Static dielectric constant tensor:
#      x y z
#    x 2.377770 0.000000 0.000000 
#    y 0.000000 1.977930 0.000000 
#    z 0.000000 0.000000 2.311580 
# 
# From -- ./inp_files/20327.got.cif
#   From: 2010.05.17/outbox.cif.g08.bks.cpg/sg54_11_cif.got.tgz:20327.got - 2010.06.03 13:09:01.
