data_PCOD9421026
_publ_section_title
;
Structure prediction by ZEFSAII (Michael W. Deem and Ramdas Pophale) SiO2 
 PCOD9421026
Probable space group: P C C A
;
_chemical_formula_sum "Si O2"
_cell_formula_units_Z 56
_cell_length_a 8.608313
_cell_length_b 16.555930
_cell_length_c 21.016198
_cell_angle_alpha 90.000000
_cell_angle_beta 90.000000
_cell_angle_gamma 90.000000
_cell_volume 2995.199693
_symmetry_space_group_name_H-M "P C C A"
_symmetry_group_IT_number 54
_symmetry_cell_setting 'orthorhombic'
loop_
_space_group_symop_operation_xyz
x,y,z
1/2-x,-y,z
1/2+x,-y,1/2-z
-x,y,1/2-z
-x,-y,-z
1/2+x,y,-z
1/2-x,y,1/2+z
x,-y,1/2+z
loop_
_atom_site_type_symbol
_atom_site_label
_atom_site_fract_x
_atom_site_fract_y
_atom_site_fract_z
Si Si1 0.643505 0.076572 0.552026
Si Si2 0.835214 0.917055 0.876908
Si Si3 0.814826 0.084260 0.738843
Si Si4 0.617185 0.193282 0.447633
Si Si5 0.625771 0.558675 0.468319
Si Si6 0.320744 0.208642 0.371178
Si Si7 0.850729 0.333659 0.052832
O O1 0.512583 0.067151 0.605642
O O2 0.566017 0.114620 0.488994
O O3 0.755495 0.146006 0.577214
O O4 0.750000 0.000000 0.540561
O O5 0.782574 0.905326 0.803984
O O6 0.775610 0.839511 0.916290
O O7 0.750000 0.000000 0.895930
O O8 0.797933 0.162790 0.694890
O O9 0.000000 0.073671 0.750000
O O10 0.750000 0.000000 0.709947
O O11 0.500189 0.216001 0.391041
O O12 0.625116 0.267975 0.496087
O O13 0.750000 0.500000 0.433336
O O14 0.500000 0.500000 0.500000
O O15 0.516128 0.623952 0.433489
O O16 0.725800 0.604664 0.522367
O O17 0.225189 0.289327 0.386643
#
# Coordination Sequence:
#
# PCOD9421026 Si02
#       7
#     8   8   8   8   8   8   8
#     4  11  23  35  54  79 111 147 196 246 304 356
#     4  11  24  38  56  76 107 156 208 254 295 343
#     4  11  25  42  57  73 103 155 216 264 297 331
#     4  11  21  36  54  82 117 156 185 239 300 353
#     4   9  18  33  56  86 122 157 175 209 273 362
#     4  11  22  35  56  77 110 154 192 243 298 335
#     4  10  19  34  55  86 123 151 179 226 285 349
#
# _framework density 18.696583
#
# number of rings (size 3 to 8) (size 9 to 14) (size 15 to 20)
#    0.000    1.429    2.857    3.429    8.000    1.714 
#    0.000    0.714    0.000    0.000    0.000    0.000 
#    0.000   24.000    0.286    0.000    0.000    0.000 
#
# Total GULP energy -312279.196170 kJ/mol
# GULP energy per Si atom -5576.414217 kJ/mol
# Density = 1.865403 g / cm^3
# Si number density = 18.696583 Si / 1000 Ang^3
#
#
#
# Elastic Constant Matrix: (Units=GPa)
#
#
# Indices 1 2 3 4 5 6 
#
# 1 111.1886 49.1399 36.2884 0.0000 0.0000 0.0000
# 2 49.1399 95.7523 27.8766 0.0000 0.0000 0.0000
# 3 36.2884 27.8766 77.2634 0.0000 0.0000 0.0000
# 4 0.0000 0.0000 0.0000 10.7681 0.0000 0.0000
# 5 0.0000 0.0000 0.0000 0.0000 18.4316 0.0000
# 6 0.0000 0.0000 0.0000 0.0000 0.0000 35.2416
#
#
#
# Elastic Compliance Matrix: (Units=1/GPa)
#
#
# Indices 1 2 3 4 5 6 
#
# 1 0.012661 -0.005326 -0.004025 0.000000 0.000000 0.000000
# 2 -0.005326 0.013910 -0.002517 0.000000 0.000000 0.000000
# 3 -0.004025 -0.002517 0.015741 0.000000 0.000000 0.000000
# 4 0.000000 0.000000 0.000000 0.092867 0.000000 0.000000
# 5 0.000000 0.000000 0.000000 0.000000 0.054255 0.000000
# 6 0.000000 0.000000 0.000000 0.000000 0.000000 0.028376
#
#
# Mechanical properties :
#
#
# Convention : Reuss Voigt Hill
#
# Bulk Modulus (GPa) = 53.83273 56.75710 55.29492
# Shear Modulus (GPa) = 20.18266 24.28155 22.23211
#
# Velocity S-wave (km/s) = 3.28911 3.60768 3.45207
# Velocity P-wave (km/s) = 6.57873 6.91207 6.74746
#
# Compressibility (1/GPa) = 0.01857606
#
# Stress axis : x y z
#
# Youngs Moduli (GPa) = 78.98197 71.89241 63.52684
#
# Poissons Ratio (x) = 0.38289 0.25570
# Poissons Ratio (y) = 0.42065 0.15991
# Poissons Ratio (z) = 0.31790 0.18097
#
# Static dielectric constant tensor:
#      x y z
#    x 1.722080 0.000000 0.000000 
#    y 0.000000 1.687380 0.000000 
#    z 0.000000 0.000000 1.665290 
# 
# From -- ./inp_files/20633.got.cif
#   From: 2010.05.17/outbox.cif.g08.bks.cpg/sg54_11_cif.got.tgz:20633.got - 2010.06.03 13:09:01.
