data_PCOD9421021
_publ_section_title
;
Structure prediction by ZEFSAII (Michael W. Deem and Ramdas Pophale) SiO2 
 PCOD9421021
Probable space group: P C C A
;
_chemical_formula_sum "Si O2"
_cell_formula_units_Z 40
_cell_length_a 5.015890
_cell_length_b 28.540661
_cell_length_c 12.261476
_cell_angle_alpha 90.000000
_cell_angle_beta 90.000000
_cell_angle_gamma 90.000000
_cell_volume 1755.313865
_symmetry_space_group_name_H-M "P C C A"
_symmetry_group_IT_number 54
_symmetry_cell_setting 'orthorhombic'
loop_
_space_group_symop_operation_xyz
x,y,z
1/2-x,-y,z
1/2+x,-y,1/2-z
-x,y,1/2-z
-x,-y,-z
1/2+x,y,-z
1/2-x,y,1/2+z
x,-y,1/2+z
loop_
_atom_site_type_symbol
_atom_site_label
_atom_site_fract_x
_atom_site_fract_y
_atom_site_fract_z
Si Si1 0.750000 0.000000 0.320384
Si Si2 0.099659 0.194691 0.077181
Si Si3 0.500000 0.530782 0.250000
Si Si4 0.231323 0.902808 0.568922
Si Si5 0.097522 0.392114 0.076388
Si Si6 0.272108 0.707341 0.076507
O O1 0.833508 0.046466 0.384079
O O2 0.500000 0.015355 0.250000
O O3 0.157924 0.144784 0.132999
O O4 0.167313 0.243572 0.135703
O O5 0.305078 0.195162 0.973575
O O6 0.250000 0.500000 0.290354
O O7 0.381608 0.564646 0.157195
O O8 0.540451 0.900447 0.537212
O O9 0.162235 0.341966 0.132536
O O10 0.306226 0.393740 0.976965
O O11 0.474795 0.707412 0.972143
#
# Coordination Sequence:
#
# PCOD9421021 Si02
#       6
#     4   8   4   8   8   8
#     4  12  24  36  50  72 106 146 172 220 278 322
#     4   8  14  25  47  77 100 124 166 219 261 308
#     4  12  26  40  58  86 116 152 196 242 280 334
#     4  10  19  34  55  77  99 133 183 223 258 320
#     4  10  21  38  60  84 114 152 189 234 286 340
#     4   8  14  27  49  78 104 132 170 212 268 324
#
# _framework density 22.787948
#
# number of rings (size 3 to 8) (size 9 to 14) (size 15 to 20)
#    0.000    2.400    0.000    3.000    0.000    2.400 
#    0.000    0.000    2.200    0.000    2.600    0.000 
#    0.000    0.000    0.000    0.000    0.000    0.000 
#
# Total GULP energy -223099.309550 kJ/mol
# GULP energy per Si atom -5577.482739 kJ/mol
# Density = 2.273608 g / cm^3
# Si number density = 22.787948 Si / 1000 Ang^3
#
#
#
# Elastic Constant Matrix: (Units=GPa)
#
#
# Indices 1 2 3 4 5 6 
#
# 1 95.5908 4.8171 1.2990 0.0000 0.0000 0.0000
# 2 4.8171 202.1340 21.3867 0.0000 0.0000 0.0000
# 3 1.2990 21.3867 7.6313 0.0000 0.0000 0.0000
# 4 0.0000 0.0000 0.0000 -822.9755 0.0000 0.0000
# 5 0.0000 0.0000 0.0000 0.0000 9.4366 0.0000
# 6 0.0000 0.0000 0.0000 0.0000 0.0000 40.2650
#
#
#
# Elastic Compliance Matrix: (Units=1/GPa)
#
#
# Indices 1 2 3 4 5 6 
#
# 1 0.010487 -0.000087 -0.001542 0.000000 0.000000 0.000000
# 2 -0.000087 0.007033 -0.019696 0.000000 0.000000 0.000000
# 3 -0.001542 -0.019696 0.186499 0.000000 0.000000 0.000000
# 4 0.000000 0.000000 0.000000 -0.001215 0.000000 0.000000
# 5 0.000000 0.000000 0.000000 0.000000 0.105970 0.000000
# 6 0.000000 0.000000 0.000000 0.000000 0.000000 0.024835
#
#
# Mechanical properties :
#
#
# Convention : Reuss Voigt Hill
#
# Bulk Modulus (GPa) = 6.19695 40.04020 23.11857
# Shear Modulus (GPa) = 11.62662 -136.13123 -62.25230
#
# Velocity S-wave (km/s) = 2.26123 -7.73744 -5.23234
# Velocity P-wave (km/s) = 3.08915 7.88765 5.13187
#
# Compressibility (1/GPa) = 0.16136983
#
# Stress axis : x y z
#
# Youngs Moduli (GPa) = 95.35993 142.18332 5.36197
#
# Poissons Ratio (x) = 0.01234 0.00827
# Poissons Ratio (y) = 0.00827 0.10561
# Poissons Ratio (z) = 0.14703 2.80040
#
# Static dielectric constant tensor:
#      x y z
#    x 1.811520 0.000000 0.000000 
#    y 0.000000 2.016620 0.000000 
#    z 0.000000 0.000000 1.777020 
# 
# From -- ./inp_files/6453.got.cif
#   From: 2010.05.17/outbox.cif.g08.bks.cpg/sg54_4_cif.got.tgz:6453.got - 2010.06.03 13:09:01.
