data_PCOD9421771
_publ_section_title
;
Structure prediction by ZEFSAII (Michael W. Deem and Ramdas Pophale) SiO2 
 PCOD9421771
Probable space group: P C C A
;
_chemical_formula_sum "Si O2"
_cell_formula_units_Z 52
_cell_length_a 8.076195
_cell_length_b 21.027582
_cell_length_c 13.586907
_cell_angle_alpha 90.000000
_cell_angle_beta 90.000000
_cell_angle_gamma 90.000000
_cell_volume 2307.367305
_symmetry_space_group_name_H-M "P C C A"
_symmetry_group_IT_number 54
_symmetry_cell_setting 'orthorhombic'
loop_
_space_group_symop_operation_xyz
x,y,z
1/2-x,-y,z
1/2+x,-y,1/2-z
-x,y,1/2-z
-x,-y,-z
1/2+x,y,-z
1/2-x,y,1/2+z
x,-y,1/2+z
loop_
_atom_site_type_symbol
_atom_site_label
_atom_site_fract_x
_atom_site_fract_y
_atom_site_fract_z
Si Si1 0.360462 0.643389 0.575310
Si Si2 0.486693 0.377527 0.860510
Si Si3 0.204739 0.072325 0.920551
Si Si4 0.688169 0.782148 0.875373
Si Si5 0.000332 0.842606 0.938172
Si Si6 0.000000 0.878390 0.250000
Si Si7 0.447356 0.489314 0.112041
O O1 0.382984 0.647259 0.455591
O O2 0.378140 0.710711 0.629232
O O3 0.469714 0.586643 0.623222
O O4 0.170431 0.625721 0.594781
O O5 0.500000 0.348338 0.750000
O O6 0.446512 0.452772 0.842817
O O7 0.360789 0.115012 0.885943
O O8 0.067113 0.078494 0.837005
O O9 0.250000 0.000000 0.939815
O O10 0.127198 0.106114 0.015896
O O11 0.637166 0.829717 0.789630
O O12 0.885765 0.789988 0.886991
O O13 0.595986 0.808390 0.972865
O O14 0.250000 0.500000 0.128651
O O15 0.500000 0.500000 0.000000
#
# Coordination Sequence:
#
# PCOD9421771 Si02
#       7
#     8   8   8   8   8   4   8
#     4  10  20  40  63  87 124 168 212 265 326 390
#     4  10  21  41  61  93 125 161 221 274 325 388
#     4  10  20  38  62  90 120 161 209 259 313 382
#     4  10  20  40  57  84 122 163 205 258 317 386
#     4   9  20  37  62  84 118 163 204 258 316 368
#     4  10  24  38  54  90 132 154 208 262 310 376
#     4   8  16  33  57  82 115 153 196 262 318 363
#
# _framework density 22.536508000000001
#
# number of rings (size 3 to 8) (size 9 to 14) (size 15 to 20)
#    0.000    2.462    0.000    1.385    0.000    1.846 
#   15.231   23.077    0.000    0.000    0.000    0.000 
#    0.000    0.000    0.000    0.000    0.000    0.000 
#
# Total GULP energy -289508.211905 kJ/mol
# GULP energy per Si atom -5567.465614 kJ/mol
# Density = 2.248521 g / cm^3
# Si number density = 22.536508 Si / 1000 Ang^3
#
#
#
# Elastic Constant Matrix: (Units=GPa)
#
#
# Indices 1 2 3 4 5 6 
#
# 1 53.1911 -1.0395 1.4567 0.0000 0.0000 0.0000
# 2 -1.0395 108.0715 -19.2518 0.0000 0.0000 0.0000
# 3 1.4567 -19.2518 65.0772 0.0000 0.0000 0.0000
# 4 0.0000 0.0000 0.0000 3.5078 0.0000 0.0000
# 5 0.0000 0.0000 0.0000 0.0000 -2.7280 0.0000
# 6 0.0000 0.0000 0.0000 0.0000 0.0000 23.6362
#
#
#
# Elastic Compliance Matrix: (Units=1/GPa)
#
#
# Indices 1 2 3 4 5 6 
#
# 1 0.018813 0.000112 -0.000388 0.000000 0.000000 0.000000
# 2 0.000112 0.009769 0.002887 0.000000 0.000000 0.000000
# 3 -0.000388 0.002887 0.016229 0.000000 0.000000 0.000000
# 4 0.000000 0.000000 0.000000 0.285079 0.000000 0.000000
# 5 0.000000 0.000000 0.000000 0.000000 -0.366574 0.000000
# 6 0.000000 0.000000 0.000000 0.000000 0.000000 0.042308
#
#
# Mechanical properties :
#
#
# Convention : Reuss Voigt Hill
#
# Bulk Modulus (GPa) = 19.98683 20.96341 20.47512
# Shear Modulus (GPa) = 292.76757 21.22819 156.99788
#
# Velocity S-wave (km/s) = 11.41009 3.07244 8.35554
# Velocity P-wave (km/s) = 13.50832 4.68068 10.10899
#
# Compressibility (1/GPa) = 0.05003294
#
# Stress axis : x y z
#
# Youngs Moduli (GPa) = 53.15492 102.36928 61.61733
#
# Poissons Ratio (x) = -0.01145 0.02391
# Poissons Ratio (y) = -0.00594 -0.17791
# Poissons Ratio (z) = 0.02063 -0.29557
#
# Static dielectric constant tensor:
#      x y z
#    x 1.893820 0.000000 0.000000 
#    y 0.000000 1.903750 0.000000 
#    z 0.000000 0.000000 1.838650 
# 
# From -- ./inp_files/11843.got.cif
#   From: 2010.05.17/outbox.cif.g08.bks.cpg/sg54_6_cif.got.tgz:11843.got - 2010.06.03 13:09:01.
