data_PCOD9421804
_publ_section_title
;
Structure prediction by ZEFSAII (Michael W. Deem and Ramdas Pophale) SiO2 
 PCOD9421804
Probable space group: P C C A
;
_chemical_formula_sum "Si O2"
_cell_formula_units_Z 52
_cell_length_a 8.296368
_cell_length_b 20.629034
_cell_length_c 15.491517
_cell_angle_alpha 90.000000
_cell_angle_beta 90.000000
_cell_angle_gamma 90.000000
_cell_volume 2651.312060
_symmetry_space_group_name_H-M "P C C A"
_symmetry_group_IT_number 54
_symmetry_cell_setting 'orthorhombic'
loop_
_space_group_symop_operation_xyz
x,y,z
1/2-x,-y,z
1/2+x,-y,1/2-z
-x,y,1/2-z
-x,-y,-z
1/2+x,y,-z
1/2-x,y,1/2+z
x,-y,1/2+z
loop_
_atom_site_type_symbol
_atom_site_label
_atom_site_fract_x
_atom_site_fract_y
_atom_site_fract_z
Si Si1 0.340065 0.870427 0.562769
Si Si2 0.972371 0.355848 0.458017
Si Si3 0.779626 0.423876 0.607064
Si Si4 0.313617 0.924920 0.895338
Si Si5 0.000000 0.646709 0.250000
Si Si6 0.173161 0.720031 0.101988
Si Si7 0.680787 0.070941 0.782789
O O1 0.499072 0.913005 0.583381
O O2 0.285751 0.884447 0.465633
O O3 0.359976 0.795258 0.584927
O O4 0.199889 0.892500 0.628054
O O5 0.867634 0.406700 0.515476
O O6 0.854705 0.305400 0.410958
O O7 0.104507 0.389594 0.397428
O O8 0.071508 0.316337 0.528816
O O9 0.750000 0.500000 0.615601
O O10 0.891255 0.396008 0.684254
O O11 0.282070 0.901411 0.797755
O O12 0.250000 0.000000 0.899849
O O13 0.111551 0.693243 0.192691
O O14 0.500000 0.066718 0.750000
O O15 0.750000 0.000000 0.798625
#
# Coordination Sequence:
#
# PCOD9421804 Si02
#       7
#     8   8   8   8   4   8   8
#     4  12  23  40  65  88 122 166 210 249 320 384
#     4   9  20  40  61  88 123 161 207 258 304 361
#     4  10  20  38  65  92 122 163 209 258 312 373
#     4  11  23  39  62  92 121 157 206 270 321 370
#     4  10  24  38  54  90 130 158 200 254 312 356
#     4  10  22  40  59  86 122 166 203 249 305 374
#     4  11  23  41  60  89 122 153 202 260 319 368
#
# _framework density 19.612931
#
# number of rings (size 3 to 8) (size 9 to 14) (size 15 to 20)
#    0.000    1.538    0.000    5.538    2.154    1.846 
#    2.769    1.538    0.000    0.000    0.000    0.000 
#    0.000    0.000    0.000    0.000    0.000    0.000 
#
# Total GULP energy -290362.468506 kJ/mol
# GULP energy per Si atom -5583.893625 kJ/mol
# Density = 1.956829 g / cm^3
# Si number density = 19.612931 Si / 1000 Ang^3
#
#
#
# Elastic Constant Matrix: (Units=GPa)
#
#
# Indices 1 2 3 4 5 6 
#
# 1 97.3724 23.6128 3.9508 0.0000 0.0000 0.0000
# 2 23.6128 105.9195 25.1362 0.0000 0.0000 0.0000
# 3 3.9508 25.1362 73.2208 0.0000 0.0000 0.0000
# 4 0.0000 0.0000 0.0000 48.6360 0.0000 0.0000
# 5 0.0000 0.0000 0.0000 0.0000 32.8142 0.0000
# 6 0.0000 0.0000 0.0000 0.0000 0.0000 16.5411
#
#
#
# Elastic Compliance Matrix: (Units=1/GPa)
#
#
# Indices 1 2 3 4 5 6 
#
# 1 0.010862 -0.002485 0.000267 0.000000 0.000000 0.000000
# 2 -0.002485 0.010847 -0.003590 0.000000 0.000000 0.000000
# 3 0.000267 -0.003590 0.014875 0.000000 0.000000 0.000000
# 4 0.000000 0.000000 0.000000 0.020561 0.000000 0.000000
# 5 0.000000 0.000000 0.000000 0.000000 0.030475 0.000000
# 6 0.000000 0.000000 0.000000 0.000000 0.000000 0.060455
#
#
# Mechanical properties :
#
#
# Convention : Reuss Voigt Hill
#
# Bulk Modulus (GPa) = 40.04985 42.43470 41.24228
# Shear Modulus (GPa) = 29.75972 34.51914 32.13943
#
# Velocity S-wave (km/s) = 3.89955 4.19981 4.05246
# Velocity P-wave (km/s) = 6.38277 6.72316 6.55518
#
# Compressibility (1/GPa) = 0.02496888
#
# Stress axis : x y z
#
# Youngs Moduli (GPa) = 92.06776 92.19212 67.22601
#
# Poissons Ratio (x) = 0.22907 -0.01794
# Poissons Ratio (y) = 0.22876 0.24131
# Poissons Ratio (z) = -0.02458 0.33093
#
# Static dielectric constant tensor:
#      x y z
#    x 1.564610 0.000000 0.000000 
#    y 0.000000 1.671750 0.000000 
#    z 0.000000 0.000000 1.686590 
# 
# From -- ./inp_files/11832.got.cif
#   From: 2010.05.17/outbox.cif.g08.bks.cpg/sg54_6_cif.got.tgz:11832.got - 2010.06.03 13:09:01.
