data_PCOD9421219
_publ_section_title
;
Structure prediction by ZEFSAII (Michael W. Deem and Ramdas Pophale) SiO2 
 PCOD9421219
Probable space group: P C C A
;
_chemical_formula_sum "Si O2"
_cell_formula_units_Z 56
_cell_length_a 14.031418
_cell_length_b 6.391040
_cell_length_c 31.041670
_cell_angle_alpha 90.000000
_cell_angle_beta 90.000000
_cell_angle_gamma 90.000000
_cell_volume 2783.672737
_symmetry_space_group_name_H-M "P C C A"
_symmetry_group_IT_number 54
_symmetry_cell_setting 'orthorhombic'
loop_
_space_group_symop_operation_xyz
x,y,z
1/2-x,-y,z
1/2+x,-y,1/2-z
-x,y,1/2-z
-x,-y,-z
1/2+x,y,-z
1/2-x,y,1/2+z
x,-y,1/2+z
loop_
_atom_site_type_symbol
_atom_site_label
_atom_site_fract_x
_atom_site_fract_y
_atom_site_fract_z
Si Si1 0.501928 0.687110 0.703440
Si Si2 0.349258 0.112215 0.576432
Si Si3 0.356908 0.964267 0.319725
Si Si4 0.648078 0.575263 0.505468
Si Si5 0.978004 0.194507 0.968023
Si Si6 0.144640 0.936442 0.721518
Si Si7 0.033466 0.695047 0.651637
O O1 0.500000 0.571631 0.750000
O O2 0.597809 0.811201 0.691802
O O3 0.484530 0.544257 0.662393
O O4 0.423167 0.864901 0.712496
O O5 0.335949 0.256984 0.533602
O O6 0.402713 0.258488 0.610363
O O7 0.250000 0.000000 0.588235
O O8 0.421872 0.919283 0.569521
O O9 0.250000 0.000000 0.336986
O O10 0.351336 0.867114 0.271387
O O11 0.434384 0.828381 0.346314
O O12 0.750000 0.500000 0.521799
O O13 0.578312 0.690013 0.539159
O O14 0.590707 0.371371 0.488503
O O15 0.000000 0.000000 0.000000
O O16 0.098561 0.764901 0.691642
O O17 0.250000 0.000000 0.708288
#
# Coordination Sequence:
#
# PCOD9421219 Si02
#       7
#     8   8   8   8   8   8   8
#     4   9  18  33  53  80 107 142 195 246 285 334
#     4  11  22  37  56  89 125 157 178 225 291 352
#     4   9  19  36  57  72 100 149 204 251 283 328
#     4  10  19  37  65  92 115 149 192 228 271 340
#     4   9  20  37  62  89 118 145 189 228 272 327
#     4   9  18  34  52  79 108 144 195 243 289 333
#     4  11  21  33  52  80 117 151 184 228 291 346
#
# _framework density 20.117305999999999
#
# number of rings (size 3 to 8) (size 9 to 14) (size 15 to 20)
#    0.000    2.286    1.429    2.571    0.000    3.429 
#    2.571    4.286    9.429    0.000    0.000    0.000 
#    0.000    0.000    0.000    0.000    0.000    0.000 
#
# Total GULP energy -311972.798723 kJ/mol
# GULP energy per Si atom -5570.942834 kJ/mol
# Density = 2.007152 g / cm^3
# Si number density = 20.117306 Si / 1000 Ang^3
#
#
#
# Elastic Constant Matrix: (Units=GPa)
#
#
# Indices 1 2 3 4 5 6 
#
# 1 151.0534 16.9877 16.4825 0.0000 0.0000 0.0000
# 2 16.9877 50.1205 4.4693 0.0000 0.0000 0.0000
# 3 16.4825 4.4693 21.6712 0.0000 0.0000 0.0000
# 4 0.0000 0.0000 0.0000 6.6718 0.0000 0.0000
# 5 0.0000 0.0000 0.0000 0.0000 17.6216 0.0000
# 6 0.0000 0.0000 0.0000 0.0000 0.0000 12.5383
#
#
#
# Elastic Compliance Matrix: (Units=1/GPa)
#
#
# Indices 1 2 3 4 5 6 
#
# 1 0.007420 -0.002049 -0.005221 0.000000 0.000000 0.000000
# 2 -0.002049 0.020892 -0.002750 0.000000 0.000000 0.000000
# 3 -0.005221 -0.002750 0.050682 0.000000 0.000000 0.000000
# 4 0.000000 0.000000 0.000000 0.149885 0.000000 0.000000
# 5 0.000000 0.000000 0.000000 0.000000 0.056748 0.000000
# 6 0.000000 0.000000 0.000000 0.000000 0.000000 0.079756
#
#
# Mechanical properties :
#
#
# Convention : Reuss Voigt Hill
#
# Bulk Modulus (GPa) = 16.96241 33.19155 25.07698
# Shear Modulus (GPa) = 12.34337 19.69338 16.01838
#
# Velocity S-wave (km/s) = 2.47972 3.13218 2.82485
# Velocity P-wave (km/s) = 4.08029 5.44201 4.80959
#
# Compressibility (1/GPa) = 0.05895388
#
# Stress axis : x y z
#
# Youngs Moduli (GPa) = 134.76414 47.86577 19.73074
#
# Poissons Ratio (x) = 0.09810 0.10302
# Poissons Ratio (y) = 0.27619 0.05425
# Poissons Ratio (z) = 0.70361 0.13162
#
# Static dielectric constant tensor:
#      x y z
#    x 1.783140 0.000000 0.000000 
#    y 0.000000 1.795680 0.000000 
#    z 0.000000 0.000000 1.743870 
# 
# From -- ./inp_files/28231.got.cif
#   From: 2010.05.17/outbox.cif.g08.bks.cpg/sg54_15_cif.got.tgz:28231.got - 2010.06.03 13:09:01.
