data_PCOD9421369
_publ_section_title
;
Structure prediction by ZEFSAII (Michael W. Deem and Ramdas Pophale) SiO2 
 PCOD9421369
Probable space group: P C C A
;
_chemical_formula_sum "Si O2"
_cell_formula_units_Z 64
_cell_length_a 9.392535
_cell_length_b 10.092139
_cell_length_c 31.786895
_cell_angle_alpha 90.000000
_cell_angle_beta 90.000000
_cell_angle_gamma 90.000000
_cell_volume 3013.104214
_symmetry_space_group_name_H-M "P C C A"
_symmetry_group_IT_number 54
_symmetry_cell_setting 'orthorhombic'
loop_
_space_group_symop_operation_xyz
x,y,z
1/2-x,-y,z
1/2+x,-y,1/2-z
-x,y,1/2-z
-x,-y,-z
1/2+x,y,-z
1/2-x,y,1/2+z
x,-y,1/2+z
loop_
_atom_site_type_symbol
_atom_site_label
_atom_site_fract_x
_atom_site_fract_y
_atom_site_fract_z
Si Si1 0.388646 0.912869 0.472589
Si Si2 0.283599 0.157644 0.316126
Si Si3 0.631846 0.244081 0.444668
Si Si4 0.227837 0.841907 0.223569
Si Si5 0.584564 0.466256 0.042380
Si Si6 0.030932 0.806869 0.669301
Si Si7 0.943537 0.115593 0.858683
Si Si8 0.435047 0.699256 0.082531
O O1 0.337274 0.815939 0.509539
O O2 0.477681 0.824488 0.438678
O O3 0.250000 0.000000 0.457701
O O4 0.500000 0.000000 0.500000
O O5 0.331816 0.197821 0.268979
O O6 0.398749 0.173454 0.352411
O O7 0.134031 0.222990 0.325558
O O8 0.250000 0.000000 0.314616
O O9 0.482524 0.323536 0.446158
O O10 0.616341 0.142524 0.405132
O O11 0.778177 0.321976 0.436447
O O12 0.383165 0.787660 0.212125
O O13 0.140902 0.820617 0.180663
O O14 0.250000 0.000000 0.226752
O O15 0.750000 0.500000 0.036698
O O16 0.529381 0.570917 0.076197
O O17 0.500000 0.500000 0.000000
O O18 0.089477 0.723481 0.631214
O O19 0.050943 0.959865 0.653408
#
# Coordination Sequence:
#
# PCOD9421369 Si02
#       8
#     8   8   8   8   8   8   8   8
#     4  12  26  39  62  93 128 166 200 243 309 378
#     4   9  18  31  50  86 127 167 203 243 298 372
#     4  12  25  44  65  89 124 166 212 259 311 361
#     4   9  16  31  54  82 124 169 203 239 300 374
#     4  12  28  48  70  90 114 159 215 271 309 362
#     4  10  20  33  56  90 129 164 200 251 309 370
#     4  10  20  33  58  89 128 163 202 251 307 372
#     4  12  25  44  65  89 125 164 213 259 308 365
#
# _framework density 21.240552999999998
#
# number of rings (size 3 to 8) (size 9 to 14) (size 15 to 20)
#    0.000    1.250    3.750    2.625    3.500    4.500 
#    0.000    0.000    0.000    0.000    0.000    5.250 
#    0.000    0.000    0.000    0.000    0.000    0.000 
#
# Total GULP energy -356847.835242 kJ/mol
# GULP energy per Si atom -5575.747426 kJ/mol
# Density = 2.119221 g / cm^3
# Si number density = 21.240553 Si / 1000 Ang^3
#
#
#
# Elastic Constant Matrix: (Units=GPa)
#
#
# Indices 1 2 3 4 5 6 
#
# 1 106.9407 0.1760 4.7733 0.0000 0.0000 0.0000
# 2 0.1760 24.3652 1.6642 0.0000 0.0000 0.0000
# 3 4.7733 1.6642 77.3256 0.0000 0.0000 0.0000
# 4 0.0000 0.0000 0.0000 8.3095 0.0000 0.0000
# 5 0.0000 0.0000 0.0000 0.0000 31.8666 0.0000
# 6 0.0000 0.0000 0.0000 0.0000 0.0000 24.1164
#
#
#
# Elastic Compliance Matrix: (Units=1/GPa)
#
#
# Indices 1 2 3 4 5 6 
#
# 1 0.009377 -0.000028 -0.000578 0.000000 0.000000 0.000000
# 2 -0.000028 0.041103 -0.000883 0.000000 0.000000 0.000000
# 3 -0.000578 -0.000883 0.012987 0.000000 0.000000 0.000000
# 4 0.000000 0.000000 0.000000 0.120344 0.000000 0.000000
# 5 0.000000 0.000000 0.000000 0.000000 0.031381 0.000000
# 6 0.000000 0.000000 0.000000 0.000000 0.000000 0.041466
#
#
# Mechanical properties :
#
#
# Convention : Reuss Voigt Hill
#
# Bulk Modulus (GPa) = 16.53222 24.65094 20.59158
# Shear Modulus (GPa) = 17.87000 26.32636 22.09818
#
# Velocity S-wave (km/s) = 2.90369 3.52439 3.22899
# Velocity P-wave (km/s) = 4.36373 5.30966 4.85977
#
# Compressibility (1/GPa) = 0.06048794
#
# Stress axis : x y z
#
# Youngs Moduli (GPa) = 106.64580 24.32928 76.99993
#
# Poissons Ratio (x) = 0.00069 0.04452
# Poissons Ratio (y) = 0.00301 0.06798
# Poissons Ratio (z) = 0.06167 0.02148
#
# Static dielectric constant tensor:
#      x y z
#    x 1.876240 0.000000 0.000000 
#    y 0.000000 1.815870 0.000000 
#    z 0.000000 0.000000 1.777680 
# 
# From -- ./inp_files/27930.got.cif
#   From: 2010.05.17/outbox.cif.g08.bks.cpg/sg54_14_cif.got.tgz:27930.got - 2010.06.03 13:09:01.
