data_PCOD9421790
_publ_section_title
;
Structure prediction by ZEFSAII (Michael W. Deem and Ramdas Pophale) SiO2 
 PCOD9421790
Probable space group: P C C A
;
_chemical_formula_sum "Si O2"
_cell_formula_units_Z 36
_cell_length_a 24.360219
_cell_length_b 9.390879
_cell_length_c 5.254566
_cell_angle_alpha 90.000000
_cell_angle_beta 90.000000
_cell_angle_gamma 90.000000
_cell_volume 1202.054848
_symmetry_space_group_name_H-M "P C C A"
_symmetry_group_IT_number 54
_symmetry_cell_setting 'orthorhombic'
loop_
_space_group_symop_operation_xyz
x,y,z
1/2-x,-y,z
1/2+x,-y,1/2-z
-x,y,1/2-z
-x,-y,-z
1/2+x,y,-z
1/2-x,y,1/2+z
x,-y,1/2+z
loop_
_atom_site_type_symbol
_atom_site_label
_atom_site_fract_x
_atom_site_fract_y
_atom_site_fract_z
Si Si1 0.448301 0.629933 0.135726
Si Si2 0.000000 0.144698 0.750000
Si Si3 0.725894 0.154633 0.706999
Si Si4 0.612311 0.828119 0.960064
Si Si5 0.158043 0.580270 0.376163
O O1 0.500000 0.547869 0.250000
O O2 0.414202 0.716855 0.345610
O O3 0.476899 0.755780 0.971565
O O4 0.406336 0.552826 0.948259
O O5 0.058960 0.082536 0.641626
O O6 0.741708 0.229231 0.974221
O O7 0.750000 0.000000 0.761757
O O8 0.836522 0.118672 0.130003
O O9 0.645193 0.739056 0.739851
O O10 0.180437 0.520149 0.648472
#
# Coordination Sequence:
#
# PCOD9421790 Si02
#       5
#     8   4   8   8   8
#     4   9  18  33  50  84 123 179 220 257 311 362
#     4   8  18  32  56  96 126 180 210 250 324 380
#     4  10  24  44  71 101 121 154 210 279 334 386
#     4  10  20  38  64  88 135 169 219 262 323 381
#     4  11  21  33  51  87 127 176 220 261 307 368
#
# _framework density 29.948719000000001
#
# number of rings (size 3 to 8) (size 9 to 14) (size 15 to 20)
#    0.000    2.222    2.222    0.000    6.222    0.889 
#    2.000    0.000    0.000    9.333    0.000    0.000 
#    0.000    0.000    0.000    0.000    0.000    0.000 
#
# Total GULP energy -200842.201644 kJ/mol
# GULP energy per Si atom -5578.950046 kJ/mol
# Density = 2.988055 g / cm^3
# Si number density = 29.948719 Si / 1000 Ang^3
#
#
#
# Elastic Constant Matrix: (Units=GPa)
#
#
# Indices 1 2 3 4 5 6 
#
# 1 189.8495 6.3248 30.0961 0.0000 0.0000 0.0000
# 2 6.3248 43.0083 9.1048 0.0000 0.0000 0.0000
# 3 30.0961 9.1048 215.2807 0.0000 0.0000 0.0000
# 4 0.0000 0.0000 0.0000 9.5656 0.0000 0.0000
# 5 0.0000 0.0000 0.0000 0.0000 58.5161 0.0000
# 6 0.0000 0.0000 0.0000 0.0000 0.0000 23.4343
#
#
#
# Elastic Compliance Matrix: (Units=1/GPa)
#
#
# Indices 1 2 3 4 5 6 
#
# 1 0.005404 -0.000641 -0.000728 0.000000 0.000000 0.000000
# 2 -0.000641 0.023537 -0.000906 0.000000 0.000000 0.000000
# 3 -0.000728 -0.000906 0.004785 0.000000 0.000000 0.000000
# 4 0.000000 0.000000 0.000000 0.104541 0.000000 0.000000
# 5 0.000000 0.000000 0.000000 0.000000 0.017089 0.000000
# 6 0.000000 0.000000 0.000000 0.000000 0.000000 0.042672
#
#
# Mechanical properties :
#
#
# Convention : Reuss Voigt Hill
#
# Bulk Modulus (GPa) = 34.27357 59.90999 47.09178
# Shear Modulus (GPa) = 23.55104 45.14405 34.34754
#
# Velocity S-wave (km/s) = 2.80729 3.88671 3.39023
# Velocity P-wave (km/s) = 4.68794 6.33953 5.57523
#
# Compressibility (1/GPa) = 0.02917700
#
# Stress axis : x y z
#
# Youngs Moduli (GPa) = 185.04325 42.48572 208.97578
#
# Poissons Ratio (x) = 0.02721 0.15222
# Poissons Ratio (y) = 0.11853 0.18931
# Poissons Ratio (z) = 0.13479 0.03849
#
# Static dielectric constant tensor:
#      x y z
#    x 2.463260 0.000000 0.000000 
#    y 0.000000 2.373970 0.000000 
#    z 0.000000 0.000000 2.684880 
# 
# From -- ./inp_files/1232.got.cif
#   From: 2010.05.17/outbox.cif.g08.bks.cpg/sg54_1_cif.got.tgz:1232.got - 2010.06.03 13:09:01.
