data_PCOD9421585
_publ_section_title
;
Structure prediction by ZEFSAII (Michael W. Deem and Ramdas Pophale) SiO2 
 PCOD9421585
Probable space group: P C C A
;
_chemical_formula_sum "Si O2"
_cell_formula_units_Z 24
_cell_length_a 9.408455
_cell_length_b 5.003748
_cell_length_c 20.359600
_cell_angle_alpha 90.000000
_cell_angle_beta 90.000000
_cell_angle_gamma 90.000000
_cell_volume 958.479840
_symmetry_space_group_name_H-M "P C C A"
_symmetry_group_IT_number 54
_symmetry_cell_setting 'orthorhombic'
loop_
_space_group_symop_operation_xyz
x,y,z
1/2-x,-y,z
1/2+x,-y,1/2-z
-x,y,1/2-z
-x,-y,-z
1/2+x,y,-z
1/2-x,y,1/2+z
x,-y,1/2+z
loop_
_atom_site_type_symbol
_atom_site_label
_atom_site_fract_x
_atom_site_fract_y
_atom_site_fract_z
Si Si1 0.660869 0.240040 0.726377
Si Si2 0.452899 0.234224 0.913909
Si Si3 0.628508 0.729530 0.937793
O O1 0.750000 0.500000 0.741948
O O2 0.500000 0.258613 0.750000
O O3 0.644669 0.199091 0.648617
O O4 0.750000 0.000000 0.756650
O O5 0.497466 0.545101 0.915032
O O6 0.586941 0.023736 0.909007
O O7 0.378441 0.204391 0.984506
O O8 0.750000 0.500000 0.927576
#
# Coordination Sequence:
#
# PCOD9421585 Si02
#       3
#     8   8   8
#     4  12  27  48  72  99 136 183 234 287 343 406
#     4  10  22  38  61  93 129 173 220 270 339 406
#     4  10  20  36  61  95 131 170 217 275 336 405
#
# _framework density 25.039650999999999
#
# number of rings (size 3 to 8) (size 9 to 14) (size 15 to 20)
#    0.000    1.333    0.000    5.000    0.000    9.333 
#    0.000    0.000    0.000    0.000    0.000    0.000 
#    0.000    0.000    0.000    0.000    0.000    0.000 
#
# Total GULP energy -133955.046614 kJ/mol
# GULP energy per Si atom -5581.460276 kJ/mol
# Density = 2.498266 g / cm^3
# Si number density = 25.039651 Si / 1000 Ang^3
#
#
#
# Elastic Constant Matrix: (Units=GPa)
#
#
# Indices 1 2 3 4 5 6 
#
# 1 139.5654 92.9880 18.3260 0.0000 0.0000 0.0000
# 2 92.9880 247.7576 32.9607 0.0000 0.0000 0.0000
# 3 18.3260 32.9607 36.1352 0.0000 0.0000 0.0000
# 4 0.0000 0.0000 0.0000 155.8908 0.0000 0.0000
# 5 0.0000 0.0000 0.0000 0.0000 29.4937 0.0000
# 6 0.0000 0.0000 0.0000 0.0000 0.0000 13.4268
#
#
#
# Elastic Compliance Matrix: (Units=1/GPa)
#
#
# Indices 1 2 3 4 5 6 
#
# 1 0.009657 -0.003384 -0.001811 0.000000 0.000000 0.000000
# 2 -0.003384 0.005779 -0.003555 0.000000 0.000000 0.000000
# 3 -0.001811 -0.003555 0.031836 0.000000 0.000000 0.000000
# 4 0.000000 0.000000 0.000000 0.006415 0.000000 0.000000
# 5 0.000000 0.000000 0.000000 0.000000 0.033906 0.000000
# 6 0.000000 0.000000 0.000000 0.000000 0.000000 0.074478
#
#
# Mechanical properties :
#
#
# Convention : Reuss Voigt Hill
#
# Bulk Modulus (GPa) = 33.58950 79.11197 56.35074
# Shear Modulus (GPa) = 26.38599 58.37451 42.38025
#
# Velocity S-wave (km/s) = 3.24970 4.83357 4.11849
# Velocity P-wave (km/s) = 5.24637 7.92556 6.72082
#
# Compressibility (1/GPa) = 0.02977121
#
# Stress axis : x y z
#
# Youngs Moduli (GPa) = 103.54828 173.03632 31.41141
#
# Poissons Ratio (x) = 0.58549 0.05690
# Poissons Ratio (y) = 0.35037 0.11168
# Poissons Ratio (z) = 0.18756 0.61522
#
# Static dielectric constant tensor:
#      x y z
#    x 2.164090 0.000000 0.000000 
#    y 0.000000 1.911690 0.000000 
#    z 0.000000 0.000000 1.972760 
# 
# From -- ./inp_files/23074.got.cif
#   From: 2010.05.17/outbox.cif.g08.bks.cpg/sg54_12_cif.got.tgz:23074.got - 2010.06.03 13:09:01.
