data_PCOD9421187
_publ_section_title
;
Structure prediction by ZEFSAII (Michael W. Deem and Ramdas Pophale) SiO2 
 PCOD9421187
Probable space group: P C C A
;
_chemical_formula_sum "Si O2"
_cell_formula_units_Z 40
_cell_length_a 8.300398
_cell_length_b 16.527201
_cell_length_c 13.522087
_cell_angle_alpha 90.000000
_cell_angle_beta 90.000000
_cell_angle_gamma 90.000000
_cell_volume 1854.991619
_symmetry_space_group_name_H-M "P C C A"
_symmetry_group_IT_number 54
_symmetry_cell_setting 'orthorhombic'
loop_
_space_group_symop_operation_xyz
x,y,z
1/2-x,-y,z
1/2+x,-y,1/2-z
-x,y,1/2-z
-x,-y,-z
1/2+x,y,-z
1/2-x,y,1/2+z
x,-y,1/2+z
loop_
_atom_site_type_symbol
_atom_site_label
_atom_site_fract_x
_atom_site_fract_y
_atom_site_fract_z
Si Si1 0.678859 0.261326 0.875478
Si Si2 0.716883 0.087568 0.580125
Si Si3 0.250000 0.500000 0.981604
Si Si4 0.008669 0.427226 0.142506
Si Si5 0.501790 0.799793 0.938153
Si Si6 0.000000 0.125745 0.250000
O O1 0.597323 0.342290 0.836037
O O2 0.872414 0.255162 0.878174
O O3 0.613864 0.185058 0.813623
O O4 0.603799 0.252740 0.985589
O O5 0.617786 0.142189 0.503240
O O6 0.605682 0.074659 0.675107
O O7 0.873591 0.139576 0.611047
O O8 0.750000 0.000000 0.534946
O O9 0.379108 0.535158 0.057962
O O10 0.166402 0.566732 0.909912
O O11 0.000000 0.469617 0.250000
#
# Coordination Sequence:
#
# PCOD9421187 Si02
#       6
#     8   8   4   8   8   4
#     4  10  19  37  56  81 110 156 191 249 297 357
#     4  10  20  36  56  82 114 154 195 252 310 367
#     4  10  24  38  62  98 122 164 210 254 306 386
#     4  11  21  40  65  88 131 164 205 255 316 370
#     4   9  20  35  58  80 112 148 208 246 298 368
#     4  10  22  34  52  80 114 146 192 240 298 360
#
# _framework density 21.563438999999999
#
# number of rings (size 3 to 8) (size 9 to 14) (size 15 to 20)
#    0.000    2.000    1.000    2.400    0.000    2.400 
#    0.000    2.000    8.800    0.000    0.000    0.000 
#    0.000    0.000    0.000    0.000    0.000    0.000 
#
# Total GULP energy -222979.760633 kJ/mol
# GULP energy per Si atom -5574.494016 kJ/mol
# Density = 2.151436 g / cm^3
# Si number density = 21.563439 Si / 1000 Ang^3
#
#
#
# Elastic Constant Matrix: (Units=GPa)
#
#
# Indices 1 2 3 4 5 6 
#
# 1 107.2423 7.4923 28.5358 0.0000 0.0000 0.0000
# 2 7.4923 30.6594 -4.4281 0.0000 0.0000 0.0000
# 3 28.5358 -4.4281 74.6263 0.0000 0.0000 0.0000
# 4 0.0000 0.0000 0.0000 9.7809 0.0000 0.0000
# 5 0.0000 0.0000 0.0000 0.0000 20.6284 0.0000
# 6 0.0000 0.0000 0.0000 0.0000 0.0000 -18.6719
#
#
#
# Elastic Compliance Matrix: (Units=1/GPa)
#
#
# Indices 1 2 3 4 5 6 
#
# 1 0.010689 -0.003230 -0.004279 0.000000 0.000000 0.000000
# 2 -0.003230 0.033874 0.003245 0.000000 0.000000 0.000000
# 3 -0.004279 0.003245 0.015229 0.000000 0.000000 0.000000
# 4 0.000000 0.000000 0.000000 0.102240 0.000000 0.000000
# 5 0.000000 0.000000 0.000000 0.000000 0.048477 0.000000
# 6 0.000000 0.000000 0.000000 0.000000 0.000000 -0.053556
#
#
# Mechanical properties :
#
#
# Convention : Reuss Voigt Hill
#
# Bulk Modulus (GPa) = 19.50671 30.63646 25.07159
# Shear Modulus (GPa) = 27.38704 14.40936 20.89820
#
# Velocity S-wave (km/s) = 3.56767 2.58782 3.11649
# Velocity P-wave (km/s) = 5.10263 4.81327 4.96006
#
# Compressibility (1/GPa) = 0.05126441
#
# Stress axis : x y z
#
# Youngs Moduli (GPa) = 93.55498 29.52083 65.66490
#
# Poissons Ratio (x) = 0.09535 0.28097
# Poissons Ratio (y) = 0.30219 -0.21309
# Poissons Ratio (z) = 0.40031 -0.09580
#
# Static dielectric constant tensor:
#      x y z
#    x 1.845290 0.000000 0.000000 
#    y 0.000000 1.783010 0.000000 
#    z 0.000000 0.000000 1.796770 
# 
# From -- ./inp_files/6911.got.cif
#   From: 2010.05.17/outbox.cif.g08.bks.cpg/sg54_4_cif.got.tgz:6911.got - 2010.06.03 13:09:01.
