data_PCOD9421665
_publ_section_title
;
Structure prediction by ZEFSAII (Michael W. Deem and Ramdas Pophale) SiO2 
 PCOD9421665
Probable space group: P C C A
;
_chemical_formula_sum "Si O2"
_cell_formula_units_Z 40
_cell_length_a 13.626551
_cell_length_b 14.586704
_cell_length_c 9.247298
_cell_angle_alpha 90.000000
_cell_angle_beta 90.000000
_cell_angle_gamma 90.000000
_cell_volume 1838.052743
_symmetry_space_group_name_H-M "P C C A"
_symmetry_group_IT_number 54
_symmetry_cell_setting 'orthorhombic'
loop_
_space_group_symop_operation_xyz
x,y,z
1/2-x,-y,z
1/2+x,-y,1/2-z
-x,y,1/2-z
-x,-y,-z
1/2+x,y,-z
1/2-x,y,1/2+z
x,-y,1/2+z
loop_
_atom_site_type_symbol
_atom_site_label
_atom_site_fract_x
_atom_site_fract_y
_atom_site_fract_z
Si Si1 0.821653 0.578589 0.433864
Si Si2 0.811740 0.309575 0.220364
Si Si3 0.013111 0.107502 0.523816
Si Si4 0.870864 0.800275 0.208729
Si Si5 0.000000 0.222603 0.250000
Si Si6 0.000000 0.624189 0.250000
O O1 0.750000 0.500000 0.497121
O O2 0.750750 0.617774 0.309887
O O3 0.835205 0.652464 0.561190
O O4 0.929767 0.566193 0.358982
O O5 0.742875 0.220424 0.216017
O O6 0.911865 0.286579 0.300363
O O7 0.085225 0.147072 0.650024
O O8 0.039141 0.158924 0.377302
O O9 0.905873 0.140938 0.574535
O O10 0.000000 0.000000 0.500000
O O11 0.923071 0.699995 0.187339
#
# Coordination Sequence:
#
# PCOD9421665 Si02
#       6
#     8   8   8   8   4   4
#     4  11  23  41  64  92 125 159 205 265 317 370
#     4  11  23  41  62  90 120 166 213 251 311 382
#     4  10  20  37  60  90 121 155 199 254 306 358
#     4   9  19  40  61  82 125 169 196 243 306 373
#     4  12  22  36  60  88 116 158 212 254 296 376
#     4   8  18  38  62  84 118 164 200 244 312 374
#
# _framework density 21.762160999999999
#
# number of rings (size 3 to 8) (size 9 to 14) (size 15 to 20)
#    0.000    2.000    0.000    6.600    0.000    2.400 
#    0.000   12.000    0.000    0.000    0.000    0.000 
#    0.000    0.000    0.000    0.000    0.000    0.000 
#
# Total GULP energy -222889.536004 kJ/mol
# GULP energy per Si atom -5572.238400 kJ/mol
# Density = 2.171263 g / cm^3
# Si number density = 21.762161 Si / 1000 Ang^3
#
#
#
# Elastic Constant Matrix: (Units=GPa)
#
#
# Indices 1 2 3 4 5 6 
#
# 1 112.5542 30.1813 4.6764 0.0000 0.0000 0.0000
# 2 30.1813 72.8548 10.0692 0.0000 0.0000 0.0000
# 3 4.6764 10.0692 78.9609 0.0000 0.0000 0.0000
# 4 0.0000 0.0000 0.0000 19.1376 0.0000 0.0000
# 5 0.0000 0.0000 0.0000 0.0000 23.1269 0.0000
# 6 0.0000 0.0000 0.0000 0.0000 0.0000 4.7812
#
#
#
# Elastic Compliance Matrix: (Units=1/GPa)
#
#
# Indices 1 2 3 4 5 6 
#
# 1 0.009995 -0.004132 -0.000065 0.000000 0.000000 0.000000
# 2 -0.004132 0.015680 -0.001755 0.000000 0.000000 0.000000
# 3 -0.000065 -0.001755 0.012892 0.000000 0.000000 0.000000
# 4 0.000000 0.000000 0.000000 0.052253 0.000000 0.000000
# 5 0.000000 0.000000 0.000000 0.000000 0.043240 0.000000
# 6 0.000000 0.000000 0.000000 0.000000 0.000000 0.209152
#
#
# Mechanical properties :
#
#
# Convention : Reuss Voigt Hill
#
# Bulk Modulus (GPa) = 37.50348 39.35820 38.43084
# Shear Modulus (GPa) = 13.73614 24.03869 18.88742
#
# Velocity S-wave (km/s) = 2.51508 3.32717 2.94921
# Velocity P-wave (km/s) = 5.07000 5.73454 5.41248
#
# Compressibility (1/GPa) = 0.02666419
#
# Stress axis : x y z
#
# Youngs Moduli (GPa) = 100.04785 63.77513 77.56672
#
# Poissons Ratio (x) = 0.26350 0.00505
# Poissons Ratio (y) = 0.41337 0.13612
# Poissons Ratio (z) = 0.00651 0.11192
#
# Static dielectric constant tensor:
#      x y z
#    x 1.868670 0.000000 0.000000 
#    y 0.000000 1.895770 0.000000 
#    z 0.000000 0.000000 1.835360 
# 
# From -- ./inp_files/3451.got.cif
#   From: 2010.05.17/outbox.cif.g08.bks.cpg/sg54_2_cif.got.tgz:3451.got - 2010.06.03 13:09:01.
