data_PCOD9421102
_publ_section_title
;
Structure prediction by ZEFSAII (Michael W. Deem and Ramdas Pophale) SiO2 
 PCOD9421102
Probable space group: P C C A
;
_chemical_formula_sum "Si O2"
_cell_formula_units_Z 48
_cell_length_a 15.938978
_cell_length_b 8.183590
_cell_length_c 13.647211
_cell_angle_alpha 90.000000
_cell_angle_beta 90.000000
_cell_angle_gamma 90.000000
_cell_volume 1780.115741
_symmetry_space_group_name_H-M "P C C A"
_symmetry_group_IT_number 54
_symmetry_cell_setting 'orthorhombic'
loop_
_space_group_symop_operation_xyz
x,y,z
1/2-x,-y,z
1/2+x,-y,1/2-z
-x,y,1/2-z
-x,-y,-z
1/2+x,y,-z
1/2-x,y,1/2+z
x,-y,1/2+z
loop_
_atom_site_type_symbol
_atom_site_label
_atom_site_fract_x
_atom_site_fract_y
_atom_site_fract_z
Si Si1 0.687444 0.662453 0.570324
Si Si2 0.586768 0.984244 0.719817
Si Si3 0.126806 0.691904 0.652482
Si Si4 0.030010 0.486376 0.387327
Si Si5 0.208254 0.824684 0.147667
Si Si6 0.857196 0.186195 0.059957
O O1 0.750000 0.500000 0.560410
O O2 0.760198 0.794292 0.590624
O O3 0.645541 0.706877 0.464376
O O4 0.603516 0.617864 0.630810
O O5 0.500000 0.907515 0.750000
O O6 0.593697 0.146287 0.791348
O O7 0.601538 0.025941 0.606548
O O8 0.658643 0.870899 0.757731
O O9 0.224825 0.688292 0.680300
O O10 0.057984 0.550545 0.668135
O O11 0.084809 0.321421 0.389601
O O12 0.000000 0.500000 0.500000
O O13 0.250000 0.000000 0.116821
O O14 0.147940 0.785591 0.056397
#
# Coordination Sequence:
#
# PCOD9421102 Si02
#       6
#     8   8   8   8   8   8
#     4   8  16  31  56  88 111 148 198 239 304 381
#     4  11  21  35  55  81 117 166 213 258 305 358
#     4   9  17  34  54  79 116 148 190 249 304 361
#     4   9  16  31  60  87 113 148 188 242 308 374
#     4   9  21  37  55  80 116 155 208 251 308 360
#     4  10  19  35  59  86 119 158 203 250 306 368
#
# _framework density 26.964538000000001
#
# number of rings (size 3 to 8) (size 9 to 14) (size 15 to 20)
#    0.000    2.667    1.667    0.000    0.000    2.667 
#    0.000    2.500   11.000    2.000    0.000    0.000 
#    0.000    0.000    0.000    0.000    0.000    0.000 
#
# Total GULP energy -267728.531246 kJ/mol
# GULP energy per Si atom -5577.677734 kJ/mol
# Density = 2.690317 g / cm^3
# Si number density = 26.964538 Si / 1000 Ang^3
#
#
#
# Elastic Constant Matrix: (Units=GPa)
#
#
# Indices 1 2 3 4 5 6 
#
# 1 107.9952 30.0440 19.5594 0.0000 0.0000 0.0000
# 2 30.0440 56.2942 13.0700 0.0000 0.0000 0.0000
# 3 19.5594 13.0700 61.0078 0.0000 0.0000 0.0000
# 4 0.0000 0.0000 0.0000 32.2945 0.0000 0.0000
# 5 0.0000 0.0000 0.0000 0.0000 41.8498 0.0000
# 6 0.0000 0.0000 0.0000 0.0000 0.0000 48.8911
#
#
#
# Elastic Compliance Matrix: (Units=1/GPa)
#
#
# Indices 1 2 3 4 5 6 
#
# 1 0.011207 -0.005416 -0.002433 0.000000 0.000000 0.000000
# 2 -0.005416 0.021311 -0.002829 0.000000 0.000000 0.000000
# 3 -0.002433 -0.002829 0.017777 0.000000 0.000000 0.000000
# 4 0.000000 0.000000 0.000000 0.030965 0.000000 0.000000
# 5 0.000000 0.000000 0.000000 0.000000 0.023895 0.000000
# 6 0.000000 0.000000 0.000000 0.000000 0.000000 0.020454
#
#
# Mechanical properties :
#
#
# Convention : Reuss Voigt Hill
#
# Bulk Modulus (GPa) = 34.55487 38.96044 36.75765
# Shear Modulus (GPa) = 31.92596 35.44864 33.68730
#
# Velocity S-wave (km/s) = 3.44466 3.62973 3.53840
# Velocity P-wave (km/s) = 5.35385 5.66098 5.50955
#
# Compressibility (1/GPa) = 0.02893948
#
# Stress axis : x y z
#
# Youngs Moduli (GPa) = 89.22928 46.92331 56.25128
#
# Poissons Ratio (x) = 0.25415 0.13684
# Poissons Ratio (y) = 0.48330 0.15914
# Poissons Ratio (z) = 0.21707 0.13275
#
# Static dielectric constant tensor:
#      x y z
#    x 2.129860 0.000000 0.000000 
#    y 0.000000 2.274800 0.000000 
#    z 0.000000 0.000000 2.190600 
# 
# From -- ./inp_files/13417.got.cif
#   From: 2010.05.17/outbox.cif.g08.bks.cpg/sg54_7_cif.got.tgz:13417.got - 2010.06.03 13:09:01.
