data_PCOD9421655
_publ_section_title
;
Structure prediction by ZEFSAII (Michael W. Deem and Ramdas Pophale) SiO2 
 PCOD9421655
Probable space group: P C C A
;
_chemical_formula_sum "Si O2"
_cell_formula_units_Z 40
_cell_length_a 8.605131
_cell_length_b 12.231116
_cell_length_c 21.390247
_cell_angle_alpha 90.000000
_cell_angle_beta 90.000000
_cell_angle_gamma 90.000000
_cell_volume 2251.331100
_symmetry_space_group_name_H-M "P C C A"
_symmetry_group_IT_number 54
_symmetry_cell_setting 'orthorhombic'
loop_
_space_group_symop_operation_xyz
x,y,z
1/2-x,-y,z
1/2+x,-y,1/2-z
-x,y,1/2-z
-x,-y,-z
1/2+x,y,-z
1/2-x,y,1/2+z
x,-y,1/2+z
loop_
_atom_site_type_symbol
_atom_site_label
_atom_site_fract_x
_atom_site_fract_y
_atom_site_fract_z
Si Si1 0.770598 0.369031 0.851955
Si Si2 0.250000 0.500000 0.840095
Si Si3 0.000000 0.389764 0.750000
Si Si4 0.944504 0.309217 0.101626
Si Si5 0.435452 0.253520 0.035894
Si Si6 0.244505 0.129018 0.940749
O O1 0.750000 0.500000 0.847229
O O2 0.874900 0.329579 0.793774
O O3 0.598385 0.320609 0.857637
O O4 0.862908 0.334772 0.914119
O O5 0.391938 0.540436 0.796810
O O6 0.180143 0.598242 0.880913
O O7 0.860518 0.192055 0.106018
O O8 0.986348 0.316699 0.027592
O O9 0.576513 0.184249 0.063961
O O10 0.309345 0.167595 0.008728
O O11 0.250000 0.000000 0.934517
#
# Coordination Sequence:
#
# PCOD9421655 Si02
#       6
#     8   4   4   8   8   8
#     4  12  23  38  57  86 129 159 203 240 296 369
#     4  12  20  40  54  88 120 162 200 250 292 370
#     4  12  24  36  58  80 122 168 208 242 290 358
#     4  10  22  36  59  89 124 159 193 246 310 360
#     4  10  21  36  57  93 120 158 190 240 310 354
#     4  10  20  37  59  91 129 154 197 238 301 369
#
# _framework density 17.767267
#
# number of rings (size 3 to 8) (size 9 to 14) (size 15 to 20)
#    1.200    0.000    5.000    1.800    1.400    0.800 
#    0.000    0.000    0.000    0.000    0.000   33.600 
#    0.000    0.000    0.000    0.000    0.000    0.000 
#
# Total GULP energy -222835.532632 kJ/mol
# GULP energy per Si atom -5570.888316 kJ/mol
# Density = 1.772683 g / cm^3
# Si number density = 17.767267 Si / 1000 Ang^3
#
#
#
# Elastic Constant Matrix: (Units=GPa)
#
#
# Indices 1 2 3 4 5 6 
#
# 1 112.1480 45.6355 33.8795 0.0000 0.0000 0.0000
# 2 45.6355 70.5808 49.6458 0.0000 0.0000 0.0000
# 3 33.8795 49.6458 57.5878 0.0000 0.0000 0.0000
# 4 0.0000 0.0000 0.0000 -7.0916 0.0000 0.0000
# 5 0.0000 0.0000 0.0000 0.0000 27.8871 0.0000
# 6 0.0000 0.0000 0.0000 0.0000 0.0000 16.4572
#
#
#
# Elastic Compliance Matrix: (Units=1/GPa)
#
#
# Indices 1 2 3 4 5 6 
#
# 1 0.012121 -0.007168 -0.000952 0.000000 0.000000 0.000000
# 2 -0.007168 0.040233 -0.030468 0.000000 0.000000 0.000000
# 3 -0.000952 -0.030468 0.044191 0.000000 0.000000 0.000000
# 4 0.000000 0.000000 0.000000 -0.141012 0.000000 0.000000
# 5 0.000000 0.000000 0.000000 0.000000 0.035859 0.000000
# 6 0.000000 0.000000 0.000000 0.000000 0.000000 0.060764
#
#
# Mechanical properties :
#
#
# Convention : Reuss Voigt Hill
#
# Bulk Modulus (GPa) = 51.62499 55.40426 53.51462
# Shear Modulus (GPa) = 36.82211 14.86093 25.84152
#
# Velocity S-wave (km/s) = 4.55738 2.89523 3.81786
# Velocity P-wave (km/s) = 7.53739 6.51364 7.04414
#
# Compressibility (1/GPa) = 0.01937046
#
# Stress axis : x y z
#
# Youngs Moduli (GPa) = 82.50155 24.85492 22.62909
#
# Poissons Ratio (x) = 0.17815 0.02154
# Poissons Ratio (y) = 0.59134 0.68946
# Poissons Ratio (z) = 0.07852 0.75728
#
# Static dielectric constant tensor:
#      x y z
#    x 1.649800 0.000000 0.000000 
#    y 0.000000 1.569940 0.000000 
#    z 0.000000 0.000000 1.624590 
# 
# From -- ./inp_files/20328.got.cif
#   From: 2010.05.17/outbox.cif.g08.bks.cpg/sg54_11_cif.got.tgz:20328.got - 2010.06.03 13:09:01.
