data_PCOD9421398
_publ_section_title
;
Structure prediction by ZEFSAII (Michael W. Deem and Ramdas Pophale) SiO2 
 PCOD9421398
Probable space group: P C C A
;
_chemical_formula_sum "Si O2"
_cell_formula_units_Z 60
_cell_length_a 5.408745
_cell_length_b 16.726238
_cell_length_c 26.393110
_cell_angle_alpha 90.000000
_cell_angle_beta 90.000000
_cell_angle_gamma 90.000000
_cell_volume 2387.730718
_symmetry_space_group_name_H-M "P C C A"
_symmetry_group_IT_number 54
_symmetry_cell_setting 'orthorhombic'
loop_
_space_group_symop_operation_xyz
x,y,z
1/2-x,-y,z
1/2+x,-y,1/2-z
-x,y,1/2-z
-x,-y,-z
1/2+x,y,-z
1/2-x,y,1/2+z
x,-y,1/2+z
loop_
_atom_site_type_symbol
_atom_site_label
_atom_site_fract_x
_atom_site_fract_y
_atom_site_fract_z
Si Si1 0.943193 0.404373 0.196477
Si Si2 0.068287 0.355107 0.877506
Si Si3 0.200587 0.914112 0.683556
Si Si4 0.701921 0.913804 0.620107
Si Si5 0.250000 0.500000 0.616470
Si Si6 0.159867 0.842310 0.980079
Si Si7 0.321177 0.739363 0.702630
Si Si8 0.157418 0.343046 0.478519
O O1 0.670805 0.390268 0.175622
O O2 0.000000 0.444203 0.250000
O O3 0.059143 0.455062 0.152209
O O4 0.088945 0.320332 0.200257
O O5 0.280280 0.340668 0.918844
O O6 0.901072 0.423441 0.903894
O O7 0.938351 0.276588 0.853787
O O8 0.424060 0.913124 0.641770
O O9 0.244128 0.830766 0.711300
O O10 0.921043 0.910436 0.661976
O O11 0.250000 0.000000 0.710133
O O12 0.758406 0.848532 0.577921
O O13 0.750000 0.000000 0.594580
O O14 0.134356 0.749408 0.996293
O O15 0.388857 0.878362 0.011322
O O16 0.500000 0.720287 0.750000
O O17 0.395083 0.379920 0.506746
#
# Coordination Sequence:
#
# PCOD9421398 Si02
#       8
#     8   8   8   8   4   8   8   8
#     4  11  24  41  69 103 140 179 221 276 345 420
#     4  11  24  45  69 102 141 180 232 287 342 414
#     4  10  23  41  63  91 131 182 230 280 334 404
#     4  10  21  38  59  87 123 173 227 278 349 415
#     4  10  26  40  70 102 142 182 222 270 350 416
#     4  10  20  34  55  89 123 164 218 282 354 414
#     4  11  24  41  66 103 136 180 235 286 347 414
#     4  10  24  42  67  96 133 179 233 287 342 401
#
# _framework density 25.128461000000001
#
# number of rings (size 3 to 8) (size 9 to 14) (size 15 to 20)
#    0.000    1.600    1.333    2.000    9.333    1.600 
#    0.000    3.333    0.000    0.000    0.000    0.000 
#    0.000    0.000    0.000    0.000    0.000    0.000 
#
# Total GULP energy -334799.814441 kJ/mol
# GULP energy per Si atom -5579.996907 kJ/mol
# Density = 2.507127 g / cm^3
# Si number density = 25.128461 Si / 1000 Ang^3
#
#
#
# Elastic Constant Matrix: (Units=GPa)
#
#
# Indices 1 2 3 4 5 6 
#
# 1 102.4845 25.9677 31.0148 0.0000 0.0000 0.0000
# 2 25.9677 100.5360 8.9035 0.0000 0.0000 0.0000
# 3 31.0148 8.9035 78.8550 0.0000 0.0000 0.0000
# 4 0.0000 0.0000 0.0000 58.8228 0.0000 0.0000
# 5 0.0000 0.0000 0.0000 0.0000 44.3011 0.0000
# 6 0.0000 0.0000 0.0000 0.0000 0.0000 21.6874
#
#
#
# Elastic Compliance Matrix: (Units=1/GPa)
#
#
# Indices 1 2 3 4 5 6 
#
# 1 0.011735 -0.002649 -0.004316 0.000000 0.000000 0.000000
# 2 -0.002649 0.010645 -0.000160 0.000000 0.000000 0.000000
# 3 -0.004316 -0.000160 0.014397 0.000000 0.000000 0.000000
# 4 0.000000 0.000000 0.000000 0.017000 0.000000 0.000000
# 5 0.000000 0.000000 0.000000 0.000000 0.022573 0.000000
# 6 0.000000 0.000000 0.000000 0.000000 0.000000 0.046110
#
#
# Mechanical properties :
#
#
# Convention : Reuss Voigt Hill
#
# Bulk Modulus (GPa) = 44.39200 45.96083 45.17641
# Shear Modulus (GPa) = 34.66934 39.36157 37.01545
#
# Velocity S-wave (km/s) = 3.71844 3.96209 3.84220
# Velocity P-wave (km/s) = 6.01166 6.26585 6.14007
#
# Compressibility (1/GPa) = 0.02252658
#
# Stress axis : x y z
#
# Youngs Moduli (GPa) = 85.21499 93.94055 69.45737
#
# Poissons Ratio (x) = 0.24883 0.29981
# Poissons Ratio (y) = 0.22572 0.01112
# Poissons Ratio (z) = 0.36783 0.01504
#
# Static dielectric constant tensor:
#      x y z
#    x 1.988190 0.000000 0.000000 
#    y 0.000000 2.061300 0.000000 
#    z 0.000000 0.000000 1.968950 
# 
# From -- ./inp_files/25507.got.cif
#   From: 2010.05.17/outbox.cif.g08.bks.cpg/sg54_13_cif.got.tgz:25507.got - 2010.06.03 13:09:01.
