data_PCOD9421408
_publ_section_title
;
Structure prediction by ZEFSAII (Michael W. Deem and Ramdas Pophale) SiO2 
 PCOD9421408
Probable space group: P C C A
;
_chemical_formula_sum "Si O2"
_cell_formula_units_Z 60
_cell_length_a 22.356350
_cell_length_b 7.092693
_cell_length_c 16.030497
_cell_angle_alpha 90.000000
_cell_angle_beta 90.000000
_cell_angle_gamma 90.000000
_cell_volume 2541.903444
_symmetry_space_group_name_H-M "P C C A"
_symmetry_group_IT_number 54
_symmetry_cell_setting 'orthorhombic'
loop_
_space_group_symop_operation_xyz
x,y,z
1/2-x,-y,z
1/2+x,-y,1/2-z
-x,y,1/2-z
-x,-y,-z
1/2+x,y,-z
1/2-x,y,1/2+z
x,-y,1/2+z
loop_
_atom_site_type_symbol
_atom_site_label
_atom_site_fract_x
_atom_site_fract_y
_atom_site_fract_z
Si Si1 0.492950 0.662613 0.595181
Si Si2 0.500000 0.920144 0.750000
Si Si3 0.399054 0.048877 0.028416
Si Si4 0.871932 0.044786 0.298711
Si Si5 0.624382 0.529154 0.350090
Si Si6 0.386838 0.627844 0.977125
Si Si7 0.679982 0.482278 0.181517
Si Si8 0.315821 0.915809 0.369053
O O1 0.517160 0.792512 0.670700
O O2 0.455675 0.811866 0.537325
O O3 0.445242 0.522216 0.637541
O O4 0.549527 0.553663 0.557030
O O5 0.441995 0.036673 0.724566
O O6 0.365614 0.076189 0.117110
O O7 0.356745 0.070239 0.949941
O O8 0.410322 0.824459 0.017842
O O9 0.858412 0.257917 0.325582
O O10 0.835326 0.986770 0.217798
O O11 0.643973 0.512116 0.447515
O O12 0.647697 0.424997 0.267497
O O13 0.342482 0.638255 0.898350
O O14 0.750000 0.500000 0.198280
O O15 0.670287 0.697617 0.152977
O O16 0.250000 0.000000 0.387316
#
# Coordination Sequence:
#
# PCOD9421408 Si02
#       8
#     8   4   8   8   8   8   8   8
#     4  11  21  37  64  96 128 165 209 262 320 387
#     4  10  20  34  58  90 124 164 202 248 308 368
#     4  10  22  40  62  92 127 164 208 260 321 385
#     4   9  22  40  59  88 125 161 203 254 312 371
#     4  10  23  40  61  90 124 163 203 252 314 375
#     4  11  22  40  63  93 128 165 208 261 324 387
#     4  11  25  43  62  88 123 165 212 263 318 381
#     4  11  23  41  64  89 120 166 216 264 314 376
#
# _framework density 23.604358000000001
#
# number of rings (size 3 to 8) (size 9 to 14) (size 15 to 20)
#    0.000    1.600    0.000    4.000    0.000    9.067 
#    0.000    5.333    0.000    0.000    0.000    0.000 
#    0.000    0.000    0.000    0.000    0.000    0.000 
#
# Total GULP energy -334526.618537 kJ/mol
# GULP energy per Si atom -5575.443642 kJ/mol
# Density = 2.355063 g / cm^3
# Si number density = 23.604358 Si / 1000 Ang^3
#
#
#
# Elastic Constant Matrix: (Units=GPa)
#
#
# Indices 1 2 3 4 5 6 
#
# 1 61.9784 -6.2194 56.8742 0.0000 0.0000 0.0000
# 2 -6.2194 57.2924 25.9123 0.0000 0.0000 0.0000
# 3 56.8742 25.9123 191.1696 0.0000 0.0000 0.0000
# 4 0.0000 0.0000 0.0000 24.5856 0.0000 0.0000
# 5 0.0000 0.0000 0.0000 0.0000 21.4314 0.0000
# 6 0.0000 0.0000 0.0000 0.0000 0.0000 20.9909
#
#
#
# Elastic Compliance Matrix: (Units=1/GPa)
#
#
# Indices 1 2 3 4 5 6 
#
# 1 0.024125 0.006248 -0.008024 0.000000 0.000000 0.000000
# 2 0.006248 0.020212 -0.004599 0.000000 0.000000 0.000000
# 3 -0.008024 -0.004599 0.008242 0.000000 0.000000 0.000000
# 4 0.000000 0.000000 0.000000 0.040674 0.000000 0.000000
# 5 0.000000 0.000000 0.000000 0.000000 0.046661 0.000000
# 6 0.000000 0.000000 0.000000 0.000000 0.000000 0.047640
#
#
# Mechanical properties :
#
#
# Convention : Reuss Voigt Hill
#
# Bulk Modulus (GPa) = 25.10692 51.50828 38.30760
# Shear Modulus (GPa) = 23.41047 28.99313 26.20180
#
# Velocity S-wave (km/s) = 3.15268 3.50851 3.33534
# Velocity P-wave (km/s) = 4.89001 6.18722 5.57646
#
# Compressibility (1/GPa) = 0.03982966
#
# Stress axis : x y z
#
# Youngs Moduli (GPa) = 41.45063 49.47447 121.33631
#
# Poissons Ratio (x) = -0.30912 0.97364
# Poissons Ratio (y) = -0.25899 0.55798
# Poissons Ratio (z) = 0.33261 0.22751
#
# Static dielectric constant tensor:
#      x y z
#    x 1.866380 0.000000 0.000000 
#    y 0.000000 1.961300 0.000000 
#    z 0.000000 0.000000 2.007650 
# 
# From -- ./inp_files/14946.got.cif
#   From: 2010.05.17/outbox.cif.g08.bks.cpg/sg54_8_cif.got.tgz:14946.got - 2010.06.03 13:09:01.
