data_PCOD9421321
_publ_section_title
;
Structure prediction by ZEFSAII (Michael W. Deem and Ramdas Pophale) SiO2 
 PCOD9421321
Probable space group: P C C A
;
_chemical_formula_sum "Si O2"
_cell_formula_units_Z 44
_cell_length_a 5.223167
_cell_length_b 14.594347
_cell_length_c 33.668224
_cell_angle_alpha 90.000000
_cell_angle_beta 90.000000
_cell_angle_gamma 90.000000
_cell_volume 2566.485339
_symmetry_space_group_name_H-M "P C C A"
_symmetry_group_IT_number 54
_symmetry_cell_setting 'orthorhombic'
loop_
_space_group_symop_operation_xyz
x,y,z
1/2-x,-y,z
1/2+x,-y,1/2-z
-x,y,1/2-z
-x,-y,-z
1/2+x,y,-z
1/2-x,y,1/2+z
x,-y,1/2+z
loop_
_atom_site_type_symbol
_atom_site_label
_atom_site_fract_x
_atom_site_fract_y
_atom_site_fract_z
Si Si1 0.250753 0.609067 0.223754
Si Si2 0.261273 0.108481 0.473731
Si Si3 0.750000 0.000000 0.152368
Si Si4 0.258175 0.186480 0.388621
Si Si5 0.233877 0.755855 0.156430
Si Si6 0.138217 0.091981 0.213560
O O1 0.250000 0.500000 0.215968
O O2 0.500000 0.629926 0.250000
O O3 0.258902 0.665664 0.183061
O O4 0.000000 0.631758 0.250000
O O5 0.532163 0.123577 0.495139
O O6 0.228186 0.173266 0.435576
O O7 0.250000 0.000000 0.462366
O O8 0.660264 0.084051 0.125637
O O9 0.958275 0.046849 0.180401
O O10 0.493482 0.247362 0.373084
O O11 0.994655 0.218563 0.367341
O O12 0.189277 0.836763 0.189513
O O13 0.000000 0.142175 0.250000
O O14 0.250000 0.000000 0.232924
#
# Coordination Sequence:
#
# PCOD9421321 Si02
#       6
#     8   8   4   8   8   8
#     4  10  21  39  60  80 106 140 182 231 276 317
#     4  10  20  34  53  75 101 142 184 219 257 314
#     4  10  20  32  42  64  96 142 174 214 250 294
#     4  11  21  35  52  74 108 135 177 216 265 313
#     4  11  23  34  53  77 103 140 176 223 269 313
#     4  11  20  30  43  62  96 138 182 208 245 290
#
# _framework density 17.144068999999998
#
# number of rings (size 3 to 8) (size 9 to 14) (size 15 to 20)
#    0.000    1.455    3.636    2.727    0.000    2.182 
#    0.000    0.000    0.000    0.000    0.000    0.000 
#    0.000   14.545    0.000    0.000    0.000    0.000 
#
# Total GULP energy -245343.591229 kJ/mol
# GULP energy per Si atom -5575.990710 kJ/mol
# Density = 1.710505 g / cm^3
# Si number density = 17.144069 Si / 1000 Ang^3
#
#
#
# Elastic Constant Matrix: (Units=GPa)
#
#
# Indices 1 2 3 4 5 6 
#
# 1 87.7735 18.7907 25.1714 0.0000 0.0000 0.0000
# 2 18.7907 56.2406 31.4283 0.0000 0.0000 0.0000
# 3 25.1714 31.4283 89.1096 0.0000 0.0000 0.0000
# 4 0.0000 0.0000 0.0000 42.1828 0.0000 0.0000
# 5 0.0000 0.0000 0.0000 0.0000 18.7682 0.0000
# 6 0.0000 0.0000 0.0000 0.0000 0.0000 3.2153
#
#
#
# Elastic Compliance Matrix: (Units=1/GPa)
#
#
# Indices 1 2 3 4 5 6 
#
# 1 0.012741 -0.002797 -0.002613 0.000000 0.000000 0.000000
# 2 -0.002797 0.022759 -0.007237 0.000000 0.000000 0.000000
# 3 -0.002613 -0.007237 0.014513 0.000000 0.000000 0.000000
# 4 0.000000 0.000000 0.000000 0.023706 0.000000 0.000000
# 5 0.000000 0.000000 0.000000 0.000000 0.053282 0.000000
# 6 0.000000 0.000000 0.000000 0.000000 0.000000 0.311012
#
#
# Mechanical properties :
#
#
# Convention : Reuss Voigt Hill
#
# Bulk Modulus (GPa) = 40.45326 42.65606 41.55466
# Shear Modulus (GPa) = 10.60343 23.34880 16.97612
#
# Velocity S-wave (km/s) = 2.48964 3.69442 3.15016
# Velocity P-wave (km/s) = 5.64905 6.56759 6.12556
#
# Compressibility (1/GPa) = 0.02471988
#
# Stress axis : x y z
#
# Youngs Moduli (GPa) = 78.48704 43.93782 68.90575
#
# Poissons Ratio (x) = 0.12289 0.18002
# Poissons Ratio (y) = 0.21953 0.49867
# Poissons Ratio (z) = 0.20505 0.31798
#
# Static dielectric constant tensor:
#      x y z
#    x 1.658260 0.000000 0.000000 
#    y 0.000000 1.583540 0.000000 
#    z 0.000000 0.000000 1.579070 
# 
# From -- ./inp_files/27145.got.cif
#   From: 2010.05.17/outbox.cif.g08.bks.cpg/sg54_14_cif.got.tgz:27145.got - 2010.06.03 13:09:01.
