data_PCOD9421924
_publ_section_title
;
Structure prediction by ZEFSAII (Michael W. Deem and Ramdas Pophale) SiO2 
 PCOD9421924
Probable space group: P C C A
;
_chemical_formula_sum "Si O2"
_cell_formula_units_Z 60
_cell_length_a 8.495671
_cell_length_b 14.831846
_cell_length_c 23.321956
_cell_angle_alpha 90.000000
_cell_angle_beta 90.000000
_cell_angle_gamma 90.000000
_cell_volume 2938.717674
_symmetry_space_group_name_H-M "P C C A"
_symmetry_group_IT_number 54
_symmetry_cell_setting 'orthorhombic'
loop_
_space_group_symop_operation_xyz
x,y,z
1/2-x,-y,z
1/2+x,-y,1/2-z
-x,y,1/2-z
-x,-y,-z
1/2+x,y,-z
1/2-x,y,1/2+z
x,-y,1/2+z
loop_
_atom_site_type_symbol
_atom_site_label
_atom_site_fract_x
_atom_site_fract_y
_atom_site_fract_z
Si Si1 0.687912 0.093237 0.251500
Si Si2 0.132921 0.684173 0.561262
Si Si3 0.367541 0.745607 0.825304
Si Si4 0.207533 0.755349 0.948543
Si Si5 0.379475 0.928587 0.524087
Si Si6 0.926573 0.538637 0.189660
Si Si7 0.250000 0.500000 0.615897
Si Si8 0.820436 0.827648 0.365450
O O1 0.500000 0.082852 0.250000
O O2 0.721382 0.183343 0.215302
O O3 0.748137 0.106963 0.316766
O O4 0.750000 0.000000 0.226264
O O5 0.188197 0.710222 0.497756
O O6 0.203165 0.588800 0.580066
O O7 0.198464 0.761071 0.604360
O O8 0.946560 0.694675 0.560637
O O9 0.294312 0.756074 0.888240
O O10 0.378700 0.643523 0.804963
O O11 0.549770 0.773014 0.830491
O O12 0.163521 0.853907 0.975657
O O13 0.413253 0.875096 0.582268
O O14 0.250000 0.000000 0.542911
O O15 0.500000 0.000000 0.500000
O O16 0.750000 0.500000 0.174690
O O17 0.000000 0.504709 0.250000
O O18 0.082307 0.523679 0.148796
#
# Coordination Sequence:
#
# PCOD9421924 Si02
#       8
#     8   8   8   8   8   8   4   8
#     4  10  23  39  63  94 130 181 224 277 346 415
#     4  11  24  43  66  97 131 179 225 284 353 419
#     4  11  23  43  66  92 135 183 224 288 353 417
#     4  11  24  43  63  94 136 177 228 285 355 424
#     4  11  21  35  60  93 124 174 231 287 343 414
#     4  12  25  46  74 107 142 182 238 294 353 427
#     4  12  26  46  74 108 140 186 242 288 356 438
#     4  10  20  40  62  87 135 175 220 280 350 408
#
# _framework density 20.417068
#
# number of rings (size 3 to 8) (size 9 to 14) (size 15 to 20)
#    0.000    1.067    2.000    6.400    0.000    4.267 
#    1.200    0.667    0.000    0.000    0.000    0.000 
#    0.000    0.000    0.000    0.000    0.000    0.000 
#
# Total GULP energy -334346.424297 kJ/mol
# GULP energy per Si atom -5572.440405 kJ/mol
# Density = 2.037060 g / cm^3
# Si number density = 20.417068 Si / 1000 Ang^3
#
#
#
# Elastic Constant Matrix: (Units=GPa)
#
#
# Indices 1 2 3 4 5 6 
#
# 1 78.7814 24.6971 20.8004 0.0000 0.0000 0.0000
# 2 24.6971 103.2511 25.7120 0.0000 0.0000 0.0000
# 3 20.8004 25.7120 98.3110 0.0000 0.0000 0.0000
# 4 0.0000 0.0000 0.0000 18.4382 0.0000 0.0000
# 5 0.0000 0.0000 0.0000 0.0000 38.1907 0.0000
# 6 0.0000 0.0000 0.0000 0.0000 0.0000 35.1915
#
#
#
# Elastic Compliance Matrix: (Units=1/GPa)
#
#
# Indices 1 2 3 4 5 6 
#
# 1 0.014177 -0.002828 -0.002260 0.000000 0.000000 0.000000
# 2 -0.002828 0.010924 -0.002259 0.000000 0.000000 0.000000
# 3 -0.002260 -0.002259 0.011241 0.000000 0.000000 0.000000
# 4 0.000000 0.000000 0.000000 0.054235 0.000000 0.000000
# 5 0.000000 0.000000 0.000000 0.000000 0.026184 0.000000
# 6 0.000000 0.000000 0.000000 0.000000 0.000000 0.028416
#
#
# Mechanical properties :
#
#
# Convention : Reuss Voigt Hill
#
# Bulk Modulus (GPa) = 46.19363 46.97362 46.58362
# Shear Modulus (GPa) = 29.92468 32.30636 31.11552
#
# Velocity S-wave (km/s) = 3.83256 3.98216 3.90807
# Velocity P-wave (km/s) = 6.50068 6.64834 6.57492
#
# Compressibility (1/GPa) = 0.02164801
#
# Stress axis : x y z
#
# Youngs Moduli (GPa) = 70.53877 91.54082 88.96290
#
# Poissons Ratio (x) = 0.25890 0.20104
# Poissons Ratio (y) = 0.19950 0.20094
# Poissons Ratio (z) = 0.15940 0.20676
#
# Static dielectric constant tensor:
#      x y z
#    x 1.726970 0.000000 0.000000 
#    y 0.000000 1.738510 0.000000 
#    z 0.000000 0.000000 1.747370 
# 
# From -- ./inp_files/23639.got.cif
#   From: 2010.05.17/outbox.cif.g08.bks.cpg/sg54_12_cif.got.tgz:23639.got - 2010.06.03 13:09:01.
