data_PCOD9421459
_publ_section_title
;
Structure prediction by ZEFSAII (Michael W. Deem and Ramdas Pophale) SiO2 
 PCOD9421459
Probable space group: P C C A
;
_chemical_formula_sum "Si O2"
_cell_formula_units_Z 48
_cell_length_a 16.272546
_cell_length_b 9.300028
_cell_length_c 14.742047
_cell_angle_alpha 90.000000
_cell_angle_beta 90.000000
_cell_angle_gamma 90.000000
_cell_volume 2230.989650
_symmetry_space_group_name_H-M "P C C A"
_symmetry_group_IT_number 54
_symmetry_cell_setting 'orthorhombic'
loop_
_space_group_symop_operation_xyz
x,y,z
1/2-x,-y,z
1/2+x,-y,1/2-z
-x,y,1/2-z
-x,-y,-z
1/2+x,y,-z
1/2-x,y,1/2+z
x,-y,1/2+z
loop_
_atom_site_type_symbol
_atom_site_label
_atom_site_fract_x
_atom_site_fract_y
_atom_site_fract_z
Si Si1 0.993058 0.929031 0.598503
Si Si2 0.671283 0.910851 0.390798
Si Si3 0.508150 0.608144 0.147324
Si Si4 0.168510 0.416735 0.883070
Si Si5 0.170089 0.583464 0.601676
Si Si6 0.168716 0.085378 0.886350
O O1 0.984385 0.755637 0.590023
O O2 0.081825 0.961932 0.641491
O O3 0.912483 0.998299 0.641286
O O4 0.000000 0.000000 0.500000
O O5 0.677321 0.745467 0.363034
O O6 0.670323 0.912613 0.502074
O O7 0.750000 0.000000 0.361501
O O8 0.500000 0.660571 0.250000
O O9 0.586169 0.504895 0.139549
O O10 0.421734 0.530729 0.124802
O O11 0.250000 0.500000 0.634323
O O12 0.166919 0.250244 0.854055
O O13 0.173259 0.413802 0.992612
O O14 0.250000 0.500000 0.350702
O O15 0.250000 0.000000 0.858091
#
# Coordination Sequence:
#
# PCOD9421459 Si02
#       6
#     8   8   8   8   8   8
#     4   9  18  33  54  77 104 146 194 238 282 341
#     4   8  15  27  47  77 104 130 173 233 290 323
#     4  11  23  38  56  84 123 158 189 242 309 362
#     4  10  20  35  59  87 114 153 201 246 293 348
#     4   9  19  34  55  82 111 148 197 243 281 341
#     4   9  16  29  51  79 107 137 185 242 284 329
#
# _framework density 21.515114000000001
#
# number of rings (size 3 to 8) (size 9 to 14) (size 15 to 20)
#    0.000    2.667    0.000    2.500    0.000    6.000 
#    0.000    0.833    0.000   12.000    0.000    0.000 
#    0.000    0.000    0.000    0.000    0.000    0.000 
#
# Total GULP energy -267882.217715 kJ/mol
# GULP energy per Si atom -5580.879536 kJ/mol
# Density = 2.146614 g / cm^3
# Si number density = 21.515114 Si / 1000 Ang^3
#
#
#
# Elastic Constant Matrix: (Units=GPa)
#
#
# Indices 1 2 3 4 5 6 
#
# 1 280.0346 126.9840 2.6302 0.0000 0.0000 0.0000
# 2 126.9840 123.5108 14.5514 0.0000 0.0000 0.0000
# 3 2.6302 14.5514 48.0113 0.0000 0.0000 0.0000
# 4 0.0000 0.0000 0.0000 -6.8528 0.0000 0.0000
# 5 0.0000 0.0000 0.0000 0.0000 35.2255 0.0000
# 6 0.0000 0.0000 0.0000 0.0000 0.0000 44.5944
#
#
#
# Elastic Compliance Matrix: (Units=1/GPa)
#
#
# Indices 1 2 3 4 5 6 
#
# 1 0.006840 -0.007247 0.001822 0.000000 0.000000 0.000000
# 2 -0.007247 0.016075 -0.004475 0.000000 0.000000 0.000000
# 3 0.001822 -0.004475 0.022085 0.000000 0.000000 0.000000
# 4 0.000000 0.000000 0.000000 -0.145925 0.000000 0.000000
# 5 0.000000 0.000000 0.000000 0.000000 0.028389 0.000000
# 6 0.000000 0.000000 0.000000 0.000000 0.000000 0.022424
#
#
# Mechanical properties :
#
#
# Convention : Reuss Voigt Hill
#
# Bulk Modulus (GPa) = 39.68404 82.20979 60.94692
# Shear Modulus (GPa) = -228.18432 35.08615 -96.54909
#
# Velocity S-wave (km/s) = -10.30960 4.04266 -6.70615
# Velocity P-wave (km/s) = 11.10101 7.75139 5.61910
#
# Compressibility (1/GPa) = 0.02519905
#
# Stress axis : x y z
#
# Youngs Moduli (GPa) = 146.19565 62.20994 45.27983
#
# Poissons Ratio (x) = 0.45084 -0.08249
# Poissons Ratio (y) = 1.05950 0.20262
# Poissons Ratio (z) = -0.26633 0.27838
#
# Static dielectric constant tensor:
#      x y z
#    x 1.822550 0.000000 0.000000 
#    y 0.000000 1.765740 0.000000 
#    z 0.000000 0.000000 1.798520 
# 
# From -- ./inp_files/18006.got.cif
#   From: 2010.05.17/outbox.cif.g08.bks.cpg/sg54_10_cif.got.tgz:18006.got - 2010.06.03 13:09:01.
