data_PCOD9421312
_publ_section_title
;
Structure prediction by ZEFSAII (Michael W. Deem and Ramdas Pophale) SiO2 
 PCOD9421312
Probable space group: P C C A
;
_chemical_formula_sum "Si O2"
_cell_formula_units_Z 52
_cell_length_a 5.471948
_cell_length_b 19.402188
_cell_length_c 25.541402
_cell_angle_alpha 90.000000
_cell_angle_beta 90.000000
_cell_angle_gamma 90.000000
_cell_volume 2711.673535
_symmetry_space_group_name_H-M "P C C A"
_symmetry_group_IT_number 54
_symmetry_cell_setting 'orthorhombic'
loop_
_space_group_symop_operation_xyz
x,y,z
1/2-x,-y,z
1/2+x,-y,1/2-z
-x,y,1/2-z
-x,-y,-z
1/2+x,y,-z
1/2-x,y,1/2+z
x,-y,1/2+z
loop_
_atom_site_type_symbol
_atom_site_label
_atom_site_fract_x
_atom_site_fract_y
_atom_site_fract_z
Si Si1 0.303310 0.420240 0.446356
Si Si2 0.194395 0.634085 0.564365
Si Si3 0.030175 0.100946 0.971835
Si Si4 0.250000 0.000000 0.663158
Si Si5 0.271906 0.792715 0.588569
Si Si6 0.999730 0.139983 0.692010
Si Si7 0.877249 0.897460 0.616276
O O1 0.250000 0.500000 0.458634
O O2 0.320498 0.379185 0.501513
O O3 0.563868 0.408118 0.419270
O O4 0.067356 0.392460 0.415862
O O5 0.228465 0.713078 0.579785
O O6 0.140016 0.079050 0.915998
O O7 0.262937 0.079420 0.007488
O O8 0.462314 0.180175 0.044213
O O9 0.120370 0.063053 0.693889
O O10 0.439884 0.041857 0.628069
O O11 0.370750 0.814785 0.646274
O O12 0.022221 0.837943 0.584817
O O13 0.000000 0.169722 0.750000
O O14 0.724994 0.130653 0.670813
#
# Coordination Sequence:
#
# PCOD9421312 Si02
#       7
#     8   8   8   4   8   8   8
#     4  10  20  34  53  84 125 168 205 242 279 331
#     4  10  20  30  53  80 117 166 197 232 285 342
#     4  11  22  36  59  81 118 159 203 244 287 343
#     4  10  22  38  64  90 110 152 196 256 328 388
#     4  10  23  36  56  89 121 159 208 252 300 368
#     4  10  23  40  64  87 119 149 192 265 325 390
#     4  10  22  41  59  87 125 147 207 260 306 371
#
# _framework density 19.176351
#
# number of rings (size 3 to 8) (size 9 to 14) (size 15 to 20)
#    0.000    1.846    1.538    2.769   10.769    1.846 
#    0.000    0.769    0.000    0.000    0.000    0.000 
#    0.000    3.692    0.000    0.000    0.000    0.000 
#
# Total GULP energy -289620.566630 kJ/mol
# GULP energy per Si atom -5569.626281 kJ/mol
# Density = 1.913270 g / cm^3
# Si number density = 19.176351 Si / 1000 Ang^3
#
#
#
# Elastic Constant Matrix: (Units=GPa)
#
#
# Indices 1 2 3 4 5 6 
#
# 1 124.6139 2.0973 22.0460 0.0000 0.0000 0.0000
# 2 2.0973 77.2718 20.5210 0.0000 0.0000 0.0000
# 3 22.0460 20.5210 72.8830 0.0000 0.0000 0.0000
# 4 0.0000 0.0000 0.0000 31.2359 0.0000 0.0000
# 5 0.0000 0.0000 0.0000 0.0000 14.1659 0.0000
# 6 0.0000 0.0000 0.0000 0.0000 0.0000 27.0741
#
#
#
# Elastic Compliance Matrix: (Units=1/GPa)
#
#
# Indices 1 2 3 4 5 6 
#
# 1 0.008496 0.000488 -0.002707 0.000000 0.000000 0.000000
# 2 0.000488 0.014015 -0.004094 0.000000 0.000000 0.000000
# 3 -0.002707 -0.004094 0.015692 0.000000 0.000000 0.000000
# 4 0.000000 0.000000 0.000000 0.032014 0.000000 0.000000
# 5 0.000000 0.000000 0.000000 0.000000 0.070592 0.000000
# 6 0.000000 0.000000 0.000000 0.000000 0.000000 0.036936
#
#
# Mechanical properties :
#
#
# Convention : Reuss Voigt Hill
#
# Bulk Modulus (GPa) = 39.09691 40.45524 39.77607
# Shear Modulus (GPa) = 25.13871 29.83547 27.48709
#
# Velocity S-wave (km/s) = 3.62459 3.94870 3.79011
# Velocity P-wave (km/s) = 6.16030 6.47548 6.31986
#
# Compressibility (1/GPa) = 0.02557747
#
# Stress axis : x y z
#
# Youngs Moduli (GPa) = 117.70902 71.35065 63.72588
#
# Poissons Ratio (x) = -0.03485 0.17252
# Poissons Ratio (y) = -0.05749 0.26089
# Poissons Ratio (z) = 0.31867 0.29210
#
# Static dielectric constant tensor:
#      x y z
#    x 1.816040 0.000000 0.000000 
#    y 0.000000 1.674250 0.000000 
#    z 0.000000 0.000000 1.716060 
# 
# From -- ./inp_files/25467.got.cif
#   From: 2010.05.17/outbox.cif.g08.bks.cpg/sg54_13_cif.got.tgz:25467.got - 2010.06.03 13:09:01.
