data_PCOD9421141
_publ_section_title
;
Structure prediction by ZEFSAII (Michael W. Deem and Ramdas Pophale) SiO2 
 PCOD9421141
Probable space group: P C C A
;
_chemical_formula_sum "Si O2"
_cell_formula_units_Z 60
_cell_length_a 12.430904
_cell_length_b 12.368970
_cell_length_c 22.433297
_cell_angle_alpha 90.000000
_cell_angle_beta 90.000000
_cell_angle_gamma 90.000000
_cell_volume 3449.287185
_symmetry_space_group_name_H-M "P C C A"
_symmetry_group_IT_number 54
_symmetry_cell_setting 'orthorhombic'
loop_
_space_group_symop_operation_xyz
x,y,z
1/2-x,-y,z
1/2+x,-y,1/2-z
-x,y,1/2-z
-x,-y,-z
1/2+x,y,-z
1/2-x,y,1/2+z
x,-y,1/2+z
loop_
_atom_site_type_symbol
_atom_site_label
_atom_site_fract_x
_atom_site_fract_y
_atom_site_fract_z
Si Si1 0.386759 0.772531 0.364618
Si Si2 0.462765 0.351999 0.061039
Si Si3 0.727903 0.253687 0.936642
Si Si4 0.668141 0.199786 0.072236
Si Si5 0.000000 0.155282 0.250000
Si Si6 0.966664 0.991056 0.569046
Si Si7 0.646523 0.060287 0.851410
Si Si8 0.526178 0.403649 0.925927
O O1 0.261925 0.768386 0.382104
O O2 0.416427 0.788041 0.295391
O O3 0.431553 0.873015 0.405985
O O4 0.452164 0.666763 0.383103
O O5 0.350009 0.292235 0.072205
O O6 0.563963 0.276835 0.076834
O O7 0.469804 0.470523 0.090041
O O8 0.473914 0.380710 0.990805
O O9 0.686045 0.162130 0.891087
O O10 0.645748 0.353802 0.928862
O O11 0.712986 0.211557 0.004579
O O12 0.625975 0.077900 0.081025
O O13 0.072588 0.091161 0.203527
O O14 0.075337 0.014763 0.605390
O O15 0.000000 0.000000 0.500000
O O16 0.750000 0.000000 0.828858
#
# Coordination Sequence:
#
# PCOD9421141 Si02
#       8
#     8   8   8   8   4   8   8   8
#     4  11  22  40  60  84 116 165 208 243 296 366
#     4  10  21  33  56  91 125 148 192 252 317 365
#     4  11  19  36  56  89 123 157 196 245 313 373
#     4  11  22  33  57  90 127 155 191 252 314 367
#     4  10  24  44  58  80 118 172 224 234 282 368
#     4  11  20  34  55  89 126 152 194 245 312 372
#     4  11  23  36  61  85 121 164 205 254 299 356
#     4  10  19  36  57  85 119 164 193 241 306 379
#
# _framework density 17.394898999999999
#
# number of rings (size 3 to 8) (size 9 to 14) (size 15 to 20)
#    0.000    1.333    5.333    2.400    1.867    2.667 
#    0.000    0.000    0.000    3.200    0.000    0.000 
#    0.000    0.000    0.000    0.000    0.000    0.000 
#
# Total GULP energy -334660.586490 kJ/mol
# GULP energy per Si atom -5577.676441 kJ/mol
# Density = 1.735531 g / cm^3
# Si number density = 17.394899 Si / 1000 Ang^3
#
#
#
# Elastic Constant Matrix: (Units=GPa)
#
#
# Indices 1 2 3 4 5 6 
#
# 1 139.7872 43.6244 52.6567 0.0000 0.0000 0.0000
# 2 43.6244 87.6313 32.2871 0.0000 0.0000 0.0000
# 3 52.6567 32.2871 104.1866 0.0000 0.0000 0.0000
# 4 0.0000 0.0000 0.0000 14.7234 0.0000 0.0000
# 5 0.0000 0.0000 0.0000 0.0000 28.6555 0.0000
# 6 0.0000 0.0000 0.0000 0.0000 0.0000 16.7874
#
#
#
# Elastic Compliance Matrix: (Units=1/GPa)
#
#
# Indices 1 2 3 4 5 6 
#
# 1 0.009655 -0.003396 -0.003827 0.000000 0.000000 0.000000
# 2 -0.003396 0.014077 -0.002646 0.000000 0.000000 0.000000
# 3 -0.003827 -0.002646 0.012352 0.000000 0.000000 0.000000
# 4 0.000000 0.000000 0.000000 0.067919 0.000000 0.000000
# 5 0.000000 0.000000 0.000000 0.000000 0.034897 0.000000
# 6 0.000000 0.000000 0.000000 0.000000 0.000000 0.059568
#
#
# Mechanical properties :
#
#
# Convention : Reuss Voigt Hill
#
# Bulk Modulus (GPa) = 61.17838 65.41572 63.29705
# Shear Modulus (GPa) = 22.35557 25.56905 23.96231
#
# Velocity S-wave (km/s) = 3.58883 3.83811 3.71556
# Velocity P-wave (km/s) = 7.24014 7.57161 7.40773
#
# Compressibility (1/GPa) = 0.01634564
#
# Stress axis : x y z
#
# Youngs Moduli (GPa) = 103.56857 71.03724 80.95536
#
# Poissons Ratio (x) = 0.24128 0.30985
# Poissons Ratio (y) = 0.35177 0.21420
# Poissons Ratio (z) = 0.39640 0.18795
#
# Static dielectric constant tensor:
#      x y z
#    x 1.629930 0.000000 0.000000 
#    y 0.000000 1.611790 0.000000 
#    z 0.000000 0.000000 1.658860 
# 
# From -- ./inp_files/21219.got.cif
#   From: 2010.05.17/outbox.cif.g08.bks.cpg/sg54_11_cif.got.tgz:21219.got - 2010.06.03 13:09:01.
