data_PCOD9421270
_publ_section_title
;
Structure prediction by ZEFSAII (Michael W. Deem and Ramdas Pophale) SiO2 
 PCOD9421270
Probable space group: P C C A
;
_chemical_formula_sum "Si O2"
_cell_formula_units_Z 56
_cell_length_a 14.414162
_cell_length_b 13.226099
_cell_length_c 15.379110
_cell_angle_alpha 90.000000
_cell_angle_beta 90.000000
_cell_angle_gamma 90.000000
_cell_volume 2931.921723
_symmetry_space_group_name_H-M "P C C A"
_symmetry_group_IT_number 54
_symmetry_cell_setting 'orthorhombic'
loop_
_space_group_symop_operation_xyz
x,y,z
1/2-x,-y,z
1/2+x,-y,1/2-z
-x,y,1/2-z
-x,-y,-z
1/2+x,y,-z
1/2-x,y,1/2+z
x,-y,1/2+z
loop_
_atom_site_type_symbol
_atom_site_label
_atom_site_fract_x
_atom_site_fract_y
_atom_site_fract_z
Si Si1 0.500000 0.407622 0.250000
Si Si2 0.250000 0.500000 0.962302
Si Si3 0.117182 0.398554 0.596040
Si Si4 0.836449 0.688399 0.135247
Si Si5 0.066184 0.917355 0.167335
Si Si6 0.939988 0.841227 0.835441
Si Si7 0.234822 0.230529 0.696667
Si Si8 0.485089 0.224656 0.476895
O O1 0.559956 0.456928 0.327728
O O2 0.575866 0.342219 0.197008
O O3 0.214605 0.408800 0.902730
O O4 0.333178 0.467276 0.025847
O O5 0.192509 0.326688 0.644471
O O6 0.047489 0.321986 0.547193
O O7 0.770047 0.747588 0.200368
O O8 0.881203 0.750654 0.056471
O O9 0.164763 0.862557 0.179978
O O10 0.021521 0.866960 0.082358
O O11 0.000000 0.893090 0.250000
O O12 0.072084 0.037462 0.160010
O O13 0.838540 0.792777 0.830229
O O14 0.000000 0.817764 0.750000
O O15 0.988240 0.802013 0.922707
#
# Coordination Sequence:
#
# PCOD9421270 Si02
#       8
#     4   4   8   8   8   8   8   8
#     4   8  18  38  58  86 104 156 200 242 300 380
#     4  12  24  36  56  94 120 152 208 272 306 370
#     4   9  21  38  65  82 118 160 209 250 306 375
#     4  10  21  38  65  82 115 161 212 245 307 374
#     4  10  19  39  67  92 117 162 211 250 292 376
#     4  11  24  36  58  96 135 154 197 261 306 361
#     4  10  20  40  64  85 122 167 204 244 310 371
#     4  10  20  40  64  87 121 168 201 246 318 375
#
# _framework density 19.100100000000001
#
# number of rings (size 3 to 8) (size 9 to 14) (size 15 to 20)
#    0.000    2.000    1.429    2.571    4.000    4.571 
#    0.000    1.429    9.429    0.000    0.000    0.000 
#    0.000    0.000    0.000    0.000    0.000    0.000 
#
# Total GULP energy -312553.519072 kJ/mol
# GULP energy per Si atom -5581.312841 kJ/mol
# Density = 1.905663 g / cm^3
# Si number density = 19.100100 Si / 1000 Ang^3
#
#
#
# Elastic Constant Matrix: (Units=GPa)
#
#
# Indices 1 2 3 4 5 6 
#
# 1 81.9399 23.2790 47.3198 0.0000 0.0000 0.0000
# 2 23.2790 37.7870 43.2228 0.0000 0.0000 0.0000
# 3 47.3198 43.2228 154.4064 0.0000 0.0000 0.0000
# 4 0.0000 0.0000 0.0000 88.7913 0.0000 0.0000
# 5 0.0000 0.0000 0.0000 0.0000 22.8758 0.0000
# 6 0.0000 0.0000 0.0000 0.0000 0.0000 13.9877
#
#
#
# Elastic Compliance Matrix: (Units=1/GPa)
#
#
# Indices 1 2 3 4 5 6 
#
# 1 0.015743 -0.006149 -0.003103 0.000000 0.000000 0.000000
# 2 -0.006149 0.041331 -0.009685 0.000000 0.000000 0.000000
# 3 -0.003103 -0.009685 0.010139 0.000000 0.000000 0.000000
# 4 0.000000 0.000000 0.000000 0.011262 0.000000 0.000000
# 5 0.000000 0.000000 0.000000 0.000000 0.043714 0.000000
# 6 0.000000 0.000000 0.000000 0.000000 0.000000 0.071492
#
#
# Mechanical properties :
#
#
# Convention : Reuss Voigt Hill
#
# Bulk Modulus (GPa) = 34.08612 55.75295 44.91953
# Shear Modulus (GPa) = 20.71809 35.81841 28.26825
#
# Velocity S-wave (km/s) = 3.29707 4.33517 3.85126
# Velocity P-wave (km/s) = 5.69025 7.36963 6.58371
#
# Compressibility (1/GPa) = 0.02933746
#
# Stress axis : x y z
#
# Youngs Moduli (GPa) = 63.51964 24.19508 98.63202
#
# Poissons Ratio (x) = 0.14877 0.30610
# Poissons Ratio (y) = 0.39057 0.95528
# Poissons Ratio (z) = 0.19713 0.23434
#
# Static dielectric constant tensor:
#      x y z
#    x 1.669460 0.000000 0.000000 
#    y 0.000000 1.644820 0.000000 
#    z 0.000000 0.000000 1.675630 
# 
# From -- ./inp_files/13539.got.cif
#   From: 2010.05.17/outbox.cif.g08.bks.cpg/sg54_7_cif.got.tgz:13539.got - 2010.06.03 13:09:01.
