data_PCOD9421755
_publ_section_title
;
Structure prediction by ZEFSAII (Michael W. Deem and Ramdas Pophale) SiO2 
 PCOD9421755
Probable space group: P C C A
;
_chemical_formula_sum "Si O2"
_cell_formula_units_Z 44
_cell_length_a 25.082654
_cell_length_b 5.125398
_cell_length_c 14.458744
_cell_angle_alpha 90.000000
_cell_angle_beta 90.000000
_cell_angle_gamma 90.000000
_cell_volume 1858.795664
_symmetry_space_group_name_H-M "P C C A"
_symmetry_group_IT_number 54
_symmetry_cell_setting 'orthorhombic'
loop_
_space_group_symop_operation_xyz
x,y,z
1/2-x,-y,z
1/2+x,-y,1/2-z
-x,y,1/2-z
-x,-y,-z
1/2+x,y,-z
1/2-x,y,1/2+z
x,-y,1/2+z
loop_
_atom_site_type_symbol
_atom_site_label
_atom_site_fract_x
_atom_site_fract_y
_atom_site_fract_z
Si Si1 0.444364 0.858847 0.559429
Si Si2 0.750000 0.000000 0.252174
Si Si3 0.700482 0.365984 0.093923
Si Si4 0.365040 0.916447 0.194431
Si Si5 0.132173 0.889057 0.901300
Si Si6 0.466421 0.637893 0.156452
O O1 0.389925 0.885195 0.621536
O O2 0.419970 0.832525 0.459094
O O3 0.477374 0.628076 0.604306
O O4 0.472809 0.128788 0.583273
O O5 0.772250 0.771696 0.184072
O O6 0.801327 0.100860 0.307997
O O7 0.750000 0.500000 0.040239
O O8 0.667827 0.120743 0.052561
O O9 0.662403 0.613441 0.111485
O O10 0.379041 0.998963 0.299343
O O11 0.097010 0.334758 0.179812
O O12 0.500000 0.669207 0.250000
#
# Coordination Sequence:
#
# PCOD9421755 Si02
#       6
#     8   4   8   8   8   8
#     4  10  23  41  64  94 123 163 213 262 311 387
#     4  10  20  38  60  94 124 162 216 246 320 382
#     4  11  19  35  59  85 125 168 200 249 307 369
#     4   9  23  38  66  89 128 167 209 259 317 383
#     4  11  22  38  62  89 127 162 206 261 315 373
#     4  10  22  44  66  90 127 169 211 274 323 363
#
# _framework density 23.671241999999999
#
# number of rings (size 3 to 8) (size 9 to 14) (size 15 to 20)
#    1.091    0.727    3.636    1.636    5.091    0.000 
#    3.273    1.818    0.000    0.000    0.000    0.000 
#    0.000    0.000    0.000    0.000    0.000    0.000 
#
# Total GULP energy -245299.188016 kJ/mol
# GULP energy per Si atom -5574.981546 kJ/mol
# Density = 2.361737 g / cm^3
# Si number density = 23.671242 Si / 1000 Ang^3
#
#
#
# Elastic Constant Matrix: (Units=GPa)
#
#
# Indices 1 2 3 4 5 6 
#
# 1 134.1700 32.8200 20.5716 0.0000 0.0000 0.0000
# 2 32.8200 110.2043 -12.5069 0.0000 0.0000 0.0000
# 3 20.5716 -12.5069 33.8587 0.0000 0.0000 0.0000
# 4 0.0000 0.0000 0.0000 17.2425 0.0000 0.0000
# 5 0.0000 0.0000 0.0000 0.0000 13.6145 0.0000
# 6 0.0000 0.0000 0.0000 0.0000 0.0000 25.4881
#
#
#
# Elastic Compliance Matrix: (Units=1/GPa)
#
#
# Indices 1 2 3 4 5 6 
#
# 1 0.009416 -0.003605 -0.007053 0.000000 0.000000 0.000000
# 2 -0.003605 0.010851 0.006198 0.000000 0.000000 0.000000
# 3 -0.007053 0.006198 0.036109 0.000000 0.000000 0.000000
# 4 0.000000 0.000000 0.000000 0.057996 0.000000 0.000000
# 5 0.000000 0.000000 0.000000 0.000000 0.073451 0.000000
# 6 0.000000 0.000000 0.000000 0.000000 0.000000 0.039234
#
#
# Mechanical properties :
#
#
# Convention : Reuss Voigt Hill
#
# Bulk Modulus (GPa) = 21.07111 40.00028 30.53570
# Shear Modulus (GPa) = 19.85739 27.09223 23.47481
#
# Velocity S-wave (km/s) = 2.89949 3.38675 3.15255
# Velocity P-wave (km/s) = 4.48668 5.67700 5.11657
#
# Compressibility (1/GPa) = 0.04745833
#
# Stress axis : x y z
#
# Youngs Moduli (GPa) = 106.19857 92.15750 27.69393
#
# Poissons Ratio (x) = 0.33220 0.19531
# Poissons Ratio (y) = 0.38281 -0.17165
# Poissons Ratio (z) = 0.74898 -0.57122
#
# Static dielectric constant tensor:
#      x y z
#    x 2.019030 0.000000 0.000000 
#    y 0.000000 1.903890 0.000000 
#    z 0.000000 0.000000 1.921700 
# 
# From -- ./inp_files/15278.got.cif
#   From: 2010.05.17/outbox.cif.g08.bks.cpg/sg54_8_cif.got.tgz:15278.got - 2010.06.03 13:09:01.
