data_PCOD9421338
_publ_section_title
;
Structure prediction by ZEFSAII (Michael W. Deem and Ramdas Pophale) SiO2 
 PCOD9421338
Probable space group: P C C A
;
_chemical_formula_sum "Si O2"
_cell_formula_units_Z 36
_cell_length_a 9.129105
_cell_length_b 8.826908
_cell_length_c 22.932983
_cell_angle_alpha 90.000000
_cell_angle_beta 90.000000
_cell_angle_gamma 90.000000
_cell_volume 1847.980361
_symmetry_space_group_name_H-M "P C C A"
_symmetry_group_IT_number 54
_symmetry_cell_setting 'orthorhombic'
loop_
_space_group_symop_operation_xyz
x,y,z
1/2-x,-y,z
1/2+x,-y,1/2-z
-x,y,1/2-z
-x,-y,-z
1/2+x,y,-z
1/2-x,y,1/2+z
x,-y,1/2+z
loop_
_atom_site_type_symbol
_atom_site_label
_atom_site_fract_x
_atom_site_fract_y
_atom_site_fract_z
Si Si1 0.861695 0.715214 0.346931
Si Si2 0.028071 0.611651 0.680416
Si Si3 0.000000 0.068097 0.750000
Si Si4 0.380798 0.107024 0.853699
Si Si5 0.586603 0.956079 0.941936
O O1 0.954352 0.561050 0.340185
O O2 0.688863 0.681406 0.336170
O O3 0.912133 0.827209 0.295092
O O4 0.902160 0.793424 0.408917
O O5 0.000000 0.611913 0.750000
O O6 0.896208 0.711827 0.652210
O O7 0.096868 0.958159 0.789205
O O8 0.250000 0.000000 0.878048
O O9 0.518713 0.061310 0.892239
O O10 0.750000 0.000000 0.955212
O O11 0.500000 0.000000 0.000000
#
# Coordination Sequence:
#
# PCOD9421338 Si02
#       5
#     8   8   4   8   8
#     4  10  22  38  60  97 136 181 217 278 352 429
#     4  11  20  37  63  95 141 178 210 274 365 428
#     4  10  20  32  54  92 130 168 220 264 332 422
#     4  11  22  36  62  95 127 171 229 275 343 414
#     4  11  23  44  68  90 126 175 239 294 341 399
#
# _framework density 19.480726000000001
#
# number of rings (size 3 to 8) (size 9 to 14) (size 15 to 20)
#    0.000    1.333    4.444    2.000    0.000    0.000 
#    0.000    1.111    0.000    0.000    0.000    0.000 
#    0.000    0.000    0.000    0.000    0.000    0.000 
#
# Total GULP energy -200417.627254 kJ/mol
# GULP energy per Si atom -5567.156313 kJ/mol
# Density = 1.943639 g / cm^3
# Si number density = 19.480726 Si / 1000 Ang^3
#
#
#
# Elastic Constant Matrix: (Units=GPa)
#
#
# Indices 1 2 3 4 5 6 
#
# 1 87.4467 38.3655 44.9425 0.0000 0.0000 0.0000
# 2 38.3655 140.3412 59.9467 0.0000 0.0000 0.0000
# 3 44.9425 59.9467 103.0724 0.0000 0.0000 0.0000
# 4 0.0000 0.0000 0.0000 -79.3324 0.0000 0.0000
# 5 0.0000 0.0000 0.0000 0.0000 27.9754 0.0000
# 6 0.0000 0.0000 0.0000 0.0000 0.0000 23.7927
#
#
#
# Elastic Compliance Matrix: (Units=1/GPa)
#
#
# Indices 1 2 3 4 5 6 
#
# 1 0.015053 -0.001745 -0.005549 0.000000 0.000000 0.000000
# 2 -0.001745 0.009683 -0.004871 0.000000 0.000000 0.000000
# 3 -0.005549 -0.004871 0.014954 0.000000 0.000000 0.000000
# 4 0.000000 0.000000 0.000000 -0.012605 0.000000 0.000000
# 5 0.000000 0.000000 0.000000 0.000000 0.035746 0.000000
# 6 0.000000 0.000000 0.000000 0.000000 0.000000 0.042030
#
#
# Mechanical properties :
#
#
# Convention : Reuss Voigt Hill
#
# Bulk Modulus (GPa) = 65.09877 68.59663 66.84770
# Shear Modulus (GPa) = 37.22754 6.99419 22.11087
#
# Velocity S-wave (km/s) = 4.37623 1.89687 3.37265
# Velocity P-wave (km/s) = 7.68276 6.33139 7.03958
#
# Compressibility (1/GPa) = 0.01536127
#
# Stress axis : x y z
#
# Youngs Moduli (GPa) = 66.43306 103.27303 66.87129
#
# Poissons Ratio (x) = 0.18021 0.37104
# Poissons Ratio (y) = 0.11592 0.32572
# Poissons Ratio (z) = 0.36861 0.50302
#
# Static dielectric constant tensor:
#      x y z
#    x 1.733330 0.000000 0.000000 
#    y 0.000000 1.718790 0.000000 
#    z 0.000000 0.000000 1.690800 
# 
# From -- ./inp_files/20104.got.cif
#   From: 2010.05.17/outbox.cif.g08.bks.cpg/sg54_11_cif.got.tgz:20104.got - 2010.06.03 13:09:01.
