data_PCOD9421823
_publ_section_title
;
Structure prediction by ZEFSAII (Michael W. Deem and Ramdas Pophale) SiO2 
 PCOD9421823
Probable space group: P C C A
;
_chemical_formula_sum "Si O2"
_cell_formula_units_Z 40
_cell_length_a 21.948370
_cell_length_b 9.164506
_cell_length_c 8.741248
_cell_angle_alpha 90.000000
_cell_angle_beta 90.000000
_cell_angle_gamma 90.000000
_cell_volume 1758.266795
_symmetry_space_group_name_H-M "P C C A"
_symmetry_group_IT_number 54
_symmetry_cell_setting 'orthorhombic'
loop_
_space_group_symop_operation_xyz
x,y,z
1/2-x,-y,z
1/2+x,-y,1/2-z
-x,y,1/2-z
-x,-y,-z
1/2+x,y,-z
1/2-x,y,1/2+z
x,-y,1/2+z
loop_
_atom_site_type_symbol
_atom_site_label
_atom_site_fract_x
_atom_site_fract_y
_atom_site_fract_z
Si Si1 0.306595 0.404922 0.106997
Si Si2 0.500000 0.762729 0.250000
Si Si3 0.000000 0.500000 0.000000
Si Si4 0.305409 0.887518 0.447209
Si Si5 0.879926 0.363093 0.592705
Si Si6 0.377101 0.099040 0.638451
O O1 0.250000 0.500000 0.163460
O O2 0.284865 0.268842 0.007845
O O3 0.346873 0.351660 0.247068
O O4 0.348686 0.507214 0.003396
O O5 0.508863 0.651291 0.107462
O O6 0.557529 0.866708 0.286395
O O7 0.949431 0.586695 0.104907
O O8 0.328981 0.877227 0.274523
O O9 0.250000 0.000000 0.457144
O O10 0.359905 0.947828 0.555794
O O11 0.871811 0.217956 0.495306
#
# Coordination Sequence:
#
# PCOD9421823 Si02
#       6
#     8   4   4   8   8   8
#     4  12  25  42  67  97 131 172 222 277 331 395
#     4  10  22  42  68 100 134 172 224 276 336 400
#     4  10  20  38  66  96 130 168 210 270 326 388
#     4  12  26  45  66  94 135 179 222 274 337 401
#     4  11  23  42  67  98 131 169 221 274 332 398
#     4  11  25  44  67  96 133 176 221 274 336 403
#
# _framework density 22.749677999999999
#
# number of rings (size 3 to 8) (size 9 to 14) (size 15 to 20)
#    0.000    0.800    0.000    8.400    0.000    5.600 
#    0.000    4.000    0.000    0.000    0.000    0.000 
#    0.000    0.000    0.000    0.000    0.000    0.000 
#
# Total GULP energy -222996.946778 kJ/mol
# GULP energy per Si atom -5574.923669 kJ/mol
# Density = 2.269790 g / cm^3
# Si number density = 22.749678 Si / 1000 Ang^3
#
#
#
# Elastic Constant Matrix: (Units=GPa)
#
#
# Indices 1 2 3 4 5 6 
#
# 1 44.3575 13.4677 8.0645 0.0000 0.0000 0.0000
# 2 13.4677 71.4754 2.4028 0.0000 0.0000 0.0000
# 3 8.0645 2.4028 59.5418 0.0000 0.0000 0.0000
# 4 0.0000 0.0000 0.0000 45.3574 0.0000 0.0000
# 5 0.0000 0.0000 0.0000 0.0000 35.2113 0.0000
# 6 0.0000 0.0000 0.0000 0.0000 0.0000 -21.8695
#
#
#
# Elastic Compliance Matrix: (Units=1/GPa)
#
#
# Indices 1 2 3 4 5 6 
#
# 1 0.024483 -0.004508 -0.003134 0.000000 0.000000 0.000000
# 2 -0.004508 0.014840 0.000012 0.000000 0.000000 0.000000
# 3 -0.003134 0.000012 0.017219 0.000000 0.000000 0.000000
# 4 0.000000 0.000000 0.000000 0.022047 0.000000 0.000000
# 5 0.000000 0.000000 0.000000 0.000000 0.028400 0.000000
# 6 0.000000 0.000000 0.000000 0.000000 0.000000 -0.045726
#
#
# Mechanical properties :
#
#
# Convention : Reuss Voigt Hill
#
# Bulk Modulus (GPa) = 24.22419 24.80494 24.51456
# Shear Modulus (GPa) = 55.38136 21.83583 38.60859
#
# Velocity S-wave (km/s) = 4.93930 3.10147 4.12406
# Velocity P-wave (km/s) = 6.57268 4.87367 5.78588
#
# Compressibility (1/GPa) = 0.04128105
#
# Stress axis : x y z
#
# Youngs Moduli (GPa) = 40.84544 67.38638 58.07564
#
# Poissons Ratio (x) = 0.30376 0.18201
# Poissons Ratio (y) = 0.18412 -0.00068
# Poissons Ratio (z) = 0.12801 -0.00079
#
# Static dielectric constant tensor:
#      x y z
#    x 1.897320 0.000000 0.000000 
#    y 0.000000 1.824740 0.000000 
#    z 0.000000 0.000000 1.818150 
# 
# From -- ./inp_files/5049.got.cif
#   From: 2010.05.17/outbox.cif.g08.bks.cpg/sg54_3_cif.got.tgz:5049.got - 2010.06.03 13:09:01.
