data_PCOD9421205
_publ_section_title
;
Structure prediction by ZEFSAII (Michael W. Deem and Ramdas Pophale) SiO2 
 PCOD9421205
Probable space group: P C C A
;
_chemical_formula_sum "Si O2"
_cell_formula_units_Z 40
_cell_length_a 10.951241
_cell_length_b 10.892082
_cell_length_c 13.918898
_cell_angle_alpha 90.000000
_cell_angle_beta 90.000000
_cell_angle_gamma 90.000000
_cell_volume 1660.271416
_symmetry_space_group_name_H-M "P C C A"
_symmetry_group_IT_number 54
_symmetry_cell_setting 'orthorhombic'
loop_
_space_group_symop_operation_xyz
x,y,z
1/2-x,-y,z
1/2+x,-y,1/2-z
-x,y,1/2-z
-x,-y,-z
1/2+x,y,-z
1/2-x,y,1/2+z
x,-y,1/2+z
loop_
_atom_site_type_symbol
_atom_site_label
_atom_site_fract_x
_atom_site_fract_y
_atom_site_fract_z
Si Si1 0.042292 0.782944 0.638716
Si Si2 0.563494 0.536615 0.150829
Si Si3 0.301129 0.869182 0.700161
Si Si4 0.802321 0.692523 0.127743
Si Si5 0.659403 0.883830 0.004871
O O1 0.182687 0.813141 0.647796
O O2 0.000000 0.793006 0.750000
O O3 0.020056 0.642735 0.605990
O O4 0.959187 0.871228 0.573355
O O5 0.500000 0.500806 0.250000
O O6 0.688240 0.613051 0.168827
O O7 0.598632 0.409722 0.100706
O O8 0.342354 0.784871 0.787613
O O9 0.385428 0.882016 0.606241
O O10 0.250000 0.000000 0.737015
O O11 0.742451 0.770261 0.042726
O O12 0.750000 0.000000 0.015797
#
# Coordination Sequence:
#
# PCOD9421205 Si02
#       5
#     8   8   8   8   8
#     4  10  19  40  66  77 122 171 194 247 325 355
#     4   9  17  36  61  82 112 161 197 249 305 356
#     4  11  22  38  63  90 122 163 209 250 313 370
#     4  10  19  37  61  85 118 156 207 246 304 369
#     4  10  22  38  59  89 125 158 205 259 302 368
#
# _framework density 24.092448000000001
#
# number of rings (size 3 to 8) (size 9 to 14) (size 15 to 20)
#    0.000    2.000    6.000    0.600    0.000    3.200 
#    7.200    9.000    0.000    0.000    0.000    0.000 
#    0.000    0.000    0.000    0.000    0.000    0.000 
#
# Total GULP energy -223278.888646 kJ/mol
# GULP energy per Si atom -5581.972216 kJ/mol
# Density = 2.403761 g / cm^3
# Si number density = 24.092448 Si / 1000 Ang^3
#
#
#
# Elastic Constant Matrix: (Units=GPa)
#
#
# Indices 1 2 3 4 5 6 
#
# 1 38.7547 19.0904 1.0998 0.0000 0.0000 0.0000
# 2 19.0904 135.8072 15.3725 0.0000 0.0000 0.0000
# 3 1.0998 15.3725 117.3658 0.0000 0.0000 0.0000
# 4 0.0000 0.0000 0.0000 9.6452 0.0000 0.0000
# 5 0.0000 0.0000 0.0000 0.0000 18.7628 0.0000
# 6 0.0000 0.0000 0.0000 0.0000 0.0000 39.9448
#
#
#
# Elastic Compliance Matrix: (Units=1/GPa)
#
#
# Indices 1 2 3 4 5 6 
#
# 1 0.027730 -0.003927 0.000254 0.000000 0.000000 0.000000
# 2 -0.003927 0.008030 -0.001015 0.000000 0.000000 0.000000
# 3 0.000254 -0.001015 0.008651 0.000000 0.000000 0.000000
# 4 0.000000 0.000000 0.000000 0.103678 0.000000 0.000000
# 5 0.000000 0.000000 0.000000 0.000000 0.053297 0.000000
# 6 0.000000 0.000000 0.000000 0.000000 0.000000 0.025035
#
#
# Mechanical properties :
#
#
# Convention : Reuss Voigt Hill
#
# Bulk Modulus (GPa) = 28.54138 40.33926 34.44032
# Shear Modulus (GPa) = 20.20408 30.76158 25.48283
#
# Velocity S-wave (km/s) = 2.89901 3.57713 3.25577
# Velocity P-wave (km/s) = 4.80396 5.81730 5.33475
#
# Compressibility (1/GPa) = 0.03503685
#
# Stress axis : x y z
#
# Youngs Moduli (GPa) = 36.06144 124.52881 115.59451
#
# Poissons Ratio (x) = 0.48901 -0.02942
# Poissons Ratio (y) = 0.14161 0.11733
# Poissons Ratio (z) = -0.00918 0.12640
#
# Static dielectric constant tensor:
#      x y z
#    x 2.019930 0.000000 0.000000 
#    y 0.000000 1.964620 0.000000 
#    z 0.000000 0.000000 1.959860 
# 
# From -- ./inp_files/12490.got.cif
#   From: 2010.05.17/outbox.cif.g08.bks.cpg/sg54_7_cif.got.tgz:12490.got - 2010.06.03 13:09:01.
