data_PCOD9421251
_publ_section_title
;
Structure prediction by ZEFSAII (Michael W. Deem and Ramdas Pophale) SiO2 
 PCOD9421251
Probable space group: P C C A
;
_chemical_formula_sum "Si O2"
_cell_formula_units_Z 32
_cell_length_a 7.374335
_cell_length_b 10.722709
_cell_length_c 16.661690
_cell_angle_alpha 90.000000
_cell_angle_beta 90.000000
_cell_angle_gamma 90.000000
_cell_volume 1317.487285
_symmetry_space_group_name_H-M "P C C A"
_symmetry_group_IT_number 54
_symmetry_cell_setting 'orthorhombic'
loop_
_space_group_symop_operation_xyz
x,y,z
1/2-x,-y,z
1/2+x,-y,1/2-z
-x,y,1/2-z
-x,-y,-z
1/2+x,y,-z
1/2-x,y,1/2+z
x,-y,1/2+z
loop_
_atom_site_type_symbol
_atom_site_label
_atom_site_fract_x
_atom_site_fract_y
_atom_site_fract_z
Si Si1 0.820187 0.631208 0.455339
Si Si2 0.471831 0.249974 0.886523
Si Si3 0.083857 0.712864 0.335046
Si Si4 0.037412 0.017608 0.905460
O O1 0.750000 0.500000 0.487919
O O2 0.869666 0.728831 0.526197
O O3 0.654968 0.674345 0.398634
O O4 0.998710 0.620693 0.400791
O O5 0.539227 0.109413 0.868129
O O6 0.302604 0.285535 0.830594
O O7 0.000000 0.684766 0.250000
O O8 0.007357 0.848203 0.366268
O O9 0.250000 0.000000 0.895577
O O10 0.000000 0.000000 0.000000
#
# Coordination Sequence:
#
# PCOD9421251 Si02
#       4
#     8   8   8   8
#     4  12  24  42  72 102 130 187 237 279 326 405
#     4  11  22  42  71 100 129 175 234 278 338 401
#     4  11  26  45  64 101 144 171 224 289 346 410
#     4  10  19  38  66  96 126 169 220 273 342 402
#
# _framework density 24.288658000000002
#
# number of rings (size 3 to 8) (size 9 to 14) (size 15 to 20)
#    0.000    1.000    5.000    2.250    0.000    1.000 
#   18.000    0.000    0.000    0.000    0.000    0.000 
#    0.000    0.000    0.000    0.000    0.000    0.000 
#
# Total GULP energy -178650.546197 kJ/mol
# GULP energy per Si atom -5582.829569 kJ/mol
# Density = 2.423338 g / cm^3
# Si number density = 24.288658 Si / 1000 Ang^3
#
#
#
# Elastic Constant Matrix: (Units=GPa)
#
#
# Indices 1 2 3 4 5 6 
#
# 1 109.1303 17.0663 -1.4267 0.0000 0.0000 0.0000
# 2 17.0663 90.2784 -7.2970 0.0000 0.0000 0.0000
# 3 -1.4267 -7.2970 55.5043 0.0000 0.0000 0.0000
# 4 0.0000 0.0000 0.0000 8.1762 0.0000 0.0000
# 5 0.0000 0.0000 0.0000 0.0000 30.4253 0.0000
# 6 0.0000 0.0000 0.0000 0.0000 0.0000 41.6462
#
#
#
# Elastic Compliance Matrix: (Units=1/GPa)
#
#
# Indices 1 2 3 4 5 6 
#
# 1 0.009443 -0.001784 0.000008 0.000000 0.000000 0.000000
# 2 -0.001784 0.011533 0.001470 0.000000 0.000000 0.000000
# 3 0.000008 0.001470 0.018210 0.000000 0.000000 0.000000
# 4 0.000000 0.000000 0.000000 0.122306 0.000000 0.000000
# 5 0.000000 0.000000 0.000000 0.000000 0.032867 0.000000
# 6 0.000000 0.000000 0.000000 0.000000 0.000000 0.024012
#
#
# Mechanical properties :
#
#
# Convention : Reuss Voigt Hill
#
# Bulk Modulus (GPa) = 25.92428 30.17757 28.05092
# Shear Modulus (GPa) = 21.56658 32.48759 27.02708
#
# Velocity S-wave (km/s) = 2.98304 3.66124 3.33940
# Velocity P-wave (km/s) = 4.74988 5.50676 5.14226
#
# Compressibility (1/GPa) = 0.03857388
#
# Stress axis : x y z
#
# Youngs Moduli (GPa) = 105.90399 86.70764 54.91449
#
# Poissons Ratio (x) = 0.15472 -0.00045
# Poissons Ratio (y) = 0.18897 -0.08074
# Poissons Ratio (z) = -0.00086 -0.12749
#
# Static dielectric constant tensor:
#      x y z
#    x 1.861900 0.000000 0.000000 
#    y 0.000000 2.104180 0.000000 
#    z 0.000000 0.000000 1.932350 
# 
# From -- ./inp_files/11237.got.cif
#   From: 2010.05.17/outbox.cif.g08.bks.cpg/sg54_6_cif.got.tgz:11237.got - 2010.06.03 13:09:01.
