data_PCOD9421272
_publ_section_title
;
Structure prediction by ZEFSAII (Michael W. Deem and Ramdas Pophale) SiO2 
 PCOD9421272
Probable space group: P C C A
;
_chemical_formula_sum "Si O2"
_cell_formula_units_Z 52
_cell_length_a 9.597812
_cell_length_b 11.627577
_cell_length_c 17.585233
_cell_angle_alpha 90.000000
_cell_angle_beta 90.000000
_cell_angle_gamma 90.000000
_cell_volume 1962.499659
_symmetry_space_group_name_H-M "P C C A"
_symmetry_group_IT_number 54
_symmetry_cell_setting 'orthorhombic'
loop_
_space_group_symop_operation_xyz
x,y,z
1/2-x,-y,z
1/2+x,-y,1/2-z
-x,y,1/2-z
-x,-y,-z
1/2+x,y,-z
1/2-x,y,1/2+z
x,-y,1/2+z
loop_
_atom_site_type_symbol
_atom_site_label
_atom_site_fract_x
_atom_site_fract_y
_atom_site_fract_z
Si Si1 0.546458 0.648397 0.908316
Si Si2 0.508791 0.920681 0.575941
Si Si3 0.250000 0.000000 0.671775
Si Si4 0.730973 0.183215 0.638825
Si Si5 0.197981 0.676558 0.503675
Si Si6 0.218236 0.373268 0.741689
Si Si7 0.592513 0.785521 0.341724
O O1 0.409789 0.604919 0.951962
O O2 0.681505 0.609193 0.954126
O O3 0.301520 0.718468 0.808662
O O4 0.594550 0.628975 0.821326
O O5 0.385618 0.971569 0.624815
O O6 0.653204 0.916661 0.624330
O O7 0.471133 0.785374 0.574128
O O8 0.500000 0.000000 0.500000
O O9 0.197174 0.876803 0.700942
O O10 0.726976 0.237215 0.554608
O O11 0.567586 0.175490 0.661245
O O12 0.129957 0.757222 0.570279
O O13 0.250000 0.500000 0.771205
O O14 0.360264 0.331900 0.698766
#
# Coordination Sequence:
#
# PCOD9421272 Si02
#       7
#     8   8   4   8   8   8   8
#     4  10  21  44  71 112 155 198 271 330 401 498
#     4  11  25  39  74 114 155 208 259 333 413 496
#     4  12  22  42  70 104 156 202 250 330 406 474
#     4  11  25  47  73 116 161 208 282 337 413 516
#     4  10  19  39  71 103 154 193 249 341 388 474
#     4  11  26  54  83 111 158 225 279 352 421 495
#     4  11  24  48  75 114 163 210 275 338 416 509
#
# _framework density 26.49682
#
# number of rings (size 3 to 8) (size 9 to 14) (size 15 to 20)
#    0.000    1.231    4.615    2.308    0.000    3.077 
#   11.077    9.231    0.000    0.000    0.000    0.000 
#    0.000    0.000    0.000    0.000    0.000    0.000 
#
# Total GULP energy -290184.108370 kJ/mol
# GULP energy per Si atom -5580.463623 kJ/mol
# Density = 2.643651 g / cm^3
# Si number density = 26.496820 Si / 1000 Ang^3
#
#
#
# Elastic Constant Matrix: (Units=GPa)
#
#
# Indices 1 2 3 4 5 6 
#
# 1 193.6711 42.6208 45.3862 0.0000 0.0000 0.0000
# 2 42.6208 120.8735 33.3422 0.0000 0.0000 0.0000
# 3 45.3862 33.3422 123.9527 0.0000 0.0000 0.0000
# 4 0.0000 0.0000 0.0000 21.6253 0.0000 0.0000
# 5 0.0000 0.0000 0.0000 0.0000 34.5864 0.0000
# 6 0.0000 0.0000 0.0000 0.0000 0.0000 23.6538
#
#
#
# Elastic Compliance Matrix: (Units=1/GPa)
#
#
# Indices 1 2 3 4 5 6 
#
# 1 0.005925 -0.001610 -0.001736 0.000000 0.000000 0.000000
# 2 -0.001610 0.009374 -0.001932 0.000000 0.000000 0.000000
# 3 -0.001736 -0.001932 0.009223 0.000000 0.000000 0.000000
# 4 0.000000 0.000000 0.000000 0.046242 0.000000 0.000000
# 5 0.000000 0.000000 0.000000 0.000000 0.028913 0.000000
# 6 0.000000 0.000000 0.000000 0.000000 0.000000 0.042277
#
#
# Mechanical properties :
#
#
# Convention : Reuss Voigt Hill
#
# Bulk Modulus (GPa) = 71.60838 75.68840 73.64839
# Shear Modulus (GPa) = 31.81376 37.11629 34.46503
#
# Velocity S-wave (km/s) = 3.46882 3.74676 3.61047
# Velocity P-wave (km/s) = 6.56716 6.88075 6.72578
#
# Compressibility (1/GPa) = 0.01396485
#
# Stress axis : x y z
#
# Youngs Moduli (GPa) = 168.78741 106.68081 108.42468
#
# Poissons Ratio (x) = 0.17177 0.18825
# Poissons Ratio (y) = 0.27177 0.20947
# Poissons Ratio (z) = 0.29305 0.20610
#
# Static dielectric constant tensor:
#      x y z
#    x 2.129150 0.000000 0.000000 
#    y 0.000000 2.231050 0.000000 
#    z 0.000000 0.000000 2.144660 
# 
# From -- ./inp_files/20462.got.cif
#   From: 2010.05.17/outbox.cif.g08.bks.cpg/sg54_11_cif.got.tgz:20462.got - 2010.06.03 13:09:01.
