data_PCOD9421213
_publ_section_title
;
Structure prediction by ZEFSAII (Michael W. Deem and Ramdas Pophale) SiO2 
 PCOD9421213
Probable space group: P C C A
;
_chemical_formula_sum "Si O2"
_cell_formula_units_Z 64
_cell_length_a 18.193557
_cell_length_b 11.930429
_cell_length_c 15.893465
_cell_angle_alpha 90.000000
_cell_angle_beta 90.000000
_cell_angle_gamma 90.000000
_cell_volume 3449.786880
_symmetry_space_group_name_H-M "P C C A"
_symmetry_group_IT_number 54
_symmetry_cell_setting 'orthorhombic'
loop_
_space_group_symop_operation_xyz
x,y,z
1/2-x,-y,z
1/2+x,-y,1/2-z
-x,y,1/2-z
-x,-y,-z
1/2+x,y,-z
1/2-x,y,1/2+z
x,-y,1/2+z
loop_
_atom_site_type_symbol
_atom_site_label
_atom_site_fract_x
_atom_site_fract_y
_atom_site_fract_z
Si Si1 0.663256 0.778777 0.768551
Si Si2 0.963206 0.270598 0.342044
Si Si3 0.409827 0.278433 0.059095
Si Si4 0.332371 0.012525 0.818436
Si Si5 0.454738 0.361532 0.331875
Si Si6 0.957291 0.080899 0.061051
Si Si7 0.408474 0.410823 0.904494
Si Si8 0.828688 0.732304 0.740277
O O1 0.642556 0.752708 0.864229
O O2 0.601770 0.726458 0.707600
O O3 0.741836 0.722734 0.750330
O O4 0.663964 0.911243 0.748066
O O5 0.878154 0.293164 0.322535
O O6 0.000000 0.271937 0.250000
O O7 0.985146 0.151676 0.382392
O O8 0.007728 0.363478 0.394412
O O9 0.487550 0.306628 0.103785
O O10 0.416618 0.174732 0.995027
O O11 0.386296 0.381628 0.999517
O O12 0.398530 0.011407 0.884710
O O13 0.340557 0.135705 0.778598
O O14 0.250000 0.000000 0.856539
O O15 0.500000 0.406879 0.250000
O O16 0.411851 0.461302 0.377320
O O17 0.000000 0.000000 0.000000
O O18 0.359663 0.340557 0.837600
#
# Coordination Sequence:
#
# PCOD9421213 Si02
#       8
#     8   8   8   8   8   8   8   8
#     4  10  23  37  58  85 122 154 194 234 294 363
#     4   9  17  33  56  79 102 147 193 234 273 339
#     4  10  21  38  55  90 117 149 191 253 296 335
#     4  10  20  38  56  78 117 161 193 226 291 363
#     4  10  20  37  60  87 113 154 195 238 297 351
#     4  11  21  33  54  84 116 147 194 246 287 336
#     4  10  19  37  63  83 115 149 197 248 292 340
#     4  10  19  38  59  83 112 159 199 229 289 353
#
# _framework density 18.551870000000001
#
# number of rings (size 3 to 8) (size 9 to 14) (size 15 to 20)
#    0.000    2.000    3.750    2.250    1.750    0.500 
#    2.250    2.500    0.000    4.500    0.000    0.000 
#    0.000    0.000    0.000    0.000    0.000    0.000 
#
# Total GULP energy -356842.493992 kJ/mol
# GULP energy per Si atom -5575.663969 kJ/mol
# Density = 1.850965 g / cm^3
# Si number density = 18.551870 Si / 1000 Ang^3
#
#
#
# Elastic Constant Matrix: (Units=GPa)
#
#
# Indices 1 2 3 4 5 6 
#
# 1 70.2652 4.2463 35.1074 0.0000 0.0000 0.0000
# 2 4.2463 31.6673 0.4522 0.0000 0.0000 0.0000
# 3 35.1074 0.4522 78.2398 0.0000 0.0000 0.0000
# 4 0.0000 0.0000 0.0000 26.4060 0.0000 0.0000
# 5 0.0000 0.0000 0.0000 0.0000 22.0586 0.0000
# 6 0.0000 0.0000 0.0000 0.0000 0.0000 15.6042
#
#
#
# Elastic Compliance Matrix: (Units=1/GPa)
#
#
# Indices 1 2 3 4 5 6 
#
# 1 0.018520 -0.002365 -0.008297 0.000000 0.000000 0.000000
# 2 -0.002365 0.031883 0.000877 0.000000 0.000000 0.000000
# 3 -0.008297 0.000877 0.016499 0.000000 0.000000 0.000000
# 4 0.000000 0.000000 0.000000 0.037870 0.000000 0.000000
# 5 0.000000 0.000000 0.000000 0.000000 0.045334 0.000000
# 6 0.000000 0.000000 0.000000 0.000000 0.000000 0.064085
#
#
# Mechanical properties :
#
#
# Convention : Reuss Voigt Hill
#
# Bulk Modulus (GPa) = 21.12702 28.86489 24.99595
# Shear Modulus (GPa) = 20.03705 22.17152 21.10428
#
# Velocity S-wave (km/s) = 3.28999 3.46079 3.37647
# Velocity P-wave (km/s) = 5.08378 5.61802 5.35756
#
# Compressibility (1/GPa) = 0.04733276
#
# Stress axis : x y z
#
# Youngs Moduli (GPa) = 53.99570 31.36478 60.60998
#
# Poissons Ratio (x) = 0.07418 0.50285
# Poissons Ratio (y) = 0.12770 -0.05315
# Poissons Ratio (z) = 0.44798 -0.02750
#
# Static dielectric constant tensor:
#      x y z
#    x 1.664720 0.000000 0.000000 
#    y 0.000000 1.654500 0.000000 
#    z 0.000000 0.000000 1.636580 
# 
# From -- ./inp_files/14330.got.cif
#   From: 2010.05.17/outbox.cif.g08.bks.cpg/sg54_8_cif.got.tgz:14330.got - 2010.06.03 13:09:01.
