data_PCOD9421080
_publ_section_title
;
Structure prediction by ZEFSAII (Michael W. Deem and Ramdas Pophale) SiO2 
 PCOD9421080
Probable space group: P C C A
;
_chemical_formula_sum "Si O2"
_cell_formula_units_Z 48
_cell_length_a 5.052823
_cell_length_b 18.759754
_cell_length_c 26.838556
_cell_angle_alpha 90.000000
_cell_angle_beta 90.000000
_cell_angle_gamma 90.000000
_cell_volume 2544.019114
_symmetry_space_group_name_H-M "P C C A"
_symmetry_group_IT_number 54
_symmetry_cell_setting 'orthorhombic'
loop_
_space_group_symop_operation_xyz
x,y,z
1/2-x,-y,z
1/2+x,-y,1/2-z
-x,y,1/2-z
-x,-y,-z
1/2+x,y,-z
1/2-x,y,1/2+z
x,-y,1/2+z
loop_
_atom_site_type_symbol
_atom_site_label
_atom_site_fract_x
_atom_site_fract_y
_atom_site_fract_z
Si Si1 0.750000 0.000000 0.411250
Si Si2 0.393062 0.786766 0.130020
Si Si3 0.368836 0.152096 0.320146
Si Si4 0.250000 0.500000 0.714610
Si Si5 0.184259 0.849612 0.032707
Si Si6 0.135193 0.653326 0.694387
Si Si7 0.000000 0.259769 0.750000
Si Si8 0.250000 0.000000 0.339092
O O1 0.785900 0.928920 0.443942
O O2 0.499034 0.989506 0.375532
O O3 0.667454 0.828917 0.135625
O O4 0.273596 0.793978 0.075193
O O5 0.455467 0.707641 0.151606
O O6 0.167087 0.826879 0.163651
O O7 0.296932 0.204311 0.274644
O O8 0.321296 0.070223 0.308136
O O9 0.500000 0.519366 0.750000
O O10 0.161753 0.569837 0.684234
O O11 0.388358 0.841942 0.987195
O O12 0.419636 0.687550 0.706256
O O13 0.000000 0.658597 0.750000
#
# Coordination Sequence:
#
# PCOD9421080 Si02
#       8
#     4   8   8   4   8   8   4   4
#     4  12  22  37  55  78 102 138 180 241 310 333
#     4  11  22  37  57  79 109 148 181 228 276 334
#     4  11  21  36  54  75 106 144 196 226 276 318
#     4  10  20  32  54  90 118 144 172 216 262 328
#     4  12  23  38  55  81 106 140 189 236 288 340
#     4  10  19  35  57  84 118 145 176 216 268 330
#     4  10  20  34  52  80 106 156 180 226 258 324
#     4  12  20  37  55  74 106 146 188 243 276 333
#
# _framework density 18.867781999999998
#
# number of rings (size 3 to 8) (size 9 to 14) (size 15 to 20)
#    0.000    1.000    5.833    2.500    0.000    0.000 
#    0.000    4.167    0.000    0.000    0.000    1.167 
#    0.000    0.000    0.000    0.000    0.000    0.000 
#
# Total GULP energy -267565.155814 kJ/mol
# GULP energy per Si atom -5574.274079 kJ/mol
# Density = 1.882484 g / cm^3
# Si number density = 18.867782 Si / 1000 Ang^3
#
#
#
# Elastic Constant Matrix: (Units=GPa)
#
#
# Indices 1 2 3 4 5 6 
#
# 1 67.3862 -4.8464 0.9846 0.0000 0.0000 0.0000
# 2 -4.8464 150.7649 29.6392 0.0000 0.0000 0.0000
# 3 0.9846 29.6392 48.0518 0.0000 0.0000 0.0000
# 4 0.0000 0.0000 0.0000 23.9203 0.0000 0.0000
# 5 0.0000 0.0000 0.0000 0.0000 27.2741 0.0000
# 6 0.0000 0.0000 0.0000 0.0000 0.0000 17.8664
#
#
#
# Elastic Compliance Matrix: (Units=1/GPa)
#
#
# Indices 1 2 3 4 5 6 
#
# 1 0.014894 0.000613 -0.000683 0.000000 0.000000 0.000000
# 2 0.000613 0.007573 -0.004684 0.000000 0.000000 0.000000
# 3 -0.000683 -0.004684 0.023714 0.000000 0.000000 0.000000
# 4 0.000000 0.000000 0.000000 0.041805 0.000000 0.000000
# 5 0.000000 0.000000 0.000000 0.000000 0.036665 0.000000
# 6 0.000000 0.000000 0.000000 0.000000 0.000000 0.055971
#
#
# Mechanical properties :
#
#
# Convention : Reuss Voigt Hill
#
# Bulk Modulus (GPa) = 27.26810 35.30641 31.28725
# Shear Modulus (GPa) = 24.70903 29.84054 27.27478
#
# Velocity S-wave (km/s) = 3.62275 3.98120 3.80620
# Velocity P-wave (km/s) = 5.65532 6.31557 5.99454
#
# Compressibility (1/GPa) = 0.03667289
#
# Stress axis : x y z
#
# Youngs Moduli (GPa) = 67.14148 132.04146 42.16916
#
# Poissons Ratio (x) = -0.08096 0.02882
# Poissons Ratio (y) = -0.04117 0.19752
# Poissons Ratio (z) = 0.04588 0.61848
#
# Static dielectric constant tensor:
#      x y z
#    x 1.748320 0.000000 0.000000 
#    y 0.000000 1.673810 0.000000 
#    z 0.000000 0.000000 1.702720 
# 
# From -- ./inp_files/22945.got.cif
#   From: 2010.05.17/outbox.cif.g08.bks.cpg/sg54_12_cif.got.tgz:22945.got - 2010.06.03 13:09:01.
