data_PCOD9421560
_publ_section_title
;
Structure prediction by ZEFSAII (Michael W. Deem and Ramdas Pophale) SiO2 
 PCOD9421560
Probable space group: P C C A
;
_chemical_formula_sum "Si O2"
_cell_formula_units_Z 32
_cell_length_a 5.277224
_cell_length_b 10.357758
_cell_length_c 28.377722
_cell_angle_alpha 90.000000
_cell_angle_beta 90.000000
_cell_angle_gamma 90.000000
_cell_volume 1551.132218
_symmetry_space_group_name_H-M "P C C A"
_symmetry_group_IT_number 54
_symmetry_cell_setting 'orthorhombic'
loop_
_space_group_symop_operation_xyz
x,y,z
1/2-x,-y,z
1/2+x,-y,1/2-z
-x,y,1/2-z
-x,-y,-z
1/2+x,y,-z
1/2-x,y,1/2+z
x,-y,1/2+z
loop_
_atom_site_type_symbol
_atom_site_label
_atom_site_fract_x
_atom_site_fract_y
_atom_site_fract_z
Si Si1 0.773441 0.780966 0.364049
Si Si2 0.750000 0.500000 0.830542
Si Si3 0.500000 0.353516 0.750000
Si Si4 0.751424 0.844779 0.973764
Si Si5 0.263331 0.145402 0.805758
O O1 0.811780 0.626555 0.359878
O O2 0.751539 0.816607 0.418472
O O3 0.520213 0.827527 0.336227
O O4 0.020801 0.839734 0.339237
O O5 0.542232 0.445596 0.794224
O O6 0.278896 0.253605 0.764900
O O7 0.750000 0.000000 0.978610
O O8 0.502338 0.794979 0.000343
O O9 0.250000 0.000000 0.786537
#
# Coordination Sequence:
#
# PCOD9421560 Si02
#       5
#     8   4   4   8   8
#     4  11  23  40  62  88 122 160 198 241 296 355
#     4  10  22  40  60  84 118 164 204 240 284 352
#     4  10  22  38  62  86 118 160 206 246 290 346
#     4  10  20  36  60  88 117 148 189 242 299 356
#     4  11  23  38  61  90 122 156 198 253 301 346
#
# _framework density 20.630094
#
# number of rings (size 3 to 8) (size 9 to 14) (size 15 to 20)
#    0.000    1.500    0.000    5.250    0.000   12.000 
#    0.000    1.250    0.000    0.000    0.000    0.000 
#    0.000    0.000    0.000    0.000    0.000    0.000 
#
# Total GULP energy -178774.329035 kJ/mol
# GULP energy per Si atom -5586.697782 kJ/mol
# Density = 2.058314 g / cm^3
# Si number density = 20.630094 Si / 1000 Ang^3
#
#
#
# Elastic Constant Matrix: (Units=GPa)
#
#
# Indices 1 2 3 4 5 6 
#
# 1 163.0241 28.5831 61.8946 0.0000 0.0000 0.0000
# 2 28.5831 92.2302 -21.6417 0.0000 0.0000 0.0000
# 3 61.8946 -21.6417 80.3027 0.0000 0.0000 0.0000
# 4 0.0000 0.0000 0.0000 32.6767 0.0000 0.0000
# 5 0.0000 0.0000 0.0000 0.0000 34.4246 0.0000
# 6 0.0000 0.0000 0.0000 0.0000 0.0000 14.1701
#
#
#
# Elastic Compliance Matrix: (Units=1/GPa)
#
#
# Indices 1 2 3 4 5 6 
#
# 1 0.010917 -0.005719 -0.009955 0.000000 0.000000 0.000000
# 2 -0.005719 0.014571 0.008335 0.000000 0.000000 0.000000
# 3 -0.009955 0.008335 0.022372 0.000000 0.000000 0.000000
# 4 0.000000 0.000000 0.000000 0.030603 0.000000 0.000000
# 5 0.000000 0.000000 0.000000 0.000000 0.029049 0.000000
# 6 0.000000 0.000000 0.000000 0.000000 0.000000 0.070571
#
#
# Mechanical properties :
#
#
# Convention : Reuss Voigt Hill
#
# Bulk Modulus (GPa) = 30.13829 52.58099 41.35964
# Shear Modulus (GPa) = 24.53122 34.03569 29.28345
#
# Velocity S-wave (km/s) = 3.45207 4.06619 3.77165
# Velocity P-wave (km/s) = 5.52537 6.89841 6.24971
#
# Compressibility (1/GPa) = 0.03318039
#
# Stress axis : x y z
#
# Youngs Moduli (GPa) = 91.60422 68.63107 44.69784
#
# Poissons Ratio (x) = 0.39251 0.44499
# Poissons Ratio (y) = 0.52390 -0.37255
# Poissons Ratio (z) = 0.91196 -0.57204
#
# Static dielectric constant tensor:
#      x y z
#    x 1.875100 0.000000 0.000000 
#    y 0.000000 1.776380 0.000000 
#    z 0.000000 0.000000 1.699770 
# 
# From -- ./inp_files/26881.got.cif
#   From: 2010.05.17/outbox.cif.g08.bks.cpg/sg54_14_cif.got.tgz:26881.got - 2010.06.03 13:09:01.
