data_PCOD9421564
_publ_section_title
;
Structure prediction by ZEFSAII (Michael W. Deem and Ramdas Pophale) SiO2 
 PCOD9421564
Probable space group: P C C A
;
_chemical_formula_sum "Si O2"
_cell_formula_units_Z 40
_cell_length_a 5.177937
_cell_length_b 14.566214
_cell_length_c 27.984256
_cell_angle_alpha 90.000000
_cell_angle_beta 90.000000
_cell_angle_gamma 90.000000
_cell_volume 2110.654817
_symmetry_space_group_name_H-M "P C C A"
_symmetry_group_IT_number 54
_symmetry_cell_setting 'orthorhombic'
loop_
_space_group_symop_operation_xyz
x,y,z
1/2-x,-y,z
1/2+x,-y,1/2-z
-x,y,1/2-z
-x,-y,-z
1/2+x,y,-z
1/2-x,y,1/2+z
x,-y,1/2+z
loop_
_atom_site_type_symbol
_atom_site_label
_atom_site_fract_x
_atom_site_fract_y
_atom_site_fract_z
Si Si1 0.500000 0.563002 0.250000
Si Si2 0.764390 0.110432 0.969822
Si Si3 0.750000 0.500000 0.089674
Si Si4 0.339506 0.759198 0.615454
Si Si5 0.668264 0.323887 0.657552
Si Si6 0.440164 0.617294 0.530927
O O1 0.250000 0.500000 0.235209
O O2 0.393054 0.627670 0.292187
O O3 0.819033 0.149553 0.916921
O O4 0.750000 0.000000 0.967769
O O5 0.494539 0.140096 0.994170
O O6 0.801104 0.411420 0.121995
O O7 0.992893 0.519507 0.055468
O O8 0.577481 0.739189 0.651288
O O9 0.379105 0.683712 0.574328
O O10 0.074242 0.736771 0.641775
O O11 0.215425 0.634925 0.493594
#
# Coordination Sequence:
#
# PCOD9421564 Si02
#       6
#     4   8   4   8   8   8
#     4  12  24  42  64  82 110 144 198 248 314 352
#     4  10  20  36  60  89 122 158 195 234 281 337
#     4  10  22  36  48  74 102 146 192 230 270 330
#     4  11  22  37  55  81 115 146 193 233 286 338
#     4  11  24  38  57  81 107 148 186 245 294 348
#     4  11  21  32  46  67 102 146 185 224 259 313
#
# _framework density 18.951464000000001
#
# number of rings (size 3 to 8) (size 9 to 14) (size 15 to 20)
#    0.000    1.200    1.000    6.600    2.800    3.200 
#    0.000    0.000    0.000    0.000    0.000    2.800 
#    0.000    0.000    0.000    0.000    0.000    0.000 
#
# Total GULP energy -223291.260200 kJ/mol
# GULP energy per Si atom -5582.281505 kJ/mol
# Density = 1.890833 g / cm^3
# Si number density = 18.951464 Si / 1000 Ang^3
#
#
#
# Elastic Constant Matrix: (Units=GPa)
#
#
# Indices 1 2 3 4 5 6 
#
# 1 159.8176 25.7239 28.8381 0.0000 0.0000 0.0000
# 2 25.7239 48.6890 13.3339 0.0000 0.0000 0.0000
# 3 28.8381 13.3339 68.2552 0.0000 0.0000 0.0000
# 4 0.0000 0.0000 0.0000 25.4286 0.0000 0.0000
# 5 0.0000 0.0000 0.0000 0.0000 27.2310 0.0000
# 6 0.0000 0.0000 0.0000 0.0000 0.0000 17.7089
#
#
#
# Elastic Compliance Matrix: (Units=1/GPa)
#
#
# Indices 1 2 3 4 5 6 
#
# 1 0.007201 -0.003139 -0.002429 0.000000 0.000000 0.000000
# 2 -0.003139 0.023068 -0.003180 0.000000 0.000000 0.000000
# 3 -0.002429 -0.003180 0.016298 0.000000 0.000000 0.000000
# 4 0.000000 0.000000 0.000000 0.039326 0.000000 0.000000
# 5 0.000000 0.000000 0.000000 0.000000 0.036723 0.000000
# 6 0.000000 0.000000 0.000000 0.000000 0.000000 0.056469
#
#
# Mechanical properties :
#
#
# Convention : Reuss Voigt Hill
#
# Bulk Modulus (GPa) = 34.39924 45.83928 40.11926
# Shear Modulus (GPa) = 24.23993 27.99810 26.11902
#
# Velocity S-wave (km/s) = 3.58027 3.84781 3.71645
# Velocity P-wave (km/s) = 5.93984 6.63183 6.29535
#
# Compressibility (1/GPa) = 0.02907041
#
# Stress axis : x y z
#
# Youngs Moduli (GPa) = 138.87510 43.35030 61.35555
#
# Poissons Ratio (x) = 0.13608 0.14904
# Poissons Ratio (y) = 0.43595 0.19512
# Poissons Ratio (z) = 0.33734 0.13786
#
# Static dielectric constant tensor:
#      x y z
#    x 1.708140 0.000000 0.000000 
#    y 0.000000 1.806140 0.000000 
#    z 0.000000 0.000000 1.673050 
# 
# From -- ./inp_files/25292.got.cif
#   From: 2010.05.17/outbox.cif.g08.bks.cpg/sg54_13_cif.got.tgz:25292.got - 2010.06.03 13:09:01.
