data_PCOD9421316
_publ_section_title
;
Structure prediction by ZEFSAII (Michael W. Deem and Ramdas Pophale) SiO2 
 PCOD9421316
Probable space group: P C C A
;
_chemical_formula_sum "Si O2"
_cell_formula_units_Z 40
_cell_length_a 11.498938
_cell_length_b 8.929236
_cell_length_c 16.453697
_cell_angle_alpha 90.000000
_cell_angle_beta 90.000000
_cell_angle_gamma 90.000000
_cell_volume 1689.411823
_symmetry_space_group_name_H-M "P C C A"
_symmetry_group_IT_number 54
_symmetry_cell_setting 'orthorhombic'
loop_
_space_group_symop_operation_xyz
x,y,z
1/2-x,-y,z
1/2+x,-y,1/2-z
-x,y,1/2-z
-x,-y,-z
1/2+x,y,-z
1/2-x,y,1/2+z
x,-y,1/2+z
loop_
_atom_site_type_symbol
_atom_site_label
_atom_site_fract_x
_atom_site_fract_y
_atom_site_fract_z
Si Si1 0.983295 0.316074 0.060995
Si Si2 0.750000 0.000000 0.799588
Si Si3 0.750000 0.500000 0.815740
Si Si4 0.123295 0.651176 0.418734
Si Si5 0.658475 0.273518 0.695156
Si Si6 0.107810 0.231270 0.604919
O O1 0.934922 0.484969 0.076415
O O2 0.960809 0.243775 0.147357
O O3 0.902859 0.238770 0.992502
O O4 0.107975 0.308666 0.015399
O O5 0.697962 0.128077 0.742609
O O6 0.659133 0.916585 0.857527
O O7 0.660630 0.411698 0.757487
O O8 0.680609 0.624651 0.865515
O O9 0.242655 0.679586 0.372635
O O10 0.026806 0.746267 0.370465
#
# Coordination Sequence:
#
# PCOD9421316 Si02
#       6
#     8   4   4   8   8   8
#     4   9  19  36  68  95 113 162 223 270 312 372
#     4  10  24  38  58  88 134 182 196 252 340 396
#     4  10  20  30  60  90 118 168 200 274 314 376
#     4   9  19  37  68  92 120 161 222 271 317 373
#     4  11  20  40  63  89 129 166 212 262 332 386
#     4   9  21  38  61  88 128 167 214 261 322 385
#
# _framework density 23.676877999999999
#
# number of rings (size 3 to 8) (size 9 to 14) (size 15 to 20)
#    1.200    1.200    2.000    0.000    2.800    4.000 
#    0.000    1.000   22.000    0.000    0.000    0.000 
#    0.000    0.000    0.000    0.000    0.000    0.000 
#
# Total GULP energy -223131.805072 kJ/mol
# GULP energy per Si atom -5578.295127 kJ/mol
# Density = 2.362299 g / cm^3
# Si number density = 23.676878 Si / 1000 Ang^3
#
#
#
# Elastic Constant Matrix: (Units=GPa)
#
#
# Indices 1 2 3 4 5 6 
#
# 1 92.5096 18.9784 29.0160 0.0000 0.0000 0.0000
# 2 18.9784 93.0501 30.8118 0.0000 0.0000 0.0000
# 3 29.0160 30.8118 83.8587 0.0000 0.0000 0.0000
# 4 0.0000 0.0000 0.0000 28.5341 0.0000 0.0000
# 5 0.0000 0.0000 0.0000 0.0000 -8.5826 0.0000
# 6 0.0000 0.0000 0.0000 0.0000 0.0000 25.8948
#
#
#
# Elastic Compliance Matrix: (Units=1/GPa)
#
#
# Indices 1 2 3 4 5 6 
#
# 1 0.012251 -0.001247 -0.003781 0.000000 0.000000 0.000000
# 2 -0.001247 0.012362 -0.004111 0.000000 0.000000 0.000000
# 3 -0.003781 -0.004111 0.014744 0.000000 0.000000 0.000000
# 4 0.000000 0.000000 0.000000 0.035046 0.000000 0.000000
# 5 0.000000 0.000000 0.000000 0.000000 -0.116514 0.000000
# 6 0.000000 0.000000 0.000000 0.000000 0.000000 0.038618
#
#
# Mechanical properties :
#
#
# Convention : Reuss Voigt Hill
#
# Bulk Modulus (GPa) = 47.43823 47.44785 47.44304
# Shear Modulus (GPa) = 229.24418 21.87673 125.56045
#
# Velocity S-wave (km/s) = 9.85049 3.04299 7.29013
# Velocity P-wave (km/s) = 12.22519 5.69470 9.53638
#
# Compressibility (1/GPa) = 0.02108005
#
# Stress axis : x y z
#
# Youngs Moduli (GPa) = 81.62336 80.89026 67.82634
#
# Poissons Ratio (x) = 0.10085 0.25645
# Poissons Ratio (y) = 0.10177 0.27883
# Poissons Ratio (z) = 0.30862 0.33253
#
# Static dielectric constant tensor:
#      x y z
#    x 2.016150 0.000000 0.000000 
#    y 0.000000 1.899010 0.000000 
#    z 0.000000 0.000000 1.942240 
# 
# From -- ./inp_files/17857.got.cif
#   From: 2010.05.17/outbox.cif.g08.bks.cpg/sg54_9_cif.got.tgz:17857.got - 2010.06.03 13:09:01.
