data_PCOD9421906
_publ_section_title
;
Structure prediction by ZEFSAII (Michael W. Deem and Ramdas Pophale) SiO2 
 PCOD9421906
Probable space group: P C C A
;
_chemical_formula_sum "Si O2"
_cell_formula_units_Z 56
_cell_length_a 14.051505
_cell_length_b 5.365331
_cell_length_c 35.217163
_cell_angle_alpha 90.000000
_cell_angle_beta 90.000000
_cell_angle_gamma 90.000000
_cell_volume 2655.056268
_symmetry_space_group_name_H-M "P C C A"
_symmetry_group_IT_number 54
_symmetry_cell_setting 'orthorhombic'
loop_
_space_group_symop_operation_xyz
x,y,z
1/2-x,-y,z
1/2+x,-y,1/2-z
-x,y,1/2-z
-x,-y,-z
1/2+x,y,-z
1/2-x,y,1/2+z
x,-y,1/2+z
loop_
_atom_site_type_symbol
_atom_site_label
_atom_site_fract_x
_atom_site_fract_y
_atom_site_fract_z
Si Si1 0.657636 0.089366 0.004491
Si Si2 0.001985 0.442315 0.320317
Si Si3 0.049183 0.585404 0.401347
Si Si4 0.500000 0.229134 0.250000
Si Si5 0.507810 0.105010 0.555862
Si Si6 0.305489 0.746970 0.192645
Si Si7 0.840034 0.139472 0.220970
Si Si8 0.250000 0.500000 0.438712
O O1 0.750000 0.000000 0.982056
O O2 0.573896 0.144150 0.975401
O O3 0.608044 0.888374 0.032732
O O4 0.702694 0.299775 0.031585
O O5 0.024072 0.602794 0.357262
O O6 0.100319 0.316851 0.306505
O O7 0.967149 0.606474 0.285027
O O8 0.913083 0.253437 0.323896
O O9 0.014721 0.833694 0.423893
O O10 0.159585 0.513080 0.409522
O O11 0.998394 0.335014 0.416168
O O12 0.584646 0.064365 0.234593
O O13 0.250000 0.500000 0.179327
O O14 0.308902 0.740308 0.238954
O O15 0.250000 0.000000 0.182615
O O16 0.750000 0.000000 0.203103
#
# Coordination Sequence:
#
# PCOD9421906 Si02
#       8
#     8   8   8   4   8   8   8   4
#     4  10  20  39  74  97 137 173 227 272 322 414
#     4  12  25  43  68  98 142 187 227 307 344 418
#     4  11  26  43  65  99 151 174 223 281 362 403
#     4  12  22  44  66  98 132 186 258 276 356 406
#     4  10  24  42  64 103 134 179 222 269 339 413
#     4  11  23  42  69  95 126 176 241 291 337 403
#     4  11  24  39  65  97 131 171 243 301 341 414
#     4  10  22  42  68 106 136 184 218 272 354 420
#
# _framework density 21.091832
#
# number of rings (size 3 to 8) (size 9 to 14) (size 15 to 20)
#    0.000    1.143    4.286    1.714    4.000    2.857 
#    2.571    2.143    0.000    0.857    0.000    0.000 
#    0.000    0.000    0.000    0.000    0.000    0.000 
#
# Total GULP energy -312106.222481 kJ/mol
# GULP energy per Si atom -5573.325401 kJ/mol
# Density = 2.104383 g / cm^3
# Si number density = 21.091832 Si / 1000 Ang^3
#
#
#
# Elastic Constant Matrix: (Units=GPa)
#
#
# Indices 1 2 3 4 5 6 
#
# 1 87.2601 22.3059 13.3009 0.0000 0.0000 0.0000
# 2 22.3059 78.1577 13.2094 0.0000 0.0000 0.0000
# 3 13.3009 13.2094 75.9371 0.0000 0.0000 0.0000
# 4 0.0000 0.0000 0.0000 -13.6961 0.0000 0.0000
# 5 0.0000 0.0000 0.0000 0.0000 14.3402 0.0000
# 6 0.0000 0.0000 0.0000 0.0000 0.0000 22.0285
#
#
#
# Elastic Compliance Matrix: (Units=1/GPa)
#
#
# Indices 1 2 3 4 5 6 
#
# 1 0.012553 -0.003308 -0.001623 0.000000 0.000000 0.000000
# 2 -0.003308 0.014054 -0.001865 0.000000 0.000000 0.000000
# 3 -0.001623 -0.001865 0.013778 0.000000 0.000000 0.000000
# 4 0.000000 0.000000 0.000000 -0.073014 0.000000 0.000000
# 5 0.000000 0.000000 0.000000 0.000000 0.069734 0.000000
# 6 0.000000 0.000000 0.000000 0.000000 0.000000 0.045396
#
#
# Mechanical properties :
#
#
# Convention : Reuss Voigt Hill
#
# Bulk Modulus (GPa) = 37.32578 37.66526 37.49552
# Shear Modulus (GPa) = 47.60789 17.37046 32.48917
#
# Velocity S-wave (km/s) = 4.75612 2.87289 3.92901
# Velocity P-wave (km/s) = 6.92071 5.37598 6.19667
#
# Compressibility (1/GPa) = 0.02679113
#
# Stress axis : x y z
#
# Youngs Moduli (GPa) = 79.66164 71.15385 72.58164
#
# Poissons Ratio (x) = 0.23539 0.11782
# Poissons Ratio (y) = 0.26354 0.13538
# Poissons Ratio (z) = 0.12931 0.13272
#
# Static dielectric constant tensor:
#      x y z
#    x 1.714320 0.000000 0.000000 
#    y 0.000000 1.880030 0.000000 
#    z 0.000000 0.000000 1.796680 
# 
# From -- ./inp_files/28286.got.cif
#   From: 2010.05.17/outbox.cif.g08.bks.cpg/sg54_15_cif.got.tgz:28286.got - 2010.06.03 13:09:01.
