data_PCOD9421587
_publ_section_title
;
Structure prediction by ZEFSAII (Michael W. Deem and Ramdas Pophale) SiO2 
 PCOD9421587
Probable space group: P C C A
;
_chemical_formula_sum "Si O2"
_cell_formula_units_Z 60
_cell_length_a 9.591780
_cell_length_b 11.118617
_cell_length_c 28.375316
_cell_angle_alpha 90.000000
_cell_angle_beta 90.000000
_cell_angle_gamma 90.000000
_cell_volume 3026.151637
_symmetry_space_group_name_H-M "P C C A"
_symmetry_group_IT_number 54
_symmetry_cell_setting 'orthorhombic'
loop_
_space_group_symop_operation_xyz
x,y,z
1/2-x,-y,z
1/2+x,-y,1/2-z
-x,y,1/2-z
-x,-y,-z
1/2+x,y,-z
1/2-x,y,1/2+z
x,-y,1/2+z
loop_
_atom_site_type_symbol
_atom_site_label
_atom_site_fract_x
_atom_site_fract_y
_atom_site_fract_z
Si Si1 0.242860 0.866420 0.872196
Si Si2 0.770349 0.367487 0.564462
Si Si3 0.820878 0.264755 0.873342
Si Si4 0.431003 0.887558 0.148624
Si Si5 0.250000 0.500000 0.581629
Si Si6 0.465767 0.342071 0.518910
Si Si7 0.310117 0.113273 0.551404
Si Si8 0.992144 0.876495 0.195485
O O1 0.282546 0.751448 0.903715
O O2 0.338690 0.883957 0.826302
O O3 0.086163 0.841345 0.856042
O O4 0.250000 0.000000 0.896038
O O5 0.750000 0.500000 0.587379
O O6 0.628982 0.351418 0.532084
O O7 0.909676 0.374308 0.532716
O O8 0.678286 0.220236 0.847515
O O9 0.824426 0.402626 0.885743
O O10 0.809348 0.194840 0.923665
O O11 0.937818 0.219668 0.838832
O O12 0.390205 0.940789 0.097156
O O13 0.429947 0.996148 0.185371
O O14 0.366155 0.425984 0.551961
O O15 0.414194 0.205186 0.527014
O O16 0.250000 0.000000 0.523762
O O17 0.000000 0.847314 0.250000
#
# Coordination Sequence:
#
# PCOD9421587 Si02
#       8
#     8   8   8   8   4   8   8   8
#     4  10  23  41  60  90 128 159 199 262 313 369
#     4  12  25  42  61  90 128 171 214 264 310 367
#     4   9  18  33  60  82 119 154 199 237 310 356
#     4   9  17  38  58  84 119 155 191 244 299 373
#     4  10  20  36  62  86 114 162 208 252 286 362
#     4  11  24  39  61  91 126 160 222 256 298 368
#     4   9  16  35  61  82 116 159 199 246 301 365
#     4  11  22  36  63  95 121 145 199 257 315 375
#
# _framework density 19.827162000000001
#
# number of rings (size 3 to 8) (size 9 to 14) (size 15 to 20)
#    0.800    1.067    3.333    0.800    1.867    4.800 
#    0.000    1.333    1.467    0.800    0.000    0.000 
#    0.000    0.000    0.000    0.000    0.000    0.000 
#
# Total GULP energy -334339.923890 kJ/mol
# GULP energy per Si atom -5572.332065 kJ/mol
# Density = 1.978203 g / cm^3
# Si number density = 19.827162 Si / 1000 Ang^3
#
#
#
# Elastic Constant Matrix: (Units=GPa)
#
#
# Indices 1 2 3 4 5 6 
#
# 1 90.9950 16.0857 15.8372 0.0000 0.0000 0.0000
# 2 16.0857 126.9712 25.3303 0.0000 0.0000 0.0000
# 3 15.8372 25.3303 46.2885 0.0000 0.0000 0.0000
# 4 0.0000 0.0000 0.0000 19.3476 0.0000 0.0000
# 5 0.0000 0.0000 0.0000 0.0000 4.5398 0.0000
# 6 0.0000 0.0000 0.0000 0.0000 0.0000 28.7373
#
#
#
# Elastic Compliance Matrix: (Units=1/GPa)
#
#
# Indices 1 2 3 4 5 6 
#
# 1 0.011752 -0.000771 -0.003599 0.000000 0.000000 0.000000
# 2 -0.000771 0.008892 -0.004602 0.000000 0.000000 0.000000
# 3 -0.003599 -0.004602 0.025353 0.000000 0.000000 0.000000
# 4 0.000000 0.000000 0.000000 0.051686 0.000000 0.000000
# 5 0.000000 0.000000 0.000000 0.000000 0.220274 0.000000
# 6 0.000000 0.000000 0.000000 0.000000 0.000000 0.034798
#
#
# Mechanical properties :
#
#
# Convention : Reuss Voigt Hill
#
# Bulk Modulus (GPa) = 35.64637 42.08457 38.86547
# Shear Modulus (GPa) = 13.15615 24.32504 18.74059
#
# Velocity S-wave (km/s) = 2.57872 3.50645 3.07774
# Velocity P-wave (km/s) = 5.18498 6.13721 5.68108
#
# Compressibility (1/GPa) = 0.02805334
#
# Stress axis : x y z
#
# Youngs Moduli (GPa) = 85.08986 112.46659 39.44258
#
# Poissons Ratio (x) = 0.08670 0.14196
# Poissons Ratio (y) = 0.06559 0.18151
# Poissons Ratio (z) = 0.30625 0.51756
#
# Static dielectric constant tensor:
#      x y z
#    x 1.637800 0.000000 0.000000 
#    y 0.000000 1.740340 0.000000 
#    z 0.000000 0.000000 1.688630 
# 
# From -- ./inp_files/25958.got.cif
#   From: 2010.05.17/outbox.cif.g08.bks.cpg/sg54_13_cif.got.tgz:25958.got - 2010.06.03 13:09:01.
