data_PCOD9421991
_publ_section_title
;
Structure prediction by ZEFSAII (Michael W. Deem and Ramdas Pophale) SiO2 
 PCOD9421991
Probable space group: P C C A
;
_chemical_formula_sum "Si O2"
_cell_formula_units_Z 52
_cell_length_a 8.834909
_cell_length_b 14.733568
_cell_length_c 20.448178
_cell_angle_alpha 90.000000
_cell_angle_beta 90.000000
_cell_angle_gamma 90.000000
_cell_volume 2661.733861
_symmetry_space_group_name_H-M "P C C A"
_symmetry_group_IT_number 54
_symmetry_cell_setting 'orthorhombic'
loop_
_space_group_symop_operation_xyz
x,y,z
1/2-x,-y,z
1/2+x,-y,1/2-z
-x,y,1/2-z
-x,-y,-z
1/2+x,y,-z
1/2-x,y,1/2+z
x,-y,1/2+z
loop_
_atom_site_type_symbol
_atom_site_label
_atom_site_fract_x
_atom_site_fract_y
_atom_site_fract_z
Si Si1 0.750000 0.500000 0.662544
Si Si2 0.015056 0.120803 0.057475
Si Si3 0.783932 0.392991 0.859982
Si Si4 0.969681 0.703108 0.475728
Si Si5 0.000000 0.462214 0.750000
Si Si6 0.250000 0.000000 0.977192
Si Si7 0.982639 0.747266 0.826957
Si Si8 0.720271 0.334414 0.584217
O O1 0.609947 0.475961 0.707512
O O2 0.798154 0.419392 0.617231
O O3 0.064313 0.170043 0.124584
O O4 0.152142 0.067921 0.022803
O O5 0.874740 0.052403 0.065624
O O6 0.947934 0.197699 0.007833
O O7 0.750000 0.500000 0.878307
O O8 0.870773 0.334630 0.915675
O O9 0.635703 0.335112 0.840172
O O10 0.893979 0.403348 0.797142
O O11 0.918424 0.639776 0.536470
O O12 0.146025 0.705955 0.458554
O O13 0.146515 0.722411 0.857742
O O14 0.000000 0.765943 0.750000
#
# Coordination Sequence:
#
# PCOD9421991 Si02
#       8
#     4   8   8   8   4   4   8   8
#     4  12  24  40  56  82 120 170 236 274 320 370
#     4  10  21  42  68 101 123 163 201 266 333 412
#     4  12  25  39  62  87 129 185 236 271 308 373
#     4  11  23  42  62  94 132 162 219 275 331 379
#     4  12  24  40  56  82 118 172 238 282 306 376
#     4  10  20  40  78  98 122 152 208 258 338 420
#     4  11  24  42  63  90 136 179 214 269 326 376
#     4  11  24  38  61  87 121 174 219 277 319 374
#
# _framework density 19.536138000000001
#
# number of rings (size 3 to 8) (size 9 to 14) (size 15 to 20)
#    0.000    0.923    2.308    6.462    3.231    0.615 
#    0.000    0.769    0.000    0.000    0.000    0.000 
#    0.000    0.000    0.000    0.000    0.000    0.000 
#
# Total GULP energy -289914.300185 kJ/mol
# GULP energy per Si atom -5575.275004 kJ/mol
# Density = 1.949167 g / cm^3
# Si number density = 19.536138 Si / 1000 Ang^3
#
#
#
# Elastic Constant Matrix: (Units=GPa)
#
#
# Indices 1 2 3 4 5 6 
#
# 1 105.2962 34.2981 43.7825 0.0000 0.0000 0.0000
# 2 34.2981 75.6375 44.8771 0.0000 0.0000 0.0000
# 3 43.7825 44.8771 122.0084 0.0000 0.0000 0.0000
# 4 0.0000 0.0000 0.0000 31.5070 0.0000 0.0000
# 5 0.0000 0.0000 0.0000 0.0000 64.7294 0.0000
# 6 0.0000 0.0000 0.0000 0.0000 0.0000 39.5195
#
#
#
# Elastic Compliance Matrix: (Units=1/GPa)
#
#
# Indices 1 2 3 4 5 6 
#
# 1 0.011907 -0.003664 -0.002925 0.000000 0.000000 0.000000
# 2 -0.003664 0.018039 -0.005320 0.000000 0.000000 0.000000
# 3 -0.002925 -0.005320 0.011203 0.000000 0.000000 0.000000
# 4 0.000000 0.000000 0.000000 0.031739 0.000000 0.000000
# 5 0.000000 0.000000 0.000000 0.000000 0.015449 0.000000
# 6 0.000000 0.000000 0.000000 0.000000 0.000000 0.025304
#
#
# Mechanical properties :
#
#
# Convention : Reuss Voigt Hill
#
# Bulk Modulus (GPa) = 57.70305 60.98416 59.34360
# Shear Modulus (GPa) = 34.90763 39.15013 37.02888
#
# Velocity S-wave (km/s) = 4.23167 4.48145 4.35835
# Velocity P-wave (km/s) = 7.31278 7.61982 7.46788
#
# Compressibility (1/GPa) = 0.01733011
#
# Stress axis : x y z
#
# Youngs Moduli (GPa) = 83.98678 55.43576 89.26360
#
# Poissons Ratio (x) = 0.20309 0.26111
# Poissons Ratio (y) = 0.30769 0.47492
# Poissons Ratio (z) = 0.24567 0.29494
#
# Static dielectric constant tensor:
#      x y z
#    x 1.720490 0.000000 0.000000 
#    y 0.000000 1.716000 0.000000 
#    z 0.000000 0.000000 1.689070 
# 
# From -- ./inp_files/20494.got.cif
#   From: 2010.05.17/outbox.cif.g08.bks.cpg/sg54_11_cif.got.tgz:20494.got - 2010.06.03 13:09:01.
