data_PCOD9421464
_publ_section_title
;
Structure prediction by ZEFSAII (Michael W. Deem and Ramdas Pophale) SiO2 
 PCOD9421464
Probable space group: P C C A
;
_chemical_formula_sum "Si O2"
_cell_formula_units_Z 60
_cell_length_a 8.871916
_cell_length_b 14.448954
_cell_length_c 22.649377
_cell_angle_alpha 90.000000
_cell_angle_beta 90.000000
_cell_angle_gamma 90.000000
_cell_volume 2903.421513
_symmetry_space_group_name_H-M "P C C A"
_symmetry_group_IT_number 54
_symmetry_cell_setting 'orthorhombic'
loop_
_space_group_symop_operation_xyz
x,y,z
1/2-x,-y,z
1/2+x,-y,1/2-z
-x,y,1/2-z
-x,-y,-z
1/2+x,y,-z
1/2-x,y,1/2+z
x,-y,1/2+z
loop_
_atom_site_type_symbol
_atom_site_label
_atom_site_fract_x
_atom_site_fract_y
_atom_site_fract_z
Si Si1 0.434085 0.255217 0.684203
Si Si2 0.138779 0.069083 0.207920
Si Si3 0.419198 0.013634 0.079806
Si Si4 0.582804 0.464781 0.812640
Si Si5 0.492574 0.183940 0.564573
Si Si6 0.997880 0.590147 0.420583
Si Si7 0.869992 0.219075 0.945058
Si Si8 0.250000 0.500000 0.493190
O O1 0.500000 0.266508 0.750000
O O2 0.309480 0.172933 0.690628
O O3 0.400046 0.359064 0.665002
O O4 0.535729 0.212834 0.631316
O O5 0.000000 0.083209 0.250000
O O6 0.250000 0.000000 0.240056
O O7 0.093296 0.014353 0.148801
O O8 0.448824 0.121733 0.073134
O O9 0.250000 0.000000 0.054944
O O10 0.513469 0.927086 0.055091
O O11 0.750000 0.500000 0.803658
O O12 0.500000 0.467992 0.750000
O O13 0.504531 0.528851 0.861493
O O14 0.312250 0.208604 0.560466
O O15 0.584904 0.233452 0.513614
O O16 0.944855 0.695423 0.410725
O O17 0.870308 0.549425 0.464516
O O18 0.157001 0.572677 0.453096
#
# Coordination Sequence:
#
# PCOD9421464 Si02
#       8
#     8   8   8   8   8   8   8   4
#     4   9  20  40  62  81 108 158 199 227 286 360
#     4   9  17  34  58  81 108 146 190 235 281 340
#     4   8  17  34  53  79 117 154 185 226 285 351
#     4  11  24  42  62  85 118 159 201 251 300 355
#     4  10  20  35  60  86 118 151 192 233 289 349
#     4  11  23  41  62  87 120 154 202 248 300 353
#     4  11  21  35  57  87 117 154 187 235 290 352
#     4  10  24  40  62  88 118 152 196 256 300 346
#
# _framework density 20.665275000000001
#
# number of rings (size 3 to 8) (size 9 to 14) (size 15 to 20)
#    0.000    2.133    0.667    2.800    4.667    0.000 
#    0.000    6.667    0.000    0.800    0.000    0.000 
#    0.000    0.000    0.000    0.000    0.000    0.000 
#
# Total GULP energy -334216.249472 kJ/mol
# GULP energy per Si atom -5570.270825 kJ/mol
# Density = 2.061824 g / cm^3
# Si number density = 20.665275 Si / 1000 Ang^3
#
#
#
# Elastic Constant Matrix: (Units=GPa)
#
#
# Indices 1 2 3 4 5 6 
#
# 1 29.8325 9.2894 18.2327 0.0000 0.0000 0.0000
# 2 9.2894 176.8935 37.0160 0.0000 0.0000 0.0000
# 3 18.2327 37.0160 94.9361 0.0000 0.0000 0.0000
# 4 0.0000 0.0000 0.0000 -15.1727 0.0000 0.0000
# 5 0.0000 0.0000 0.0000 0.0000 23.8460 0.0000
# 6 0.0000 0.0000 0.0000 0.0000 0.0000 19.9244
#
#
#
# Elastic Compliance Matrix: (Units=1/GPa)
#
#
# Indices 1 2 3 4 5 6 
#
# 1 0.038020 -0.000510 -0.007103 0.000000 0.000000 0.000000
# 2 -0.000510 0.006162 -0.002305 0.000000 0.000000 0.000000
# 3 -0.007103 -0.002305 0.012796 0.000000 0.000000 0.000000
# 4 0.000000 0.000000 0.000000 -0.065908 0.000000 0.000000
# 5 0.000000 0.000000 0.000000 0.000000 0.041936 0.000000
# 6 0.000000 0.000000 0.000000 0.000000 0.000000 0.050190
#
#
# Mechanical properties :
#
#
# Convention : Reuss Voigt Hill
#
# Bulk Modulus (GPa) = 26.92299 47.85982 37.39141
# Shear Modulus (GPa) = 43.32270 21.52782 32.42526
#
# Velocity S-wave (km/s) = 4.58361 3.23110 3.96545
# Velocity P-wave (km/s) = 6.40852 6.09342 6.25296
#
# Compressibility (1/GPa) = 0.03714297
#
# Stress axis : x y z
#
# Youngs Moduli (GPa) = 26.30165 162.28018 78.14858
#
# Poissons Ratio (x) = 0.08281 0.55508
# Poissons Ratio (y) = 0.01342 0.18011
# Poissons Ratio (z) = 0.18682 0.37400
#
# Static dielectric constant tensor:
#      x y z
#    x 1.756620 0.000000 0.000000 
#    y 0.000000 1.856520 0.000000 
#    z 0.000000 0.000000 1.794690 
# 
# From -- ./inp_files/23636.got.cif
#   From: 2010.05.17/outbox.cif.g08.bks.cpg/sg54_12_cif.got.tgz:23636.got - 2010.06.03 13:09:01.
