data_PCOD9421120
_publ_section_title
;
Structure prediction by ZEFSAII (Michael W. Deem and Ramdas Pophale) SiO2 
 PCOD9421120
Probable space group: P C C A
;
_chemical_formula_sum "Si O2"
_cell_formula_units_Z 32
_cell_length_a 8.123778
_cell_length_b 5.279174
_cell_length_c 33.223075
_cell_angle_alpha 90.000000
_cell_angle_beta 90.000000
_cell_angle_gamma 90.000000
_cell_volume 1424.832622
_symmetry_space_group_name_H-M "P C C A"
_symmetry_group_IT_number 54
_symmetry_cell_setting 'orthorhombic'
loop_
_space_group_symop_operation_xyz
x,y,z
1/2-x,-y,z
1/2+x,-y,1/2-z
-x,y,1/2-z
-x,-y,-z
1/2+x,y,-z
1/2-x,y,1/2+z
x,-y,1/2+z
loop_
_atom_site_type_symbol
_atom_site_label
_atom_site_fract_x
_atom_site_fract_y
_atom_site_fract_z
Si Si1 0.429203 0.700209 0.174954
Si Si2 0.439153 0.071031 0.455262
Si Si3 0.069950 0.424254 0.082219
Si Si4 0.551172 0.795179 0.794373
O O1 0.428401 0.579707 0.130610
O O2 0.521018 0.485482 0.200355
O O3 0.245597 0.748965 0.194186
O O4 0.505925 0.979536 0.176343
O O5 0.461288 0.358028 0.439146
O O6 0.250000 0.000000 0.453057
O O7 0.500000 0.000000 0.500000
O O8 0.533691 0.865096 0.428498
O O9 0.250000 0.500000 0.067445
O O10 0.500000 0.882740 0.750000
#
# Coordination Sequence:
#
# PCOD9421120 Si02
#       4
#     8   8   8   8
#     4  10  21  37  63  94 128 179 235 277 354 417
#     4  12  27  47  72 107 146 186 240 293 364 433
#     4  12  23  43  77 104 141 193 237 297 356 432
#     4  10  19  35  62  90 130 169 224 285 339 417
#
# _framework density 22.458780000000001
#
# number of rings (size 3 to 8) (size 9 to 14) (size 15 to 20)
#    0.000    1.000    2.500    6.000    3.500    0.000 
#    0.000    0.000   55.000    0.000    0.000    0.000 
#    0.000    0.000    0.000    0.000    0.000    0.000 
#
# Total GULP energy -178346.126661 kJ/mol
# GULP energy per Si atom -5573.316458 kJ/mol
# Density = 2.240766 g / cm^3
# Si number density = 22.458780 Si / 1000 Ang^3
#
#
#
# Elastic Constant Matrix: (Units=GPa)
#
#
# Indices 1 2 3 4 5 6 
#
# 1 32.4036 -20.2895 -0.8650 0.0000 0.0000 0.0000
# 2 -20.2895 150.1352 5.7670 0.0000 0.0000 0.0000
# 3 -0.8650 5.7670 103.1477 0.0000 0.0000 0.0000
# 4 0.0000 0.0000 0.0000 14.8782 0.0000 0.0000
# 5 0.0000 0.0000 0.0000 0.0000 11.7057 0.0000
# 6 0.0000 0.0000 0.0000 0.0000 0.0000 26.8686
#
#
#
# Elastic Compliance Matrix: (Units=1/GPa)
#
#
# Indices 1 2 3 4 5 6 
#
# 1 0.033714 0.004555 0.000028 0.000000 0.000000 0.000000
# 2 0.004555 0.007290 -0.000369 0.000000 0.000000 0.000000
# 3 0.000028 -0.000369 0.009716 0.000000 0.000000 0.000000
# 4 0.000000 0.000000 0.000000 0.067212 0.000000 0.000000
# 5 0.000000 0.000000 0.000000 0.000000 0.085429 0.000000
# 6 0.000000 0.000000 0.000000 0.000000 0.000000 0.037218
#
#
# Mechanical properties :
#
#
# Convention : Reuss Voigt Hill
#
# Bulk Modulus (GPa) = 16.90699 28.32351 22.61525
# Shear Modulus (GPa) = 19.85173 30.76211 25.30692
#
# Velocity S-wave (km/s) = 2.97630 3.70498 3.36045
# Velocity P-wave (km/s) = 4.39949 5.56248 5.01481
#
# Compressibility (1/GPa) = 0.05914712
#
# Stress axis : x y z
#
# Youngs Moduli (GPa) = 29.66161 137.16620 102.92596
#
# Poissons Ratio (x) = -0.62480 -0.00289
# Poissons Ratio (y) = -0.13511 0.03802
# Poissons Ratio (z) = -0.00083 0.05067
#
# Static dielectric constant tensor:
#      x y z
#    x 1.946830 0.000000 0.000000 
#    y 0.000000 2.039760 0.000000 
#    z 0.000000 0.000000 1.920220 
# 
# From -- ./inp_files/27487.got.cif
#   From: 2010.05.17/outbox.cif.g08.bks.cpg/sg54_14_cif.got.tgz:27487.got - 2010.06.03 13:09:01.
