data_PCOD9421221
_publ_section_title
;
Structure prediction by ZEFSAII (Michael W. Deem and Ramdas Pophale) SiO2 
 PCOD9421221
Probable space group: P C C A
;
_chemical_formula_sum "Si O2"
_cell_formula_units_Z 48
_cell_length_a 25.437290
_cell_length_b 5.851142
_cell_length_c 13.673476
_cell_angle_alpha 90.000000
_cell_angle_beta 90.000000
_cell_angle_gamma 90.000000
_cell_volume 2035.121826
_symmetry_space_group_name_H-M "P C C A"
_symmetry_group_IT_number 54
_symmetry_cell_setting 'orthorhombic'
loop_
_space_group_symop_operation_xyz
x,y,z
1/2-x,-y,z
1/2+x,-y,1/2-z
-x,y,1/2-z
-x,-y,-z
1/2+x,y,-z
1/2-x,y,1/2+z
x,-y,1/2+z
loop_
_atom_site_type_symbol
_atom_site_label
_atom_site_fract_x
_atom_site_fract_y
_atom_site_fract_z
Si Si1 0.618119 0.931381 0.359837
Si Si2 0.258269 0.748449 0.912656
Si Si3 0.055276 0.634098 0.773679
Si Si4 0.627662 0.747581 0.677889
Si Si5 0.222980 0.250583 0.193774
Si Si6 0.057268 0.041533 0.456176
O O1 0.566612 0.806530 0.315546
O O2 0.668408 0.765718 0.366725
O O3 0.599544 0.063428 0.456138
O O4 0.634747 0.092464 0.271008
O O5 0.250000 0.500000 0.961578
O O6 0.318455 0.741947 0.878723
O O7 0.221919 0.749316 0.813809
O O8 0.250000 0.000000 0.959400
O O9 0.107015 0.485241 0.778602
O O10 0.000000 0.514023 0.750000
O O11 0.053565 0.755282 0.878519
O O12 0.580860 0.835065 0.608208
O O13 0.250000 0.500000 0.174712
O O14 0.250000 0.000000 0.173896
O O15 0.000000 0.000000 0.500000
#
# Coordination Sequence:
#
# PCOD9421221 Si02
#       6
#     8   8   8   8   8   8
#     4  11  23  44  69  97 140 185 232 294 363 435
#     4  10  19  38  69 100 138 181 232 290 354 428
#     4  11  24  42  71  99 134 187 239 297 367 429
#     4  11  25  41  70 102 134 189 235 294 362 430
#     4  10  19  37  67 102 137 182 231 285 353 428
#     4  11  26  46  64 101 143 179 239 301 359 430
#
# _framework density 23.585809999999999
#
# number of rings (size 3 to 8) (size 9 to 14) (size 15 to 20)
#    0.000    1.333    5.000    2.000    4.667    2.000 
#    0.000    1.667    0.000    0.000    0.000    0.000 
#    0.000    0.000    0.000    0.000    0.000    0.000 
#
# Total GULP energy -267853.728738 kJ/mol
# GULP energy per Si atom -5580.286015 kJ/mol
# Density = 2.353213 g / cm^3
# Si number density = 23.585810 Si / 1000 Ang^3
#
#
#
# Elastic Constant Matrix: (Units=GPa)
#
#
# Indices 1 2 3 4 5 6 
#
# 1 105.1622 36.2942 14.0294 0.0000 0.0000 0.0000
# 2 36.2942 132.3668 9.8092 0.0000 0.0000 0.0000
# 3 14.0294 9.8092 76.0947 0.0000 0.0000 0.0000
# 4 0.0000 0.0000 0.0000 -23.6740 0.0000 0.0000
# 5 0.0000 0.0000 0.0000 0.0000 14.5786 0.0000
# 6 0.0000 0.0000 0.0000 0.0000 0.0000 29.0273
#
#
#
# Elastic Compliance Matrix: (Units=1/GPa)
#
#
# Indices 1 2 3 4 5 6 
#
# 1 0.010695 -0.002813 -0.001609 0.000000 0.000000 0.000000
# 2 -0.002813 0.008368 -0.000560 0.000000 0.000000 0.000000
# 3 -0.001609 -0.000560 0.013510 0.000000 0.000000 0.000000
# 4 0.000000 0.000000 0.000000 -0.042240 0.000000 0.000000
# 5 0.000000 0.000000 0.000000 0.000000 0.068594 0.000000
# 6 0.000000 0.000000 0.000000 0.000000 0.000000 0.034450
#
#
# Mechanical properties :
#
#
# Convention : Reuss Voigt Hill
#
# Bulk Modulus (GPa) = 44.23190 48.20991 46.22090
# Shear Modulus (GPa) = 45.09509 20.88577 32.99043
#
# Velocity S-wave (km/s) = 4.37734 2.97900 3.74403
# Velocity P-wave (km/s) = 6.65901 5.68482 6.19111
#
# Compressibility (1/GPa) = 0.02260812
#
# Stress axis : x y z
#
# Youngs Moduli (GPa) = 93.50433 119.50827 74.01717
#
# Poissons Ratio (x) = 0.33620 0.11910
# Poissons Ratio (y) = 0.26304 0.04145
# Poissons Ratio (z) = 0.15046 0.06692
#
# Static dielectric constant tensor:
#      x y z
#    x 1.995140 0.000000 0.000000 
#    y 0.000000 1.991550 0.000000 
#    z 0.000000 0.000000 1.875830 
# 
# From -- ./inp_files/15156.got.cif
#   From: 2010.05.17/outbox.cif.g08.bks.cpg/sg54_8_cif.got.tgz:15156.got - 2010.06.03 13:09:01.
