data_PCOD9421652
_publ_section_title
;
Structure prediction by ZEFSAII (Michael W. Deem and Ramdas Pophale) SiO2 
 PCOD9421652
Probable space group: P C C A
;
_chemical_formula_sum "Si O2"
_cell_formula_units_Z 48
_cell_length_a 7.942020
_cell_length_b 19.840139
_cell_length_c 14.140826
_cell_angle_alpha 90.000000
_cell_angle_beta 90.000000
_cell_angle_gamma 90.000000
_cell_volume 2228.180993
_symmetry_space_group_name_H-M "P C C A"
_symmetry_group_IT_number 54
_symmetry_cell_setting 'orthorhombic'
loop_
_space_group_symop_operation_xyz
x,y,z
1/2-x,-y,z
1/2+x,-y,1/2-z
-x,y,1/2-z
-x,-y,-z
1/2+x,y,-z
1/2-x,y,1/2+z
x,-y,1/2+z
loop_
_atom_site_type_symbol
_atom_site_label
_atom_site_fract_x
_atom_site_fract_y
_atom_site_fract_z
Si Si1 0.187278 0.075341 0.794546
Si Si2 0.281029 0.679174 0.439956
Si Si3 0.213709 0.820560 0.645269
Si Si4 0.655932 0.326099 0.855797
Si Si5 0.685691 0.424872 0.207870
Si Si6 0.088582 0.819821 0.442709
O O1 0.293573 0.119478 0.719687
O O2 0.177584 0.117944 0.890744
O O3 0.000000 0.072678 0.750000
O O4 0.250000 0.000000 0.807661
O O5 0.276311 0.669276 0.552659
O O6 0.469265 0.676024 0.399230
O O7 0.186019 0.619157 0.386970
O O8 0.187372 0.750274 0.422125
O O9 0.185995 0.747160 0.690761
O O10 0.090962 0.828328 0.555729
O O11 0.400958 0.817772 0.599364
O O12 0.696862 0.384965 0.783078
O O13 0.750000 0.500000 0.191492
O O14 0.500000 0.426861 0.250000
#
# Coordination Sequence:
#
# PCOD9421652 Si02
#       6
#     8   8   8   8   8   8
#     4  10  23  38  55  79 113 151 189 232 287 344
#     4  11  22  39  63  91 118 153 195 240 290 344
#     4  10  20  37  59  85 113 148 190 238 287 339
#     4  11  22  39  63  91 118 153 195 240 290 344
#     4  12  25  42  61  87 121 157 195 240 289 346
#     4  10  20  37  59  85 113 148 190 238 287 339
#
# _framework density 21.542235000000002
#
# number of rings (size 3 to 8) (size 9 to 14) (size 15 to 20)
#    0.000    1.333    0.000    8.500    0.000    5.333 
#    0.000    6.667    0.000    0.000    0.000    0.000 
#    0.000    0.000    0.000    0.000    0.000    0.000 
#
# Total GULP energy -268712.932748 kJ/mol
# GULP energy per Si atom -5598.186099 kJ/mol
# Density = 2.149320 g / cm^3
# Si number density = 21.542235 Si / 1000 Ang^3
#
#
#
# Elastic Constant Matrix: (Units=GPa)
#
#
# Indices 1 2 3 4 5 6 
#
# 1 73.6227 9.6325 -8.0564 0.0000 0.0000 0.0000
# 2 9.6325 175.4493 43.6684 0.0000 0.0000 0.0000
# 3 -8.0564 43.6684 56.6354 0.0000 0.0000 0.0000
# 4 0.0000 0.0000 0.0000 16.4420 0.0000 0.0000
# 5 0.0000 0.0000 0.0000 0.0000 29.9915 0.0000
# 6 0.0000 0.0000 0.0000 0.0000 0.0000 -64.8587
#
#
#
# Elastic Compliance Matrix: (Units=1/GPa)
#
#
# Indices 1 2 3 4 5 6 
#
# 1 0.014143 -0.001581 0.003231 0.000000 0.000000 0.000000
# 2 -0.001581 0.007230 -0.005799 0.000000 0.000000 0.000000
# 3 0.003231 -0.005799 0.022588 0.000000 0.000000 0.000000
# 4 0.000000 0.000000 0.000000 0.060820 0.000000 0.000000
# 5 0.000000 0.000000 0.000000 0.000000 0.033343 0.000000
# 6 0.000000 0.000000 0.000000 0.000000 0.000000 -0.015418
#
#
# Mechanical properties :
#
#
# Convention : Reuss Voigt Hill
#
# Bulk Modulus (GPa) = 28.04101 44.02183 36.03142
# Shear Modulus (GPa) = 34.99159 13.67916 24.33537
#
# Velocity S-wave (km/s) = 4.03466 2.52264 3.36469
# Velocity P-wave (km/s) = 5.89489 5.38186 5.64421
#
# Compressibility (1/GPa) = 0.03566206
#
# Stress axis : x y z
#
# Youngs Moduli (GPa) = 70.70601 138.31524 44.27146
#
# Poissons Ratio (x) = 0.21861 -0.14302
# Poissons Ratio (y) = 0.11175 0.25675
# Poissons Ratio (z) = -0.22842 0.80214
#
# Static dielectric constant tensor:
#      x y z
#    x 1.835180 0.000000 0.000000 
#    y 0.000000 1.738290 0.000000 
#    z 0.000000 0.000000 1.775320 
# 
# From -- ./inp_files/11727.got.cif
#   From: 2010.05.17/outbox.cif.g08.bks.cpg/sg54_6_cif.got.tgz:11727.got - 2010.06.03 13:09:01.
