data_PCOD9421536
_publ_section_title
;
Structure prediction by ZEFSAII (Michael W. Deem and Ramdas Pophale) SiO2 
 PCOD9421536
Probable space group: P C C A
;
_chemical_formula_sum "Si O2"
_cell_formula_units_Z 56
_cell_length_a 15.386887
_cell_length_b 20.031337
_cell_length_c 9.092917
_cell_angle_alpha 90.000000
_cell_angle_beta 90.000000
_cell_angle_gamma 90.000000
_cell_volume 2802.618140
_symmetry_space_group_name_H-M "P C C A"
_symmetry_group_IT_number 54
_symmetry_cell_setting 'orthorhombic'
loop_
_space_group_symop_operation_xyz
x,y,z
1/2-x,-y,z
1/2+x,-y,1/2-z
-x,y,1/2-z
-x,-y,-z
1/2+x,y,-z
1/2-x,y,1/2+z
x,-y,1/2+z
loop_
_atom_site_type_symbol
_atom_site_label
_atom_site_fract_x
_atom_site_fract_y
_atom_site_fract_z
Si Si1 0.404161 0.092894 0.243871
Si Si2 0.652909 0.975962 0.052364
Si Si3 0.590537 0.544235 0.831569
Si Si4 0.226156 0.759183 0.533701
Si Si5 0.201615 0.333730 0.790312
Si Si6 0.214139 0.151374 0.284008
Si Si7 0.174368 0.447708 0.372014
O O1 0.500000 0.124743 0.250000
O O2 0.317785 0.138052 0.260703
O O3 0.395533 0.037276 0.371630
O O4 0.392697 0.055039 0.088819
O O5 0.669322 0.917500 0.171910
O O6 0.750000 0.000000 0.007389
O O7 0.500000 0.541400 0.750000
O O8 0.638466 0.608620 0.764058
O O9 0.641002 0.477799 0.780470
O O10 0.599230 0.550558 0.006054
O O11 0.272983 0.712737 0.653654
O O12 0.170692 0.712162 0.425619
O O13 0.290126 0.798211 0.422041
O O14 0.180214 0.815048 0.634545
O O15 0.284987 0.375106 0.849929
O O16 0.250000 0.500000 0.420893
#
# Coordination Sequence:
#
# PCOD9421536 Si02
#       7
#     8   8   8   8   8   8   8
#     4  11  22  36  57  88 118 143 175 238 295 327
#     4  10  20  36  59  84 110 147 190 226 272 339
#     4  11  22  36  57  88 118 143 175 238 295 327
#     4  10  20  36  60  83 102 153 194 238 256 318
#     4  10  20  37  62  82 110 144 201 226 267 332
#     4  10  20  37  62  82 110 144 201 226 267 332
#     4  10  20  36  59  84 110 147 190 226 272 339
#
# _framework density 19.981316
#
# number of rings (size 3 to 8) (size 9 to 14) (size 15 to 20)
#    0.000    1.714    2.857    3.429    4.000    0.000 
#    0.000    2.857    0.000    1.714    0.000    0.000 
#    0.000    0.000    0.000    0.000    0.000    0.000 
#
# Total GULP energy -312432.031689 kJ/mol
# GULP energy per Si atom -5579.143423 kJ/mol
# Density = 1.993584 g / cm^3
# Si number density = 19.981316 Si / 1000 Ang^3
#
#
#
# Elastic Constant Matrix: (Units=GPa)
#
#
# Indices 1 2 3 4 5 6 
#
# 1 39.8270 1.4879 -1.1089 0.0000 0.0000 0.0000
# 2 1.4879 68.3544 19.8993 0.0000 0.0000 0.0000
# 3 -1.1089 19.8993 101.2702 0.0000 0.0000 0.0000
# 4 0.0000 0.0000 0.0000 20.2411 0.0000 0.0000
# 5 0.0000 0.0000 0.0000 0.0000 11.4180 0.0000
# 6 0.0000 0.0000 0.0000 0.0000 0.0000 3.2507
#
#
#
# Elastic Compliance Matrix: (Units=1/GPa)
#
#
# Indices 1 2 3 4 5 6 
#
# 1 0.025145 -0.000666 0.000406 0.000000 0.000000 0.000000
# 2 -0.000666 0.015535 -0.003060 0.000000 0.000000 0.000000
# 3 0.000406 -0.003060 0.010480 0.000000 0.000000 0.000000
# 4 0.000000 0.000000 0.000000 0.049404 0.000000 0.000000
# 5 0.000000 0.000000 0.000000 0.000000 0.087581 0.000000
# 6 0.000000 0.000000 0.000000 0.000000 0.000000 0.307625
#
#
# Mechanical properties :
#
#
# Convention : Reuss Voigt Hill
#
# Bulk Modulus (GPa) = 22.46113 27.77869 25.11991
# Shear Modulus (GPa) = 9.66652 19.59353 14.63002
#
# Velocity S-wave (km/s) = 2.20188 3.13484 2.70883
# Velocity P-wave (km/s) = 4.21068 5.19956 4.73103
#
# Compressibility (1/GPa) = 0.04452135
#
# Stress axis : x y z
#
# Youngs Moduli (GPa) = 39.76974 64.37113 95.41739
#
# Poissons Ratio (x) = 0.04284 -0.03875
# Poissons Ratio (y) = 0.02647 0.29196
# Poissons Ratio (z) = -0.01615 0.19697
#
# Static dielectric constant tensor:
#      x y z
#    x 1.718440 0.000000 0.000000 
#    y 0.000000 1.716420 0.000000 
#    z 0.000000 0.000000 1.712800 
# 
# From -- ./inp_files/3681.got.cif
#   From: 2010.05.17/outbox.cif.g08.bks.cpg/sg54_2_cif.got.tgz:3681.got - 2010.06.03 13:09:01.
