data_PCOD9421673
_publ_section_title
;
Structure prediction by ZEFSAII (Michael W. Deem and Ramdas Pophale) SiO2 
 PCOD9421673
Probable space group: P C C A
;
_chemical_formula_sum "Si O2"
_cell_formula_units_Z 60
_cell_length_a 12.209916
_cell_length_b 7.379527
_cell_length_c 31.482843
_cell_angle_alpha 90.000000
_cell_angle_beta 90.000000
_cell_angle_gamma 90.000000
_cell_volume 2836.711347
_symmetry_space_group_name_H-M "P C C A"
_symmetry_group_IT_number 54
_symmetry_cell_setting 'orthorhombic'
loop_
_space_group_symop_operation_xyz
x,y,z
1/2-x,-y,z
1/2+x,-y,1/2-z
-x,y,1/2-z
-x,-y,-z
1/2+x,y,-z
1/2-x,y,1/2+z
x,-y,1/2+z
loop_
_atom_site_type_symbol
_atom_site_label
_atom_site_fract_x
_atom_site_fract_y
_atom_site_fract_z
Si Si1 0.349323 0.240258 0.625296
Si Si2 0.550717 0.678021 0.545250
Si Si3 0.595014 0.186719 0.378862
Si Si4 0.633003 0.594260 0.464112
Si Si5 0.493192 0.230639 0.798521
Si Si6 0.739907 0.215459 0.661923
Si Si7 0.467820 0.791506 0.796425
Si Si8 0.750000 0.500000 0.588800
O O1 0.218022 0.269990 0.620505
O O2 0.394705 0.331468 0.582648
O O3 0.410127 0.292858 0.669414
O O4 0.377516 0.026582 0.623049
O O5 0.496947 0.790769 0.584069
O O6 0.610233 0.741592 0.501491
O O7 0.443729 0.577329 0.529355
O O8 0.640050 0.534952 0.562622
O O9 0.539959 0.266972 0.336470
O O10 0.750000 0.500000 0.465861
O O11 0.500000 0.294590 0.750000
O O12 0.374511 0.273673 0.817530
O O13 0.489031 0.009693 0.796458
O O14 0.842662 0.253501 0.692520
O O15 0.745553 0.324529 0.618551
O O16 0.750000 0.000000 0.654116
O O17 0.500000 0.724549 0.750000
#
# Coordination Sequence:
#
# PCOD9421673 Si02
#       8
#     8   8   8   8   8   8   8   4
#     4  10  21  37  61  87 119 153 200 252 307 361
#     4  11  23  39  63  86 116 155 205 248 306 372
#     4  10  20  37  61  89 118 155 199 252 304 366
#     4  11  22  40  62  85 116 159 203 245 308 374
#     4   9  19  35  57  86 118 157 201 252 302 363
#     4  10  21  37  60  87 121 161 208 252 312 372
#     4   9  18  33  58  87 117 157 204 248 304 372
#     4  12  22  40  64  88 122 164 198 264 308 366
#
# _framework density 21.151253000000001
#
# number of rings (size 3 to 8) (size 9 to 14) (size 15 to 20)
#    0.000    1.867    3.333    0.800    1.867    0.533 
#    0.000    0.667    4.400    0.000    0.000    0.000 
#    0.000    0.000    0.000    0.000    0.000    0.000 
#
# Total GULP energy -334132.260772 kJ/mol
# GULP energy per Si atom -5568.871013 kJ/mol
# Density = 2.110311 g / cm^3
# Si number density = 21.151253 Si / 1000 Ang^3
#
#
#
# Elastic Constant Matrix: (Units=GPa)
#
#
# Indices 1 2 3 4 5 6 
#
# 1 114.5023 13.1294 43.6027 0.0000 0.0000 0.0000
# 2 13.1294 35.8972 11.1050 0.0000 0.0000 0.0000
# 3 43.6027 11.1050 155.9819 0.0000 0.0000 0.0000
# 4 0.0000 0.0000 0.0000 21.7171 0.0000 0.0000
# 5 0.0000 0.0000 0.0000 0.0000 9.4765 0.0000
# 6 0.0000 0.0000 0.0000 0.0000 0.0000 10.7616
#
#
#
# Elastic Compliance Matrix: (Units=1/GPa)
#
#
# Indices 1 2 3 4 5 6 
#
# 1 0.010055 -0.002871 -0.002606 0.000000 0.000000 0.000000
# 2 -0.002871 0.029305 -0.001284 0.000000 0.000000 0.000000
# 3 -0.002606 -0.001284 0.007231 0.000000 0.000000 0.000000
# 4 0.000000 0.000000 0.000000 0.046047 0.000000 0.000000
# 5 0.000000 0.000000 0.000000 0.000000 0.105524 0.000000
# 6 0.000000 0.000000 0.000000 0.000000 0.000000 0.092923
#
#
# Mechanical properties :
#
#
# Convention : Reuss Voigt Hill
#
# Bulk Modulus (GPa) = 30.24074 49.11728 39.67901
# Shear Modulus (GPa) = 15.84132 24.29400 20.06766
#
# Velocity S-wave (km/s) = 2.73967 3.39275 3.08355
# Velocity P-wave (km/s) = 4.93317 6.21450 5.61053
#
# Compressibility (1/GPa) = 0.03306798
#
# Stress axis : x y z
#
# Youngs Moduli (GPa) = 99.45095 34.12430 138.29411
#
# Poissons Ratio (x) = 0.09798 0.36045
# Poissons Ratio (y) = 0.28556 0.17752
# Poissons Ratio (z) = 0.25921 0.04380
#
# Static dielectric constant tensor:
#      x y z
#    x 1.822840 0.000000 0.000000 
#    y 0.000000 1.814930 0.000000 
#    z 0.000000 0.000000 1.872390 
# 
# From -- ./inp_files/28104.got.cif
#   From: 2010.05.17/outbox.cif.g08.bks.cpg/sg54_15_cif.got.tgz:28104.got - 2010.06.03 13:09:01.
