data_PCOD9421121
_publ_section_title
;
Structure prediction by ZEFSAII (Michael W. Deem and Ramdas Pophale) SiO2 
 PCOD9421121
Probable space group: P C C A
;
_chemical_formula_sum "Si O2"
_cell_formula_units_Z 64
_cell_length_a 15.541411
_cell_length_b 9.460980
_cell_length_c 22.007140
_cell_angle_alpha 90.000000
_cell_angle_beta 90.000000
_cell_angle_gamma 90.000000
_cell_volume 3235.863374
_symmetry_space_group_name_H-M "P C C A"
_symmetry_group_IT_number 54
_symmetry_cell_setting 'orthorhombic'
loop_
_space_group_symop_operation_xyz
x,y,z
1/2-x,-y,z
1/2+x,-y,1/2-z
-x,y,1/2-z
-x,-y,-z
1/2+x,y,-z
1/2-x,y,1/2+z
x,-y,1/2+z
loop_
_atom_site_type_symbol
_atom_site_label
_atom_site_fract_x
_atom_site_fract_y
_atom_site_fract_z
Si Si1 0.499009 0.003489 0.071842
Si Si2 0.892020 0.744212 0.383007
Si Si3 0.564400 0.421807 0.157736
Si Si4 0.163319 0.204821 0.919883
Si Si5 0.785335 0.140261 0.189734
Si Si6 0.806001 0.634861 0.267550
Si Si7 0.205672 0.655398 0.994302
Si Si8 0.426151 0.265147 0.883164
O O1 0.423818 0.098510 0.100310
O O2 0.586450 0.093277 0.082998
O O3 0.501941 0.840560 0.091941
O O4 0.500000 0.000000 0.000000
O O5 0.830673 0.726785 0.325620
O O6 0.846823 0.680637 0.443421
O O7 0.976294 0.658699 0.358936
O O8 0.629690 0.353363 0.108131
O O9 0.611301 0.397273 0.223188
O O10 0.549234 0.586989 0.146762
O O11 0.231036 0.147158 0.871979
O O12 0.214434 0.236763 0.981780
O O13 0.758262 0.275974 0.226615
O O14 0.881258 0.165497 0.167629
O O15 0.750000 0.000000 0.221580
O O16 0.750000 0.500000 0.286556
O O17 0.250000 0.500000 0.992724
O O18 0.138955 0.689644 0.938530
#
# Coordination Sequence:
#
# PCOD9421121 Si02
#       8
#     8   8   8   8   8   8   8   8
#     4  11  22  40  59  94 133 173 205 256 330 404
#     4  11  25  41  61  94 134 169 205 267 339 388
#     4  10  21  40  66  91 119 165 218 270 314 381
#     4   9  20  34  61  89 120 160 210 257 314 375
#     4  10  19  35  62  91 114 156 215 272 302 367
#     4  11  22  42  68  90 121 166 223 268 325 391
#     4  11  21  36  61  94 130 163 210 264 319 381
#     4  11  20  37  65  94 122 160 222 261 307 390
#
# _framework density 19.778338999999999
#
# number of rings (size 3 to 8) (size 9 to 14) (size 15 to 20)
#    0.000    1.500    5.000    0.750    0.000    1.500 
#    0.000    2.500    0.000    0.000    0.000    0.000 
#    0.000    0.000    0.000    0.000    0.000    0.000 
#
# Total GULP energy -356389.015711 kJ/mol
# GULP energy per Si atom -5568.578370 kJ/mol
# Density = 1.973332 g / cm^3
# Si number density = 19.778339 Si / 1000 Ang^3
#
#
#
# Elastic Constant Matrix: (Units=GPa)
#
#
# Indices 1 2 3 4 5 6 
#
# 1 33.2373 2.7266 16.6654 0.0000 0.0000 0.0000
# 2 2.7266 106.6563 12.3590 0.0000 0.0000 0.0000
# 3 16.6654 12.3590 84.5550 0.0000 0.0000 0.0000
# 4 0.0000 0.0000 0.0000 20.3237 0.0000 0.0000
# 5 0.0000 0.0000 0.0000 0.0000 2.8656 0.0000
# 6 0.0000 0.0000 0.0000 0.0000 0.0000 31.0599
#
#
#
# Elastic Compliance Matrix: (Units=1/GPa)
#
#
# Indices 1 2 3 4 5 6 
#
# 1 0.033387 -0.000093 -0.006567 0.000000 0.000000 0.000000
# 2 -0.000093 0.009538 -0.001376 0.000000 0.000000 0.000000
# 3 -0.006567 -0.001376 0.013322 0.000000 0.000000 0.000000
# 4 0.000000 0.000000 0.000000 0.049204 0.000000 0.000000
# 5 0.000000 0.000000 0.000000 0.000000 0.348971 0.000000
# 6 0.000000 0.000000 0.000000 0.000000 0.000000 0.032196
#
#
# Mechanical properties :
#
#
# Convention : Reuss Voigt Hill
#
# Bulk Modulus (GPa) = 24.89039 31.99450 28.44245
# Shear Modulus (GPa) = 9.68842 23.69633 16.69237
#
# Velocity S-wave (km/s) = 2.21566 3.46511 2.90827
# Velocity P-wave (km/s) = 4.37693 5.67635 5.06845
#
# Compressibility (1/GPa) = 0.04017614
#
# Stress axis : x y z
#
# Youngs Moduli (GPa) = 29.95179 104.84700 75.06368
#
# Poissons Ratio (x) = 0.00971 0.49293
# Poissons Ratio (y) = 0.00277 0.10328
# Poissons Ratio (z) = 0.19669 0.14425
#
# Static dielectric constant tensor:
#      x y z
#    x -0.425440 0.000000 0.000000 
#    y 0.000000 1.566570 0.000000 
#    z 0.000000 0.000000 1.694780 
# 
# From -- ./inp_files/24509.got.cif
#   From: 2010.05.17/outbox.cif.g08.bks.cpg/sg54_13_cif.got.tgz:24509.got - 2010.06.03 13:09:01.
