data_PCOD9421660
_publ_section_title
;
Structure prediction by ZEFSAII (Michael W. Deem and Ramdas Pophale) SiO2 
 PCOD9421660
Probable space group: P C C A
;
_chemical_formula_sum "Si O2"
_cell_formula_units_Z 64
_cell_length_a 9.376869
_cell_length_b 13.706046
_cell_length_c 26.232389
_cell_angle_alpha 90.000000
_cell_angle_beta 90.000000
_cell_angle_gamma 90.000000
_cell_volume 3371.381331
_symmetry_space_group_name_H-M "P C C A"
_symmetry_group_IT_number 54
_symmetry_cell_setting 'orthorhombic'
loop_
_space_group_symop_operation_xyz
x,y,z
1/2-x,-y,z
1/2+x,-y,1/2-z
-x,y,1/2-z
-x,-y,-z
1/2+x,y,-z
1/2-x,y,1/2+z
x,-y,1/2+z
loop_
_atom_site_type_symbol
_atom_site_label
_atom_site_fract_x
_atom_site_fract_y
_atom_site_fract_z
Si Si1 0.467063 0.633504 0.608570
Si Si2 0.566366 0.702105 0.300515
Si Si3 0.548324 0.067096 0.192365
Si Si4 0.257846 0.729127 0.923998
Si Si5 0.482847 0.412252 0.896477
Si Si6 0.724249 0.388549 0.975594
Si Si7 0.389348 0.251968 0.203086
Si Si8 0.353949 0.867301 0.343239
O O1 0.580036 0.714872 0.592417
O O2 0.535944 0.527041 0.606602
O O3 0.337511 0.627900 0.569195
O O4 0.418628 0.660382 0.664659
O O5 0.500000 0.654868 0.250000
O O6 0.570404 0.628068 0.348012
O O7 0.721806 0.743222 0.286648
O O8 0.459540 0.788893 0.317770
O O9 0.500000 0.038519 0.250000
O O10 0.433357 0.148851 0.177391
O O11 0.706222 0.116459 0.188409
O O12 0.565532 0.970777 0.158488
O O13 0.163873 0.645390 0.897099
O O14 0.193070 0.827162 0.899089
O O15 0.256220 0.695863 0.982812
O O16 0.570135 0.388169 0.948307
O O17 0.750000 0.500000 0.995903
O O18 0.500000 0.259319 0.250000
#
# Coordination Sequence:
#
# PCOD9421660 Si02
#       8
#     8   8   8   8   8   8   8   8
#     4  11  21  38  57  86 121 158 201 252 289 358
#     4  11  22  37  57  85 121 157 194 246 298 365
#     4  10  20  38  62  87 116 151 196 243 297 357
#     4  11  21  36  59  88 116 154 194 254 305 350
#     4  10  22  36  56  86 121 156 204 247 296 351
#     4  10  20  37  60  87 118 159 211 254 297 351
#     4  11  23  37  59  86 118 159 200 243 308 358
#     4  10  22  38  59  91 119 147 193 247 302 354
#
# _framework density 18.983318000000001
#
# number of rings (size 3 to 8) (size 9 to 14) (size 15 to 20)
#    0.000    1.500    2.500    3.750    1.750    5.000 
#    0.000    0.000    0.000    0.750    3.250    0.000 
#    0.000    0.000    0.000    0.000    0.000    0.000 
#
# Total GULP energy -356866.061838 kJ/mol
# GULP energy per Si atom -5576.032216 kJ/mol
# Density = 1.894011 g / cm^3
# Si number density = 18.983318 Si / 1000 Ang^3
#
#
#
# Elastic Constant Matrix: (Units=GPa)
#
#
# Indices 1 2 3 4 5 6 
#
# 1 74.5255 7.8407 19.0796 0.0000 0.0000 0.0000
# 2 7.8407 55.9916 43.9319 0.0000 0.0000 0.0000
# 3 19.0796 43.9319 89.1898 0.0000 0.0000 0.0000
# 4 0.0000 0.0000 0.0000 34.3050 0.0000 0.0000
# 5 0.0000 0.0000 0.0000 0.0000 20.3943 0.0000
# 6 0.0000 0.0000 0.0000 0.0000 0.0000 25.3319
#
#
#
# Elastic Compliance Matrix: (Units=1/GPa)
#
#
# Indices 1 2 3 4 5 6 
#
# 1 0.014210 0.000644 -0.003357 0.000000 0.000000 0.000000
# 2 0.000644 0.029139 -0.014491 0.000000 0.000000 0.000000
# 3 -0.003357 -0.014491 0.019068 0.000000 0.000000 0.000000
# 4 0.000000 0.000000 0.000000 0.029150 0.000000 0.000000
# 5 0.000000 0.000000 0.000000 0.000000 0.049033 0.000000
# 6 0.000000 0.000000 0.000000 0.000000 0.000000 0.039476
#
#
# Mechanical properties :
#
#
# Convention : Reuss Voigt Hill
#
# Bulk Modulus (GPa) = 35.70202 40.15678 37.92940
# Shear Modulus (GPa) = 22.33928 25.92988 24.13458
#
# Velocity S-wave (km/s) = 3.43415 3.69986 3.56948
# Velocity P-wave (km/s) = 5.87983 6.28105 6.08375
#
# Compressibility (1/GPa) = 0.02800962
#
# Stress axis : x y z
#
# Youngs Moduli (GPa) = 70.37340 34.31779 52.44410
#
# Poissons Ratio (x) = -0.02211 0.17606
# Poissons Ratio (y) = -0.04533 0.75996
# Poissons Ratio (z) = 0.23625 0.49730
#
# Static dielectric constant tensor:
#      x y z
#    x 1.676010 0.000000 0.000000 
#    y 0.000000 1.663980 0.000000 
#    z 0.000000 0.000000 1.691580 
# 
# From -- ./inp_files/23701.got.cif
#   From: 2010.05.17/outbox.cif.g08.bks.cpg/sg54_12_cif.got.tgz:23701.got - 2010.06.03 13:09:01.
