data_PCOD9421609
_publ_section_title
;
Structure prediction by ZEFSAII (Michael W. Deem and Ramdas Pophale) SiO2 
 PCOD9421609
Probable space group: P C C A
;
_chemical_formula_sum "Si O2"
_cell_formula_units_Z 40
_cell_length_a 5.572968
_cell_length_b 11.828782
_cell_length_c 29.902679
_cell_angle_alpha 90.000000
_cell_angle_beta 90.000000
_cell_angle_gamma 90.000000
_cell_volume 1971.227168
_symmetry_space_group_name_H-M "P C C A"
_symmetry_group_IT_number 54
_symmetry_cell_setting 'orthorhombic'
loop_
_space_group_symop_operation_xyz
x,y,z
1/2-x,-y,z
1/2+x,-y,1/2-z
-x,y,1/2-z
-x,-y,-z
1/2+x,y,-z
1/2-x,y,1/2+z
x,-y,1/2+z
loop_
_atom_site_type_symbol
_atom_site_label
_atom_site_fract_x
_atom_site_fract_y
_atom_site_fract_z
Si Si1 0.230275 0.128475 0.836563
Si Si2 0.614265 0.682536 0.315597
Si Si3 0.489078 0.674107 0.615049
Si Si4 0.500000 0.211551 0.250000
Si Si5 0.189922 0.368214 0.983251
Si Si6 0.250000 0.500000 0.820728
O O1 0.465686 0.203120 0.825617
O O2 0.072805 0.200027 0.871762
O O3 0.105161 0.133259 0.788379
O O4 0.250000 0.000000 0.851208
O O5 0.811938 0.711451 0.277818
O O6 0.457846 0.575989 0.299362
O O7 0.723932 0.655673 0.364947
O O8 0.567763 0.644132 0.565375
O O9 0.633319 0.593233 0.647893
O O10 0.250000 0.500000 0.993508
O O11 0.466240 0.321101 0.986350
#
# Coordination Sequence:
#
# PCOD9421609 Si02
#       6
#     8   8   8   4   8   4
#     4  10  23  39  65  90 117 164 215 266 320 371
#     4  10  22  38  64  88 121 168 208 259 318 375
#     4  10  21  38  63  89 130 164 204 253 312 384
#     4  10  22  38  62  90 122 154 216 272 314 366
#     4  10  22  36  63  99 131 169 211 260 318 384
#     4  10  20  36  64  84 126 168 202 246 308 392
#
# _framework density 20.291927999999999
#
# number of rings (size 3 to 8) (size 9 to 14) (size 15 to 20)
#    0.000    2.000    1.000    1.200    8.400    4.000 
#    0.000    0.000  158.400    1.200    0.000    0.000 
#    0.000    0.000    0.000    0.000    0.000    0.000 
#
# Total GULP energy -222695.595339 kJ/mol
# GULP energy per Si atom -5567.389883 kJ/mol
# Density = 2.024574 g / cm^3
# Si number density = 20.291928 Si / 1000 Ang^3
#
#
#
# Elastic Constant Matrix: (Units=GPa)
#
#
# Indices 1 2 3 4 5 6 
#
# 1 101.7805 31.3179 19.5053 0.0000 0.0000 0.0000
# 2 31.3179 112.9605 3.7152 0.0000 0.0000 0.0000
# 3 19.5053 3.7152 61.9023 0.0000 0.0000 0.0000
# 4 0.0000 0.0000 0.0000 10.2351 0.0000 0.0000
# 5 0.0000 0.0000 0.0000 0.0000 22.2423 0.0000
# 6 0.0000 0.0000 0.0000 0.0000 0.0000 7.7440
#
#
#
# Elastic Compliance Matrix: (Units=1/GPa)
#
#
# Indices 1 2 3 4 5 6 
#
# 1 0.011419 -0.003054 -0.003415 0.000000 0.000000 0.000000
# 2 -0.003054 0.009687 0.000381 0.000000 0.000000 0.000000
# 3 -0.003415 0.000381 0.017208 0.000000 0.000000 0.000000
# 4 0.000000 0.000000 0.000000 0.097703 0.000000 0.000000
# 5 0.000000 0.000000 0.000000 0.000000 0.044959 0.000000
# 6 0.000000 0.000000 0.000000 0.000000 0.000000 0.129133
#
#
# Mechanical properties :
#
#
# Convention : Reuss Voigt Hill
#
# Bulk Modulus (GPa) = 38.25823 42.85781 40.55802
# Shear Modulus (GPa) = 15.10589 22.85127 18.97858
#
# Velocity S-wave (km/s) = 2.73138 3.35942 3.06155
# Velocity P-wave (km/s) = 5.37048 6.01781 5.70334
#
# Compressibility (1/GPa) = 0.02613816
#
# Stress axis : x y z
#
# Youngs Moduli (GPa) = 87.57270 103.23410 58.11367
#
# Poissons Ratio (x) = 0.31523 0.19845
# Poissons Ratio (y) = 0.26741 -0.02213
# Poissons Ratio (z) = 0.29905 -0.03931
#
# Static dielectric constant tensor:
#      x y z
#    x 1.929730 0.000000 0.000000 
#    y 0.000000 1.586880 0.000000 
#    z 0.000000 0.000000 1.729600 
# 
# From -- ./inp_files/27061.got.cif
#   From: 2010.05.17/outbox.cif.g08.bks.cpg/sg54_14_cif.got.tgz:27061.got - 2010.06.03 13:09:01.
