data_PCOD9421223
_publ_section_title
;
Structure prediction by ZEFSAII (Michael W. Deem and Ramdas Pophale) SiO2 
 PCOD9421223
Probable space group: P C C A
;
_chemical_formula_sum "Si O2"
_cell_formula_units_Z 28
_cell_length_a 9.783668
_cell_length_b 7.168439
_cell_length_c 18.114644
_cell_angle_alpha 90.000000
_cell_angle_beta 90.000000
_cell_angle_gamma 90.000000
_cell_volume 1270.445690
_symmetry_space_group_name_H-M "P C C A"
_symmetry_group_IT_number 54
_symmetry_cell_setting 'orthorhombic'
loop_
_space_group_symop_operation_xyz
x,y,z
1/2-x,-y,z
1/2+x,-y,1/2-z
-x,y,1/2-z
-x,-y,-z
1/2+x,y,-z
1/2-x,y,1/2+z
x,-y,1/2+z
loop_
_atom_site_type_symbol
_atom_site_label
_atom_site_fract_x
_atom_site_fract_y
_atom_site_fract_z
Si Si1 0.052695 0.815228 0.957499
Si Si2 0.250000 0.000000 0.838833
Si Si3 0.345590 0.339093 0.243789
Si Si4 0.754691 0.227327 0.417531
O O1 0.143551 0.888223 0.889808
O O2 0.912622 0.718044 0.931967
O O3 0.154823 0.716861 0.015186
O O4 0.000000 0.000000 0.000000
O O5 0.328240 0.851595 0.788653
O O6 0.250000 0.500000 0.275769
O O7 0.500000 0.403494 0.250000
O O8 0.300547 0.301137 0.159852
O O9 0.750000 0.000000 0.413587
#
# Coordination Sequence:
#
# PCOD9421223 Si02
#       4
#     8   4   8   8
#     4  10  19  37  71 103 126 180 232 281 342 408
#     4  12  24  42  78  96 142 182 232 288 350 408
#     4  12  29  46  68 105 143 184 232 283 348 416
#     4  10  20  41  68  99 135 172 234 281 341 409
#
# _framework density 22.03951
#
# number of rings (size 3 to 8) (size 9 to 14) (size 15 to 20)
#    0.000    1.143    5.714    3.429    4.000    0.000 
#    0.000    2.857    0.000    0.000    0.000    0.000 
#    0.000    0.000    0.000    0.000    0.000    0.000 
#
# Total GULP energy -156646.148868 kJ/mol
# GULP energy per Si atom -5594.505317 kJ/mol
# Density = 2.198935 g / cm^3
# Si number density = 22.039510 Si / 1000 Ang^3
#
#
#
# Elastic Constant Matrix: (Units=GPa)
#
#
# Indices 1 2 3 4 5 6 
#
# 1 188.1399 5.6796 58.6773 0.0000 0.0000 0.0000
# 2 5.6796 55.1490 3.5685 0.0000 0.0000 0.0000
# 3 58.6773 3.5685 130.8978 0.0000 0.0000 0.0000
# 4 0.0000 0.0000 0.0000 -3.0318 0.0000 0.0000
# 5 0.0000 0.0000 0.0000 0.0000 30.3494 0.0000
# 6 0.0000 0.0000 0.0000 0.0000 0.0000 20.1505
#
#
#
# Elastic Compliance Matrix: (Units=1/GPa)
#
#
# Indices 1 2 3 4 5 6 
#
# 1 0.006191 -0.000459 -0.002763 0.000000 0.000000 0.000000
# 2 -0.000459 0.018199 -0.000290 0.000000 0.000000 0.000000
# 3 -0.002763 -0.000290 0.008886 0.000000 0.000000 0.000000
# 4 0.000000 0.000000 0.000000 -0.329839 0.000000 0.000000
# 5 0.000000 0.000000 0.000000 0.000000 0.032950 0.000000
# 6 0.000000 0.000000 0.000000 0.000000 0.000000 0.049627
#
#
# Mechanical properties :
#
#
# Convention : Reuss Voigt Hill
#
# Bulk Modulus (GPa) = 38.09295 56.67084 47.38189
# Shear Modulus (GPa) = -25.22534 29.91103 2.34285
#
# Velocity S-wave (km/s) = -3.38679 3.68796 1.03215
# Velocity P-wave (km/s) = 1.42396 6.62599 4.79226
#
# Compressibility (1/GPa) = 0.02625158
#
# Stress axis : x y z
#
# Youngs Moduli (GPa) = 161.53428 54.94883 112.53863
#
# Poissons Ratio (x) = 0.02521 0.31089
# Poissons Ratio (y) = 0.07411 0.03269
# Poissons Ratio (z) = 0.44625 0.01596
#
# Static dielectric constant tensor:
#      x y z
#    x 1.785810 0.000000 0.000000 
#    y 0.000000 1.832240 0.000000 
#    z 0.000000 0.000000 1.782140 
# 
# From -- ./inp_files/16145.got.cif
#   From: 2010.05.17/outbox.cif.g08.bks.cpg/sg54_9_cif.got.tgz:16145.got - 2010.06.03 13:09:01.
