data_PCOD9421669
_publ_section_title
;
Structure prediction by ZEFSAII (Michael W. Deem and Ramdas Pophale) SiO2 
 PCOD9421669
Probable space group: P C C A
;
_chemical_formula_sum "Si O2"
_cell_formula_units_Z 56
_cell_length_a 12.700592
_cell_length_b 14.339567
_cell_length_c 13.013078
_cell_angle_alpha 90.000000
_cell_angle_beta 90.000000
_cell_angle_gamma 90.000000
_cell_volume 2369.954647
_symmetry_space_group_name_H-M "P C C A"
_symmetry_group_IT_number 54
_symmetry_cell_setting 'orthorhombic'
loop_
_space_group_symop_operation_xyz
x,y,z
1/2-x,-y,z
1/2+x,-y,1/2-z
-x,y,1/2-z
-x,-y,-z
1/2+x,y,-z
1/2-x,y,1/2+z
x,-y,1/2+z
loop_
_atom_site_type_symbol
_atom_site_label
_atom_site_fract_x
_atom_site_fract_y
_atom_site_fract_z
Si Si1 0.381493 0.816059 0.515775
Si Si2 0.433993 0.848931 0.845287
Si Si3 0.359972 0.949333 0.329695
Si Si4 0.140066 0.389203 0.478636
Si Si5 0.695106 0.592800 0.344834
Si Si6 0.760617 0.796789 0.777382
Si Si7 0.008815 0.482686 0.861477
O O1 0.502278 0.820027 0.554767
O O2 0.360617 0.900866 0.440193
O O3 0.367090 0.719367 0.454715
O O4 0.304712 0.819652 0.616773
O O5 0.500000 0.810072 0.750000
O O6 0.317873 0.812333 0.819823
O O7 0.435764 0.961634 0.837640
O O8 0.358537 0.866878 0.244173
O O9 0.250000 0.000000 0.306439
O O10 0.246378 0.398378 0.544873
O O11 0.043599 0.412762 0.557817
O O12 0.116996 0.467902 0.393847
O O13 0.750000 0.500000 0.299896
O O14 0.711512 0.688668 0.286466
O O15 0.573674 0.568546 0.356375
O O16 0.000000 0.437513 0.750000
#
# Coordination Sequence:
#
# PCOD9421669 Si02
#       7
#     8   8   8   8   8   8   8
#     4  10  20  37  61  82 120 155 204 247 308 373
#     4   9  19  37  58  83 116 157 198 245 308 371
#     4  10  21  37  57  86 117 153 202 251 308 364
#     4   9  21  41  58  90 131 160 206 263 305 384
#     4   9  19  39  63  89 124 163 206 250 313 373
#     4   9  20  38  59  83 120 156 199 250 301 371
#     4  10  21  39  65  92 129 164 211 261 314 363
#
# _framework density 23.629145999999999
#
# number of rings (size 3 to 8) (size 9 to 14) (size 15 to 20)
#    0.000    2.571    0.000    0.429    2.000    6.857 
#   12.857   10.714    3.143    0.000    0.000    0.000 
#    0.000    0.000    0.000    0.000    0.000    0.000 
#
# Total GULP energy -312387.388821 kJ/mol
# GULP energy per Si atom -5578.346229 kJ/mol
# Density = 2.357536 g / cm^3
# Si number density = 23.629146 Si / 1000 Ang^3
#
#
#
# Elastic Constant Matrix: (Units=GPa)
#
#
# Indices 1 2 3 4 5 6 
#
# 1 46.1331 13.7903 6.8787 0.0000 0.0000 0.0000
# 2 13.7903 137.7346 19.9892 0.0000 0.0000 0.0000
# 3 6.8787 19.9892 74.8027 0.0000 0.0000 0.0000
# 4 0.0000 0.0000 0.0000 20.7404 0.0000 0.0000
# 5 0.0000 0.0000 0.0000 0.0000 32.0395 0.0000
# 6 0.0000 0.0000 0.0000 0.0000 0.0000 20.0277
#
#
#
# Elastic Compliance Matrix: (Units=1/GPa)
#
#
# Indices 1 2 3 4 5 6 
#
# 1 0.022512 -0.002032 -0.001527 0.000000 0.000000 0.000000
# 2 -0.002032 0.007737 -0.001881 0.000000 0.000000 0.000000
# 3 -0.001527 -0.001881 0.014011 0.000000 0.000000 0.000000
# 4 0.000000 0.000000 0.000000 0.048215 0.000000 0.000000
# 5 0.000000 0.000000 0.000000 0.000000 0.031211 0.000000
# 6 0.000000 0.000000 0.000000 0.000000 0.000000 0.049931
#
#
# Mechanical properties :
#
#
# Convention : Reuss Voigt Hill
#
# Bulk Modulus (GPa) = 29.95806 37.77630 33.86718
# Shear Modulus (GPa) = 25.55928 29.09567 27.32748
#
# Velocity S-wave (km/s) = 3.29247 3.51286 3.40445
# Velocity P-wave (km/s) = 5.21150 5.69873 5.46055
#
# Compressibility (1/GPa) = 0.03337999
#
# Stress axis : x y z
#
# Youngs Moduli (GPa) = 44.42153 129.25341 71.37013
#
# Poissons Ratio (x) = 0.26268 0.10899
# Poissons Ratio (y) = 0.09028 0.13422
# Poissons Ratio (z) = 0.06783 0.24307
#
# Static dielectric constant tensor:
#      x y z
#    x 1.962130 0.000000 0.000000 
#    y 0.000000 1.897410 0.000000 
#    z 0.000000 0.000000 1.970050 
# 
# From -- ./inp_files/13575.got.cif
#   From: 2010.05.17/outbox.cif.g08.bks.cpg/sg54_7_cif.got.tgz:13575.got - 2010.06.03 13:09:01.
