data_PCOD9421561
_publ_section_title
;
Structure prediction by ZEFSAII (Michael W. Deem and Ramdas Pophale) SiO2 
 PCOD9421561
Probable space group: P C C A
;
_chemical_formula_sum "Si O2"
_cell_formula_units_Z 28
_cell_length_a 12.134834
_cell_length_b 7.101375
_cell_length_c 14.209220
_cell_angle_alpha 90.000000
_cell_angle_beta 90.000000
_cell_angle_gamma 90.000000
_cell_volume 1224.465421
_symmetry_space_group_name_H-M "P C C A"
_symmetry_group_IT_number 54
_symmetry_cell_setting 'orthorhombic'
loop_
_space_group_symop_operation_xyz
x,y,z
1/2-x,-y,z
1/2+x,-y,1/2-z
-x,y,1/2-z
-x,-y,-z
1/2+x,y,-z
1/2-x,y,1/2+z
x,-y,1/2+z
loop_
_atom_site_type_symbol
_atom_site_label
_atom_site_fract_x
_atom_site_fract_y
_atom_site_fract_z
Si Si1 0.250000 0.500000 0.441981
Si Si2 0.986823 0.450132 0.144966
Si Si3 0.371123 0.171323 0.523443
Si Si4 0.028084 0.878008 0.143319
O O1 0.359433 0.520449 0.379994
O O2 0.269244 0.307967 0.500968
O O3 0.000000 0.373325 0.250000
O O4 0.040584 0.315970 0.068391
O O5 0.046433 0.653409 0.143522
O O6 0.422159 0.094861 0.425522
O O7 0.375181 0.000784 0.597167
O O8 0.000000 0.931115 0.250000
#
# Coordination Sequence:
#
# PCOD9421561 Si02
#       4
#     4   8   8   8
#     4  10  20  36  60  88 118 164 212 252 320 386
#     4  10  21  39  61  88 127 164 207 266 319 379
#     4  10  20  37  60  86 122 157 200 261 314 371
#     4   9  18  35  59  86 120 161 200 250 311 371
#
# _framework density 22.867121000000001
#
# number of rings (size 3 to 8) (size 9 to 14) (size 15 to 20)
#    0.000    2.286    0.000    4.286    0.000    1.143 
#    0.000   25.714    0.000   17.143    0.000    0.000 
#    0.000    0.000    0.000    0.000    0.000    0.000 
#
# Total GULP energy -156440.749874 kJ/mol
# GULP energy per Si atom -5587.169638 kJ/mol
# Density = 2.281507 g / cm^3
# Si number density = 22.867121 Si / 1000 Ang^3
#
#
#
# Elastic Constant Matrix: (Units=GPa)
#
#
# Indices 1 2 3 4 5 6 
#
# 1 98.9414 49.7892 45.3796 0.0000 0.0000 0.0000
# 2 49.7892 141.5798 54.4115 0.0000 0.0000 0.0000
# 3 45.3796 54.4115 189.3722 0.0000 0.0000 0.0000
# 4 0.0000 0.0000 0.0000 22.4485 0.0000 0.0000
# 5 0.0000 0.0000 0.0000 0.0000 20.8545 0.0000
# 6 0.0000 0.0000 0.0000 0.0000 0.0000 49.6305
#
#
#
# Elastic Compliance Matrix: (Units=1/GPa)
#
#
# Indices 1 2 3 4 5 6 
#
# 1 0.012929 -0.003773 -0.002014 0.000000 0.000000 0.000000
# 2 -0.003773 0.009041 -0.001694 0.000000 0.000000 0.000000
# 3 -0.002014 -0.001694 0.006250 0.000000 0.000000 0.000000
# 4 0.000000 0.000000 0.000000 0.044546 0.000000 0.000000
# 5 0.000000 0.000000 0.000000 0.000000 0.047951 0.000000
# 6 0.000000 0.000000 0.000000 0.000000 0.000000 0.020149
#
#
# Mechanical properties :
#
#
# Convention : Reuss Voigt Hill
#
# Bulk Modulus (GPa) = 75.42133 81.00599 78.21366
# Shear Modulus (GPa) = 31.20176 37.27424 34.23800
#
# Velocity S-wave (km/s) = 3.69790 4.04175 3.87364
# Velocity P-wave (km/s) = 7.16147 7.56852 7.36781
#
# Compressibility (1/GPa) = 0.01325885
#
# Stress axis : x y z
#
# Youngs Moduli (GPa) = 77.34338 110.60990 160.00253
#
# Poissons Ratio (x) = 0.41730 0.32229
# Poissons Ratio (y) = 0.29180 0.27098
# Poissons Ratio (z) = 0.15579 0.18733
#
# Static dielectric constant tensor:
#      x y z
#    x 1.903680 0.000000 0.000000 
#    y 0.000000 1.924400 0.000000 
#    z 0.000000 0.000000 1.846500 
# 
# From -- ./inp_files/12963.got.cif
#   From: 2010.05.17/outbox.cif.g08.bks.cpg/sg54_7_cif.got.tgz:12963.got - 2010.06.03 13:09:01.
