data_PCOD9421470
_publ_section_title
;
Structure prediction by ZEFSAII (Michael W. Deem and Ramdas Pophale) SiO2 
 PCOD9421470
Probable space group: P C C A
;
_chemical_formula_sum "Si O2"
_cell_formula_units_Z 60
_cell_length_a 15.554348
_cell_length_b 14.462996
_cell_length_c 13.094175
_cell_angle_alpha 90.000000
_cell_angle_beta 90.000000
_cell_angle_gamma 90.000000
_cell_volume 2945.697989
_symmetry_space_group_name_H-M "P C C A"
_symmetry_group_IT_number 54
_symmetry_cell_setting 'orthorhombic'
loop_
_space_group_symop_operation_xyz
x,y,z
1/2-x,-y,z
1/2+x,-y,1/2-z
-x,y,1/2-z
-x,-y,-z
1/2+x,y,-z
1/2-x,y,1/2+z
x,-y,1/2+z
loop_
_atom_site_type_symbol
_atom_site_label
_atom_site_fract_x
_atom_site_fract_y
_atom_site_fract_z
Si Si1 0.697093 0.908500 0.968212
Si Si2 0.075750 0.035754 0.113718
Si Si3 0.795684 0.638870 0.091360
Si Si4 0.250000 0.500000 0.586122
Si Si5 0.106757 0.101000 0.333764
Si Si6 0.844672 0.218374 0.442659
Si Si7 0.131516 0.699692 0.781058
Si Si8 0.901120 0.507793 0.242423
O O1 0.745885 0.817416 0.935277
O O2 0.750000 0.000000 0.939532
O O3 0.605938 0.935000 0.920102
O O4 0.684859 0.908073 0.089482
O O5 0.121060 0.064434 0.220419
O O6 0.103206 0.122867 0.044085
O O7 0.974748 0.043873 0.128326
O O8 0.723676 0.685156 0.163824
O O9 0.849408 0.566236 0.157997
O O10 0.755877 0.586291 0.992342
O O11 0.853918 0.717309 0.040280
O O12 0.164571 0.493463 0.658924
O O13 0.085716 0.210718 0.329832
O O14 0.863709 0.272574 0.338266
O O15 0.090628 0.599227 0.791742
O O16 0.000000 0.542417 0.250000
#
# Coordination Sequence:
#
# PCOD9421470 Si02
#       8
#     8   8   8   4   8   8   8   8
#     4  10  20  36  58  87 113 152 200 247 310 378
#     4   9  21  37  54  87 122 148 201 254 303 374
#     4  12  21  43  63  88 125 171 213 265 335 383
#     4  12  22  44  66  88 130 170 214 276 324 396
#     4  10  20  35  61  83 115 163 193 248 313 377
#     4  10  21  37  60  89 116 160 206 255 307 385
#     4  11  21  38  63  89 125 162 213 264 321 387
#     4  12  26  41  64  97 130 171 221 277 334 394
#
# _framework density 20.368686
#
# number of rings (size 3 to 8) (size 9 to 14) (size 15 to 20)
#    0.000    1.333    5.333    0.400    3.733    3.200 
#    2.400    0.000    0.000    0.000    0.000    0.000 
#    0.000    0.000    0.000    0.000    0.000    0.000 
#
# Total GULP energy -334418.195709 kJ/mol
# GULP energy per Si atom -5573.636595 kJ/mol
# Density = 2.032233 g / cm^3
# Si number density = 20.368686 Si / 1000 Ang^3
#
#
#
# Elastic Constant Matrix: (Units=GPa)
#
#
# Indices 1 2 3 4 5 6 
#
# 1 64.2644 4.3182 23.8046 0.0000 0.0000 0.0000
# 2 4.3182 63.2843 11.8674 0.0000 0.0000 0.0000
# 3 23.8046 11.8674 48.3393 0.0000 0.0000 0.0000
# 4 0.0000 0.0000 0.0000 28.5317 0.0000 0.0000
# 5 0.0000 0.0000 0.0000 0.0000 21.4632 0.0000
# 6 0.0000 0.0000 0.0000 0.0000 0.0000 23.0316
#
#
#
# Elastic Compliance Matrix: (Units=1/GPa)
#
#
# Indices 1 2 3 4 5 6 
#
# 1 0.019046 0.000481 -0.009498 0.000000 0.000000 0.000000
# 2 0.000481 0.016576 -0.004307 0.000000 0.000000 0.000000
# 3 -0.009498 -0.004307 0.026421 0.000000 0.000000 0.000000
# 4 0.000000 0.000000 0.000000 0.035049 0.000000 0.000000
# 5 0.000000 0.000000 0.000000 0.000000 0.046591 0.000000
# 6 0.000000 0.000000 0.000000 0.000000 0.000000 0.043419
#
#
# Mechanical properties :
#
#
# Convention : Reuss Voigt Hill
#
# Bulk Modulus (GPa) = 28.24958 28.42983 28.33970
# Shear Modulus (GPa) = 22.16821 23.66515 22.91668
#
# Velocity S-wave (km/s) = 3.30259 3.41227 3.35788
# Velocity P-wave (km/s) = 5.33311 5.43256 5.38306
#
# Compressibility (1/GPa) = 0.03539876
#
# Stress axis : x y z
#
# Youngs Moduli (GPa) = 52.50335 60.32652 37.84809
#
# Poissons Ratio (x) = -0.02904 0.35946
# Poissons Ratio (y) = -0.02528 0.16300
# Poissons Ratio (z) = 0.49865 0.25980
#
# Static dielectric constant tensor:
#      x y z
#    x 1.831060 0.000000 0.000000 
#    y 0.000000 1.733680 0.000000 
#    z 0.000000 0.000000 1.750360 
# 
# From -- ./inp_files/13603.got.cif
#   From: 2010.05.17/outbox.cif.g08.bks.cpg/sg54_7_cif.got.tgz:13603.got - 2010.06.03 13:09:01.
