data_PCOD9421649
_publ_section_title
;
Structure prediction by ZEFSAII (Michael W. Deem and Ramdas Pophale) SiO2 
 PCOD9421649
Probable space group: P C C A
;
_chemical_formula_sum "Si O2"
_cell_formula_units_Z 48
_cell_length_a 13.830091
_cell_length_b 5.112876
_cell_length_c 25.890229
_cell_angle_alpha 90.000000
_cell_angle_beta 90.000000
_cell_angle_gamma 90.000000
_cell_volume 1830.737973
_symmetry_space_group_name_H-M "P C C A"
_symmetry_group_IT_number 54
_symmetry_cell_setting 'orthorhombic'
loop_
_space_group_symop_operation_xyz
x,y,z
1/2-x,-y,z
1/2+x,-y,1/2-z
-x,y,1/2-z
-x,-y,-z
1/2+x,y,-z
1/2-x,y,1/2+z
x,-y,1/2+z
loop_
_atom_site_type_symbol
_atom_site_label
_atom_site_fract_x
_atom_site_fract_y
_atom_site_fract_z
Si Si1 0.401400 0.660481 0.593716
Si Si2 0.616432 0.957635 0.004891
Si Si3 0.356299 0.133972 0.655063
Si Si4 0.615747 0.546569 0.563824
Si Si5 0.135053 0.058244 0.273374
Si Si6 0.858293 0.554758 0.180276
O O1 0.347750 0.813305 0.547016
O O2 0.360270 0.408424 0.624135
O O3 0.499646 0.558506 0.567854
O O4 0.422497 0.903767 0.631637
O O5 0.638425 0.750148 0.049767
O O6 0.650760 0.245100 0.021273
O O7 0.500000 0.000000 0.000000
O O8 0.250000 0.000000 0.651326
O O9 0.376040 0.163649 0.715751
O O10 0.649451 0.628433 0.620633
O O11 0.092555 0.775978 0.285975
O O12 0.250000 0.000000 0.282123
O O13 0.094363 0.272592 0.312778
O O14 0.750000 0.500000 0.200457
#
# Coordination Sequence:
#
# PCOD9421649 Si02
#       6
#     8   8   8   8   8   8
#     4  11  21  37  58  84 112 149 192 234 280 337
#     4  10  20  37  59  81 113 153 190 225 281 354
#     4  11  22  38  59  83 113 151 192 234 280 336
#     4  11  21  37  60  85 112 149 191 235 282 339
#     4   9  19  36  57  79 111 153 189 222 280 352
#     4  10  20  37  59  84 112 147 188 232 281 338
#
# _framework density 26.218935999999999
#
# number of rings (size 3 to 8) (size 9 to 14) (size 15 to 20)
#    0.000    1.667    0.000    7.500    0.000    2.667 
#    0.000    8.333    0.000    1.000    0.000    0.000 
#    0.000    0.000    0.000    0.000    0.000    0.000 
#
# Total GULP energy -268430.214981 kJ/mol
# GULP energy per Si atom -5592.296145 kJ/mol
# Density = 2.615926 g / cm^3
# Si number density = 26.218936 Si / 1000 Ang^3
#
#
#
# Elastic Constant Matrix: (Units=GPa)
#
#
# Indices 1 2 3 4 5 6 
#
# 1 75.2221 15.2447 0.8670 0.0000 0.0000 0.0000
# 2 15.2447 207.8734 66.6186 0.0000 0.0000 0.0000
# 3 0.8670 66.6186 120.1407 0.0000 0.0000 0.0000
# 4 0.0000 0.0000 0.0000 53.6667 0.0000 0.0000
# 5 0.0000 0.0000 0.0000 0.0000 28.1344 0.0000
# 6 0.0000 0.0000 0.0000 0.0000 0.0000 -0.3717
#
#
#
# Elastic Compliance Matrix: (Units=1/GPa)
#
#
# Indices 1 2 3 4 5 6 
#
# 1 0.013524 -0.001168 0.000550 0.000000 0.000000 0.000000
# 2 -0.001168 0.005951 -0.003292 0.000000 0.000000 0.000000
# 3 0.000550 -0.003292 0.010145 0.000000 0.000000 0.000000
# 4 0.000000 0.000000 0.000000 0.018634 0.000000 0.000000
# 5 0.000000 0.000000 0.000000 0.000000 0.035544 0.000000
# 6 0.000000 0.000000 0.000000 0.000000 0.000000 -2.689986
#
#
# Mechanical properties :
#
#
# Convention : Reuss Voigt Hill
#
# Bulk Modulus (GPa) = 45.86893 63.18854 54.52874
# Shear Modulus (GPa) = -1.92968 37.65293 17.86162
#
# Velocity S-wave (km/s) = -0.85883 3.79370 2.61291
# Velocity P-wave (km/s) = 4.06806 6.58348 5.47226
#
# Compressibility (1/GPa) = 0.02180125
#
# Stress axis : x y z
#
# Youngs Moduli (GPa) = 73.94067 168.03503 98.57307
#
# Poissons Ratio (x) = 0.19629 -0.05423
# Poissons Ratio (y) = 0.08637 0.32445
# Poissons Ratio (z) = -0.04068 0.55309
#
# Static dielectric constant tensor:
#      x y z
#    x 2.207130 0.000000 0.000000 
#    y 0.000000 2.053130 0.000000 
#    z 0.000000 0.000000 2.019320 
# 
# From -- ./inp_files/24710.got.cif
#   From: 2010.05.17/outbox.cif.g08.bks.cpg/sg54_13_cif.got.tgz:24710.got - 2010.06.03 13:09:01.
