data_PCOD9421933
_publ_section_title
;
Structure prediction by ZEFSAII (Michael W. Deem and Ramdas Pophale) SiO2 
 PCOD9421933
Probable space group: P C C A
;
_chemical_formula_sum "Si O2"
_cell_formula_units_Z 60
_cell_length_a 18.559103
_cell_length_b 25.227247
_cell_length_c 5.411027
_cell_angle_alpha 90.000000
_cell_angle_beta 90.000000
_cell_angle_gamma 90.000000
_cell_volume 2533.416195
_symmetry_space_group_name_H-M "P C C A"
_symmetry_group_IT_number 54
_symmetry_cell_setting 'orthorhombic'
loop_
_space_group_symop_operation_xyz
x,y,z
1/2-x,-y,z
1/2+x,-y,1/2-z
-x,y,1/2-z
-x,-y,-z
1/2+x,y,-z
1/2-x,y,1/2+z
x,-y,1/2+z
loop_
_atom_site_type_symbol
_atom_site_label
_atom_site_fract_x
_atom_site_fract_y
_atom_site_fract_z
Si Si1 0.577669 0.741879 0.886495
Si Si2 0.087969 0.029105 0.732723
Si Si3 0.412358 0.851693 0.795455
Si Si4 0.205523 0.818126 0.630913
Si Si5 0.082646 0.481569 0.935567
Si Si6 0.591810 0.361907 0.104414
Si Si7 0.208739 0.309939 0.168065
Si Si8 0.000000 0.687578 0.750000
O O1 0.500000 0.746291 0.750000
O O2 0.613314 0.798124 0.844423
O O3 0.611630 0.689363 0.769046
O O4 0.561573 0.728073 0.167593
O O5 0.110648 0.090292 0.709217
O O6 0.000000 0.028064 0.750000
O O7 0.111614 0.996251 0.492807
O O8 0.500000 0.852430 0.750000
O O9 0.374088 0.842465 0.063959
O O10 0.245902 0.833082 0.887174
O O11 0.198369 0.753917 0.643938
O O12 0.114241 0.483101 0.213435
O O13 0.090468 0.422416 0.825071
O O14 0.000000 0.500000 0.000000
O O15 0.643695 0.350856 0.873261
O O16 0.514302 0.349105 0.982459
O O17 0.259257 0.321455 0.934223
#
# Coordination Sequence:
#
# PCOD9421933 Si02
#       8
#     8   8   8   8   8   8   8   4
#     4   9  20  35  51  93 125 162 191 256 332 373
#     4   9  19  37  58  87 123 171 218 270 326 385
#     4  10  20  40  63  96 133 165 226 278 332 396
#     4  10  22  41  62  91 135 175 214 260 332 406
#     4  10  23  37  57  88 119 158 203 241 307 381
#     4  11  22  38  64  84 133 160 209 260 317 387
#     4  10  23  40  62  89 120 169 216 252 310 390
#     4  10  22  32  58  92 130 162 188 252 342 388
#
# _framework density 23.683436
#
# number of rings (size 3 to 8) (size 9 to 14) (size 15 to 20)
#    0.000    2.133    1.333    0.800    9.333    2.133 
#   10.800    0.000    0.000    4.800    0.000    0.000 
#    0.000    0.000    0.000    0.000    0.000    0.000 
#
# Total GULP energy -334227.679930 kJ/mol
# GULP energy per Si atom -5570.461332 kJ/mol
# Density = 2.362953 g / cm^3
# Si number density = 23.683436 Si / 1000 Ang^3
#
#
#
# Elastic Constant Matrix: (Units=GPa)
#
#
# Indices 1 2 3 4 5 6 
#
# 1 60.3899 5.7534 23.4203 0.0000 0.0000 0.0000
# 2 5.7534 165.8828 44.9076 0.0000 0.0000 0.0000
# 3 23.4203 44.9076 137.0677 0.0000 0.0000 0.0000
# 4 0.0000 0.0000 0.0000 16.2647 0.0000 0.0000
# 5 0.0000 0.0000 0.0000 0.0000 40.0149 0.0000
# 6 0.0000 0.0000 0.0000 0.0000 0.0000 8.2011
#
#
#
# Elastic Compliance Matrix: (Units=1/GPa)
#
#
# Indices 1 2 3 4 5 6 
#
# 1 0.017742 0.000225 -0.003105 0.000000 0.000000 0.000000
# 2 0.000225 0.006618 -0.002207 0.000000 0.000000 0.000000
# 3 -0.003105 -0.002207 0.008549 0.000000 0.000000 0.000000
# 4 0.000000 0.000000 0.000000 0.061483 0.000000 0.000000
# 5 0.000000 0.000000 0.000000 0.000000 0.024991 0.000000
# 6 0.000000 0.000000 0.000000 0.000000 0.000000 0.121935
#
#
# Mechanical properties :
#
#
# Convention : Reuss Voigt Hill
#
# Bulk Modulus (GPa) = 43.98386 56.83366 50.40876
# Shear Modulus (GPa) = 19.29983 32.18007 25.73995
#
# Velocity S-wave (km/s) = 2.85776 3.69013 3.30029
# Velocity P-wave (km/s) = 5.43148 6.49657 5.98775
#
# Compressibility (1/GPa) = 0.02273561
#
# Stress axis : x y z
#
# Youngs Moduli (GPa) = 56.36373 151.10428 116.96922
#
# Poissons Ratio (x) = -0.03405 0.36323
# Poissons Ratio (y) = -0.01270 0.25812
# Poissons Ratio (z) = 0.17503 0.33345
#
# Static dielectric constant tensor:
#      x y z
#    x 2.224630 0.000000 0.000000 
#    y 0.000000 1.865330 0.000000 
#    z 0.000000 0.000000 2.024290 
# 
# From -- ./inp_files/1447.got.cif
#   From: 2010.05.17/outbox.cif.g08.bks.cpg/sg54_1_cif.got.tgz:1447.got - 2010.06.03 13:09:01.
