data_PCOD9421807
_publ_section_title
;
Structure prediction by ZEFSAII (Michael W. Deem and Ramdas Pophale) SiO2 
 PCOD9421807
Probable space group: P C C A
;
_chemical_formula_sum "Si O2"
_cell_formula_units_Z 56
_cell_length_a 19.535860
_cell_length_b 9.050474
_cell_length_c 14.771565
_cell_angle_alpha 90.000000
_cell_angle_beta 90.000000
_cell_angle_gamma 90.000000
_cell_volume 2611.742578
_symmetry_space_group_name_H-M "P C C A"
_symmetry_group_IT_number 54
_symmetry_cell_setting 'orthorhombic'
loop_
_space_group_symop_operation_xyz
x,y,z
1/2-x,-y,z
1/2+x,-y,1/2-z
-x,y,1/2-z
-x,-y,-z
1/2+x,y,-z
1/2-x,y,1/2+z
x,-y,1/2+z
loop_
_atom_site_type_symbol
_atom_site_label
_atom_site_fract_x
_atom_site_fract_y
_atom_site_fract_z
Si Si1 0.019105 0.587546 0.592358
Si Si2 0.824771 0.073577 0.846439
Si Si3 0.640655 0.198925 0.175651
Si Si4 0.598670 0.471166 0.734524
Si Si5 0.382245 0.165789 0.526014
Si Si6 0.236407 0.331413 0.551864
Si Si7 0.782059 0.336044 0.148622
O O1 0.073975 0.515696 0.662302
O O2 0.054297 0.741318 0.564235
O O3 0.000000 0.500000 0.500000
O O4 0.955087 0.592374 0.660832
O O5 0.868665 0.084125 0.755879
O O6 0.806337 0.239689 0.876363
O O7 0.750000 0.000000 0.835235
O O8 0.865879 0.984375 0.922021
O O9 0.614588 0.363602 0.199146
O O10 0.723093 0.218782 0.167281
O O11 0.610212 0.147391 0.081215
O O12 0.660831 0.355116 0.724490
O O13 0.311682 0.260733 0.537162
O O14 0.250000 0.500000 0.576449
O O15 0.196484 0.317024 0.455852
O O16 0.750000 0.500000 0.146733
#
# Coordination Sequence:
#
# PCOD9421807 Si02
#       7
#     8   8   8   8   8   8   8
#     4  11  23  40  66  92 130 175 225 288 333 392
#     4  10  23  36  58  99 140 184 210 267 350 413
#     4  10  20  38  65  94 134 172 216 275 346 410
#     4  10  22  38  65 103 119 169 232 283 336 399
#     4  10  22  42  60  95 137 173 223 273 335 410
#     4   9  19  34  61  98 133 173 217 272 337 399
#     4   8  17  33  58  96 131 154 212 287 333 389
#
# _framework density 21.441623
#
# number of rings (size 3 to 8) (size 9 to 14) (size 15 to 20)
#    0.000    2.286    1.429    0.857    6.000    3.429 
#    0.000    0.000    0.000    6.857    0.000    0.000 
#    0.000    0.000    0.000    0.000    0.000    0.000 
#
# Total GULP energy -312506.521555 kJ/mol
# GULP energy per Si atom -5580.473599 kJ/mol
# Density = 2.139282 g / cm^3
# Si number density = 21.441623 Si / 1000 Ang^3
#
#
#
# Elastic Constant Matrix: (Units=GPa)
#
#
# Indices 1 2 3 4 5 6 
#
# 1 40.5109 9.1396 35.3621 0.0000 0.0000 0.0000
# 2 9.1396 76.6000 53.6160 0.0000 0.0000 0.0000
# 3 35.3621 53.6160 166.1760 0.0000 0.0000 0.0000
# 4 0.0000 0.0000 0.0000 20.7498 0.0000 0.0000
# 5 0.0000 0.0000 0.0000 0.0000 31.6843 0.0000
# 6 0.0000 0.0000 0.0000 0.0000 0.0000 12.9133
#
#
#
# Elastic Compliance Matrix: (Units=1/GPa)
#
#
# Indices 1 2 3 4 5 6 
#
# 1 0.030396 0.001163 -0.006844 0.000000 0.000000 0.000000
# 2 0.001163 0.016908 -0.005703 0.000000 0.000000 0.000000
# 3 -0.006844 -0.005703 0.009314 0.000000 0.000000 0.000000
# 4 0.000000 0.000000 0.000000 0.048193 0.000000 0.000000
# 5 0.000000 0.000000 0.000000 0.000000 0.031561 0.000000
# 6 0.000000 0.000000 0.000000 0.000000 0.000000 0.077440
#
#
# Mechanical properties :
#
#
# Convention : Reuss Voigt Hill
#
# Bulk Modulus (GPa) = 29.54052 53.28025 41.41039
# Shear Modulus (GPa) = 20.17254 25.41411 22.79332
#
# Velocity S-wave (km/s) = 3.07059 3.44651 3.26397
# Velocity P-wave (km/s) = 5.13600 6.38285 5.79307
#
# Compressibility (1/GPa) = 0.03385180
#
# Stress axis : x y z
#
# Youngs Moduli (GPa) = 32.89905 59.14491 107.36529
#
# Poissons Ratio (x) = -0.06881 0.73477
# Poissons Ratio (y) = -0.03828 0.61228
# Poissons Ratio (z) = 0.22515 0.33729
#
# Static dielectric constant tensor:
#      x y z
#    x 1.820980 0.000000 0.000000 
#    y 0.000000 1.756080 0.000000 
#    z 0.000000 0.000000 1.854350 
# 
# From -- ./inp_files/14663.got.cif
#   From: 2010.05.17/outbox.cif.g08.bks.cpg/sg54_8_cif.got.tgz:14663.got - 2010.06.03 13:09:01.
