data_PCOD9421005
_publ_section_title
;
Structure prediction by ZEFSAII (Michael W. Deem and Ramdas Pophale) SiO2 
 PCOD9421005
Probable space group: P C C A
;
_chemical_formula_sum "Si O2"
_cell_formula_units_Z 60
_cell_length_a 5.087637
_cell_length_b 19.983458
_cell_length_c 28.708991
_cell_angle_alpha 90.000000
_cell_angle_beta 90.000000
_cell_angle_gamma 90.000000
_cell_volume 2918.802357
_symmetry_space_group_name_H-M "P C C A"
_symmetry_group_IT_number 54
_symmetry_cell_setting 'orthorhombic'
loop_
_space_group_symop_operation_xyz
x,y,z
1/2-x,-y,z
1/2+x,-y,1/2-z
-x,y,1/2-z
-x,-y,-z
1/2+x,y,-z
1/2-x,y,1/2+z
x,-y,1/2+z
loop_
_atom_site_type_symbol
_atom_site_label
_atom_site_fract_x
_atom_site_fract_y
_atom_site_fract_z
Si Si1 0.500000 0.046411 0.750000
Si Si2 0.628158 0.724249 0.824924
Si Si3 0.898030 0.071466 0.148622
Si Si4 0.380542 0.350483 0.796337
Si Si5 0.902682 0.143897 0.878606
Si Si6 0.131243 0.573832 0.895259
Si Si7 0.259365 0.778007 0.028387
Si Si8 0.130569 0.644960 0.077053
O O1 0.413315 0.085678 0.795942
O O2 0.750000 0.000000 0.763593
O O3 0.398127 0.687046 0.796785
O O4 0.605335 0.801936 0.836762
O O5 0.629725 0.686375 0.874623
O O6 0.908040 0.708034 0.803622
O O7 0.701429 0.119703 0.121180
O O8 0.192734 0.084700 0.130653
O O9 0.750000 0.000000 0.145128
O O10 0.500000 0.385589 0.750000
O O11 0.378233 0.398098 0.841960
O O12 0.820654 0.180600 0.925985
O O13 0.250000 0.500000 0.894415
O O14 0.336735 0.617266 0.925698
O O15 0.843429 0.586162 0.916473
O O16 0.219562 0.699456 0.039765
O O17 0.553542 0.793227 0.012588
#
# Coordination Sequence:
#
# PCOD9421005 Si02
#       8
#     4   8   8   8   8   8   8   8
#     4  10  20  38  58  82 116 158 206 242 266 320
#     4   9  19  35  52  74 107 146 186 235 288 336
#     4  11  22  39  62  86 121 164 198 239 287 341
#     4  10  19  34  50  75 112 149 186 242 290 336
#     4  11  22  39  60  89 118 148 201 243 292 365
#     4  10  19  34  56  79 108 154 198 232 284 349
#     4  11  22  39  66  92 115 148 191 249 303 358
#     4   9  19  35  57  80 109 143 188 233 285 350
#
# _framework density 20.556374999999999
#
# number of rings (size 3 to 8) (size 9 to 14) (size 15 to 20)
#    0.000    1.867    0.000    5.200    0.000    4.267 
#    7.200    4.000    0.000   16.000    0.000    0.000 
#    0.000    0.000    0.000    0.000    0.000    0.000 
#
# Total GULP energy -334637.148256 kJ/mol
# GULP energy per Si atom -5577.285804 kJ/mol
# Density = 2.050959 g / cm^3
# Si number density = 20.556375 Si / 1000 Ang^3
#
#
#
# Elastic Constant Matrix: (Units=GPa)
#
#
# Indices 1 2 3 4 5 6 
#
# 1 97.8570 6.3211 7.2971 0.0000 0.0000 0.0000
# 2 6.3211 51.5520 14.1117 0.0000 0.0000 0.0000
# 3 7.2971 14.1117 52.7217 0.0000 0.0000 0.0000
# 4 0.0000 0.0000 0.0000 14.8268 0.0000 0.0000
# 5 0.0000 0.0000 0.0000 0.0000 31.9428 0.0000
# 6 0.0000 0.0000 0.0000 0.0000 0.0000 -1.1913
#
#
#
# Elastic Compliance Matrix: (Units=1/GPa)
#
#
# Indices 1 2 3 4 5 6 
#
# 1 0.010368 -0.000948 -0.001181 0.000000 0.000000 0.000000
# 2 -0.000948 0.021018 -0.005495 0.000000 0.000000 0.000000
# 3 -0.001181 -0.005495 0.020602 0.000000 0.000000 0.000000
# 4 0.000000 0.000000 0.000000 0.067445 0.000000 0.000000
# 5 0.000000 0.000000 0.000000 0.000000 0.031306 0.000000
# 6 0.000000 0.000000 0.000000 0.000000 0.000000 -0.839403
#
#
# Mechanical properties :
#
#
# Convention : Reuss Voigt Hill
#
# Bulk Modulus (GPa) = 27.21792 28.62116 27.91954
# Shear Modulus (GPa) = -7.56237 20.74237 6.59000
#
# Velocity S-wave (km/s) = -1.92011 3.18000 1.79242
# Velocity P-wave (km/s) = 2.89026 5.23800 4.23026
#
# Compressibility (1/GPa) = 0.03674049
#
# Stress axis : x y z
#
# Youngs Moduli (GPa) = 96.44767 47.57781 48.53956
#
# Poissons Ratio (x) = 0.04510 0.05734
# Poissons Ratio (y) = 0.09143 0.26671
# Poissons Ratio (z) = 0.11394 0.26142
#
# Static dielectric constant tensor:
#      x y z
#    x 1.711850 0.000000 0.000000 
#    y 0.000000 1.733140 0.000000 
#    z 0.000000 0.000000 1.776650 
# 
# From -- ./inp_files/25504.got.cif
#   From: 2010.05.17/outbox.cif.g08.bks.cpg/sg54_13_cif.got.tgz:25504.got - 2010.06.03 13:09:01.
