data_PCOD9421046
_publ_section_title
;
Structure prediction by ZEFSAII (Michael W. Deem and Ramdas Pophale) SiO2 
 PCOD9421046
Probable space group: P C C A
;
_chemical_formula_sum "Si O2"
_cell_formula_units_Z 32
_cell_length_a 5.249496
_cell_length_b 8.105959
_cell_length_c 35.117362
_cell_angle_alpha 90.000000
_cell_angle_beta 90.000000
_cell_angle_gamma 90.000000
_cell_volume 1494.320988
_symmetry_space_group_name_H-M "P C C A"
_symmetry_group_IT_number 54
_symmetry_cell_setting 'orthorhombic'
loop_
_space_group_symop_operation_xyz
x,y,z
1/2-x,-y,z
1/2+x,-y,1/2-z
-x,y,1/2-z
-x,-y,-z
1/2+x,y,-z
1/2-x,y,1/2+z
x,-y,1/2+z
loop_
_atom_site_type_symbol
_atom_site_label
_atom_site_fract_x
_atom_site_fract_y
_atom_site_fract_z
Si Si1 0.553762 0.310781 0.985422
Si Si2 0.329669 0.684612 0.102414
Si Si3 0.171382 0.190666 0.859877
Si Si4 0.752673 0.798425 0.227297
O O1 0.666819 0.300910 0.943244
O O2 0.500000 0.500000 0.000000
O O3 0.272439 0.235108 0.987951
O O4 0.250000 0.500000 0.112179
O O5 0.617256 0.717220 0.115239
O O6 0.113738 0.791623 0.123685
O O7 0.211576 0.251278 0.816534
O O8 0.250000 0.000000 0.860522
O O9 0.500000 0.745358 0.250000
O O10 0.000000 0.742768 0.250000
O O11 0.750000 0.000000 0.227370
#
# Coordination Sequence:
#
# PCOD9421046 Si02
#       4
#     8   8   8   8
#     4  10  19  34  59  89 109 147 207 266 276 332
#     4  12  23  38  65  93 120 160 208 255 298 364
#     4  11  24  40  61  93 131 158 193 257 319 360
#     4   9  17  33  59  85 111 156 211 245 277 350
#
# _framework density 21.41441
#
# number of rings (size 3 to 8) (size 9 to 14) (size 15 to 20)
#    0.000    1.500    2.500    4.500    3.500    4.000 
#    0.000    0.000    0.000   30.000    0.000    0.000 
#    0.000    0.000    0.000    0.000    0.000    0.000 
#
# Total GULP energy -178603.290492 kJ/mol
# GULP energy per Si atom -5581.352828 kJ/mol
# Density = 2.136567 g / cm^3
# Si number density = 21.414410 Si / 1000 Ang^3
#
#
#
# Elastic Constant Matrix: (Units=GPa)
#
#
# Indices 1 2 3 4 5 6 
#
# 1 147.6106 -7.9928 35.1832 0.0000 0.0000 0.0000
# 2 -7.9928 17.1861 2.3648 0.0000 0.0000 0.0000
# 3 35.1832 2.3648 131.1522 0.0000 0.0000 0.0000
# 4 0.0000 0.0000 0.0000 23.4507 0.0000 0.0000
# 5 0.0000 0.0000 0.0000 0.0000 35.4115 0.0000
# 6 0.0000 0.0000 0.0000 0.0000 0.0000 25.4480
#
#
#
# Elastic Compliance Matrix: (Units=1/GPa)
#
#
# Indices 1 2 3 4 5 6 
#
# 1 0.007472 0.003760 -0.002072 0.000000 0.000000 0.000000
# 2 0.003760 0.060224 -0.002095 0.000000 0.000000 0.000000
# 3 -0.002072 -0.002095 0.008218 0.000000 0.000000 0.000000
# 4 0.000000 0.000000 0.000000 0.042643 0.000000 0.000000
# 5 0.000000 0.000000 0.000000 0.000000 0.028239 0.000000
# 6 0.000000 0.000000 0.000000 0.000000 0.000000 0.039296
#
#
# Mechanical properties :
#
#
# Convention : Reuss Voigt Hill
#
# Bulk Modulus (GPa) = 13.31543 39.45106 26.38325
# Shear Modulus (GPa) = 23.59167 34.62160 29.10664
#
# Velocity S-wave (km/s) = 3.32275 4.02524 3.69074
# Velocity P-wave (km/s) = 4.57737 6.32977 5.52351
#
# Compressibility (1/GPa) = 0.07510082
#
# Stress axis : x y z
#
# Youngs Moduli (GPa) = 133.83078 16.60476 121.67796
#
# Poissons Ratio (x) = -0.06244 0.25215
# Poissons Ratio (y) = -0.50323 0.25487
# Poissons Ratio (z) = 0.27734 0.03478
#
# Static dielectric constant tensor:
#      x y z
#    x 1.887940 0.000000 0.000000 
#    y 0.000000 1.851950 0.000000 
#    z 0.000000 0.000000 1.817740 
# 
# From -- ./inp_files/26944.got.cif
#   From: 2010.05.17/outbox.cif.g08.bks.cpg/sg54_14_cif.got.tgz:26944.got - 2010.06.03 13:09:01.
