data_PCOD9421241
_publ_section_title
;
Structure prediction by ZEFSAII (Michael W. Deem and Ramdas Pophale) SiO2 
 PCOD9421241
Probable space group: P C C A
;
_chemical_formula_sum "Si O2"
_cell_formula_units_Z 56
_cell_length_a 17.925974
_cell_length_b 10.145470
_cell_length_c 13.726773
_cell_angle_alpha 90.000000
_cell_angle_beta 90.000000
_cell_angle_gamma 90.000000
_cell_volume 2496.452947
_symmetry_space_group_name_H-M "P C C A"
_symmetry_group_IT_number 54
_symmetry_cell_setting 'orthorhombic'
loop_
_space_group_symop_operation_xyz
x,y,z
1/2-x,-y,z
1/2+x,-y,1/2-z
-x,y,1/2-z
-x,-y,-z
1/2+x,y,-z
1/2-x,y,1/2+z
x,-y,1/2+z
loop_
_atom_site_type_symbol
_atom_site_label
_atom_site_fract_x
_atom_site_fract_y
_atom_site_fract_z
Si Si1 0.384635 0.206075 0.711412
Si Si2 0.929516 0.204407 0.504041
Si Si3 0.396042 0.510223 0.757785
Si Si4 0.576602 0.937586 0.696809
Si Si5 0.205054 0.619303 0.419698
Si Si6 0.764845 0.848628 0.208393
Si Si7 0.978071 0.595049 0.412096
O O1 0.422304 0.174533 0.608316
O O2 0.403318 0.353015 0.745734
O O3 0.294619 0.190057 0.709054
O O4 0.411422 0.090965 0.782457
O O5 0.918595 0.089271 0.581709
O O6 0.864724 0.315824 0.523068
O O7 0.007961 0.264830 0.539317
O O8 0.324919 0.552064 0.819780
O O9 0.403718 0.568149 0.648809
O O10 0.460125 0.566065 0.829305
O O11 0.500000 0.895510 0.750000
O O12 0.647515 0.852509 0.736223
O O13 0.250000 0.500000 0.469987
O O14 0.249021 0.746972 0.379957
O O15 0.750000 0.000000 0.179436
O O16 0.000000 0.500000 0.500000
#
# Coordination Sequence:
#
# PCOD9421241 Si02
#       7
#     8   8   8   8   8   8   8
#     4  11  21  42  64  92 133 174 222 278 339 406
#     4  10  23  39  63  95 135 168 223 280 326 410
#     4  10  21  34  63  93 125 172 213 271 340 393
#     4  10  24  41  68  90 128 176 223 278 336 400
#     4  10  19  38  63  93 126 169 219 276 330 394
#     4   9  20  40  62  89 128 172 215 272 338 398
#     4  10  20  36  59  92 131 165 209 273 333 387
#
# _framework density 22.431826000000001
#
# number of rings (size 3 to 8) (size 9 to 14) (size 15 to 20)
#    0.000    2.000    2.857    0.000    8.000    0.571 
#    2.571   17.143    0.000    0.000    0.000    0.000 
#    0.000    0.000    0.000    0.000    0.000    0.000 
#
# Total GULP energy -312237.979873 kJ/mol
# GULP energy per Si atom -5575.678212 kJ/mol
# Density = 2.238077 g / cm^3
# Si number density = 22.431826 Si / 1000 Ang^3
#
#
#
# Elastic Constant Matrix: (Units=GPa)
#
#
# Indices 1 2 3 4 5 6 
#
# 1 63.5374 -4.6231 -14.4295 0.0000 0.0000 0.0000
# 2 -4.6231 96.4957 13.2964 0.0000 0.0000 0.0000
# 3 -14.4295 13.2964 55.3536 0.0000 0.0000 0.0000
# 4 0.0000 0.0000 0.0000 36.3515 0.0000 0.0000
# 5 0.0000 0.0000 0.0000 0.0000 19.0485 0.0000
# 6 0.0000 0.0000 0.0000 0.0000 0.0000 -33.6716
#
#
#
# Elastic Compliance Matrix: (Units=1/GPa)
#
#
# Indices 1 2 3 4 5 6 
#
# 1 0.016733 0.000208 0.004312 0.000000 0.000000 0.000000
# 2 0.000208 0.010720 -0.002521 0.000000 0.000000 0.000000
# 3 0.004312 -0.002521 0.019795 0.000000 0.000000 0.000000
# 4 0.000000 0.000000 0.000000 0.027509 0.000000 0.000000
# 5 0.000000 0.000000 0.000000 0.000000 0.052498 0.000000
# 6 0.000000 0.000000 0.000000 0.000000 0.000000 -0.029699
#
#
# Mechanical properties :
#
#
# Convention : Reuss Voigt Hill
#
# Bulk Modulus (GPa) = 19.51367 22.65271 21.08319
# Shear Modulus (GPa) = 45.19075 19.08853 32.13964
#
# Velocity S-wave (km/s) = 4.49328 2.92028 3.78930
# Velocity P-wave (km/s) = 5.96971 4.63585 5.34455
#
# Compressibility (1/GPa) = 0.05124613
#
# Stress axis : x y z
#
# Youngs Moduli (GPa) = 59.76154 93.27939 50.51698
#
# Poissons Ratio (x) = -0.01936 -0.21784
# Poissons Ratio (y) = -0.01240 0.12736
# Poissons Ratio (z) = -0.25770 0.23516
#
# Static dielectric constant tensor:
#      x y z
#    x 1.985730 0.000000 0.000000 
#    y 0.000000 1.904750 0.000000 
#    z 0.000000 0.000000 1.796980 
# 
# From -- ./inp_files/14697.got.cif
#   From: 2010.05.17/outbox.cif.g08.bks.cpg/sg54_8_cif.got.tgz:14697.got - 2010.06.03 13:09:01.
