data_PCOD9421867
_publ_section_title
;
Structure prediction by ZEFSAII (Michael W. Deem and Ramdas Pophale) SiO2 
 PCOD9421867
Probable space group: P C C A
;
_chemical_formula_sum "Si O2"
_cell_formula_units_Z 48
_cell_length_a 9.298763
_cell_length_b 15.662720
_cell_length_c 16.125359
_cell_angle_alpha 90.000000
_cell_angle_beta 90.000000
_cell_angle_gamma 90.000000
_cell_volume 2348.560516
_symmetry_space_group_name_H-M "P C C A"
_symmetry_group_IT_number 54
_symmetry_cell_setting 'orthorhombic'
loop_
_space_group_symop_operation_xyz
x,y,z
1/2-x,-y,z
1/2+x,-y,1/2-z
-x,y,1/2-z
-x,-y,-z
1/2+x,y,-z
1/2-x,y,1/2+z
x,-y,1/2+z
loop_
_atom_site_type_symbol
_atom_site_label
_atom_site_fract_x
_atom_site_fract_y
_atom_site_fract_z
Si Si1 0.214699 0.601910 0.378030
Si Si2 0.000000 0.458643 0.750000
Si Si3 0.250000 0.500000 0.645981
Si Si4 0.462113 0.259186 0.845085
Si Si5 0.226714 0.333974 0.055129
Si Si6 0.110367 0.830216 0.012456
Si Si7 0.866384 0.058791 0.533890
O O1 0.250000 0.500000 0.388052
O O2 0.091844 0.600344 0.309955
O O3 0.342852 0.665100 0.349297
O O4 0.165848 0.638935 0.465957
O O5 0.887300 0.517527 0.797806
O O6 0.209207 0.419567 0.592272
O O7 0.500000 0.233664 0.750000
O O8 0.604195 0.298352 0.886027
O O9 0.416868 0.184949 0.912589
O O10 0.343244 0.261416 0.043636
O O11 0.967506 0.862391 0.059807
O O12 0.247295 0.894046 0.024533
O O13 0.750000 0.000000 0.583480
O O14 0.000000 0.000000 0.500000
#
# Coordination Sequence:
#
# PCOD9421867 Si02
#       7
#     8   4   4   8   8   8   8
#     4  11  24  40  58  85 117 172 230 278 328 383
#     4  12  26  40  58  84 124 162 236 284 330 384
#     4  12  26  40  60  86 126 182 226 278 322 370
#     4  11  24  41  60  90 134 173 210 277 335 384
#     4  11  24  39  64  88 130 170 229 271 321 379
#     4  10  20  39  63 102 125 166 212 265 317 392
#     4   9  18  36  68 103 129 157 205 262 317 391
#
# _framework density 20.438051000000002
#
# number of rings (size 3 to 8) (size 9 to 14) (size 15 to 20)
#    0.000    1.333    3.333    2.000    7.000    1.333 
#    0.000    0.000    0.000    3.000    0.000    0.000 
#    0.000    0.000    0.000    0.000    0.000    0.000 
#
# Total GULP energy -267223.955698 kJ/mol
# GULP energy per Si atom -5567.165744 kJ/mol
# Density = 2.039153 g / cm^3
# Si number density = 20.438051 Si / 1000 Ang^3
#
#
#
# Elastic Constant Matrix: (Units=GPa)
#
#
# Indices 1 2 3 4 5 6 
#
# 1 126.1165 42.7452 34.3106 0.0000 0.0000 0.0000
# 2 42.7452 94.2295 24.9099 0.0000 0.0000 0.0000
# 3 34.3106 24.9099 97.4640 0.0000 0.0000 0.0000
# 4 0.0000 0.0000 0.0000 -7.5083 0.0000 0.0000
# 5 0.0000 0.0000 0.0000 0.0000 24.1396 0.0000
# 6 0.0000 0.0000 0.0000 0.0000 0.0000 39.9283
#
#
#
# Elastic Compliance Matrix: (Units=1/GPa)
#
#
# Indices 1 2 3 4 5 6 
#
# 1 0.009911 -0.003832 -0.002509 0.000000 0.000000 0.000000
# 2 -0.003832 0.012863 -0.001938 0.000000 0.000000 0.000000
# 3 -0.002509 -0.001938 0.011639 0.000000 0.000000 0.000000
# 4 0.000000 0.000000 0.000000 -0.133185 0.000000 0.000000
# 5 0.000000 0.000000 0.000000 0.000000 0.041426 0.000000
# 6 0.000000 0.000000 0.000000 0.000000 0.000000 0.025045
#
#
# Mechanical properties :
#
#
# Convention : Reuss Voigt Hill
#
# Bulk Modulus (GPa) = 56.01461 57.97126 56.99294
# Shear Modulus (GPa) = -510.74624 25.70151 -242.52236
#
# Velocity S-wave (km/s) = -15.82537 3.55002 -10.90503
# Velocity P-wave (km/s) = 17.50590 6.72528 11.42863
#
# Compressibility (1/GPa) = 0.01785248
#
# Stress axis : x y z
#
# Youngs Moduli (GPa) = 100.89963 77.74027 85.91772
#
# Poissons Ratio (x) = 0.29794 0.21561
# Poissons Ratio (y) = 0.38669 0.16655
# Poissons Ratio (z) = 0.25320 0.15070
#
# Static dielectric constant tensor:
#      x y z
#    x 1.772410 0.000000 0.000000 
#    y 0.000000 1.855400 0.000000 
#    z 0.000000 0.000000 1.768940 
# 
# From -- ./inp_files/11747.got.cif
#   From: 2010.05.17/outbox.cif.g08.bks.cpg/sg54_6_cif.got.tgz:11747.got - 2010.06.03 13:09:01.
