data_PCOD9421559
_publ_section_title
;
Structure prediction by ZEFSAII (Michael W. Deem and Ramdas Pophale) SiO2 
 PCOD9421559
Probable space group: P C C A
;
_chemical_formula_sum "Si O2"
_cell_formula_units_Z 40
_cell_length_a 9.735403
_cell_length_b 7.941759
_cell_length_c 25.140734
_cell_angle_alpha 90.000000
_cell_angle_beta 90.000000
_cell_angle_gamma 90.000000
_cell_volume 1943.786631
_symmetry_space_group_name_H-M "P C C A"
_symmetry_group_IT_number 54
_symmetry_cell_setting 'orthorhombic'
loop_
_space_group_symop_operation_xyz
x,y,z
1/2-x,-y,z
1/2+x,-y,1/2-z
-x,y,1/2-z
-x,-y,-z
1/2+x,y,-z
1/2-x,y,1/2+z
x,-y,1/2+z
loop_
_atom_site_type_symbol
_atom_site_label
_atom_site_fract_x
_atom_site_fract_y
_atom_site_fract_z
Si Si1 0.641843 0.249196 0.640318
Si Si2 0.065983 0.674420 0.551029
Si Si3 0.120385 0.727258 0.044288
Si Si4 0.250000 0.500000 0.271136
Si Si5 0.000000 0.301398 0.750000
Si Si6 0.433411 0.859642 0.863128
O O1 0.520428 0.323297 0.605304
O O2 0.670500 0.364314 0.691723
O O3 0.795563 0.235136 0.615717
O O4 0.598474 0.055345 0.646147
O O5 0.216412 0.757650 0.546422
O O6 0.096103 0.475391 0.544191
O O7 0.964380 0.767636 0.509305
O O8 0.050363 0.817410 0.094542
O O9 0.365803 0.410020 0.237554
O O10 0.034062 0.205204 0.804045
#
# Coordination Sequence:
#
# PCOD9421559 Si02
#       6
#     8   8   8   4   4   8
#     4  10  21  39  61  84 115 153 193 240 298 351
#     4  10  20  36  60  87 118 157 194 237 290 355
#     4  10  21  36  58  88 119 153 197 240 289 352
#     4  10  22  40  64  86 112 156 202 244 292 356
#     4  10  22  40  62  86 118 154 198 246 292 346
#     4  10  22  39  58  86 119 153 194 245 297 347
#
# _framework density 20.578391
#
# number of rings (size 3 to 8) (size 9 to 14) (size 15 to 20)
#    0.000    2.000    0.000    3.600    0.000    8.800 
#    0.000    6.000    0.000    0.000    0.000    0.000 
#    0.000    0.000    0.000    0.000    0.000    0.000 
#
# Total GULP energy -222967.835715 kJ/mol
# GULP energy per Si atom -5574.195893 kJ/mol
# Density = 2.053155 g / cm^3
# Si number density = 20.578391 Si / 1000 Ang^3
#
#
#
# Elastic Constant Matrix: (Units=GPa)
#
#
# Indices 1 2 3 4 5 6 
#
# 1 171.9120 25.0491 47.8938 0.0000 0.0000 0.0000
# 2 25.0491 27.0284 3.2760 0.0000 0.0000 0.0000
# 3 47.8938 3.2760 41.6012 0.0000 0.0000 0.0000
# 4 0.0000 0.0000 0.0000 -41.1272 0.0000 0.0000
# 5 0.0000 0.0000 0.0000 0.0000 40.5780 0.0000
# 6 0.0000 0.0000 0.0000 0.0000 0.0000 25.5407
#
#
#
# Elastic Compliance Matrix: (Units=1/GPa)
#
#
# Indices 1 2 3 4 5 6 
#
# 1 0.010014 -0.007959 -0.010902 0.000000 0.000000 0.000000
# 2 -0.007959 0.043681 0.005723 0.000000 0.000000 0.000000
# 3 -0.010902 0.005723 0.036138 0.000000 0.000000 0.000000
# 4 0.000000 0.000000 0.000000 -0.024315 0.000000 0.000000
# 5 0.000000 0.000000 0.000000 0.000000 0.024644 0.000000
# 6 0.000000 0.000000 0.000000 0.000000 0.000000 0.039153
#
#
# Mechanical properties :
#
#
# Convention : Reuss Voigt Hill
#
# Bulk Modulus (GPa) = 15.73386 43.66435 29.69911
# Shear Modulus (GPa) = 28.28446 15.95315 22.11880
#
# Velocity S-wave (km/s) = 3.71141 2.78733 3.28206
# Velocity P-wave (km/s) = 5.10181 5.62348 5.36899
#
# Compressibility (1/GPa) = 0.06355719
#
# Stress axis : x y z
#
# Youngs Moduli (GPa) = 99.86204 22.89340 27.67183
#
# Poissons Ratio (x) = 0.18221 0.30167
# Poissons Ratio (y) = 0.79482 -0.15837
# Poissons Ratio (z) = 1.08867 -0.13103
#
# Static dielectric constant tensor:
#      x y z
#    x 1.740730 0.000000 0.000000 
#    y 0.000000 1.820060 0.000000 
#    z 0.000000 0.000000 1.713860 
# 
# From -- ./inp_files/23303.got.cif
#   From: 2010.05.17/outbox.cif.g08.bks.cpg/sg54_12_cif.got.tgz:23303.got - 2010.06.03 13:09:01.
