data_PCOD9421196
_publ_section_title
;
Structure prediction by ZEFSAII (Michael W. Deem and Ramdas Pophale) SiO2 
 PCOD9421196
Probable space group: P C C A
;
_chemical_formula_sum "Si O2"
_cell_formula_units_Z 36
_cell_length_a 13.671465
_cell_length_b 8.873449
_cell_length_c 17.440567
_cell_angle_alpha 90.000000
_cell_angle_beta 90.000000
_cell_angle_gamma 90.000000
_cell_volume 2115.768332
_symmetry_space_group_name_H-M "P C C A"
_symmetry_group_IT_number 54
_symmetry_cell_setting 'orthorhombic'
loop_
_space_group_symop_operation_xyz
x,y,z
1/2-x,-y,z
1/2+x,-y,1/2-z
-x,y,1/2-z
-x,-y,-z
1/2+x,y,-z
1/2-x,y,1/2+z
x,-y,1/2+z
loop_
_atom_site_type_symbol
_atom_site_label
_atom_site_fract_x
_atom_site_fract_y
_atom_site_fract_z
Si Si1 0.250000 0.000000 0.830308
Si Si2 0.877631 0.151826 0.042385
Si Si3 0.102230 0.851293 0.212036
Si Si4 0.721755 0.673406 0.910283
Si Si5 0.906066 0.893739 0.916576
O O1 0.187358 0.890081 0.884690
O O2 0.322656 0.904955 0.776941
O O3 0.989402 0.180998 0.066537
O O4 0.831593 0.281021 0.989616
O O5 0.880301 0.002304 0.988354
O O6 0.150693 0.724429 0.158665
O O7 0.000000 0.806242 0.250000
O O8 0.085113 0.994662 0.155891
O O9 0.750000 0.500000 0.907297
O O10 0.818577 0.777277 0.904900
#
# Coordination Sequence:
#
# PCOD9421196 Si02
#       5
#     4   8   8   8   8
#     4  12  18  34  62  90 112 136 200 262 282 326
#     4  10  20  34  62  87 107 147 206 248 273 334
#     4  11  21  36  62  89 112 153 200 249 294 337
#     4  11  23  40  56  84 131 163 181 232 307 369
#     4  10  19  37  59  86 112 148 201 244 286 333
#
# _framework density 17.015096
#
# number of rings (size 3 to 8) (size 9 to 14) (size 15 to 20)
#    0.000    1.333    6.667    1.333    0.000    0.889 
#    0.000    4.444    0.000    0.000    0.000    0.000 
#    0.000    0.000    0.000    0.000    0.000    0.000 
#
# Total GULP energy -201041.038298 kJ/mol
# GULP energy per Si atom -5584.473286 kJ/mol
# Density = 1.697637 g / cm^3
# Si number density = 17.015096 Si / 1000 Ang^3
#
#
#
# Elastic Constant Matrix: (Units=GPa)
#
#
# Indices 1 2 3 4 5 6 
#
# 1 140.3226 57.4050 56.4397 0.0000 0.0000 0.0000
# 2 57.4050 97.2650 37.1129 0.0000 0.0000 0.0000
# 3 56.4397 37.1129 113.6546 0.0000 0.0000 0.0000
# 4 0.0000 0.0000 0.0000 8.6901 0.0000 0.0000
# 5 0.0000 0.0000 0.0000 0.0000 44.9716 0.0000
# 6 0.0000 0.0000 0.0000 0.0000 0.0000 13.4932
#
#
#
# Elastic Compliance Matrix: (Units=1/GPa)
#
#
# Indices 1 2 3 4 5 6 
#
# 1 0.010587 -0.004846 -0.003675 0.000000 0.000000 0.000000
# 2 -0.004846 0.013963 -0.002153 0.000000 0.000000 0.000000
# 3 -0.003675 -0.002153 0.011327 0.000000 0.000000 0.000000
# 4 0.000000 0.000000 0.000000 0.115073 0.000000 0.000000
# 5 0.000000 0.000000 0.000000 0.000000 0.022236 0.000000
# 6 0.000000 0.000000 0.000000 0.000000 0.000000 0.074111
#
#
# Mechanical properties :
#
#
# Convention : Reuss Voigt Hill
#
# Bulk Modulus (GPa) = 68.83060 72.57305 70.70182
# Shear Modulus (GPa) = 18.28235 26.78330 22.53283
#
# Velocity S-wave (km/s) = 3.28148 3.97179 3.64302
# Velocity P-wave (km/s) = 7.40932 7.98612 7.70312
#
# Compressibility (1/GPa) = 0.01452842
#
# Stress axis : x y z
#
# Youngs Moduli (GPa) = 94.45462 71.61874 88.28822
#
# Poissons Ratio (x) = 0.34708 0.32446
# Poissons Ratio (y) = 0.45774 0.19007
# Poissons Ratio (z) = 0.34712 0.15419
#
# Static dielectric constant tensor:
#      x y z
#    x 1.586840 0.000000 0.000000 
#    y 0.000000 1.531900 0.000000 
#    z 0.000000 0.000000 1.577660 
# 
# From -- ./inp_files/13089.got.cif
#   From: 2010.05.17/outbox.cif.g08.bks.cpg/sg54_7_cif.got.tgz:13089.got - 2010.06.03 13:09:01.
