data_PCOD9421569
_publ_section_title
;
Structure prediction by ZEFSAII (Michael W. Deem and Ramdas Pophale) SiO2 
 PCOD9421569
Probable space group: P C C A
;
_chemical_formula_sum "Si O2"
_cell_formula_units_Z 40
_cell_length_a 17.663040
_cell_length_b 10.641325
_cell_length_c 10.469380
_cell_angle_alpha 90.000000
_cell_angle_beta 90.000000
_cell_angle_gamma 90.000000
_cell_volume 1967.805287
_symmetry_space_group_name_H-M "P C C A"
_symmetry_group_IT_number 54
_symmetry_cell_setting 'orthorhombic'
loop_
_space_group_symop_operation_xyz
x,y,z
1/2-x,-y,z
1/2+x,-y,1/2-z
-x,y,1/2-z
-x,-y,-z
1/2+x,y,-z
1/2-x,y,1/2+z
x,-y,1/2+z
loop_
_atom_site_type_symbol
_atom_site_label
_atom_site_fract_x
_atom_site_fract_y
_atom_site_fract_z
Si Si1 0.642640 0.797054 0.135563
Si Si2 0.250000 0.000000 0.755313
Si Si3 0.087149 0.387763 0.740405
Si Si4 0.336964 0.526560 0.473027
Si Si5 0.500000 0.093950 0.750000
Si Si6 0.098085 0.109784 0.636956
O O1 0.661722 0.653953 0.110641
O O2 0.573447 0.819559 0.231746
O O3 0.715091 0.882648 0.167324
O O4 0.606144 0.847576 0.006448
O O5 0.322024 0.951634 0.676894
O O6 0.121855 0.448699 0.609695
O O7 0.127781 0.425835 0.873587
O O8 0.088677 0.236673 0.720031
O O9 0.000000 0.428557 0.750000
O O10 0.250000 0.500000 0.503740
O O11 0.468535 0.991565 0.648861
#
# Coordination Sequence:
#
# PCOD9421569 Si02
#       6
#     8   4   8   8   4   8
#     4  10  22  37  60  88 123 155 209 249 314 365
#     4  10  20  36  60  90 120 160 202 256 310 376
#     4  11  23  42  65  93 129 169 215 261 319 374
#     4  11  24  42  64  93 129 167 213 262 316 378
#     4  10  20  38  58  88 120 160 200 256 302 376
#     4  10  20  38  61  86 124 160 206 251 316 364
#
# _framework density 20.327214999999999
#
# number of rings (size 3 to 8) (size 9 to 14) (size 15 to 20)
#    0.000    1.600    1.000    3.600    1.400    1.600 
#    0.000    4.000    0.000    0.000    0.000    0.000 
#    0.000    0.000    0.000    0.000    0.000    0.000 
#
# Total GULP energy -222984.751406 kJ/mol
# GULP energy per Si atom -5574.618785 kJ/mol
# Density = 2.028095 g / cm^3
# Si number density = 20.327215 Si / 1000 Ang^3
#
#
#
# Elastic Constant Matrix: (Units=GPa)
#
#
# Indices 1 2 3 4 5 6 
#
# 1 118.3007 22.0978 22.5563 0.0000 0.0000 0.0000
# 2 22.0978 52.8959 19.2319 0.0000 0.0000 0.0000
# 3 22.5563 19.2319 43.0553 0.0000 0.0000 0.0000
# 4 0.0000 0.0000 0.0000 19.4996 0.0000 0.0000
# 5 0.0000 0.0000 0.0000 0.0000 93.3202 0.0000
# 6 0.0000 0.0000 0.0000 0.0000 0.0000 30.8684
#
#
#
# Elastic Compliance Matrix: (Units=1/GPa)
#
#
# Indices 1 2 3 4 5 6 
#
# 1 0.009688 -0.002629 -0.003901 0.000000 0.000000 0.000000
# 2 -0.002629 0.023284 -0.009023 0.000000 0.000000 0.000000
# 3 -0.003901 -0.009023 0.029300 0.000000 0.000000 0.000000
# 4 0.000000 0.000000 0.000000 0.051283 0.000000 0.000000
# 5 0.000000 0.000000 0.000000 0.000000 0.010716 0.000000
# 6 0.000000 0.000000 0.000000 0.000000 0.000000 0.032396
#
#
# Mechanical properties :
#
#
# Convention : Reuss Voigt Hill
#
# Bulk Modulus (GPa) = 32.08665 38.00267 35.04466
# Shear Modulus (GPa) = 25.23195 38.76205 31.99700
#
# Velocity S-wave (km/s) = 3.52702 4.37155 3.97179
# Velocity P-wave (km/s) = 5.69261 6.64956 6.18960
#
# Compressibility (1/GPa) = 0.03116561
#
# Stress axis : x y z
#
# Youngs Moduli (GPa) = 103.22139 42.94806 34.12942
#
# Poissons Ratio (x) = 0.11290 0.13314
# Poissons Ratio (y) = 0.27135 0.30796
# Poissons Ratio (z) = 0.40268 0.38753
#
# Static dielectric constant tensor:
#      x y z
#    x 1.702920 0.000000 0.000000 
#    y 0.000000 1.733300 0.000000 
#    z 0.000000 0.000000 1.739100 
# 
# From -- ./inp_files/4001.got.cif
#   From: 2010.05.17/outbox.cif.g08.bks.cpg/sg54_3_cif.got.tgz:4001.got - 2010.06.03 13:09:01.
