data_PCOD9421892
_publ_section_title
;
Structure prediction by ZEFSAII (Michael W. Deem and Ramdas Pophale) SiO2 
 PCOD9421892
Probable space group: P C C A
;
_chemical_formula_sum "Si O2"
_cell_formula_units_Z 48
_cell_length_a 18.616438
_cell_length_b 8.511428
_cell_length_c 15.160920
_cell_angle_alpha 90.000000
_cell_angle_beta 90.000000
_cell_angle_gamma 90.000000
_cell_volume 2402.285247
_symmetry_space_group_name_H-M "P C C A"
_symmetry_group_IT_number 54
_symmetry_cell_setting 'orthorhombic'
loop_
_space_group_symop_operation_xyz
x,y,z
1/2-x,-y,z
1/2+x,-y,1/2-z
-x,y,1/2-z
-x,-y,-z
1/2+x,y,-z
1/2-x,y,1/2+z
x,-y,1/2+z
loop_
_atom_site_type_symbol
_atom_site_label
_atom_site_fract_x
_atom_site_fract_y
_atom_site_fract_z
Si Si1 0.751394 0.329261 0.616275
Si Si2 0.407047 0.748603 0.888538
Si Si3 0.000000 0.582464 0.250000
Si Si4 0.469421 0.060541 0.844630
Si Si5 0.750000 0.000000 0.509982
Si Si6 0.113367 0.151718 0.073734
Si Si7 0.381589 0.327177 0.756502
O O1 0.750000 0.500000 0.566793
O O2 0.832417 0.309538 0.651406
O O3 0.692508 0.347742 0.692379
O O4 0.738240 0.164400 0.564122
O O5 0.474416 0.678329 0.836319
O O6 0.412360 0.935769 0.877599
O O7 0.399768 0.725684 0.993520
O O8 0.930563 0.475169 0.268552
O O9 0.500000 0.006825 0.750000
O O10 0.536671 0.070427 0.909454
O O11 0.432137 0.225728 0.823170
O O12 0.678815 0.961154 0.453283
O O13 0.130774 0.232061 0.166733
#
# Coordination Sequence:
#
# PCOD9421892 Si02
#       7
#     8   8   4   8   4   8   8
#     4  11  23  43  70  90 129 180 223 269 330 405
#     4  11  23  40  65  94 130 168 220 272 334 394
#     4  12  22  40  64  94 132 170 216 268 338 406
#     4  10  20  39  66  91 125 172 217 265 328 400
#     4  10  24  44  68 100 136 180 226 274 344 394
#     4  10  22  41  65  98 131 168 224 279 328 396
#     4  11  22  42  66  90 130 176 220 268 333 397
#
# _framework density 19.980975999999998
#
# number of rings (size 3 to 8) (size 9 to 14) (size 15 to 20)
#    0.000    1.333    5.000    2.500    0.000    4.000 
#    0.000    6.667    0.000    0.000    0.000    0.000 
#    0.000    0.000    0.000    0.000    0.000    0.000 
#
# Total GULP energy -267440.661296 kJ/mol
# GULP energy per Si atom -5571.680444 kJ/mol
# Density = 1.993550 g / cm^3
# Si number density = 19.980976 Si / 1000 Ang^3
#
#
#
# Elastic Constant Matrix: (Units=GPa)
#
#
# Indices 1 2 3 4 5 6 
#
# 1 148.5584 45.9163 59.8227 0.0000 0.0000 0.0000
# 2 45.9163 104.0200 32.9879 0.0000 0.0000 0.0000
# 3 59.8227 32.9879 73.7076 0.0000 0.0000 0.0000
# 4 0.0000 0.0000 0.0000 12.9464 0.0000 0.0000
# 5 0.0000 0.0000 0.0000 0.0000 44.1526 0.0000
# 6 0.0000 0.0000 0.0000 0.0000 0.0000 35.8811
#
#
#
# Elastic Compliance Matrix: (Units=1/GPa)
#
#
# Indices 1 2 3 4 5 6 
#
# 1 0.010428 -0.002236 -0.007462 0.000000 0.000000 0.000000
# 2 -0.002236 0.011683 -0.003414 0.000000 0.000000 0.000000
# 3 -0.007462 -0.003414 0.021152 0.000000 0.000000 0.000000
# 4 0.000000 0.000000 0.000000 0.077242 0.000000 0.000000
# 5 0.000000 0.000000 0.000000 0.000000 0.022649 0.000000
# 6 0.000000 0.000000 0.000000 0.000000 0.000000 0.027870
#
#
# Mechanical properties :
#
#
# Convention : Reuss Voigt Hill
#
# Bulk Modulus (GPa) = 58.69430 67.08220 62.88825
# Shear Modulus (GPa) = 24.63941 31.09996 27.86968
#
# Velocity S-wave (km/s) = 3.51542 3.94950 3.73877
# Velocity P-wave (km/s) = 6.77617 7.37862 7.08380
#
# Compressibility (1/GPa) = 0.01703743
#
# Stress axis : x y z
#
# Youngs Moduli (GPa) = 95.89953 85.59204 47.27781
#
# Poissons Ratio (x) = 0.19142 0.35280
# Poissons Ratio (y) = 0.21447 0.16140
# Poissons Ratio (z) = 0.71564 0.29219
#
# Static dielectric constant tensor:
#      x y z
#    x 1.711540 0.000000 0.000000 
#    y 0.000000 1.771040 0.000000 
#    z 0.000000 0.000000 1.725050 
# 
# From -- ./inp_files/14186.got.cif
#   From: 2010.05.17/outbox.cif.g08.bks.cpg/sg54_8_cif.got.tgz:14186.got - 2010.06.03 13:09:01.
