data_PCOD9421643
_publ_section_title
;
Structure prediction by ZEFSAII (Michael W. Deem and Ramdas Pophale) SiO2 
 PCOD9421643
Probable space group: P C C A
;
_chemical_formula_sum "Si O2"
_cell_formula_units_Z 48
_cell_length_a 8.619517
_cell_length_b 16.395189
_cell_length_c 16.812021
_cell_angle_alpha 90.000000
_cell_angle_beta 90.000000
_cell_angle_gamma 90.000000
_cell_volume 2375.851444
_symmetry_space_group_name_H-M "P C C A"
_symmetry_group_IT_number 54
_symmetry_cell_setting 'orthorhombic'
loop_
_space_group_symop_operation_xyz
x,y,z
1/2-x,-y,z
1/2+x,-y,1/2-z
-x,y,1/2-z
-x,-y,-z
1/2+x,y,-z
1/2-x,y,1/2+z
x,-y,1/2+z
loop_
_atom_site_type_symbol
_atom_site_label
_atom_site_fract_x
_atom_site_fract_y
_atom_site_fract_z
Si Si1 0.312504 0.592032 0.572121
Si Si2 0.049649 0.162964 0.909164
Si Si3 0.645265 0.347324 0.082378
Si Si4 0.853144 0.925580 0.543208
Si Si5 0.687506 0.408135 0.249976
Si Si6 0.930104 0.983339 0.331453
O O1 0.250000 0.500000 0.564625
O O2 0.249297 0.643192 0.496730
O O3 0.499584 0.591730 0.571445
O O4 0.265252 0.623173 0.661435
O O5 0.064798 0.259191 0.908849
O O6 0.224759 0.128783 0.913427
O O7 0.964947 0.113175 0.839718
O O8 0.949984 0.130750 0.984169
O O9 0.731157 0.365216 0.166358
O O10 0.750000 0.000000 0.506834
O O11 0.972972 0.970752 0.600606
O O12 0.750000 0.500000 0.245312
O O13 0.500000 0.407177 0.250000
O O14 0.000000 0.014447 0.250000
O O15 0.750000 0.000000 0.333736
#
# Coordination Sequence:
#
# PCOD9421643 Si02
#       6
#     8   8   8   8   8   8
#     4  10  21  38  59  84 115 156 202 241 291 358
#     4  11  21  36  58  85 117 148 189 240 297 348
#     4  11  22  37  59  89 120 154 193 248 301 349
#     4  10  20  37  57  81 111 152 194 231 281 349
#     4   9  20  38  59  81 112 153 195 238 287 347
#     4  11  22  38  60  84 112 151 194 236 283 347
#
# _framework density 20.203282000000002
#
# number of rings (size 3 to 8) (size 9 to 14) (size 15 to 20)
#    0.000    1.667    0.000    7.000    0.000    4.667 
#    0.000    1.667    0.000    0.000    0.000    0.000 
#    0.000    0.000    0.000    0.000    0.000    0.000 
#
# Total GULP energy -267656.370586 kJ/mol
# GULP energy per Si atom -5576.174387 kJ/mol
# Density = 2.015730 g / cm^3
# Si number density = 20.203282 Si / 1000 Ang^3
#
#
#
# Elastic Constant Matrix: (Units=GPa)
#
#
# Indices 1 2 3 4 5 6 
#
# 1 91.4558 5.0669 41.1191 0.0000 0.0000 0.0000
# 2 5.0669 61.2350 29.6712 0.0000 0.0000 0.0000
# 3 41.1191 29.6712 174.1106 0.0000 0.0000 0.0000
# 4 0.0000 0.0000 0.0000 30.4677 0.0000 0.0000
# 5 0.0000 0.0000 0.0000 0.0000 27.0438 0.0000
# 6 0.0000 0.0000 0.0000 0.0000 0.0000 22.6004
#
#
#
# Elastic Compliance Matrix: (Units=1/GPa)
#
#
# Indices 1 2 3 4 5 6 
#
# 1 0.012243 0.000423 -0.002964 0.000000 0.000000 0.000000
# 2 0.000423 0.017815 -0.003136 0.000000 0.000000 0.000000
# 3 -0.002964 -0.003136 0.006978 0.000000 0.000000 0.000000
# 4 0.000000 0.000000 0.000000 0.032822 0.000000 0.000000
# 5 0.000000 0.000000 0.000000 0.000000 0.036977 0.000000
# 6 0.000000 0.000000 0.000000 0.000000 0.000000 0.044247
#
#
# Mechanical properties :
#
#
# Convention : Reuss Voigt Hill
#
# Bulk Modulus (GPa) = 38.93612 53.16840 46.05226
# Shear Modulus (GPa) = 29.24052 32.75200 30.99626
#
# Velocity S-wave (km/s) = 3.80849 4.03068 3.92116
# Velocity P-wave (km/s) = 6.21719 6.93078 6.58366
#
# Compressibility (1/GPa) = 0.02568309
#
# Stress axis : x y z
#
# Youngs Moduli (GPa) = 81.67779 56.13248 143.31263
#
# Poissons Ratio (x) = -0.02374 0.42471
# Poissons Ratio (y) = -0.03454 0.44940
# Poissons Ratio (z) = 0.24205 0.17602
#
# Static dielectric constant tensor:
#      x y z
#    x 1.696620 0.000000 0.000000 
#    y 0.000000 1.722620 0.000000 
#    z 0.000000 0.000000 1.797770 
# 
# From -- ./inp_files/11708.got.cif
#   From: 2010.05.17/outbox.cif.g08.bks.cpg/sg54_6_cif.got.tgz:11708.got - 2010.06.03 13:09:01.
