data_PCOD9421538
_publ_section_title
;
Structure prediction by ZEFSAII (Michael W. Deem and Ramdas Pophale) SiO2 
 PCOD9421538
Probable space group: P C C A
;
_chemical_formula_sum "Si O2"
_cell_formula_units_Z 32
_cell_length_a 15.855596
_cell_length_b 5.046288
_cell_length_c 19.841564
_cell_angle_alpha 90.000000
_cell_angle_beta 90.000000
_cell_angle_gamma 90.000000
_cell_volume 1587.561311
_symmetry_space_group_name_H-M "P C C A"
_symmetry_group_IT_number 54
_symmetry_cell_setting 'orthorhombic'
loop_
_space_group_symop_operation_xyz
x,y,z
1/2-x,-y,z
1/2+x,-y,1/2-z
-x,y,1/2-z
-x,-y,-z
1/2+x,y,-z
1/2-x,y,1/2+z
x,-y,1/2+z
loop_
_atom_site_type_symbol
_atom_site_label
_atom_site_fract_x
_atom_site_fract_y
_atom_site_fract_z
Si Si1 0.311794 0.250343 0.223830
Si Si2 0.844685 0.621012 0.420602
Si Si3 0.188078 0.750684 0.371663
Si Si4 0.091825 0.874449 0.505413
O O1 0.250000 0.500000 0.228014
O O2 0.364461 0.290802 0.155978
O O3 0.354199 0.241863 0.297336
O O4 0.250000 0.000000 0.214682
O O5 0.750000 0.500000 0.423074
O O6 0.902910 0.381742 0.446407
O O7 0.851574 0.883265 0.466108
O O8 0.250000 0.500000 0.379280
O O9 0.124600 0.775331 0.433239
O O10 0.250000 0.000000 0.373458
O O11 0.000000 0.000000 0.500000
#
# Coordination Sequence:
#
# PCOD9421538 Si02
#       4
#     8   8   8   8
#     4   9  18  33  57  86 109 138 191 248 283 324
#     4  11  21  38  62  84 108 150 198 238 280 337
#     4  10  20  36  59  84 112 149 192 236 284 337
#     4  12  24  37  56  88 123 153 186 234 287 340
#
# _framework density 20.156703
#
# number of rings (size 3 to 8) (size 9 to 14) (size 15 to 20)
#    0.000    1.500    0.000    8.250    0.000    0.000 
#    0.000    1.250    0.000    9.000    0.000    0.000 
#    0.000    0.000    0.000    0.000    0.000    0.000 
#
# Total GULP energy -178712.305375 kJ/mol
# GULP energy per Si atom -5584.759543 kJ/mol
# Density = 2.011083 g / cm^3
# Si number density = 20.156703 Si / 1000 Ang^3
#
#
#
# Elastic Constant Matrix: (Units=GPa)
#
#
# Indices 1 2 3 4 5 6 
#
# 1 52.8420 21.8560 58.4353 0.0000 0.0000 0.0000
# 2 21.8560 161.6746 62.8472 0.0000 0.0000 0.0000
# 3 58.4353 62.8472 214.1670 0.0000 0.0000 0.0000
# 4 0.0000 0.0000 0.0000 34.6245 0.0000 0.0000
# 5 0.0000 0.0000 0.0000 0.0000 -6.6141 0.0000
# 6 0.0000 0.0000 0.0000 0.0000 0.0000 29.6738
#
#
#
# Elastic Compliance Matrix: (Units=1/GPa)
#
#
# Indices 1 2 3 4 5 6 
#
# 1 0.027216 -0.000895 -0.007163 0.000000 0.000000 0.000000
# 2 -0.000895 0.007011 -0.001813 0.000000 0.000000 0.000000
# 3 -0.007163 -0.001813 0.007156 0.000000 0.000000 0.000000
# 4 0.000000 0.000000 0.000000 0.028881 0.000000 0.000000
# 5 0.000000 0.000000 0.000000 0.000000 -0.151193 0.000000
# 6 0.000000 0.000000 0.000000 0.000000 0.000000 0.033700
#
#
# Mechanical properties :
#
#
# Convention : Reuss Voigt Hill
#
# Bulk Modulus (GPa) = 46.20988 79.44008 62.82498
# Shear Modulus (GPa) = -246.63783 30.57318 -108.03232
#
# Velocity S-wave (km/s) = -11.07366 3.89880 -7.32889
# Velocity P-wave (km/s) = 11.85437 7.73074 6.35459
#
# Compressibility (1/GPa) = 0.02164040
#
# Stress axis : x y z
#
# Youngs Moduli (GPa) = 36.74318 142.63137 139.74540
#
# Poissons Ratio (x) = 0.12760 1.00104
# Poissons Ratio (y) = 0.03287 0.25340
# Poissons Ratio (z) = 0.26320 0.25863
#
# Static dielectric constant tensor:
#      x y z
#    x 1.676410 0.000000 0.000000 
#    y 0.000000 1.684950 0.000000 
#    z 0.000000 0.000000 1.805440 
# 
# From -- ./inp_files/17572.got.cif
#   From: 2010.05.17/outbox.cif.g08.bks.cpg/sg54_9_cif.got.tgz:17572.got - 2010.06.03 13:09:01.
