data_PCOD9421582
_publ_section_title
;
Structure prediction by ZEFSAII (Michael W. Deem and Ramdas Pophale) SiO2 
 PCOD9421582
Probable space group: P C C A
;
_chemical_formula_sum "Si O2"
_cell_formula_units_Z 60
_cell_length_a 21.580279
_cell_length_b 6.738175
_cell_length_c 19.639675
_cell_angle_alpha 90.000000
_cell_angle_beta 90.000000
_cell_angle_gamma 90.000000
_cell_volume 2855.838459
_symmetry_space_group_name_H-M "P C C A"
_symmetry_group_IT_number 54
_symmetry_cell_setting 'orthorhombic'
loop_
_space_group_symop_operation_xyz
x,y,z
1/2-x,-y,z
1/2+x,-y,1/2-z
-x,y,1/2-z
-x,-y,-z
1/2+x,y,-z
1/2-x,y,1/2+z
x,-y,1/2+z
loop_
_atom_site_type_symbol
_atom_site_label
_atom_site_fract_x
_atom_site_fract_y
_atom_site_fract_z
Si Si1 0.188938 0.627255 0.899989
Si Si2 0.750000 0.000000 0.638665
Si Si3 0.652977 0.813558 0.744091
Si Si4 0.096609 0.190020 0.179721
Si Si5 0.095566 0.382414 0.517024
Si Si6 0.503933 0.707065 0.422679
Si Si7 0.818201 0.543448 0.367528
Si Si8 0.919385 0.461829 0.194909
O O1 0.250000 0.500000 0.893245
O O2 0.146442 0.556029 0.961491
O O3 0.146771 0.615222 0.833220
O O4 0.210462 0.852292 0.907312
O O5 0.701940 0.882007 0.687154
O O6 0.685812 0.665227 0.797405
O O7 0.595025 0.689234 0.713469
O O8 0.626829 0.002016 0.784497
O O9 0.044384 0.142869 0.122867
O O10 0.148339 0.333334 0.146409
O O11 0.067760 0.331504 0.238519
O O12 0.052669 0.566460 0.538905
O O13 0.136199 0.331893 0.583016
O O14 0.048812 0.232681 0.477433
O O15 0.467307 0.575834 0.365928
O O16 0.750000 0.500000 0.395697
#
# Coordination Sequence:
#
# PCOD9421582 Si02
#       8
#     8   4   8   8   8   8   8   8
#     4  11  21  37  63  90 123 161 195 254 307 374
#     4  12  22  36  60  94 128 156 198 250 320 380
#     4  11  22  35  61  95 125 156 196 251 321 380
#     4  10  20  37  59  91 123 157 200 253 317 366
#     4   9  20  40  63  84 114 164 213 243 302 355
#     4   9  19  39  64  83 115 165 211 259 294 358
#     4  10  21  37  61  89 123 160 199 251 305 377
#     4  10  20  36  61  91 123 157 206 251 315 369
#
# _framework density 21.009592999999999
#
# number of rings (size 3 to 8) (size 9 to 14) (size 15 to 20)
#    0.000    1.867    2.667    1.600    1.867    0.000 
#    0.000   13.333    0.000    0.000    0.000    0.000 
#    0.000    0.000    0.000    0.000    0.000    0.000 
#
# Total GULP energy -334663.225134 kJ/mol
# GULP energy per Si atom -5577.720419 kJ/mol
# Density = 2.096177 g / cm^3
# Si number density = 21.009593 Si / 1000 Ang^3
#
#
#
# Elastic Constant Matrix: (Units=GPa)
#
#
# Indices 1 2 3 4 5 6 
#
# 1 119.3545 21.9086 35.9710 0.0000 0.0000 0.0000
# 2 21.9086 54.5677 2.8921 0.0000 0.0000 0.0000
# 3 35.9710 2.8921 60.8032 0.0000 0.0000 0.0000
# 4 0.0000 0.0000 0.0000 -1.1011 0.0000 0.0000
# 5 0.0000 0.0000 0.0000 0.0000 10.0164 0.0000
# 6 0.0000 0.0000 0.0000 0.0000 0.0000 5.8362
#
#
#
# Elastic Compliance Matrix: (Units=1/GPa)
#
#
# Indices 1 2 3 4 5 6 
#
# 1 0.011040 -0.004097 -0.006336 0.000000 0.000000 0.000000
# 2 -0.004097 0.019892 0.001477 0.000000 0.000000 0.000000
# 3 -0.006336 0.001477 0.020125 0.000000 0.000000 0.000000
# 4 0.000000 0.000000 0.000000 -0.908213 0.000000 0.000000
# 5 0.000000 0.000000 0.000000 0.000000 0.099837 0.000000
# 6 0.000000 0.000000 0.000000 0.000000 0.000000 0.171345
#
#
# Mechanical properties :
#
#
# Convention : Reuss Voigt Hill
#
# Bulk Modulus (GPa) = 30.16965 39.58543 34.87754
# Shear Modulus (GPa) = -8.97644 14.54721 2.78539
#
# Velocity S-wave (km/s) = -2.06926 2.63422 1.15267
# Velocity P-wave (km/s) = 2.94653 5.30421 4.29049
#
# Compressibility (1/GPa) = 0.03314589
#
# Stress axis : x y z
#
# Youngs Moduli (GPa) = 90.57930 50.27054 49.68987
#
# Poissons Ratio (x) = 0.20594 0.31486
# Poissons Ratio (y) = 0.37108 -0.07341
# Poissons Ratio (z) = 0.57395 -0.07427
#
# Static dielectric constant tensor:
#      x y z
#    x 1.785430 0.000000 0.000000 
#    y 0.000000 1.766450 0.000000 
#    z 0.000000 0.000000 1.783520 
# 
# From -- ./inp_files/22330.got.cif
#   From: 2010.05.17/outbox.cif.g08.bks.cpg/sg54_12_cif.got.tgz:22330.got - 2010.06.03 13:09:01.
