data_PCOD9421677
_publ_section_title
;
Structure prediction by ZEFSAII (Michael W. Deem and Ramdas Pophale) SiO2 
 PCOD9421677
Probable space group: P C C A
;
_chemical_formula_sum "Si O2"
_cell_formula_units_Z 32
_cell_length_a 9.780908
_cell_length_b 10.669688
_cell_length_c 13.168798
_cell_angle_alpha 90.000000
_cell_angle_beta 90.000000
_cell_angle_gamma 90.000000
_cell_volume 1374.285708
_symmetry_space_group_name_H-M "P C C A"
_symmetry_group_IT_number 54
_symmetry_cell_setting 'orthorhombic'
loop_
_space_group_symop_operation_xyz
x,y,z
1/2-x,-y,z
1/2+x,-y,1/2-z
-x,y,1/2-z
-x,-y,-z
1/2+x,y,-z
1/2-x,y,1/2+z
x,-y,1/2+z
loop_
_atom_site_type_symbol
_atom_site_label
_atom_site_fract_x
_atom_site_fract_y
_atom_site_fract_z
Si Si1 0.848494 0.620925 0.941716
Si Si2 0.420230 0.746971 0.551173
Si Si3 0.500000 0.147406 0.250000
Si Si4 0.000000 0.732939 0.750000
Si Si5 0.117413 0.062188 0.395569
O O1 0.750000 0.500000 0.937751
O O2 0.735888 0.721992 0.978318
O O3 0.915627 0.653025 0.832690
O O4 0.974707 0.637708 0.019639
O O5 0.419083 0.767999 0.670952
O O6 0.463255 0.870580 0.487749
O O7 0.419861 0.053587 0.322665
O O8 0.895837 0.822539 0.686486
O O9 0.250000 0.000000 0.446002
#
# Coordination Sequence:
#
# PCOD9421677 Si02
#       5
#     8   8   4   4   8
#     4  11  24  45  69  96 134 177 227 292 347 398
#     4  11  24  42  65  99 134 176 230 281 340 419
#     4  11  22  37  62  94 130 177 216 265 344 418
#     4   9  22  41  64 100 134 175 234 279 342 428
#     4  10  20  37  61  93 134 173 214 275 341 415
#
# _framework density 23.284822999999999
#
# number of rings (size 3 to 8) (size 9 to 14) (size 15 to 20)
#    0.000    1.500    0.000    4.500    0.000    8.000 
#    0.000    6.250    0.000    0.000    0.000    0.000 
#    0.000    0.000    0.000    0.000    0.000    0.000 
#
# Total GULP energy -178141.187665 kJ/mol
# GULP energy per Si atom -5566.912115 kJ/mol
# Density = 2.323183 g / cm^3
# Si number density = 23.284823 Si / 1000 Ang^3
#
#
#
# Elastic Constant Matrix: (Units=GPa)
#
#
# Indices 1 2 3 4 5 6 
#
# 1 117.3197 47.8440 30.4339 0.0000 0.0000 0.0000
# 2 47.8440 106.3089 35.0163 0.0000 0.0000 0.0000
# 3 30.4339 35.0163 134.2547 0.0000 0.0000 0.0000
# 4 0.0000 0.0000 0.0000 7.3611 0.0000 0.0000
# 5 0.0000 0.0000 0.0000 0.0000 41.3152 0.0000
# 6 0.0000 0.0000 0.0000 0.0000 0.0000 57.6809
#
#
#
# Elastic Compliance Matrix: (Units=1/GPa)
#
#
# Indices 1 2 3 4 5 6 
#
# 1 0.010635 -0.004367 -0.001272 0.000000 0.000000 0.000000
# 2 -0.004367 0.012084 -0.002162 0.000000 0.000000 0.000000
# 3 -0.001272 -0.002162 0.008301 0.000000 0.000000 0.000000
# 4 0.000000 0.000000 0.000000 0.135849 0.000000 0.000000
# 5 0.000000 0.000000 0.000000 0.000000 0.024204 0.000000
# 6 0.000000 0.000000 0.000000 0.000000 0.000000 0.017337
#
#
# Mechanical properties :
#
#
# Convention : Reuss Voigt Hill
#
# Bulk Modulus (GPa) = 64.85938 64.94132 64.90035
# Shear Modulus (GPa) = 21.81982 37.57738 29.69860
#
# Velocity S-wave (km/s) = 3.06450 4.02159 3.57522
# Velocity P-wave (km/s) = 6.35900 7.03667 6.70640
#
# Compressibility (1/GPa) = 0.01541797
#
# Stress axis : x y z
#
# Youngs Moduli (GPa) = 94.03284 82.75379 120.47269
#
# Poissons Ratio (x) = 0.36140 0.15320
# Poissons Ratio (y) = 0.41066 0.26043
# Poissons Ratio (z) = 0.11958 0.17889
#
# Static dielectric constant tensor:
#      x y z
#    x 2.037380 0.000000 0.000000 
#    y 0.000000 2.015880 0.000000 
#    z 0.000000 0.000000 1.832980 
# 
# From -- ./inp_files/11245.got.cif
#   From: 2010.05.17/outbox.cif.g08.bks.cpg/sg54_6_cif.got.tgz:11245.got - 2010.06.03 13:09:01.
