data_PCOD9421372
_publ_section_title
;
Structure prediction by ZEFSAII (Michael W. Deem and Ramdas Pophale) SiO2 
 PCOD9421372
Probable space group: P C C A
;
_chemical_formula_sum "Si O2"
_cell_formula_units_Z 44
_cell_length_a 12.616079
_cell_length_b 5.672099
_cell_length_c 27.398377
_cell_angle_alpha 90.000000
_cell_angle_beta 90.000000
_cell_angle_gamma 90.000000
_cell_volume 1960.618243
_symmetry_space_group_name_H-M "P C C A"
_symmetry_group_IT_number 54
_symmetry_cell_setting 'orthorhombic'
loop_
_space_group_symop_operation_xyz
x,y,z
1/2-x,-y,z
1/2+x,-y,1/2-z
-x,y,1/2-z
-x,-y,-z
1/2+x,y,-z
1/2-x,y,1/2+z
x,-y,1/2+z
loop_
_atom_site_type_symbol
_atom_site_label
_atom_site_fract_x
_atom_site_fract_y
_atom_site_fract_z
Si Si1 0.572720 0.666932 0.563015
Si Si2 0.750000 0.000000 0.045133
Si Si3 0.250000 0.000000 0.274372
Si Si4 0.520372 0.970263 0.692309
Si Si5 0.250000 0.500000 0.268944
Si Si6 0.850405 0.377929 0.972355
Si Si7 0.455167 0.465926 0.839166
O O1 0.447852 0.719816 0.558882
O O2 0.605122 0.577153 0.509400
O O3 0.583583 0.472243 0.605087
O O4 0.656984 0.870125 0.574659
O O5 0.808863 0.180288 0.009073
O O6 0.351861 0.012435 0.309124
O O7 0.251858 0.243607 0.244045
O O8 0.500000 0.965023 0.750000
O O9 0.487384 0.719088 0.669786
O O10 0.483392 0.222648 0.671363
O O11 0.144451 0.482353 0.302183
O O12 0.750000 0.500000 0.946058
#
# Coordination Sequence:
#
# PCOD9421372 Si02
#       7
#     8   4   4   8   4   8   8
#     4  10  21  34  56  83 121 149 201 244 301 354
#     4  10  20  33  58  85 114 152 194 248 299 360
#     4   8  16  31  50  75  98 136 168 224 281 340
#     4  10  20  37  57  80 114 147 188 235 297 352
#     4   8  16  28  46  76 108 126 168 228 294 324
#     4   9  20  38  54  81 116 161 195 240 295 358
#     4  10  21  33  56  86 113 147 188 242 294 350
#
# _framework density 22.441903
#
# number of rings (size 3 to 8) (size 9 to 14) (size 15 to 20)
#    0.000    2.545    0.000    1.091    6.364    2.909 
#    0.000    0.000    4.000    0.000    0.000    0.000 
#    0.000    0.000    0.000    0.000    0.000    0.000 
#
# Total GULP energy -245038.786880 kJ/mol
# GULP energy per Si atom -5569.063338 kJ/mol
# Density = 2.239082 g / cm^3
# Si number density = 22.441903 Si / 1000 Ang^3
#
#
#
# Elastic Constant Matrix: (Units=GPa)
#
#
# Indices 1 2 3 4 5 6 
#
# 1 94.5458 23.8307 26.2039 0.0000 0.0000 0.0000
# 2 23.8307 178.1453 12.6498 0.0000 0.0000 0.0000
# 3 26.2039 12.6498 51.8840 0.0000 0.0000 0.0000
# 4 0.0000 0.0000 0.0000 4.6929 0.0000 0.0000
# 5 0.0000 0.0000 0.0000 0.0000 -77.3695 0.0000
# 6 0.0000 0.0000 0.0000 0.0000 0.0000 8.9099
#
#
#
# Elastic Compliance Matrix: (Units=1/GPa)
#
#
# Indices 1 2 3 4 5 6 
#
# 1 0.012567 -0.001252 -0.006042 0.000000 0.000000 0.000000
# 2 -0.001252 0.005837 -0.000791 0.000000 0.000000 0.000000
# 3 -0.006042 -0.000791 0.022518 0.000000 0.000000 0.000000
# 4 0.000000 0.000000 0.000000 0.213087 0.000000 0.000000
# 5 0.000000 0.000000 0.000000 0.000000 -0.012925 0.000000
# 6 0.000000 0.000000 0.000000 0.000000 0.000000 0.112234
#
#
# Mechanical properties :
#
#
# Convention : Reuss Voigt Hill
#
# Bulk Modulus (GPa) = 40.39934 49.99378 45.19656
# Shear Modulus (GPa) = 13.23668 4.70606 8.97137
#
# Velocity S-wave (km/s) = 2.43126 1.44967 2.00157
# Velocity P-wave (km/s) = 5.09138 5.01272 5.05221
#
# Compressibility (1/GPa) = 0.02475288
#
# Stress axis : x y z
#
# Youngs Moduli (GPa) = 79.57384 171.31977 44.40922
#
# Poissons Ratio (x) = 0.21451 0.26830
# Poissons Ratio (y) = 0.09963 0.03512
# Poissons Ratio (z) = 0.48076 0.13547
#
# Static dielectric constant tensor:
#      x y z
#    x 1.894850 0.000000 0.000000 
#    y 0.000000 1.963730 0.000000 
#    z 0.000000 0.000000 1.768140 
# 
# From -- ./inp_files/26404.got.cif
#   From: 2010.05.17/outbox.cif.g08.bks.cpg/sg54_14_cif.got.tgz:26404.got - 2010.06.03 13:09:01.
