data_PCOD9421243
_publ_section_title
;
Structure prediction by ZEFSAII (Michael W. Deem and Ramdas Pophale) SiO2 
 PCOD9421243
Probable space group: P C C A
;
_chemical_formula_sum "Si O2"
_cell_formula_units_Z 36
_cell_length_a 10.544661
_cell_length_b 12.933297
_cell_length_c 11.253568
_cell_angle_alpha 90.000000
_cell_angle_beta 90.000000
_cell_angle_gamma 90.000000
_cell_volume 1534.730459
_symmetry_space_group_name_H-M "P C C A"
_symmetry_group_IT_number 54
_symmetry_cell_setting 'orthorhombic'
loop_
_space_group_symop_operation_xyz
x,y,z
1/2-x,-y,z
1/2+x,-y,1/2-z
-x,y,1/2-z
-x,-y,-z
1/2+x,y,-z
1/2-x,y,1/2+z
x,-y,1/2+z
loop_
_atom_site_type_symbol
_atom_site_label
_atom_site_fract_x
_atom_site_fract_y
_atom_site_fract_z
Si Si1 0.750000 0.500000 0.528039
Si Si2 0.513224 0.223727 0.040215
Si Si3 0.917293 0.393981 0.363181
Si Si4 0.232246 0.120526 0.469796
Si Si5 0.725820 0.298694 0.192631
O O1 0.868981 0.488731 0.440522
O O2 0.750816 0.397980 0.607641
O O3 0.581067 0.270298 0.157456
O O4 0.628225 0.154518 0.987508
O O5 0.505132 0.316429 0.946236
O O6 0.385068 0.157644 0.052128
O O7 0.789986 0.335163 0.314650
O O8 0.000000 0.424373 0.250000
O O9 0.209462 0.192103 0.352890
O O10 0.250000 0.000000 0.446458
#
# Coordination Sequence:
#
# PCOD9421243 Si02
#       5
#     4   8   8   8   8
#     4  10  22  38  54  92 118 164 212 258 308 370
#     4   9  20  37  62  90 123 157 208 248 311 373
#     4  11  19  39  60  83 126 169 206 262 312 370
#     4  10  19  38  64  88 122 160 200 255 314 371
#     4   9  21  36  60  88 124 156 214 246 313 368
#
# _framework density 23.456886999999998
#
# number of rings (size 3 to 8) (size 9 to 14) (size 15 to 20)
#    1.333    0.889    2.222    1.333    0.000    0.889 
#    4.000    2.222    0.000    0.000    0.000    0.000 
#    0.000    0.000    0.000    0.000    0.000    0.000 
#
# Total GULP energy -200516.657409 kJ/mol
# GULP energy per Si atom -5569.907150 kJ/mol
# Density = 2.340350 g / cm^3
# Si number density = 23.456887 Si / 1000 Ang^3
#
#
#
# Elastic Constant Matrix: (Units=GPa)
#
#
# Indices 1 2 3 4 5 6 
#
# 1 150.0338 64.4841 40.4265 0.0000 0.0000 0.0000
# 2 64.4841 173.8489 34.1232 0.0000 0.0000 0.0000
# 3 40.4265 34.1232 30.0278 0.0000 0.0000 0.0000
# 4 0.0000 0.0000 0.0000 4.3044 0.0000 0.0000
# 5 0.0000 0.0000 0.0000 0.0000 50.1292 0.0000
# 6 0.0000 0.0000 0.0000 0.0000 0.0000 36.0495
#
#
#
# Elastic Compliance Matrix: (Units=1/GPa)
#
#
# Indices 1 2 3 4 5 6 
#
# 1 0.010746 -0.001475 -0.012790 0.000000 0.000000 0.000000
# 2 -0.001475 0.007606 -0.006657 0.000000 0.000000 0.000000
# 3 -0.012790 -0.006657 0.058087 0.000000 0.000000 0.000000
# 4 0.000000 0.000000 0.000000 0.232322 0.000000 0.000000
# 5 0.000000 0.000000 0.000000 0.000000 0.019948 0.000000
# 6 0.000000 0.000000 0.000000 0.000000 0.000000 0.027740
#
#
# Mechanical properties :
#
#
# Convention : Reuss Voigt Hill
#
# Bulk Modulus (GPa) = 28.90734 70.21977 49.56356
# Shear Modulus (GPa) = 12.20031 32.42172 22.31102
#
# Velocity S-wave (km/s) = 2.28308 3.72181 3.08742
# Velocity P-wave (km/s) = 4.39321 6.96202 5.82109
#
# Compressibility (1/GPa) = 0.03459329
#
# Stress axis : x y z
#
# Youngs Moduli (GPa) = 93.06164 131.47493 17.21545
#
# Poissons Ratio (x) = 0.19396 0.22019
# Poissons Ratio (y) = 0.13729 0.11461
# Poissons Ratio (z) = 1.19029 0.87526
#
# Static dielectric constant tensor:
#      x y z
#    x 2.018500 0.000000 0.000000 
#    y 0.000000 1.838940 0.000000 
#    z 0.000000 0.000000 1.936810 
# 
# From -- ./inp_files/8155.got.cif
#   From: 2010.05.17/outbox.cif.g08.bks.cpg/sg54_5_cif.got.tgz:8155.got - 2010.06.03 13:09:01.
