data_PCOD9421412
_publ_section_title
;
Structure prediction by ZEFSAII (Michael W. Deem and Ramdas Pophale) SiO2 
 PCOD9421412
Probable space group: P C C A
;
_chemical_formula_sum "Si O2"
_cell_formula_units_Z 40
_cell_length_a 19.462642
_cell_length_b 5.817340
_cell_length_c 17.570372
_cell_angle_alpha 90.000000
_cell_angle_beta 90.000000
_cell_angle_gamma 90.000000
_cell_volume 1989.331676
_symmetry_space_group_name_H-M "P C C A"
_symmetry_group_IT_number 54
_symmetry_cell_setting 'orthorhombic'
loop_
_space_group_symop_operation_xyz
x,y,z
1/2-x,-y,z
1/2+x,-y,1/2-z
-x,y,1/2-z
-x,-y,-z
1/2+x,y,-z
1/2-x,y,1/2+z
x,-y,1/2+z
loop_
_atom_site_type_symbol
_atom_site_label
_atom_site_fract_x
_atom_site_fract_y
_atom_site_fract_z
Si Si1 0.750000 0.500000 0.664667
Si Si2 0.500000 0.092422 0.750000
Si Si3 0.875165 0.793005 0.194989
Si Si4 0.320398 0.117339 0.938452
Si Si5 0.053046 0.202640 0.522177
Si Si6 0.484136 0.531764 0.372510
O O1 0.699450 0.673738 0.711545
O O2 0.797772 0.656027 0.609052
O O3 0.489804 0.255797 0.676514
O O4 0.428749 0.949426 0.757223
O O5 0.923944 0.580924 0.175305
O O6 0.859223 0.950744 0.121292
O O7 0.250000 0.000000 0.961018
O O8 0.368465 0.133797 0.011915
O O9 0.035200 0.329619 0.600524
O O10 0.045628 0.378760 0.451850
O O11 0.000000 0.000000 0.500000
#
# Coordination Sequence:
#
# PCOD9421412 Si02
#       6
#     4   4   8   8   8   8
#     4  10  20  36  58  90 128 158 206 274 314 372
#     4  12  22  36  56  94 128 174 218 266 318 388
#     4  11  20  37  57  91 128 160 217 262 317 382
#     4  10  20  34  59  91 126 159 206 266 321 380
#     4  11  20  37  58  94 130 157 209 274 326 376
#     4  11  22  34  59  89 132 159 210 268 327 371
#
# _framework density 20.107254999999999
#
# number of rings (size 3 to 8) (size 9 to 14) (size 15 to 20)
#    0.000    1.200    6.000    0.600    0.000    0.000 
#    0.000    0.000    0.000    0.000    0.000  147.000 
#    0.000    0.000    0.000    0.000    0.000    0.000 
#
# Total GULP energy -222784.079304 kJ/mol
# GULP energy per Si atom -5569.601983 kJ/mol
# Density = 2.006149 g / cm^3
# Si number density = 20.107255 Si / 1000 Ang^3
#
#
#
# Elastic Constant Matrix: (Units=GPa)
#
#
# Indices 1 2 3 4 5 6 
#
# 1 152.1466 51.0121 36.2283 0.0000 0.0000 0.0000
# 2 51.0121 87.6495 12.6731 0.0000 0.0000 0.0000
# 3 36.2283 12.6731 39.2403 0.0000 0.0000 0.0000
# 4 0.0000 0.0000 0.0000 20.8595 0.0000 0.0000
# 5 0.0000 0.0000 0.0000 0.0000 30.0437 0.0000
# 6 0.0000 0.0000 0.0000 0.0000 0.0000 37.1140
#
#
#
# Elastic Compliance Matrix: (Units=1/GPa)
#
#
# Indices 1 2 3 4 5 6 
#
# 1 0.009980 -0.004695 -0.007697 0.000000 0.000000 0.000000
# 2 -0.004695 0.014177 -0.000244 0.000000 0.000000 0.000000
# 3 -0.007697 -0.000244 0.032669 0.000000 0.000000 0.000000
# 4 0.000000 0.000000 0.000000 0.047940 0.000000 0.000000
# 5 0.000000 0.000000 0.000000 0.000000 0.033285 0.000000
# 6 0.000000 0.000000 0.000000 0.000000 0.000000 0.026944
#
#
# Mechanical properties :
#
#
# Convention : Reuss Voigt Hill
#
# Bulk Modulus (GPa) = 31.69244 53.20701 42.44973
# Shear Modulus (GPa) = 24.90228 29.54496 27.22362
#
# Velocity S-wave (km/s) = 3.52301 3.83739 3.68356
# Velocity P-wave (km/s) = 5.68724 6.79361 6.26490
#
# Compressibility (1/GPa) = 0.03155327
#
# Stress axis : x y z
#
# Youngs Moduli (GPa) = 100.20372 70.53697 30.60987
#
# Poissons Ratio (x) = 0.33119 0.23561
# Poissons Ratio (y) = 0.47048 0.00746
# Poissons Ratio (z) = 0.77129 0.01720
#
# Static dielectric constant tensor:
#      x y z
#    x 1.795660 0.000000 0.000000 
#    y 0.000000 1.871290 0.000000 
#    z 0.000000 0.000000 1.705400 
# 
# From -- ./inp_files/18418.got.cif
#   From: 2010.05.17/outbox.cif.g08.bks.cpg/sg54_10_cif.got.tgz:18418.got - 2010.06.03 13:09:01.
