data_PCOD9421789
_publ_section_title
;
Structure prediction by ZEFSAII (Michael W. Deem and Ramdas Pophale) SiO2 
 PCOD9421789
Probable space group: P C C A
;
_chemical_formula_sum "Si O2"
_cell_formula_units_Z 56
_cell_length_a 9.511829
_cell_length_b 13.708820
_cell_length_c 20.997449
_cell_angle_alpha 90.000000
_cell_angle_beta 90.000000
_cell_angle_gamma 90.000000
_cell_volume 2737.982344
_symmetry_space_group_name_H-M "P C C A"
_symmetry_group_IT_number 54
_symmetry_cell_setting 'orthorhombic'
loop_
_space_group_symop_operation_xyz
x,y,z
1/2-x,-y,z
1/2+x,-y,1/2-z
-x,y,1/2-z
-x,-y,-z
1/2+x,y,-z
1/2-x,y,1/2+z
x,-y,1/2+z
loop_
_atom_site_type_symbol
_atom_site_label
_atom_site_fract_x
_atom_site_fract_y
_atom_site_fract_z
Si Si1 0.090690 0.331487 0.071964
Si Si2 0.315670 0.391843 0.978200
Si Si3 0.970855 0.740707 0.319792
Si Si4 0.891861 0.114868 0.444234
Si Si5 0.197340 0.611415 0.699761
Si Si6 0.939882 0.903379 0.425679
Si Si7 0.752868 0.383179 0.662157
O O1 0.060960 0.218140 0.083469
O O2 0.091905 0.384410 0.140083
O O3 0.983506 0.381396 0.021924
O O4 0.240901 0.338445 0.036422
O O5 0.250000 0.500000 0.980310
O O6 0.287404 0.346892 0.908113
O O7 0.822680 0.684645 0.320054
O O8 0.975129 0.825022 0.371950
O O9 0.000000 0.784300 0.250000
O O10 0.091303 0.658909 0.327469
O O11 0.722727 0.111693 0.445998
O O12 0.957128 0.110556 0.514720
O O13 0.945220 0.018239 0.407813
O O14 0.250000 0.500000 0.702858
O O15 0.165717 0.640160 0.773199
O O16 0.750000 0.500000 0.657428
#
# Coordination Sequence:
#
# PCOD9421789 Si02
#       7
#     8   8   8   8   8   8   8
#     4  12  23  38  60  89 126 160 203 255 315 365
#     4  11  25  38  58  86 127 167 203 254 308 371
#     4  10  20  38  64  88 123 165 206 249 312 376
#     4  10  21  36  63  89 121 158 199 269 308 369
#     4  10  22  36  60  89 119 160 205 249 299 376
#     4  10  20  39  63  92 119 155 215 253 319 373
#     4   9  21  39  58  86 121 162 206 250 297 368
#
# _framework density 20.453016000000002
#
# number of rings (size 3 to 8) (size 9 to 14) (size 15 to 20)
#    0.000    1.714    1.429    2.571    6.000    0.571 
#    0.000    0.000    3.143    6.857    0.000    0.000 
#    0.000    0.000    0.000    0.000    0.000    0.000 
#
# Total GULP energy -312412.045659 kJ/mol
# GULP energy per Si atom -5578.786530 kJ/mol
# Density = 2.040646 g / cm^3
# Si number density = 20.453016 Si / 1000 Ang^3
#
#
#
# Elastic Constant Matrix: (Units=GPa)
#
#
# Indices 1 2 3 4 5 6 
#
# 1 59.1977 13.1024 24.1737 0.0000 0.0000 0.0000
# 2 13.1024 116.4477 39.9269 0.0000 0.0000 0.0000
# 3 24.1737 39.9269 113.1086 0.0000 0.0000 0.0000
# 4 0.0000 0.0000 0.0000 3.9314 0.0000 0.0000
# 5 0.0000 0.0000 0.0000 0.0000 31.4282 0.0000
# 6 0.0000 0.0000 0.0000 0.0000 0.0000 20.6027
#
#
#
# Elastic Compliance Matrix: (Units=1/GPa)
#
#
# Indices 1 2 3 4 5 6 
#
# 1 0.018578 -0.000829 -0.003678 0.000000 0.000000 0.000000
# 2 -0.000829 0.009807 -0.003285 0.000000 0.000000 0.000000
# 3 -0.003678 -0.003285 0.010787 0.000000 0.000000 0.000000
# 4 0.000000 0.000000 0.000000 0.254365 0.000000 0.000000
# 5 0.000000 0.000000 0.000000 0.000000 0.031819 0.000000
# 6 0.000000 0.000000 0.000000 0.000000 0.000000 0.048537
#
#
# Mechanical properties :
#
#
# Convention : Reuss Voigt Hill
#
# Bulk Modulus (GPa) = 42.39417 49.23998 45.81708
# Shear Modulus (GPa) = 12.58372 25.29586 18.93979
#
# Velocity S-wave (km/s) = 2.48311 3.52060 3.04635
# Velocity P-wave (km/s) = 5.38458 6.37598 5.90114
#
# Compressibility (1/GPa) = 0.02358815
#
# Stress axis : x y z
#
# Youngs Moduli (GPa) = 53.82732 101.96729 92.70831
#
# Poissons Ratio (x) = 0.08457 0.34096
# Poissons Ratio (y) = 0.04464 0.30451
# Poissons Ratio (z) = 0.19796 0.33492
#
# Static dielectric constant tensor:
#      x y z
#    x 1.839450 0.000000 0.000000 
#    y 0.000000 1.731370 0.000000 
#    z 0.000000 0.000000 1.748760 
# 
# From -- ./inp_files/20545.got.cif
#   From: 2010.05.17/outbox.cif.g08.bks.cpg/sg54_11_cif.got.tgz:20545.got - 2010.06.03 13:09:01.
