data_PCOD9421983
_publ_section_title
;
Structure prediction by ZEFSAII (Michael W. Deem and Ramdas Pophale) SiO2 
 PCOD9421983
Probable space group: P C C A
;
_chemical_formula_sum "Si O2"
_cell_formula_units_Z 48
_cell_length_a 27.132374
_cell_length_b 4.913612
_cell_length_c 13.723193
_cell_angle_alpha 90.000000
_cell_angle_beta 90.000000
_cell_angle_gamma 90.000000
_cell_volume 1829.548075
_symmetry_space_group_name_H-M "P C C A"
_symmetry_group_IT_number 54
_symmetry_cell_setting 'orthorhombic'
loop_
_space_group_symop_operation_xyz
x,y,z
1/2-x,-y,z
1/2+x,-y,1/2-z
-x,y,1/2-z
-x,-y,-z
1/2+x,y,-z
1/2-x,y,1/2+z
x,-y,1/2+z
loop_
_atom_site_type_symbol
_atom_site_label
_atom_site_fract_x
_atom_site_fract_y
_atom_site_fract_z
Si Si1 0.147976 0.184867 0.555132
Si Si2 0.250000 0.000000 0.588173
Si Si3 0.500000 0.962734 0.250000
Si Si4 0.954565 0.143302 0.444078
Si Si5 0.206667 0.540039 0.707886
Si Si6 0.424385 0.352190 0.363116
Si Si7 0.365525 0.168759 0.841777
O O1 0.196024 0.987818 0.543508
O O2 0.095366 0.037827 0.569768
O O3 0.163496 0.387520 0.642629
O O4 0.148080 0.301005 0.446042
O O5 0.250133 0.271023 0.652317
O O6 0.524418 0.794252 0.338305
O O7 0.462993 0.175850 0.302466
O O8 0.939807 0.370652 0.523074
O O9 0.000000 0.000000 0.500000
O O10 0.250000 0.500000 0.794163
O O11 0.172941 0.773449 0.758527
O O12 0.413322 0.646337 0.320721
O O13 0.377348 0.147152 0.355552
#
# Coordination Sequence:
#
# PCOD9421983 Si02
#       7
#     8   4   4   8   8   8   8
#     4  10  23  43  68  98 141 182 229 292 357 419
#     4  10  24  42  66 100 134 184 228 290 356 426
#     4  10  20  40  72  96 140 180 228 284 358 402
#     4   9  20  41  67 101 136 180 235 290 342 428
#     4  10  24  41  65  99 136 178 235 287 352 428
#     4  10  24  42  64 102 131 180 228 280 347 412
#     4  11  25  42  70  96 136 181 227 283 346 418
#
# _framework density 26.235986
#
# number of rings (size 3 to 8) (size 9 to 14) (size 15 to 20)
#    0.000    2.000    0.000    1.000   11.667    3.333 
#    0.000   20.833    0.000    0.000    0.000    0.000 
#    0.000    0.000    0.000    0.000    0.000    0.000 
#
# Total GULP energy -267259.388762 kJ/mol
# GULP energy per Si atom -5567.903933 kJ/mol
# Density = 2.617627 g / cm^3
# Si number density = 26.235986 Si / 1000 Ang^3
#
#
#
# Elastic Constant Matrix: (Units=GPa)
#
#
# Indices 1 2 3 4 5 6 
#
# 1 162.7382 22.1554 46.8383 0.0000 0.0000 0.0000
# 2 22.1554 96.2835 5.5278 0.0000 0.0000 0.0000
# 3 46.8383 5.5278 115.1013 0.0000 0.0000 0.0000
# 4 0.0000 0.0000 0.0000 28.1097 0.0000 0.0000
# 5 0.0000 0.0000 0.0000 0.0000 50.8774 0.0000
# 6 0.0000 0.0000 0.0000 0.0000 0.0000 26.8826
#
#
#
# Elastic Compliance Matrix: (Units=1/GPa)
#
#
# Indices 1 2 3 4 5 6 
#
# 1 0.007166 -0.001486 -0.002845 0.000000 0.000000 0.000000
# 2 -0.001486 0.010723 0.000090 0.000000 0.000000 0.000000
# 3 -0.002845 0.000090 0.009841 0.000000 0.000000 0.000000
# 4 0.000000 0.000000 0.000000 0.035575 0.000000 0.000000
# 5 0.000000 0.000000 0.000000 0.000000 0.019655 0.000000
# 6 0.000000 0.000000 0.000000 0.000000 0.000000 0.037199
#
#
# Mechanical properties :
#
#
# Convention : Reuss Voigt Hill
#
# Bulk Modulus (GPa) = 51.95225 58.12959 55.04092
# Shear Modulus (GPa) = 37.02166 41.14736 39.08451
#
# Velocity S-wave (km/s) = 3.76054 3.96454 3.86389
# Velocity P-wave (km/s) = 6.22097 6.56973 6.39773
#
# Compressibility (1/GPa) = 0.01924845
#
# Stress axis : x y z
#
# Youngs Moduli (GPa) = 139.55146 93.26017 101.61291
#
# Poissons Ratio (x) = 0.13855 0.28905
# Poissons Ratio (y) = 0.20732 -0.00910
# Poissons Ratio (z) = 0.39697 -0.00835
#
# Static dielectric constant tensor:
#      x y z
#    x 2.331650 0.000000 0.000000 
#    y 0.000000 1.907590 0.000000 
#    z 0.000000 0.000000 2.082520 
# 
# From -- ./inp_files/15214.got.cif
#   From: 2010.05.17/outbox.cif.g08.bks.cpg/sg54_8_cif.got.tgz:15214.got - 2010.06.03 13:09:01.
