data_PCOD9421029
_publ_section_title
;
Structure prediction by ZEFSAII (Michael W. Deem and Ramdas Pophale) SiO2 
 PCOD9421029
Probable space group: P C C A
;
_chemical_formula_sum "Si O2"
_cell_formula_units_Z 44
_cell_length_a 11.149088
_cell_length_b 8.584932
_cell_length_c 25.050936
_cell_angle_alpha 90.000000
_cell_angle_beta 90.000000
_cell_angle_gamma 90.000000
_cell_volume 2397.729355
_symmetry_space_group_name_H-M "P C C A"
_symmetry_group_IT_number 54
_symmetry_cell_setting 'orthorhombic'
loop_
_space_group_symop_operation_xyz
x,y,z
1/2-x,-y,z
1/2+x,-y,1/2-z
-x,y,1/2-z
-x,-y,-z
1/2+x,y,-z
1/2-x,y,1/2+z
x,-y,1/2+z
loop_
_atom_site_type_symbol
_atom_site_label
_atom_site_fract_x
_atom_site_fract_y
_atom_site_fract_z
Si Si1 0.520013 0.323309 0.568312
Si Si2 0.500000 0.635342 0.750000
Si Si3 0.247668 0.186778 0.234198
Si Si4 0.630061 0.600779 0.178539
Si Si5 0.712969 0.178356 0.887915
Si Si6 0.861441 0.610486 0.463258
O O1 0.596013 0.327022 0.622088
O O2 0.408589 0.210973 0.579860
O O3 0.592948 0.293463 0.514247
O O4 0.463864 0.495367 0.558436
O O5 0.618554 0.739469 0.760056
O O6 0.469669 0.518728 0.798917
O O7 0.162221 0.269998 0.277135
O O8 0.201428 0.221901 0.174354
O O9 0.250000 0.000000 0.241440
O O10 0.750000 0.500000 0.171961
O O11 0.813584 0.282792 0.915931
O O12 0.750000 0.000000 0.890166
O O13 0.750000 0.500000 0.480313
#
# Coordination Sequence:
#
# PCOD9421029 Si02
#       6
#     8   4   8   8   8   8
#     4  10  19  34  56  77 104 139 173 225 271 308
#     4  10  20  34  54  78 106 142 178 222 266 314
#     4  10  22  37  54  80 112 145 182 222 273 331
#     4  10  20  34  55  81 106 137 182 223 266 322
#     4  10  21  35  52  76 105 139 177 214 263 327
#     4   9  19  35  55  78 103 135 178 218 267 324
#
# _framework density 18.350694000000001
#
# number of rings (size 3 to 8) (size 9 to 14) (size 15 to 20)
#    0.000    2.182    0.000    2.727    0.000    9.455 
#    0.000    0.909    0.000    0.000    0.000    0.000 
#    0.000    0.000    0.000    0.000    0.000    0.000 
#
# Total GULP energy -245546.692678 kJ/mol
# GULP energy per Si atom -5580.606652 kJ/mol
# Density = 1.830893 g / cm^3
# Si number density = 18.350694 Si / 1000 Ang^3
#
#
#
# Elastic Constant Matrix: (Units=GPa)
#
#
# Indices 1 2 3 4 5 6 
#
# 1 41.8876 26.2809 37.7779 0.0000 0.0000 0.0000
# 2 26.2809 65.1842 43.3093 0.0000 0.0000 0.0000
# 3 37.7779 43.3093 134.1099 0.0000 0.0000 0.0000
# 4 0.0000 0.0000 0.0000 21.1015 0.0000 0.0000
# 5 0.0000 0.0000 0.0000 0.0000 31.8644 0.0000
# 6 0.0000 0.0000 0.0000 0.0000 0.0000 13.0468
#
#
#
# Elastic Compliance Matrix: (Units=1/GPa)
#
#
# Indices 1 2 3 4 5 6 
#
# 1 0.036532 -0.010047 -0.007046 0.000000 0.000000 0.000000
# 2 -0.010047 0.022295 -0.004370 0.000000 0.000000 0.000000
# 3 -0.007046 -0.004370 0.010853 0.000000 0.000000 0.000000
# 4 0.000000 0.000000 0.000000 0.047390 0.000000 0.000000
# 5 0.000000 0.000000 0.000000 0.000000 0.031383 0.000000
# 6 0.000000 0.000000 0.000000 0.000000 0.000000 0.076647
#
#
# Mechanical properties :
#
#
# Convention : Reuss Voigt Hill
#
# Bulk Modulus (GPa) = 37.37836 50.65754 44.01795
# Shear Modulus (GPa) = 18.05412 22.12345 20.08878
#
# Velocity S-wave (km/s) = 3.14002 3.47593 3.31224
# Velocity P-wave (km/s) = 5.79305 6.61624 6.21828
#
# Compressibility (1/GPa) = 0.02675345
#
# Stress axis : x y z
#
# Youngs Moduli (GPa) = 27.37307 44.85235 92.14384
#
# Poissons Ratio (x) = 0.45065 0.64926
# Poissons Ratio (y) = 0.27503 0.40264
# Poissons Ratio (z) = 0.19288 0.19599
#
# Static dielectric constant tensor:
#      x y z
#    x 1.645260 0.000000 0.000000 
#    y 0.000000 1.605130 0.000000 
#    z 0.000000 0.000000 1.622990 
# 
# From -- ./inp_files/24087.got.cif
#   From: 2010.05.17/outbox.cif.g08.bks.cpg/sg54_13_cif.got.tgz:24087.got - 2010.06.03 13:09:01.
