data_PCOD9421668
_publ_section_title
;
Structure prediction by ZEFSAII (Michael W. Deem and Ramdas Pophale) SiO2 
 PCOD9421668
Probable space group: P C C A
;
_chemical_formula_sum "Si O2"
_cell_formula_units_Z 36
_cell_length_a 5.483625
_cell_length_b 13.627122
_cell_length_c 23.479119
_cell_angle_alpha 90.000000
_cell_angle_beta 90.000000
_cell_angle_gamma 90.000000
_cell_volume 1754.501277
_symmetry_space_group_name_H-M "P C C A"
_symmetry_group_IT_number 54
_symmetry_cell_setting 'orthorhombic'
loop_
_space_group_symop_operation_xyz
x,y,z
1/2-x,-y,z
1/2+x,-y,1/2-z
-x,y,1/2-z
-x,-y,-z
1/2+x,y,-z
1/2-x,y,1/2+z
x,-y,1/2+z
loop_
_atom_site_type_symbol
_atom_site_label
_atom_site_fract_x
_atom_site_fract_y
_atom_site_fract_z
Si Si1 0.000000 0.768047 0.250000
Si Si2 0.112830 0.909567 0.690563
Si Si3 0.683214 0.735301 0.146563
Si Si4 0.494204 0.550462 0.181818
Si Si5 0.733880 0.617720 0.534640
O O1 0.811591 0.833920 0.285467
O O2 0.856608 0.712089 0.200795
O O3 0.000000 0.949362 0.750000
O O4 0.914495 0.846421 0.655019
O O5 0.250000 0.000000 0.660852
O O6 0.466061 0.660307 0.158940
O O7 0.784609 0.694015 0.087550
O O8 0.750000 0.500000 0.164695
O O9 0.500000 0.550234 0.250000
O O10 0.250000 0.500000 0.160688
O O11 0.750000 0.500000 0.547817
O O12 0.492120 0.635310 0.497022
#
# Coordination Sequence:
#
# PCOD9421668 Si02
#       5
#     4   8   8   8   8
#     4  10  22  36  64  96 132 170 210 266 342 406
#     4  10  20  37  60  92 134 174 211 262 335 415
#     4  11  24  37  64  96 127 169 226 273 331 400
#     4  10  22  35  52  82 128 170 197 246 322 394
#     4  10  24  46  69  92 126 179 235 279 327 388
#
# _framework density 20.518650000000001
#
# number of rings (size 3 to 8) (size 9 to 14) (size 15 to 20)
#    0.000    1.778    1.111    2.667   10.889    2.667 
#    0.000    0.000    0.000    1.333    0.000    0.000 
#    0.000    0.000    0.000    0.000    0.000    0.000 
#
# Total GULP energy -200713.531414 kJ/mol
# GULP energy per Si atom -5575.375873 kJ/mol
# Density = 2.047195 g / cm^3
# Si number density = 20.518650 Si / 1000 Ang^3
#
#
#
# Elastic Constant Matrix: (Units=GPa)
#
#
# Indices 1 2 3 4 5 6 
#
# 1 92.1333 25.5088 44.1972 0.0000 0.0000 0.0000
# 2 25.5088 87.2070 46.5086 0.0000 0.0000 0.0000
# 3 44.1972 46.5086 113.0032 0.0000 0.0000 0.0000
# 4 0.0000 0.0000 0.0000 9.5103 0.0000 0.0000
# 5 0.0000 0.0000 0.0000 0.0000 5.8711 0.0000
# 6 0.0000 0.0000 0.0000 0.0000 0.0000 39.7608
#
#
#
# Elastic Compliance Matrix: (Units=1/GPa)
#
#
# Indices 1 2 3 4 5 6 
#
# 1 0.013503 -0.001452 -0.004683 0.000000 0.000000 0.000000
# 2 -0.001452 0.014848 -0.005543 0.000000 0.000000 0.000000
# 3 -0.004683 -0.005543 0.012962 0.000000 0.000000 0.000000
# 4 0.000000 0.000000 0.000000 0.105150 0.000000 0.000000
# 5 0.000000 0.000000 0.000000 0.000000 0.170325 0.000000
# 6 0.000000 0.000000 0.000000 0.000000 0.000000 0.025150
#
#
# Mechanical properties :
#
#
# Convention : Reuss Voigt Hill
#
# Bulk Modulus (GPa) = 55.69173 58.30808 56.99990
# Shear Modulus (GPa) = 13.46693 22.77037 18.11865
#
# Velocity S-wave (km/s) = 2.56467 3.33489 2.97481
# Velocity P-wave (km/s) = 5.99758 6.58084 6.29597
#
# Compressibility (1/GPa) = 0.01795599
#
# Stress axis : x y z
#
# Youngs Moduli (GPa) = 74.06026 67.34985 77.14593
#
# Poissons Ratio (x) = 0.09778 0.36131
# Poissons Ratio (y) = 0.10752 0.42763
# Poissons Ratio (z) = 0.34686 0.37333
#
# Static dielectric constant tensor:
#      x y z
#    x 1.847050 0.000000 0.000000 
#    y 0.000000 1.791800 0.000000 
#    z 0.000000 0.000000 1.758660 
# 
# From -- ./inp_files/19593.got.cif
#   From: 2010.05.17/outbox.cif.g08.bks.cpg/sg54_10_cif.got.tgz:19593.got - 2010.06.03 13:09:01.
