data_PCOD9421160
_publ_section_title
;
Structure prediction by ZEFSAII (Michael W. Deem and Ramdas Pophale) SiO2 
 PCOD9421160
Probable space group: P C C A
;
_chemical_formula_sum "Si O2"
_cell_formula_units_Z 52
_cell_length_a 25.801568
_cell_length_b 7.627338
_cell_length_c 12.632499
_cell_angle_alpha 90.000000
_cell_angle_beta 90.000000
_cell_angle_gamma 90.000000
_cell_volume 2486.041444
_symmetry_space_group_name_H-M "P C C A"
_symmetry_group_IT_number 54
_symmetry_cell_setting 'orthorhombic'
loop_
_space_group_symop_operation_xyz
x,y,z
1/2-x,-y,z
1/2+x,-y,1/2-z
-x,y,1/2-z
-x,-y,-z
1/2+x,y,-z
1/2-x,y,1/2+z
x,-y,1/2+z
loop_
_atom_site_type_symbol
_atom_site_label
_atom_site_fract_x
_atom_site_fract_y
_atom_site_fract_z
Si Si1 0.953145 0.193193 0.679126
Si Si2 0.374823 0.908064 0.670268
Si Si3 0.071400 0.209742 0.064323
Si Si4 0.312455 0.348675 0.588882
Si Si5 0.703273 0.857570 0.214903
Si Si6 0.500000 0.158912 0.750000
Si Si7 0.209387 0.256271 0.519891
O O1 0.902308 0.227496 0.750619
O O2 0.948960 0.236116 0.555296
O O3 0.000000 0.269863 0.750000
O O4 0.962932 0.981422 0.688637
O O5 0.327266 0.842834 0.601124
O O6 0.416119 0.004623 0.593274
O O7 0.348722 0.050046 0.745923
O O8 0.127737 0.300136 0.073474
O O9 0.032017 0.260494 0.159433
O O10 0.292666 0.310599 0.707974
O O11 0.271280 0.224290 0.528304
O O12 0.302479 0.541926 0.546798
O O13 0.750000 0.000000 0.223301
O O14 0.695720 0.794335 0.097443
#
# Coordination Sequence:
#
# PCOD9421160 Si02
#       7
#     8   8   8   8   8   4   8
#     4   9  19  33  56  93 119 157 206 279 330 362
#     4  10  21  36  61  91 124 163 215 271 311 394
#     4  10  19  36  61  90 123 166 219 267 328 384
#     4  10  25  41  60  93 132 172 214 259 331 399
#     4  11  23  39  64  94 124 170 219 264 312 381
#     4   8  18  32  56  88 120 158 208 282 314 374
#     4  11  24  41  62  92 136 171 209 264 333 397
#
# _framework density 20.916788
#
# number of rings (size 3 to 8) (size 9 to 14) (size 15 to 20)
#    0.462    1.538    1.538    1.385    6.462    3.692 
#    0.000    0.000    1.692    0.923    0.000    0.000 
#    0.000    0.000    0.000    0.000    0.000    0.000 
#
# Total GULP energy -289621.101117 kJ/mol
# GULP energy per Si atom -5569.636560 kJ/mol
# Density = 2.086918 g / cm^3
# Si number density = 20.916788 Si / 1000 Ang^3
#
#
#
# Elastic Constant Matrix: (Units=GPa)
#
#
# Indices 1 2 3 4 5 6 
#
# 1 108.5834 23.6104 77.9922 0.0000 0.0000 0.0000
# 2 23.6104 33.4807 42.1560 0.0000 0.0000 0.0000
# 3 77.9922 42.1560 197.5895 0.0000 0.0000 0.0000
# 4 0.0000 0.0000 0.0000 18.9172 0.0000 0.0000
# 5 0.0000 0.0000 0.0000 0.0000 27.4300 0.0000
# 6 0.0000 0.0000 0.0000 0.0000 0.0000 22.7464
#
#
#
# Elastic Compliance Matrix: (Units=1/GPa)
#
#
# Indices 1 2 3 4 5 6 
#
# 1 0.013190 -0.003755 -0.004405 0.000000 0.000000 0.000000
# 2 -0.003755 0.041907 -0.007459 0.000000 0.000000 0.000000
# 3 -0.004405 -0.007459 0.008391 0.000000 0.000000 0.000000
# 4 0.000000 0.000000 0.000000 0.052862 0.000000 0.000000
# 5 0.000000 0.000000 0.000000 0.000000 0.036456 0.000000
# 6 0.000000 0.000000 0.000000 0.000000 0.000000 0.043963
#
#
# Mechanical properties :
#
#
# Convention : Reuss Voigt Hill
#
# Bulk Modulus (GPa) = 31.00706 69.68564 50.34635
# Shear Modulus (GPa) = 20.94165 26.87839 23.91002
#
# Velocity S-wave (km/s) = 3.16759 3.58860 3.38465
# Velocity P-wave (km/s) = 5.31360 7.11046 6.27667
#
# Compressibility (1/GPa) = 0.03225072
#
# Stress axis : x y z
#
# Youngs Moduli (GPa) = 75.81414 23.86208 119.17237
#
# Poissons Ratio (x) = 0.08960 0.52499
# Poissons Ratio (y) = 0.28467 0.88889
# Poissons Ratio (z) = 0.33398 0.17798
#
# Static dielectric constant tensor:
#      x y z
#    x 1.839290 0.000000 0.000000 
#    y 0.000000 1.763440 0.000000 
#    z 0.000000 0.000000 1.765450 
# 
# From -- ./inp_files/10307.got.cif
#   From: 2010.05.17/outbox.cif.g08.bks.cpg/sg54_6_cif.got.tgz:10307.got - 2010.06.03 13:09:01.
