data_PCOD9421999
_publ_section_title
;
Structure prediction by ZEFSAII (Michael W. Deem and Ramdas Pophale) SiO2 
 PCOD9421999
Probable space group: P C C A
;
_chemical_formula_sum "Si O2"
_cell_formula_units_Z 32
_cell_length_a 14.123243
_cell_length_b 5.373925
_cell_length_c 19.007285
_cell_angle_alpha 90.000000
_cell_angle_beta 90.000000
_cell_angle_gamma 90.000000
_cell_volume 1442.600636
_symmetry_space_group_name_H-M "P C C A"
_symmetry_group_IT_number 54
_symmetry_cell_setting 'orthorhombic'
loop_
_space_group_symop_operation_xyz
x,y,z
1/2-x,-y,z
1/2+x,-y,1/2-z
-x,y,1/2-z
-x,-y,-z
1/2+x,y,-z
1/2-x,y,1/2+z
x,-y,1/2+z
loop_
_atom_site_type_symbol
_atom_site_label
_atom_site_fract_x
_atom_site_fract_y
_atom_site_fract_z
Si Si1 0.569199 0.831009 0.588917
Si Si2 0.118164 0.113512 0.066242
Si Si3 0.385368 0.386645 0.127402
Si Si4 0.809561 0.754805 0.226485
O O1 0.623513 0.817244 0.515444
O O2 0.493803 0.609986 0.600525
O O3 0.636213 0.830759 0.655681
O O4 0.494070 0.058944 0.583374
O O5 0.152882 0.339850 0.113848
O O6 0.159095 0.840744 0.082724
O O7 0.378096 0.308291 0.208226
O O8 0.750000 0.500000 0.215104
O O9 0.750000 0.000000 0.246684
#
# Coordination Sequence:
#
# PCOD9421999 Si02
#       4
#     8   8   8   8
#     4   9  22  40  68  93 114 161 213 264 297 362
#     4   9  20  37  74  88 115 143 226 261 304 340
#     4  10  20  41  63  91 116 164 204 258 296 373
#     4  12  27  41  57  91 137 168 200 247 319 376
#
# _framework density 22.182162000000002
#
# number of rings (size 3 to 8) (size 9 to 14) (size 15 to 20)
#    1.500    0.500    0.000    3.000    3.500    0.000 
#    4.500    7.500    0.000    0.000    0.000    0.000 
#    0.000    0.000    0.000    0.000    0.000    0.000 
#
# Total GULP energy -178432.946343 kJ/mol
# GULP energy per Si atom -5576.029573 kJ/mol
# Density = 2.213167 g / cm^3
# Si number density = 22.182162 Si / 1000 Ang^3
#
#
#
# Elastic Constant Matrix: (Units=GPa)
#
#
# Indices 1 2 3 4 5 6 
#
# 1 23.1307 13.3054 18.8013 0.0000 0.0000 0.0000
# 2 13.3054 132.9845 31.7308 0.0000 0.0000 0.0000
# 3 18.8013 31.7308 153.4173 0.0000 0.0000 0.0000
# 4 0.0000 0.0000 0.0000 7.5812 0.0000 0.0000
# 5 0.0000 0.0000 0.0000 0.0000 13.6521 0.0000
# 6 0.0000 0.0000 0.0000 0.0000 0.0000 28.2352
#
#
#
# Elastic Compliance Matrix: (Units=1/GPa)
#
#
# Indices 1 2 3 4 5 6 
#
# 1 0.049689 -0.003701 -0.005324 0.000000 0.000000 0.000000
# 2 -0.003701 0.008186 -0.001239 0.000000 0.000000 0.000000
# 3 -0.005324 -0.001239 0.007427 0.000000 0.000000 0.000000
# 4 0.000000 0.000000 0.000000 0.131905 0.000000 0.000000
# 5 0.000000 0.000000 0.000000 0.000000 0.073249 0.000000
# 6 0.000000 0.000000 0.000000 0.000000 0.000000 0.035417
#
#
# Mechanical properties :
#
#
# Convention : Reuss Voigt Hill
#
# Bulk Modulus (GPa) = 22.33507 48.57860 35.45684
# Shear Modulus (GPa) = 14.64875 26.27335 20.46105
#
# Velocity S-wave (km/s) = 2.57258 3.44530 3.04042
# Velocity P-wave (km/s) = 4.34914 6.14607 5.32396
#
# Compressibility (1/GPa) = 0.04477264
#
# Stress axis : x y z
#
# Youngs Moduli (GPa) = 20.12518 122.16388 134.64460
#
# Poissons Ratio (x) = 0.45215 0.71683
# Poissons Ratio (y) = 0.07449 0.16688
# Poissons Ratio (z) = 0.10714 0.15142
#
# Static dielectric constant tensor:
#      x y z
#    x 1.962600 0.000000 0.000000 
#    y 0.000000 1.867410 0.000000 
#    z 0.000000 0.000000 1.758860 
# 
# From -- ./inp_files/17684.got.cif
#   From: 2010.05.17/outbox.cif.g08.bks.cpg/sg54_9_cif.got.tgz:17684.got - 2010.06.03 13:09:01.
