data_PCOD9421113
_publ_section_title
;
Structure prediction by ZEFSAII (Michael W. Deem and Ramdas Pophale) SiO2 
 PCOD9421113
Probable space group: P C C A
;
_chemical_formula_sum "Si O2"
_cell_formula_units_Z 48
_cell_length_a 13.314711
_cell_length_b 17.591070
_cell_length_c 9.123067
_cell_angle_alpha 90.000000
_cell_angle_beta 90.000000
_cell_angle_gamma 90.000000
_cell_volume 2136.804873
_symmetry_space_group_name_H-M "P C C A"
_symmetry_group_IT_number 54
_symmetry_cell_setting 'orthorhombic'
loop_
_space_group_symop_operation_xyz
x,y,z
1/2-x,-y,z
1/2+x,-y,1/2-z
-x,y,1/2-z
-x,-y,-z
1/2+x,y,-z
1/2-x,y,1/2+z
x,-y,1/2+z
loop_
_atom_site_type_symbol
_atom_site_label
_atom_site_fract_x
_atom_site_fract_y
_atom_site_fract_z
Si Si1 0.914264 0.897104 0.418397
Si Si2 0.860318 0.969328 0.706251
Si Si3 0.000000 0.771999 0.250000
Si Si4 0.348064 0.446792 0.490099
Si Si5 0.808774 0.716588 0.123710
Si Si6 0.500000 0.478575 0.750000
Si Si7 0.704441 0.817140 0.351154
O O1 0.922302 0.941986 0.567859
O O2 0.810148 0.850596 0.409621
O O3 0.993650 0.832243 0.382924
O O4 0.902033 0.960145 0.294104
O O5 0.851030 0.893806 0.804110
O O6 0.750000 0.000000 0.655669
O O7 0.097059 0.720991 0.266170
O O8 0.250000 0.500000 0.519170
O O9 0.298827 0.368373 0.432889
O O10 0.420972 0.438619 0.634366
O O11 0.423312 0.476913 0.360718
O O12 0.722519 0.761366 0.212416
O O13 0.834890 0.766204 0.981613
#
# Coordination Sequence:
#
# PCOD9421113 Si02
#       7
#     8   8   4   8   8   4   8
#     4  10  21  37  60  86 127 175 218 281 339 402
#     4  10  19  35  61  88 122 169 230 281 326 398
#     4  10  25  44  60  95 144 170 214 288 367 390
#     4  11  25  47  78 107 147 193 240 293 374 439
#     4  11  24  44  69  97 134 174 223 285 349 427
#     4  10  25  48  70 113 150 178 246 296 351 446
#     4  10  21  39  64  95 123 171 233 272 333 410
#
# _framework density 22.463446000000001
#
# number of rings (size 3 to 8) (size 9 to 14) (size 15 to 20)
#    0.000    1.667    1.667    2.500    9.333    0.667 
#    6.000    0.000    0.000    0.000    0.000    0.000 
#    0.000    0.000    0.000    0.000    0.000    0.000 
#
# Total GULP energy -267796.788182 kJ/mol
# GULP energy per Si atom -5579.099754 kJ/mol
# Density = 2.241232 g / cm^3
# Si number density = 22.463446 Si / 1000 Ang^3
#
#
#
# Elastic Constant Matrix: (Units=GPa)
#
#
# Indices 1 2 3 4 5 6 
#
# 1 71.6597 37.8983 15.4523 0.0000 0.0000 0.0000
# 2 37.8983 117.8552 18.7320 0.0000 0.0000 0.0000
# 3 15.4523 18.7320 91.6211 0.0000 0.0000 0.0000
# 4 0.0000 0.0000 0.0000 24.2143 0.0000 0.0000
# 5 0.0000 0.0000 0.0000 0.0000 31.0729 0.0000
# 6 0.0000 0.0000 0.0000 0.0000 0.0000 16.0370
#
#
#
# Elastic Compliance Matrix: (Units=1/GPa)
#
#
# Indices 1 2 3 4 5 6 
#
# 1 0.017103 -0.005211 -0.001819 0.000000 0.000000 0.000000
# 2 -0.005211 0.010357 -0.001239 0.000000 0.000000 0.000000
# 3 -0.001819 -0.001239 0.011475 0.000000 0.000000 0.000000
# 4 0.000000 0.000000 0.000000 0.041298 0.000000 0.000000
# 5 0.000000 0.000000 0.000000 0.000000 0.032182 0.000000
# 6 0.000000 0.000000 0.000000 0.000000 0.000000 0.062356
#
#
# Mechanical properties :
#
#
# Convention : Reuss Voigt Hill
#
# Bulk Modulus (GPa) = 44.64726 47.25570 45.95148
# Shear Modulus (GPa) = 25.15421 28.20174 26.67798
#
# Velocity S-wave (km/s) = 3.34995 3.54708 3.44992
# Velocity P-wave (km/s) = 5.90606 6.15289 6.03074
#
# Compressibility (1/GPa) = 0.02239779
#
# Stress axis : x y z
#
# Youngs Moduli (GPa) = 58.46995 96.54916 87.14901
#
# Poissons Ratio (x) = 0.50307 0.15854
# Poissons Ratio (y) = 0.30466 0.10796
# Poissons Ratio (z) = 0.10637 0.11961
#
# Static dielectric constant tensor:
#      x y z
#    x 1.906080 0.000000 0.000000 
#    y 0.000000 1.777960 0.000000 
#    z 0.000000 0.000000 1.863600 
# 
# From -- ./inp_files/3614.got.cif
#   From: 2010.05.17/outbox.cif.g08.bks.cpg/sg54_2_cif.got.tgz:3614.got - 2010.06.03 13:09:01.
