data_PCOD9421615
_publ_section_title
;
Structure prediction by ZEFSAII (Michael W. Deem and Ramdas Pophale) SiO2 
 PCOD9421615
Probable space group: P C C A
;
_chemical_formula_sum "Si O2"
_cell_formula_units_Z 40
_cell_length_a 10.504428
_cell_length_b 19.417420
_cell_length_c 9.001204
_cell_angle_alpha 90.000000
_cell_angle_beta 90.000000
_cell_angle_gamma 90.000000
_cell_volume 1835.965592
_symmetry_space_group_name_H-M "P C C A"
_symmetry_group_IT_number 54
_symmetry_cell_setting 'orthorhombic'
loop_
_space_group_symop_operation_xyz
x,y,z
1/2-x,-y,z
1/2+x,-y,1/2-z
-x,y,1/2-z
-x,-y,-z
1/2+x,y,-z
1/2-x,y,1/2+z
x,-y,1/2+z
loop_
_atom_site_type_symbol
_atom_site_label
_atom_site_fract_x
_atom_site_fract_y
_atom_site_fract_z
Si Si1 0.353895 0.902620 0.756373
Si Si2 0.091169 0.442507 0.070212
Si Si3 0.250000 0.500000 0.834988
Si Si4 0.890263 0.290604 0.355517
Si Si5 0.750000 0.000000 0.495668
Si Si6 0.853332 0.750379 0.191397
O O1 0.500000 0.886025 0.750000
O O2 0.296441 0.826603 0.770134
O O3 0.332049 0.952706 0.895256
O O4 0.317525 0.945824 0.611938
O O5 0.143757 0.471755 0.224439
O O6 0.051235 0.364753 0.096268
O O7 0.203116 0.441019 0.946765
O O8 0.000000 0.500000 0.000000
O O9 0.755422 0.297547 0.267335
O O10 0.861897 0.254502 0.512949
O O11 0.000000 0.258210 0.250000
O O12 0.000000 0.738487 0.250000
#
# Coordination Sequence:
#
# PCOD9421615 Si02
#       6
#     8   8   4   8   4   8
#     4  10  21  39  61  92 128 170 219 269 330 394
#     4  11  23  41  62  90 122 158 206 268 333 399
#     4  10  22  38  62  88 118 154 198 256 326 400
#     4  12  25  43  67  97 130 175 227 281 345 412
#     4  10  20  36  64  94 128 166 214 274 330 392
#     4  11  25  44  66  95 136 181 227 279 337 415
#
# _framework density 21.786898999999998
#
# number of rings (size 3 to 8) (size 9 to 14) (size 15 to 20)
#    0.000    1.200    0.000    6.000    0.000    8.000 
#    0.000    5.000    0.000    0.000    0.000    0.000 
#    0.000    0.000    0.000    0.000    0.000    0.000 
#
# Total GULP energy -223152.016208 kJ/mol
# GULP energy per Si atom -5578.800405 kJ/mol
# Density = 2.173731 g / cm^3
# Si number density = 21.786899 Si / 1000 Ang^3
#
#
#
# Elastic Constant Matrix: (Units=GPa)
#
#
# Indices 1 2 3 4 5 6 
#
# 1 86.6277 0.9805 37.9510 0.0000 0.0000 0.0000
# 2 0.9805 74.9047 3.2898 0.0000 0.0000 0.0000
# 3 37.9510 3.2898 155.1064 0.0000 0.0000 0.0000
# 4 0.0000 0.0000 0.0000 15.8173 0.0000 0.0000
# 5 0.0000 0.0000 0.0000 0.0000 72.0916 0.0000
# 6 0.0000 0.0000 0.0000 0.0000 0.0000 15.3833
#
#
#
# Elastic Compliance Matrix: (Units=1/GPa)
#
#
# Indices 1 2 3 4 5 6 
#
# 1 0.012930 -0.000030 -0.003163 0.000000 0.000000 0.000000
# 2 -0.000030 0.013363 -0.000276 0.000000 0.000000 0.000000
# 3 -0.003163 -0.000276 0.007227 0.000000 0.000000 0.000000
# 4 0.000000 0.000000 0.000000 0.063222 0.000000 0.000000
# 5 0.000000 0.000000 0.000000 0.000000 0.013871 0.000000
# 6 0.000000 0.000000 0.000000 0.000000 0.000000 0.065005
#
#
# Mechanical properties :
#
#
# Convention : Reuss Voigt Hill
#
# Bulk Modulus (GPa) = 37.62106 44.56459 41.09282
# Shear Modulus (GPa) = 26.12103 38.95295 32.53699
#
# Velocity S-wave (km/s) = 3.46632 4.23295 3.86867
# Velocity P-wave (km/s) = 5.77284 6.66256 6.23359
#
# Compressibility (1/GPa) = 0.02658086
#
# Stress axis : x y z
#
# Youngs Moduli (GPa) = 77.34151 74.83454 138.37107
#
# Poissons Ratio (x) = 0.00227 0.43766
# Poissons Ratio (y) = 0.00235 0.03819
# Poissons Ratio (z) = 0.24463 0.02065
#
# Static dielectric constant tensor:
#      x y z
#    x 1.900060 0.000000 0.000000 
#    y 0.000000 1.837740 0.000000 
#    z 0.000000 0.000000 1.778820 
# 
# From -- ./inp_files/2949.got.cif
#   From: 2010.05.17/outbox.cif.g08.bks.cpg/sg54_2_cif.got.tgz:2949.got - 2010.06.03 13:09:01.
