data_PCOD9421033
_publ_section_title
;
Structure prediction by ZEFSAII (Michael W. Deem and Ramdas Pophale) SiO2 
 PCOD9421033
Probable space group: P C C A
;
_chemical_formula_sum "Si O2"
_cell_formula_units_Z 60
_cell_length_a 21.491534
_cell_length_b 15.241552
_cell_length_c 8.655751
_cell_angle_alpha 90.000000
_cell_angle_beta 90.000000
_cell_angle_gamma 90.000000
_cell_volume 2835.315303
_symmetry_space_group_name_H-M "P C C A"
_symmetry_group_IT_number 54
_symmetry_cell_setting 'orthorhombic'
loop_
_space_group_symop_operation_xyz
x,y,z
1/2-x,-y,z
1/2+x,-y,1/2-z
-x,y,1/2-z
-x,-y,-z
1/2+x,y,-z
1/2-x,y,1/2+z
x,-y,1/2+z
loop_
_atom_site_type_symbol
_atom_site_label
_atom_site_fract_x
_atom_site_fract_y
_atom_site_fract_z
Si Si1 0.750000 0.000000 0.800949
Si Si2 0.070960 0.568378 0.684885
Si Si3 0.015473 0.730932 0.569112
Si Si4 0.200625 0.177250 0.190039
Si Si5 0.587415 0.104038 0.017416
Si Si6 0.119148 0.931994 0.126392
Si Si7 0.822506 0.762561 0.487836
Si Si8 0.599896 0.610602 0.986019
O O1 0.772667 0.910541 0.722682
O O2 0.688660 0.972279 0.893085
O O3 0.069297 0.655841 0.579382
O O4 0.086352 0.478568 0.601822
O O5 0.000000 0.560220 0.750000
O O6 0.111314 0.584308 0.836304
O O7 0.034240 0.821824 0.489888
O O8 0.000000 0.750877 0.750000
O O9 0.959042 0.677324 0.492003
O O10 0.143080 0.148642 0.083117
O O11 0.257241 0.211807 0.087917
O O12 0.182214 0.240808 0.327544
O O13 0.575364 0.008502 0.940435
O O14 0.607028 0.084452 0.192993
O O15 0.126035 0.838239 0.045735
O O16 0.845097 0.670138 0.422372
#
# Coordination Sequence:
#
# PCOD9421033 Si02
#       8
#     4   8   8   8   8   8   8   8
#     4   8  16  30  50  74 102 142 194 238 258 298
#     4   9  18  36  62  87 108 142 189 242 287 331
#     4   9  19  37  60  86 114 150 192 243 292 337
#     4  10  19  34  56  83 115 151 194 241 284 331
#     4  11  21  36  58  85 119 156 197 239 282 336
#     4  10  21  34  55  85 115 156 197 235 281 331
#     4  11  22  37  58  86 117 151 193 239 287 342
#     4  10  21  38  62  88 113 142 187 239 292 344
#
# _framework density 21.161667999999999
#
# number of rings (size 3 to 8) (size 9 to 14) (size 15 to 20)
#    0.000    2.400    0.000    6.400    0.000    6.400 
#    0.000    4.000    0.000    6.400    0.000    0.000 
#    0.000    0.000    0.000    0.000    0.000    0.000 
#
# Total GULP energy -334654.752418 kJ/mol
# GULP energy per Si atom -5577.579207 kJ/mol
# Density = 2.111350 g / cm^3
# Si number density = 21.161668 Si / 1000 Ang^3
#
#
#
# Elastic Constant Matrix: (Units=GPa)
#
#
# Indices 1 2 3 4 5 6 
#
# 1 21.0164 19.1680 28.5509 0.0000 0.0000 0.0000
# 2 19.1680 103.5986 33.6151 0.0000 0.0000 0.0000
# 3 28.5509 33.6151 80.0764 0.0000 0.0000 0.0000
# 4 0.0000 0.0000 0.0000 -6.8435 0.0000 0.0000
# 5 0.0000 0.0000 0.0000 0.0000 8.9152 0.0000
# 6 0.0000 0.0000 0.0000 0.0000 0.0000 28.1591
#
#
#
# Elastic Compliance Matrix: (Units=1/GPa)
#
#
# Indices 1 2 3 4 5 6 
#
# 1 0.097464 -0.007823 -0.031466 0.000000 0.000000 0.000000
# 2 -0.007823 0.011803 -0.002165 0.000000 0.000000 0.000000
# 3 -0.031466 -0.002165 0.024616 0.000000 0.000000 0.000000
# 4 0.000000 0.000000 0.000000 -0.146124 0.000000 0.000000
# 5 0.000000 0.000000 0.000000 0.000000 0.112168 0.000000
# 6 0.000000 0.000000 0.000000 0.000000 0.000000 0.035513
#
#
# Mechanical properties :
#
#
# Convention : Reuss Voigt Hill
#
# Bulk Modulus (GPa) = 19.61806 40.81770 30.21788
# Shear Modulus (GPa) = 21.24587 14.26998 17.75793
#
# Velocity S-wave (km/s) = 3.17200 2.59961 2.89996
# Velocity P-wave (km/s) = 4.76510 5.32363 5.05209
#
# Compressibility (1/GPa) = 0.05097344
#
# Stress axis : x y z
#
# Youngs Moduli (GPa) = 10.26023 84.72669 40.62360
#
# Poissons Ratio (x) = 0.66281 1.27827
# Poissons Ratio (y) = 0.08026 0.08797
# Poissons Ratio (z) = 0.32285 0.18347
#
# Static dielectric constant tensor:
#      x y z
#    x 1.821450 0.000000 0.000000 
#    y 0.000000 1.790320 0.000000 
#    z 0.000000 0.000000 1.746430 
# 
# From -- ./inp_files/5275.got.cif
#   From: 2010.05.17/outbox.cif.g08.bks.cpg/sg54_3_cif.got.tgz:5275.got - 2010.06.03 13:09:01.
