data_PCOD9421485
_publ_section_title
;
Structure prediction by ZEFSAII (Michael W. Deem and Ramdas Pophale) SiO2 
 PCOD9421485
Probable space group: P C C A
;
_chemical_formula_sum "Si O2"
_cell_formula_units_Z 52
_cell_length_a 22.134840
_cell_length_b 10.011428
_cell_length_c 11.849106
_cell_angle_alpha 90.000000
_cell_angle_beta 90.000000
_cell_angle_gamma 90.000000
_cell_volume 2625.777968
_symmetry_space_group_name_H-M "P C C A"
_symmetry_group_IT_number 54
_symmetry_cell_setting 'orthorhombic'
loop_
_space_group_symop_operation_xyz
x,y,z
1/2-x,-y,z
1/2+x,-y,1/2-z
-x,y,1/2-z
-x,-y,-z
1/2+x,y,-z
1/2-x,y,1/2+z
x,-y,1/2+z
loop_
_atom_site_type_symbol
_atom_site_label
_atom_site_fract_x
_atom_site_fract_y
_atom_site_fract_z
Si Si1 0.571473 0.382525 0.228671
Si Si2 0.639184 0.340749 0.017142
Si Si3 0.250000 0.000000 0.567528
Si Si4 0.113432 0.637337 0.033537
Si Si5 0.665623 0.835326 0.299028
Si Si6 0.233705 0.260957 0.412316
Si Si7 0.562196 0.694442 0.184467
O O1 0.500000 0.375678 0.250000
O O2 0.593627 0.305652 0.117747
O O3 0.605188 0.324623 0.337606
O O4 0.586028 0.542443 0.212281
O O5 0.613206 0.477779 0.968982
O O6 0.705792 0.347717 0.073634
O O7 0.648004 0.245792 0.911013
O O8 0.193402 0.971170 0.650876
O O9 0.256910 0.874881 0.483952
O O10 0.176040 0.675052 0.973769
O O11 0.061028 0.692323 0.951360
O O12 0.716991 0.770344 0.217717
O O13 0.606559 0.813785 0.222490
O O14 0.500000 0.708022 0.250000
#
# Coordination Sequence:
#
# PCOD9421485 Si02
#       7
#     8   8   4   8   8   8   8
#     4  10  21  33  55  87 125 160 189 227 280 352
#     4  10  21  34  56  86 114 154 185 232 291 346
#     4  10  22  38  60  80 106 146 196 248 286 348
#     4  10  20  36  53  85 123 150 187 232 284 350
#     4  10  20  38  59  84 111 147 194 237 293 345
#     4  10  22  38  56  84 109 151 189 240 299 342
#     4   9  19  33  58  83 117 157 187 228 277 344
#
# _framework density 19.803654999999999
#
# number of rings (size 3 to 8) (size 9 to 14) (size 15 to 20)
#    0.000    2.154    1.538    0.923    6.462    1.846 
#    0.000    0.000    0.000    4.615    0.000    0.000 
#    0.000    0.000    0.000    0.000    0.000    0.000 
#
# Total GULP energy -289566.956539 kJ/mol
# GULP energy per Si atom -5568.595318 kJ/mol
# Density = 1.975858 g / cm^3
# Si number density = 19.803655 Si / 1000 Ang^3
#
#
#
# Elastic Constant Matrix: (Units=GPa)
#
#
# Indices 1 2 3 4 5 6 
#
# 1 36.9303 1.7472 7.4803 0.0000 0.0000 0.0000
# 2 1.7472 27.4566 15.0443 0.0000 0.0000 0.0000
# 3 7.4803 15.0443 121.4107 0.0000 0.0000 0.0000
# 4 0.0000 0.0000 0.0000 3.2627 0.0000 0.0000
# 5 0.0000 0.0000 0.0000 0.0000 10.4729 0.0000
# 6 0.0000 0.0000 0.0000 0.0000 0.0000 2.6882
#
#
#
# Elastic Compliance Matrix: (Units=1/GPa)
#
#
# Indices 1 2 3 4 5 6 
#
# 1 0.027440 -0.000879 -0.001582 0.000000 0.000000 0.000000
# 2 -0.000879 0.039102 -0.004791 0.000000 0.000000 0.000000
# 3 -0.001582 -0.004791 0.008928 0.000000 0.000000 0.000000
# 4 0.000000 0.000000 0.000000 0.306494 0.000000 0.000000
# 5 0.000000 0.000000 0.000000 0.000000 0.095485 0.000000
# 6 0.000000 0.000000 0.000000 0.000000 0.000000 0.372000
#
#
# Mechanical properties :
#
#
# Convention : Reuss Voigt Hill
#
# Bulk Modulus (GPa) = 16.40274 26.03793 21.22033
# Shear Modulus (GPa) = 5.65435 14.05314 9.85374
#
# Velocity S-wave (km/s) = 1.69157 2.66677 2.23305
# Velocity P-wave (km/s) = 3.48079 4.76012 4.16981
#
# Compressibility (1/GPa) = 0.06096542
#
# Stress axis : x y z
#
# Youngs Moduli (GPa) = 36.44313 25.57400 112.01185
#
# Poissons Ratio (x) = 0.02249 0.17716
# Poissons Ratio (y) = 0.03205 0.53666
# Poissons Ratio (z) = 0.05764 0.12253
#
# Static dielectric constant tensor:
#      x y z
#    x 1.732400 0.000000 0.000000 
#    y 0.000000 1.704040 0.000000 
#    z 0.000000 0.000000 1.735610 
# 
# From -- ./inp_files/9546.got.cif
#   From: 2010.05.17/outbox.cif.g08.bks.cpg/sg54_5_cif.got.tgz:9546.got - 2010.06.03 13:09:01.
