data_PCOD9421734
_publ_section_title
;
Structure prediction by ZEFSAII (Michael W. Deem and Ramdas Pophale) SiO2 
 PCOD9421734
Probable space group: P C C A
;
_chemical_formula_sum "Si O2"
_cell_formula_units_Z 64
_cell_length_a 8.423652
_cell_length_b 18.844382
_cell_length_c 21.109816
_cell_angle_alpha 90.000000
_cell_angle_beta 90.000000
_cell_angle_gamma 90.000000
_cell_volume 3350.940867
_symmetry_space_group_name_H-M "P C C A"
_symmetry_group_IT_number 54
_symmetry_cell_setting 'orthorhombic'
loop_
_space_group_symop_operation_xyz
x,y,z
1/2-x,-y,z
1/2+x,-y,1/2-z
-x,y,1/2-z
-x,-y,-z
1/2+x,y,-z
1/2-x,y,1/2+z
x,-y,1/2+z
loop_
_atom_site_type_symbol
_atom_site_label
_atom_site_fract_x
_atom_site_fract_y
_atom_site_fract_z
Si Si1 0.673965 0.577584 0.718318
Si Si2 0.895898 0.830570 0.308960
Si Si3 0.864931 0.552688 0.474104
Si Si4 0.811201 0.215906 0.607959
Si Si5 0.708280 0.078019 0.907586
Si Si6 0.339654 0.076258 0.953568
Si Si7 0.857427 0.367980 0.574363
Si Si8 0.820286 0.277546 0.235366
O O1 0.750000 0.500000 0.723226
O O2 0.500000 0.578735 0.750000
O O3 0.665694 0.603053 0.645264
O O4 0.782765 0.639890 0.746847
O O5 0.764613 0.872923 0.349710
O O6 0.805021 0.765802 0.276708
O O7 0.000000 0.864648 0.250000
O O8 0.022859 0.803482 0.359615
O O9 0.750000 0.500000 0.435203
O O10 0.761464 0.588144 0.529398
O O11 0.000000 0.500000 0.500000
O O12 0.959995 0.613625 0.439594
O O13 0.742029 0.143947 0.579337
O O14 0.830822 0.284403 0.563473
O O15 0.706061 0.249127 0.664249
O O16 0.524012 0.077627 0.931059
O O17 0.750000 0.000000 0.884287
O O18 0.815584 0.088300 0.971016
O O19 0.250000 0.000000 0.940076
O O20 0.000000 0.261356 0.250000
#
# Coordination Sequence:
#
# PCOD9421734 Si02
#       8
#     8   8   8   8   8   8   8   8
#     4  11  22  38  58  82 113 151 195 246 297 354
#     4  10  21  40  61  83 117 157 197 245 298 349
#     4   9  18  35  56  78 110 147 182 229 285 342
#     4  10  21  38  59  86 120 155 197 251 299 355
#     4  11  22  39  62  91 122 158 199 244 300 361
#     4  11  22  39  64  93 125 160 198 247 304 364
#     4  10  21  37  57  84 115 149 192 238 291 352
#     4  10  20  38  59  83 115 155 198 244 299 357
#
# _framework density 19.099112999999999
#
# number of rings (size 3 to 8) (size 9 to 14) (size 15 to 20)
#    0.000    1.750    0.000    7.125    0.000    2.500 
#    0.000   18.125    0.000    0.000    0.000    0.000 
#    0.000    0.000    0.000    0.000    0.000    0.000 
#
# Total GULP energy -356535.178558 kJ/mol
# GULP energy per Si atom -5570.862165 kJ/mol
# Density = 1.905564 g / cm^3
# Si number density = 19.099113 Si / 1000 Ang^3
#
#
#
# Elastic Constant Matrix: (Units=GPa)
#
#
# Indices 1 2 3 4 5 6 
#
# 1 102.3351 31.2506 24.4007 0.0000 0.0000 0.0000
# 2 31.2506 131.3782 43.3376 0.0000 0.0000 0.0000
# 3 24.4007 43.3376 47.7849 0.0000 0.0000 0.0000
# 4 0.0000 0.0000 0.0000 29.2239 0.0000 0.0000
# 5 0.0000 0.0000 0.0000 0.0000 28.7606 0.0000
# 6 0.0000 0.0000 0.0000 0.0000 0.0000 10.7546
#
#
#
# Elastic Compliance Matrix: (Units=1/GPa)
#
#
# Indices 1 2 3 4 5 6 
#
# 1 0.011240 -0.001113 -0.004730 0.000000 0.000000 0.000000
# 2 -0.001113 0.010971 -0.009381 0.000000 0.000000 0.000000
# 3 -0.004730 -0.009381 0.031851 0.000000 0.000000 0.000000
# 4 0.000000 0.000000 0.000000 0.034219 0.000000 0.000000
# 5 0.000000 0.000000 0.000000 0.000000 0.034770 0.000000
# 6 0.000000 0.000000 0.000000 0.000000 0.000000 0.092984
#
#
# Mechanical properties :
#
#
# Convention : Reuss Voigt Hill
#
# Bulk Modulus (GPa) = 42.35077 53.27510 47.81293
# Shear Modulus (GPa) = 19.65774 25.91511 22.78643
#
# Velocity S-wave (km/s) = 3.21167 3.68758 3.45782
# Velocity P-wave (km/s) = 5.99795 6.78863 6.40550
#
# Compressibility (1/GPa) = 0.02361232
#
# Stress axis : x y z
#
# Youngs Moduli (GPa) = 88.97176 91.14846 31.39665
#
# Poissons Ratio (x) = 0.10148 0.14849
# Poissons Ratio (y) = 0.09906 0.29455
# Poissons Ratio (z) = 0.42080 0.85511
#
# Static dielectric constant tensor:
#      x y z
#    x 1.675280 0.000000 0.000000 
#    y 0.000000 1.690630 0.000000 
#    z 0.000000 0.000000 1.687220 
# 
# From -- ./inp_files/20672.got.cif
#   From: 2010.05.17/outbox.cif.g08.bks.cpg/sg54_11_cif.got.tgz:20672.got - 2010.06.03 13:09:01.
