data_PCOD9421885
_publ_section_title
;
Structure prediction by ZEFSAII (Michael W. Deem and Ramdas Pophale) SiO2 
 PCOD9421885
Probable space group: P C C A
;
_chemical_formula_sum "Si O2"
_cell_formula_units_Z 40
_cell_length_a 7.986566
_cell_length_b 19.225865
_cell_length_c 12.740853
_cell_angle_alpha 90.000000
_cell_angle_beta 90.000000
_cell_angle_gamma 90.000000
_cell_volume 1956.340647
_symmetry_space_group_name_H-M "P C C A"
_symmetry_group_IT_number 54
_symmetry_cell_setting 'orthorhombic'
loop_
_space_group_symop_operation_xyz
x,y,z
1/2-x,-y,z
1/2+x,-y,1/2-z
-x,y,1/2-z
-x,-y,-z
1/2+x,y,-z
1/2-x,y,1/2+z
x,-y,1/2+z
loop_
_atom_site_type_symbol
_atom_site_label
_atom_site_fract_x
_atom_site_fract_y
_atom_site_fract_z
Si Si1 0.598456 0.242257 0.425360
Si Si2 0.500000 0.649876 0.750000
Si Si3 0.750000 0.000000 0.001495
Si Si4 0.050477 0.288996 0.128381
Si Si5 0.328970 0.570522 0.184845
Si Si6 0.984455 0.088944 0.625504
O O1 0.510306 0.299689 0.351038
O O2 0.790130 0.240147 0.388998
O O3 0.587513 0.266811 0.545440
O O4 0.517596 0.167463 0.409998
O O5 0.672296 0.604993 0.750873
O O6 0.885268 0.035389 0.926309
O O7 0.688018 0.061307 0.077750
O O8 0.113737 0.367923 0.107343
O O9 0.000000 0.287086 0.250000
O O10 0.250000 0.500000 0.139592
O O11 0.500000 0.554821 0.250000
O O12 0.000000 0.085846 0.750000
#
# Coordination Sequence:
#
# PCOD9421885 Si02
#       6
#     8   4   4   8   8   8
#     4  11  23  41  68  93 132 174 223 275 340 388
#     4  10  22  40  64  94 128 174 222 284 326 396
#     4  10  24  40  62  98 130 168 218 268 314 414
#     4  10  25  41  64  97 134 169 226 280 329 405
#     4  10  20  39  65  92 133 177 223 275 336 402
#     4  11  22  42  66  93 130 173 216 266 335 387
#
# _framework density 20.446335999999999
#
# number of rings (size 3 to 8) (size 9 to 14) (size 15 to 20)
#    0.000    1.600    2.000    1.800    8.400    1.600 
#    0.000   10.000    0.000    0.000    0.000    0.000 
#    0.000    0.000    0.000    0.000    0.000    0.000 
#
# Total GULP energy -223220.243639 kJ/mol
# GULP energy per Si atom -5580.506091 kJ/mol
# Density = 2.039980 g / cm^3
# Si number density = 20.446336 Si / 1000 Ang^3
#
#
#
# Elastic Constant Matrix: (Units=GPa)
#
#
# Indices 1 2 3 4 5 6 
#
# 1 76.5638 25.3202 19.3964 0.0000 0.0000 0.0000
# 2 25.3202 107.2892 34.4111 0.0000 0.0000 0.0000
# 3 19.3964 34.4111 124.3392 0.0000 0.0000 0.0000
# 4 0.0000 0.0000 0.0000 0.6658 0.0000 0.0000
# 5 0.0000 0.0000 0.0000 0.0000 21.3262 0.0000
# 6 0.0000 0.0000 0.0000 0.0000 0.0000 33.7103
#
#
#
# Elastic Compliance Matrix: (Units=1/GPa)
#
#
# Indices 1 2 3 4 5 6 
#
# 1 0.014396 -0.002938 -0.001433 0.000000 0.000000 0.000000
# 2 -0.002938 0.010828 -0.002538 0.000000 0.000000 0.000000
# 3 -0.001433 -0.002538 0.008969 0.000000 0.000000 0.000000
# 4 0.000000 0.000000 0.000000 1.502059 0.000000 0.000000
# 5 0.000000 0.000000 0.000000 0.000000 0.046891 0.000000
# 6 0.000000 0.000000 0.000000 0.000000 0.000000 0.029664
#
#
# Mechanical properties :
#
#
# Convention : Reuss Voigt Hill
#
# Bulk Modulus (GPa) = 49.08117 51.82751 50.45434
# Shear Modulus (GPa) = 3.06107 26.41143 14.73625
#
# Velocity S-wave (km/s) = 1.22490 3.59798 2.68755
# Velocity P-wave (km/s) = 5.10465 6.53175 5.86179
#
# Compressibility (1/GPa) = 0.02037441
#
# Stress axis : x y z
#
# Youngs Moduli (GPa) = 69.46613 92.35244 111.50135
#
# Poissons Ratio (x) = 0.27132 0.15973
# Poissons Ratio (y) = 0.20408 0.28304
# Poissons Ratio (z) = 0.09952 0.23443
#
# Static dielectric constant tensor:
#      x y z
#    x 1.789750 0.000000 0.000000 
#    y 0.000000 1.720400 0.000000 
#    z 0.000000 0.000000 1.680690 
# 
# From -- ./inp_files/6889.got.cif
#   From: 2010.05.17/outbox.cif.g08.bks.cpg/sg54_4_cif.got.tgz:6889.got - 2010.06.03 13:09:01.
