data_PCOD9421495
_publ_section_title
;
Structure prediction by ZEFSAII (Michael W. Deem and Ramdas Pophale) SiO2 
 PCOD9421495
Probable space group: P C C A
;
_chemical_formula_sum "Si O2"
_cell_formula_units_Z 32
_cell_length_a 8.652780
_cell_length_b 5.260131
_cell_length_c 32.901132
_cell_angle_alpha 90.000000
_cell_angle_beta 90.000000
_cell_angle_gamma 90.000000
_cell_volume 1497.487005
_symmetry_space_group_name_H-M "P C C A"
_symmetry_group_IT_number 54
_symmetry_cell_setting 'orthorhombic'
loop_
_space_group_symop_operation_xyz
x,y,z
1/2-x,-y,z
1/2+x,-y,1/2-z
-x,y,1/2-z
-x,-y,-z
1/2+x,y,-z
1/2-x,y,1/2+z
x,-y,1/2+z
loop_
_atom_site_type_symbol
_atom_site_label
_atom_site_fract_x
_atom_site_fract_y
_atom_site_fract_z
Si Si1 0.644622 0.744059 0.485932
Si Si2 0.931720 0.956895 0.067160
Si Si3 0.438522 0.015538 0.341775
Si Si4 0.562919 0.486744 0.705110
O O1 0.750000 0.500000 0.480768
O O2 0.564514 0.752104 0.530494
O O3 0.750000 0.000000 0.484436
O O4 0.517632 0.799944 0.451767
O O5 0.991653 0.914353 0.112543
O O6 0.750000 0.000000 0.072379
O O7 0.488936 0.240706 0.311991
O O8 0.250000 0.000000 0.341590
O O9 0.486981 0.740552 0.325040
O O10 0.750000 0.500000 0.706301
O O11 0.500000 0.438870 0.750000
#
# Coordination Sequence:
#
# PCOD9421495 Si02
#       4
#     8   8   8   8
#     4  10  22  37  55  82 117 151 186 235 287 330
#     4   9  20  37  59  82 110 150 195 232 275 334
#     4   9  19  34  56  81 105 138 182 226 264 322
#     4  10  20  36  56  79 106 136 174 221 275 331
#
# _framework density 21.369130999999999
#
# number of rings (size 3 to 8) (size 9 to 14) (size 15 to 20)
#    0.000    2.500    0.000    0.750    0.000   18.000 
#    0.000    3.750    0.000    0.000    0.000    0.000 
#    0.000    0.000    0.000    0.000    0.000    0.000 
#
# Total GULP energy -178523.730936 kJ/mol
# GULP energy per Si atom -5578.866592 kJ/mol
# Density = 2.132049 g / cm^3
# Si number density = 21.369131 Si / 1000 Ang^3
#
#
#
# Elastic Constant Matrix: (Units=GPa)
#
#
# Indices 1 2 3 4 5 6 
#
# 1 46.1571 40.3535 19.8385 0.0000 0.0000 0.0000
# 2 40.3535 131.4778 15.7452 0.0000 0.0000 0.0000
# 3 19.8385 15.7452 117.2883 0.0000 0.0000 0.0000
# 4 0.0000 0.0000 0.0000 6.6589 0.0000 0.0000
# 5 0.0000 0.0000 0.0000 0.0000 11.5166 0.0000
# 6 0.0000 0.0000 0.0000 0.0000 0.0000 27.5300
#
#
#
# Elastic Compliance Matrix: (Units=1/GPa)
#
#
# Indices 1 2 3 4 5 6 
#
# 1 0.031426 -0.009156 -0.004086 0.000000 0.000000 0.000000
# 2 -0.009156 0.010398 0.000153 0.000000 0.000000 0.000000
# 3 -0.004086 0.000153 0.009197 0.000000 0.000000 0.000000
# 4 0.000000 0.000000 0.000000 0.150175 0.000000 0.000000
# 5 0.000000 0.000000 0.000000 0.000000 0.086831 0.000000
# 6 0.000000 0.000000 0.000000 0.000000 0.000000 0.036324
#
#
# Mechanical properties :
#
#
# Convention : Reuss Voigt Hill
#
# Bulk Modulus (GPa) = 40.25524 49.64419 44.94972
# Shear Modulus (GPa) = 13.93493 23.74017 18.83755
#
# Velocity S-wave (km/s) = 2.55641 3.33672 2.97228
# Velocity P-wave (km/s) = 5.25286 6.17471 5.73235
#
# Compressibility (1/GPa) = 0.02484149
#
# Stress axis : x y z
#
# Youngs Moduli (GPa) = 31.82049 96.17464 108.73506
#
# Poissons Ratio (x) = 0.88058 0.44433
# Poissons Ratio (y) = 0.29135 -0.01662
# Poissons Ratio (z) = 0.13003 -0.01470
#
# Static dielectric constant tensor:
#      x y z
#    x 1.818540 0.000000 0.000000 
#    y 0.000000 1.793360 0.000000 
#    z 0.000000 0.000000 1.758070 
# 
# From -- ./inp_files/27374.got.cif
#   From: 2010.05.17/outbox.cif.g08.bks.cpg/sg54_14_cif.got.tgz:27374.got - 2010.06.03 13:09:01.
