data_PCOD9421185
_publ_section_title
;
Structure prediction by ZEFSAII (Michael W. Deem and Ramdas Pophale) SiO2 
 PCOD9421185
Probable space group: P C C A
;
_chemical_formula_sum "Si O2"
_cell_formula_units_Z 64
_cell_length_a 24.956448
_cell_length_b 11.639851
_cell_length_c 10.815773
_cell_angle_alpha 90.000000
_cell_angle_beta 90.000000
_cell_angle_gamma 90.000000
_cell_volume 3141.866719
_symmetry_space_group_name_H-M "P C C A"
_symmetry_group_IT_number 54
_symmetry_cell_setting 'orthorhombic'
loop_
_space_group_symop_operation_xyz
x,y,z
1/2-x,-y,z
1/2+x,-y,1/2-z
-x,y,1/2-z
-x,-y,-z
1/2+x,y,-z
1/2-x,y,1/2+z
x,-y,1/2+z
loop_
_atom_site_type_symbol
_atom_site_label
_atom_site_fract_x
_atom_site_fract_y
_atom_site_fract_z
Si Si1 0.889343 0.390757 0.332758
Si Si2 0.399279 0.365078 0.258282
Si Si3 0.435951 0.988129 0.482918
Si Si4 0.547330 0.759252 0.146661
Si Si5 0.523058 0.624623 0.527431
Si Si6 0.281775 0.376996 0.339431
Si Si7 0.733029 0.634326 0.398865
Si Si8 0.565853 0.883117 0.758397
O O1 0.896531 0.528504 0.334652
O O2 0.913402 0.334404 0.208290
O O3 0.926441 0.345327 0.441377
O O4 0.827863 0.362383 0.353115
O O5 0.453202 0.376424 0.337480
O O6 0.345871 0.388572 0.340234
O O7 0.404543 0.236336 0.210221
O O8 0.425830 0.875868 0.397871
O O9 0.419051 0.968952 0.626804
O O10 0.500000 0.000000 0.500000
O O11 0.418274 0.085994 0.384544
O O12 0.500000 0.779221 0.250000
O O13 0.521211 0.711764 0.020683
O O14 0.500000 0.500000 0.500000
O O15 0.250000 0.500000 0.333419
O O16 0.268695 0.316246 0.210419
O O17 0.262845 0.316439 0.464068
O O18 0.750000 0.500000 0.413346
O O19 0.500000 0.875086 0.750000
#
# Coordination Sequence:
#
# PCOD9421185 Si02
#       8
#     8   8   8   8   8   8   8   8
#     4  11  22  34  52  84 126 162 202 241 302 373
#     4  12  22  35  54  88 122 160 203 243 303 366
#     4  10  20  41  59  82 112 161 216 258 293 345
#     4  10  21  35  53  81 119 166 202 242 305 361
#     4  11  22  32  48  77 126 169 193 238 290 367
#     4  10  20  37  57  79 118 156 195 242 293 356
#     4  10  19  37  55  79 114 162 200 242 291 349
#     4  10  23  37  62  84 117 162 206 262 299 350
#
# _framework density 20.370055000000001
#
# number of rings (size 3 to 8) (size 9 to 14) (size 15 to 20)
#    0.000    1.500    5.000    2.625    3.500    1.000 
#    2.250    0.000    0.000    0.000    0.000    0.875 
#    0.000    0.000    0.000    0.000    0.000    0.000 
#
# Total GULP energy -356542.842452 kJ/mol
# GULP energy per Si atom -5570.981913 kJ/mol
# Density = 2.032369 g / cm^3
# Si number density = 20.370055 Si / 1000 Ang^3
#
#
#
# Elastic Constant Matrix: (Units=GPa)
#
#
# Indices 1 2 3 4 5 6 
#
# 1 60.3362 2.8127 14.5019 0.0000 0.0000 0.0000
# 2 2.8127 45.3564 6.9866 0.0000 0.0000 0.0000
# 3 14.5019 6.9866 112.0308 0.0000 0.0000 0.0000
# 4 0.0000 0.0000 0.0000 2.7229 0.0000 0.0000
# 5 0.0000 0.0000 0.0000 0.0000 23.8724 0.0000
# 6 0.0000 0.0000 0.0000 0.0000 0.0000 7.6254
#
#
#
# Elastic Compliance Matrix: (Units=1/GPa)
#
#
# Indices 1 2 3 4 5 6 
#
# 1 0.017130 -0.000728 -0.002172 0.000000 0.000000 0.000000
# 2 -0.000728 0.022292 -0.001296 0.000000 0.000000 0.000000
# 3 -0.002172 -0.001296 0.009288 0.000000 0.000000 0.000000
# 4 0.000000 0.000000 0.000000 0.367253 0.000000 0.000000
# 5 0.000000 0.000000 0.000000 0.000000 0.041889 0.000000
# 6 0.000000 0.000000 0.000000 0.000000 0.000000 0.131141
#
#
# Mechanical properties :
#
#
# Convention : Reuss Voigt Hill
#
# Bulk Modulus (GPa) = 24.80234 29.59175 27.19704
# Shear Modulus (GPa) = 8.18565 19.73896 13.96230
#
# Velocity S-wave (km/s) = 2.00679 3.11628 2.62092
# Velocity P-wave (km/s) = 4.19189 5.24470 4.74757
#
# Compressibility (1/GPa) = 0.04031878
#
# Stress axis : x y z
#
# Youngs Moduli (GPa) = 58.37795 44.85843 107.66470
#
# Poissons Ratio (x) = 0.03264 0.23385
# Poissons Ratio (y) = 0.04248 0.13954
# Poissons Ratio (z) = 0.12680 0.05814
#
# Static dielectric constant tensor:
#      x y z
#    x 1.746270 0.000000 0.000000 
#    y 0.000000 1.794320 0.000000 
#    z 0.000000 0.000000 1.874120 
# 
# From -- ./inp_files/10087.got.cif
#   From: 2010.05.17/outbox.cif.g08.bks.cpg/sg54_6_cif.got.tgz:10087.got - 2010.06.03 13:09:01.
