data_PCOD9421361
_publ_section_title
;
Structure prediction by ZEFSAII (Michael W. Deem and Ramdas Pophale) SiO2 
 PCOD9421361
Probable space group: P C C A
;
_chemical_formula_sum "Si O2"
_cell_formula_units_Z 64
_cell_length_a 28.160781
_cell_length_b 14.261656
_cell_length_c 9.348652
_cell_angle_alpha 90.000000
_cell_angle_beta 90.000000
_cell_angle_gamma 90.000000
_cell_volume 3754.599739
_symmetry_space_group_name_H-M "P C C A"
_symmetry_group_IT_number 54
_symmetry_cell_setting 'orthorhombic'
loop_
_space_group_symop_operation_xyz
x,y,z
1/2-x,-y,z
1/2+x,-y,1/2-z
-x,y,1/2-z
-x,-y,-z
1/2+x,y,-z
1/2-x,y,1/2+z
x,-y,1/2+z
loop_
_atom_site_type_symbol
_atom_site_label
_atom_site_fract_x
_atom_site_fract_y
_atom_site_fract_z
Si Si1 0.696644 0.580989 0.902528
Si Si2 0.647252 0.864309 0.239571
Si Si3 0.651721 0.086220 0.201364
Si Si4 0.043663 0.081161 0.842647
Si Si5 0.205254 0.800168 0.516348
Si Si6 0.201535 0.594372 0.436669
Si Si7 0.455783 0.117219 0.678589
Si Si8 0.316958 0.211033 0.041271
O O1 0.674903 0.488261 0.976327
O O2 0.746994 0.594083 0.985030
O O3 0.671798 0.680262 0.929619
O O4 0.703887 0.570936 0.731865
O O5 0.689719 0.810802 0.319771
O O6 0.596692 0.840198 0.310654
O O7 0.648709 0.830678 0.077636
O O8 0.654185 0.976579 0.239353
O O9 0.596760 0.117064 0.187257
O O10 0.679760 0.111721 0.057668
O O11 0.676596 0.149013 0.319342
O O12 0.000000 0.123036 0.750000
O O13 0.047038 0.974631 0.782025
O O14 0.035333 0.089324 0.013026
O O15 0.185173 0.701604 0.456178
O O16 0.261684 0.800114 0.496919
O O17 0.500000 0.171779 0.750000
#
# Coordination Sequence:
#
# PCOD9421361 Si02
#       8
#     8   8   8   8   8   8   8   8
#     4  10  20  34  53  76  96 134 173 226 276 307
#     4  11  24  34  54  74 107 148 181 220 254 306
#     4  11  22  38  50  76 108 143 188 216 258 306
#     4  10  20  33  55  73  99 132 173 227 275 310
#     4  11  22  38  50  76 107 145 184 218 257 303
#     4  10  20  33  55  72 101 129 175 226 271 315
#     4  10  20  34  53  75  98 131 176 224 275 311
#     4  11  24  34  54  74 108 146 185 218 254 311
#
# _framework density 17.045759
#
# number of rings (size 3 to 8) (size 9 to 14) (size 15 to 20)
#    0.000    1.500    2.500    4.500   14.000    3.000 
#    0.000    0.000    0.000    0.000    0.000    0.000 
#    0.000    6.000    0.000    0.000    0.000    0.000 
#
# Total GULP energy -356458.483420 kJ/mol
# GULP energy per Si atom -5569.663803 kJ/mol
# Density = 1.700696 g / cm^3
# Si number density = 17.045759 Si / 1000 Ang^3
#
#
#
# Elastic Constant Matrix: (Units=GPa)
#
#
# Indices 1 2 3 4 5 6 
#
# 1 59.4019 19.0666 15.3242 0.0000 0.0000 0.0000
# 2 19.0666 75.5169 18.8264 0.0000 0.0000 0.0000
# 3 15.3242 18.8264 74.8213 0.0000 0.0000 0.0000
# 4 0.0000 0.0000 0.0000 -42.5490 0.0000 0.0000
# 5 0.0000 0.0000 0.0000 0.0000 24.4305 0.0000
# 6 0.0000 0.0000 0.0000 0.0000 0.0000 -1.6431
#
#
#
# Elastic Compliance Matrix: (Units=1/GPa)
#
#
# Indices 1 2 3 4 5 6 
#
# 1 0.018870 -0.004055 -0.002844 0.000000 0.000000 0.000000
# 2 -0.004055 0.015000 -0.002944 0.000000 0.000000 0.000000
# 3 -0.002844 -0.002944 0.014688 0.000000 0.000000 0.000000
# 4 0.000000 0.000000 0.000000 -0.023502 0.000000 0.000000
# 5 0.000000 0.000000 0.000000 0.000000 0.040932 0.000000
# 6 0.000000 0.000000 0.000000 0.000000 0.000000 -0.608616
#
#
# Mechanical properties :
#
#
# Convention : Reuss Voigt Hill
#
# Bulk Modulus (GPa) = 34.63612 35.13049 34.88331
# Shear Modulus (GPa) = -9.74056 6.48255 -1.62901
#
# Velocity S-wave (km/s) = -2.39307 1.95225 -0.97864
# Velocity P-wave (km/s) = 3.56762 5.07306 4.38542
#
# Compressibility (1/GPa) = 0.02887159
#
# Stress axis : x y z
#
# Youngs Moduli (GPa) = 52.99450 66.66761 68.08083
#
# Poissons Ratio (x) = 0.27035 0.19365
# Poissons Ratio (y) = 0.21490 0.20041
# Poissons Ratio (z) = 0.15074 0.19625
#
# Static dielectric constant tensor:
#      x y z
#    x 1.627030 0.000000 0.000000 
#    y 0.000000 1.617760 0.000000 
#    z 0.000000 0.000000 1.642140 
# 
# From -- ./inp_files/6010.got.cif
#   From: 2010.05.17/outbox.cif.g08.bks.cpg/sg54_4_cif.got.tgz:6010.got - 2010.06.03 13:09:01.
