data_PCOD9421946
_publ_section_title
;
Structure prediction by ZEFSAII (Michael W. Deem and Ramdas Pophale) SiO2 
 PCOD9421946
Probable space group: P C C A
;
_chemical_formula_sum "Si O2"
_cell_formula_units_Z 60
_cell_length_a 8.528835
_cell_length_b 17.185623
_cell_length_c 18.904941
_cell_angle_alpha 90.000000
_cell_angle_beta 90.000000
_cell_angle_gamma 90.000000
_cell_volume 2770.960400
_symmetry_space_group_name_H-M "P C C A"
_symmetry_group_IT_number 54
_symmetry_cell_setting 'orthorhombic'
loop_
_space_group_symop_operation_xyz
x,y,z
1/2-x,-y,z
1/2+x,-y,1/2-z
-x,y,1/2-z
-x,-y,-z
1/2+x,y,-z
1/2-x,y,1/2+z
x,-y,1/2+z
loop_
_atom_site_type_symbol
_atom_site_label
_atom_site_fract_x
_atom_site_fract_y
_atom_site_fract_z
Si Si1 0.250000 0.500000 0.180832
Si Si2 0.573226 0.586202 0.937738
Si Si3 0.214445 0.911948 0.901203
Si Si4 0.831014 0.655894 0.728123
Si Si5 0.720490 0.582062 0.086004
Si Si6 0.124355 0.245327 0.573911
Si Si7 0.382402 0.204028 0.303606
Si Si8 0.417600 0.154639 0.531627
O O1 0.385393 0.473276 0.125197
O O2 0.207482 0.423764 0.227916
O O3 0.392323 0.610182 0.936160
O O4 0.671159 0.664794 0.925413
O O5 0.619730 0.562474 0.016940
O O6 0.255526 0.851773 0.839018
O O7 0.036170 0.900534 0.926626
O O8 0.250000 0.000000 0.880800
O O9 0.329266 0.889078 0.967096
O O10 0.845988 0.638142 0.644483
O O11 0.697567 0.721366 0.733610
O O12 0.000000 0.685989 0.750000
O O13 0.750000 0.500000 0.123565
O O14 0.997772 0.232231 0.634501
O O15 0.279227 0.192954 0.577152
O O16 0.031587 0.220717 0.502334
O O17 0.500000 0.161907 0.250000
#
# Coordination Sequence:
#
# PCOD9421946 Si02
#       8
#     4   8   8   8   8   8   8   8
#     4  12  28  44  68  94 132 192 236 286 358 412
#     4  12  25  41  67  95 133 176 227 296 353 406
#     4  10  21  41  71 105 141 175 218 276 345 414
#     4  12  28  46  70  95 134 185 241 289 349 424
#     4  12  25  44  64  98 133 168 231 296 357 416
#     4  10  20  40  65  96 133 177 218 280 341 406
#     4  11  25  46  63  91 132 182 229 280 334 402
#     4   9  20  37  69 107 137 168 216 271 345 419
#
# _framework density 21.653143
#
# number of rings (size 3 to 8) (size 9 to 14) (size 15 to 20)
#    0.000    1.067    2.667    3.200    5.600    2.133 
#    0.000    2.000    0.000    0.000    0.000    0.000 
#    0.000    0.000    0.000    0.000    0.000    0.000 
#
# Total GULP energy -335310.498909 kJ/mol
# GULP energy per Si atom -5588.508315 kJ/mol
# Density = 2.160386 g / cm^3
# Si number density = 21.653143 Si / 1000 Ang^3
#
#
#
# Elastic Constant Matrix: (Units=GPa)
#
#
# Indices 1 2 3 4 5 6 
#
# 1 129.4357 26.8286 43.1032 0.0000 0.0000 0.0000
# 2 26.8286 90.3632 18.3608 0.0000 0.0000 0.0000
# 3 43.1032 18.3608 81.5196 0.0000 0.0000 0.0000
# 4 0.0000 0.0000 0.0000 13.3801 0.0000 0.0000
# 5 0.0000 0.0000 0.0000 0.0000 23.2236 0.0000
# 6 0.0000 0.0000 0.0000 0.0000 0.0000 23.6087
#
#
#
# Elastic Compliance Matrix: (Units=1/GPa)
#
#
# Indices 1 2 3 4 5 6 
#
# 1 0.009686 -0.001923 -0.004688 0.000000 0.000000 0.000000
# 2 -0.001923 0.011979 -0.001681 0.000000 0.000000 0.000000
# 3 -0.004688 -0.001681 0.015124 0.000000 0.000000 0.000000
# 4 0.000000 0.000000 0.000000 0.074738 0.000000 0.000000
# 5 0.000000 0.000000 0.000000 0.000000 0.043060 0.000000
# 6 0.000000 0.000000 0.000000 0.000000 0.000000 0.042357
#
#
# Mechanical properties :
#
#
# Convention : Reuss Voigt Hill
#
# Bulk Modulus (GPa) = 49.49445 53.10042 51.29744
# Shear Modulus (GPa) = 22.70010 26.24421 24.47215
#
# Velocity S-wave (km/s) = 3.24134 3.48520 3.36548
# Velocity P-wave (km/s) = 6.07584 6.38529 6.23248
#
# Compressibility (1/GPa) = 0.02020429
#
# Stress axis : x y z
#
# Youngs Moduli (GPa) = 103.24584 83.47934 66.11804
#
# Poissons Ratio (x) = 0.16054 0.30997
# Poissons Ratio (y) = 0.19855 0.11116
# Poissons Ratio (z) = 0.48403 0.14035
#
# Static dielectric constant tensor:
#      x y z
#    x 1.806080 0.000000 0.000000 
#    y 0.000000 1.793860 0.000000 
#    z 0.000000 0.000000 1.833520 
# 
# From -- ./inp_files/16810.got.cif
#   From: 2010.05.17/outbox.cif.g08.bks.cpg/sg54_9_cif.got.tgz:16810.got - 2010.06.03 13:09:01.
