data_PCOD9421051
_publ_section_title
;
Structure prediction by ZEFSAII (Michael W. Deem and Ramdas Pophale) SiO2 
 PCOD9421051
Probable space group: P C C A
;
_chemical_formula_sum "Si O2"
_cell_formula_units_Z 40
_cell_length_a 7.413298
_cell_length_b 14.536542
_cell_length_c 14.720583
_cell_angle_alpha 90.000000
_cell_angle_beta 90.000000
_cell_angle_gamma 90.000000
_cell_volume 1586.344751
_symmetry_space_group_name_H-M "P C C A"
_symmetry_group_IT_number 54
_symmetry_cell_setting 'orthorhombic'
loop_
_space_group_symop_operation_xyz
x,y,z
1/2-x,-y,z
1/2+x,-y,1/2-z
-x,y,1/2-z
-x,-y,-z
1/2+x,y,-z
1/2-x,y,1/2+z
x,-y,1/2+z
loop_
_atom_site_type_symbol
_atom_site_label
_atom_site_fract_x
_atom_site_fract_y
_atom_site_fract_z
Si Si1 0.254460 0.403701 0.141110
Si Si2 0.655161 0.403293 0.062824
Si Si3 0.160326 0.199428 0.882963
Si Si4 0.374002 0.073413 0.549557
Si Si5 0.254901 0.203927 0.684227
O O1 0.250000 0.500000 0.193101
O O2 0.459656 0.399946 0.107241
O O3 0.206432 0.312248 0.193293
O O4 0.142438 0.405899 0.047083
O O5 0.750000 0.500000 0.087558
O O6 0.728587 0.302132 0.090288
O O7 0.230407 0.167863 0.785283
O O8 0.940012 0.199097 0.868357
O O9 0.205511 0.130943 0.964579
O O10 0.402632 0.152462 0.623630
O O11 0.250000 0.000000 0.602486
O O12 0.500000 0.000000 0.500000
#
# Coordination Sequence:
#
# PCOD9421051 Si02
#       5
#     8   8   8   8   8
#     4  10  19  34  61  90 128 171 213 256 318 394
#     4  10  19  34  61  91 127 170 210 261 322 389
#     4  10  22  42  66  94 131 167 216 272 330 397
#     4  12  24  44  71  92 127 172 217 276 334 393
#     4  10  22  42  66  95 129 172 215 268 332 395
#
# _framework density 25.215199999999999
#
# number of rings (size 3 to 8) (size 9 to 14) (size 15 to 20)
#    0.000    1.600    4.000    2.400    0.000    1.600 
#    3.600    0.000    0.000    0.000    0.000    0.000 
#    0.000    0.000    0.000    0.000    0.000    0.000 
#
# Total GULP energy -223363.510565 kJ/mol
# GULP energy per Si atom -5584.087764 kJ/mol
# Density = 2.515781 g / cm^3
# Si number density = 25.215200 Si / 1000 Ang^3
#
#
#
# Elastic Constant Matrix: (Units=GPa)
#
#
# Indices 1 2 3 4 5 6 
#
# 1 60.8136 33.8995 12.4783 0.0000 0.0000 0.0000
# 2 33.8995 181.0066 58.7264 0.0000 0.0000 0.0000
# 3 12.4783 58.7264 119.5245 0.0000 0.0000 0.0000
# 4 0.0000 0.0000 0.0000 -6.2800 0.0000 0.0000
# 5 0.0000 0.0000 0.0000 0.0000 21.3988 0.0000
# 6 0.0000 0.0000 0.0000 0.0000 0.0000 38.2790
#
#
#
# Elastic Compliance Matrix: (Units=1/GPa)
#
#
# Indices 1 2 3 4 5 6 
#
# 1 0.018368 -0.003352 -0.000271 0.000000 0.000000 0.000000
# 2 -0.003352 0.007184 -0.003180 0.000000 0.000000 0.000000
# 3 -0.000271 -0.003180 0.009957 0.000000 0.000000 0.000000
# 4 0.000000 0.000000 0.000000 -0.159235 0.000000 0.000000
# 5 0.000000 0.000000 0.000000 0.000000 0.046732 0.000000
# 6 0.000000 0.000000 0.000000 0.000000 0.000000 0.026124
#
#
# Mechanical properties :
#
#
# Convention : Reuss Voigt Hill
#
# Bulk Modulus (GPa) = 45.65399 63.50589 54.57994
# Shear Modulus (GPa) = -166.86781 27.76225 -69.55278
#
# Velocity S-wave (km/s) = -8.14378 3.32175 -5.25771
# Velocity P-wave (km/s) = 8.38350 6.32078 3.89428
#
# Compressibility (1/GPa) = 0.02190389
#
# Stress axis : x y z
#
# Youngs Moduli (GPa) = 54.44299 139.19535 100.43097
#
# Poissons Ratio (x) = 0.46661 0.02717
# Poissons Ratio (y) = 0.18250 0.31935
# Poissons Ratio (z) = 0.01473 0.44262
#
# Static dielectric constant tensor:
#      x y z
#    x 2.240910 0.000000 0.000000 
#    y 0.000000 2.014070 0.000000 
#    z 0.000000 0.000000 1.908110 
# 
# From -- ./inp_files/11489.got.cif
#   From: 2010.05.17/outbox.cif.g08.bks.cpg/sg54_6_cif.got.tgz:11489.got - 2010.06.03 13:09:01.
