data_PCOD9421722
_publ_section_title
;
Structure prediction by ZEFSAII (Michael W. Deem and Ramdas Pophale) SiO2 
 PCOD9421722
Probable space group: P C C A
;
_chemical_formula_sum "Si O2"
_cell_formula_units_Z 52
_cell_length_a 21.384528
_cell_length_b 6.137414
_cell_length_c 19.253146
_cell_angle_alpha 90.000000
_cell_angle_beta 90.000000
_cell_angle_gamma 90.000000
_cell_volume 2526.892653
_symmetry_space_group_name_H-M "P C C A"
_symmetry_group_IT_number 54
_symmetry_cell_setting 'orthorhombic'
loop_
_space_group_symop_operation_xyz
x,y,z
1/2-x,-y,z
1/2+x,-y,1/2-z
-x,y,1/2-z
-x,-y,-z
1/2+x,y,-z
1/2-x,y,1/2+z
x,-y,1/2+z
loop_
_atom_site_type_symbol
_atom_site_label
_atom_site_fract_x
_atom_site_fract_y
_atom_site_fract_z
Si Si1 0.818107 0.112892 0.917334
Si Si2 0.702850 0.348113 0.739462
Si Si3 0.250000 0.000000 0.856722
Si Si4 0.500000 0.680560 0.250000
Si Si5 0.652620 0.164836 0.048502
Si Si6 0.750000 0.500000 0.490548
Si Si7 0.393357 0.001880 0.709833
Si Si8 0.406217 0.632286 0.825822
O O1 0.796371 0.344683 0.947308
O O2 0.750000 0.000000 0.901222
O O3 0.867952 0.133370 0.855468
O O4 0.852636 0.961302 0.975614
O O5 0.750000 0.500000 0.782398
O O6 0.663271 0.171317 0.779833
O O7 0.653270 0.483325 0.694430
O O8 0.748555 0.210914 0.690539
O O9 0.187568 0.993265 0.901634
O O10 0.546554 0.840802 0.291988
O O11 0.536211 0.521633 0.196484
O O12 0.599180 0.277269 0.095349
O O13 0.705783 0.345510 0.035497
O O14 0.403824 0.839710 0.774197
#
# Coordination Sequence:
#
# PCOD9421722 Si02
#       8
#     8   8   4   4   8   4   8   8
#     4  10  24  37  59  95 141 173 197 256 330 399
#     4  11  21  32  59  96 127 162 207 263 324 387
#     4  12  18  34  54  98 138 158 206 254 310 400
#     4  10  26  46  68  88 116 172 234 280 320 366
#     4  11  20  36  59  93 131 171 206 256 315 392
#     4  10  20  38  56  92 140 170 208 242 330 414
#     4  11  24  44  61  91 132 167 219 275 321 384
#     4  11  23  39  68  89 120 168 222 272 318 371
#
# _framework density 20.578634999999998
#
# number of rings (size 3 to 8) (size 9 to 14) (size 15 to 20)
#    0.000    1.231    5.385    1.385    3.231    4.923 
#    1.385    0.769    0.000    4.615    0.000    0.000 
#    0.000    0.000    0.000    0.000    0.000    0.000 
#
# Total GULP energy -290016.330268 kJ/mol
# GULP energy per Si atom -5577.237121 kJ/mol
# Density = 2.053180 g / cm^3
# Si number density = 20.578635 Si / 1000 Ang^3
#
#
#
# Elastic Constant Matrix: (Units=GPa)
#
#
# Indices 1 2 3 4 5 6 
#
# 1 64.1101 28.5487 43.9814 0.0000 0.0000 0.0000
# 2 28.5487 93.7135 27.0999 0.0000 0.0000 0.0000
# 3 43.9814 27.0999 78.1165 0.0000 0.0000 0.0000
# 4 0.0000 0.0000 0.0000 8.4960 0.0000 0.0000
# 5 0.0000 0.0000 0.0000 0.0000 6.4652 0.0000
# 6 0.0000 0.0000 0.0000 0.0000 0.0000 27.1887
#
#
#
# Elastic Compliance Matrix: (Units=1/GPa)
#
#
# Indices 1 2 3 4 5 6 
#
# 1 0.026844 -0.004232 -0.013646 0.000000 0.000000 0.000000
# 2 -0.004232 0.012528 -0.001964 0.000000 0.000000 0.000000
# 3 -0.013646 -0.001964 0.021165 0.000000 0.000000 0.000000
# 4 0.000000 0.000000 0.000000 0.117702 0.000000 0.000000
# 5 0.000000 0.000000 0.000000 0.000000 0.154674 0.000000
# 6 0.000000 0.000000 0.000000 0.000000 0.000000 0.036780
#
#
# Mechanical properties :
#
#
# Convention : Reuss Voigt Hill
#
# Bulk Modulus (GPa) = 47.94955 48.35557 48.15256
# Shear Modulus (GPa) = 12.00978 17.51732 14.76355
#
# Velocity S-wave (km/s) = 2.41841 2.92076 2.68138
# Velocity P-wave (km/s) = 5.58118 5.90961 5.74774
#
# Compressibility (1/GPa) = 0.02085525
#
# Stress axis : x y z
#
# Youngs Moduli (GPa) = 37.25248 79.82276 47.24685
#
# Poissons Ratio (x) = 0.33778 0.64472
# Poissons Ratio (y) = 0.15764 0.09277
# Poissons Ratio (z) = 0.50834 0.15674
#
# Static dielectric constant tensor:
#      x y z
#    x 1.737590 0.000000 0.000000 
#    y 0.000000 1.781180 0.000000 
#    z 0.000000 0.000000 1.763620 
# 
# From -- ./inp_files/22181.got.cif
#   From: 2010.05.17/outbox.cif.g08.bks.cpg/sg54_12_cif.got.tgz:22181.got - 2010.06.03 13:09:01.
