data_PCOD9421340
_publ_section_title
;
Structure prediction by ZEFSAII (Michael W. Deem and Ramdas Pophale) SiO2 
 PCOD9421340
Probable space group: P C C A
;
_chemical_formula_sum "Si O2"
_cell_formula_units_Z 48
_cell_length_a 13.145855
_cell_length_b 10.582692
_cell_length_c 17.723467
_cell_angle_alpha 90.000000
_cell_angle_beta 90.000000
_cell_angle_gamma 90.000000
_cell_volume 2465.662756
_symmetry_space_group_name_H-M "P C C A"
_symmetry_group_IT_number 54
_symmetry_cell_setting 'orthorhombic'
loop_
_space_group_symop_operation_xyz
x,y,z
1/2-x,-y,z
1/2+x,-y,1/2-z
-x,y,1/2-z
-x,-y,-z
1/2+x,y,-z
1/2-x,y,1/2+z
x,-y,1/2+z
loop_
_atom_site_type_symbol
_atom_site_label
_atom_site_fract_x
_atom_site_fract_y
_atom_site_fract_z
Si Si1 0.622370 0.172457 0.597103
Si Si2 0.486540 0.642667 0.525063
Si Si3 0.667630 0.252579 0.374754
Si Si4 0.680695 0.801509 0.504578
Si Si5 0.197094 0.135198 0.245164
Si Si6 0.928946 0.978381 0.892487
O O1 0.566740 0.275901 0.543213
O O2 0.733358 0.155663 0.562039
O O3 0.643270 0.201256 0.684671
O O4 0.547150 0.052394 0.600504
O O5 0.500000 0.500000 0.500000
O O6 0.415763 0.646598 0.599695
O O7 0.594787 0.710471 0.537819
O O8 0.758101 0.264935 0.435765
O O9 0.720718 0.227693 0.294644
O O10 0.606077 0.121811 0.389042
O O11 0.626236 0.917733 0.464033
O O12 0.116989 0.092936 0.180576
O O13 0.250000 0.000000 0.266926
#
# Coordination Sequence:
#
# PCOD9421340 Si02
#       6
#     8   8   8   8   8   8
#     4  10  20  32  56  83 108 144 185 228 276 342
#     4  10  22  38  56  78 108 149 197 244 281 321
#     4   9  19  34  54  79 114 146 175 225 287 341
#     4   9  19  33  54  79 106 138 183 229 276 332
#     4   9  18  33  53  81 113 143 176 222 287 352
#     4   9  18  33  52  82 116 142 169 219 289 351
#
# _framework density 19.467383000000002
#
# number of rings (size 3 to 8) (size 9 to 14) (size 15 to 20)
#    0.000    2.667    0.000    2.000    0.000   14.000 
#    0.000    2.500    0.000   20.000    0.000    0.000 
#    0.000    0.000    0.000    0.000    0.000    0.000 
#
# Total GULP energy -267651.593184 kJ/mol
# GULP energy per Si atom -5576.074858 kJ/mol
# Density = 1.942307 g / cm^3
# Si number density = 19.467383 Si / 1000 Ang^3
#
#
#
# Elastic Constant Matrix: (Units=GPa)
#
#
# Indices 1 2 3 4 5 6 
#
# 1 129.4826 23.3714 38.9505 0.0000 0.0000 0.0000
# 2 23.3714 28.2271 15.4198 0.0000 0.0000 0.0000
# 3 38.9505 15.4198 70.6798 0.0000 0.0000 0.0000
# 4 0.0000 0.0000 0.0000 15.4991 0.0000 0.0000
# 5 0.0000 0.0000 0.0000 0.0000 30.1913 0.0000
# 6 0.0000 0.0000 0.0000 0.0000 0.0000 10.9948
#
#
#
# Elastic Compliance Matrix: (Units=1/GPa)
#
#
# Indices 1 2 3 4 5 6 
#
# 1 0.010089 -0.006035 -0.004243 0.000000 0.000000 0.000000
# 2 -0.006035 0.043831 -0.006236 0.000000 0.000000 0.000000
# 3 -0.004243 -0.006236 0.017847 0.000000 0.000000 0.000000
# 4 0.000000 0.000000 0.000000 0.064520 0.000000 0.000000
# 5 0.000000 0.000000 0.000000 0.000000 0.033122 0.000000
# 6 0.000000 0.000000 0.000000 0.000000 0.000000 0.090952
#
#
# Mechanical properties :
#
#
# Convention : Reuss Voigt Hill
#
# Bulk Modulus (GPa) = 25.81492 42.65253 34.23372
# Shear Modulus (GPa) = 16.32370 21.38023 18.85196
#
# Velocity S-wave (km/s) = 2.89885 3.31759 3.11527
# Velocity P-wave (km/s) = 4.94913 6.05248 5.52840
#
# Compressibility (1/GPa) = 0.03873729
#
# Stress axis : x y z
#
# Youngs Moduli (GPa) = 99.11969 22.81494 56.03144
#
# Poissons Ratio (x) = 0.13770 0.23775
# Poissons Ratio (y) = 0.59823 0.34943
# Poissons Ratio (z) = 0.42057 0.14228
#
# Static dielectric constant tensor:
#      x y z
#    x 1.722070 0.000000 0.000000 
#    y 0.000000 1.686150 0.000000 
#    z 0.000000 0.000000 1.728110 
# 
# From -- ./inp_files/17285.got.cif
#   From: 2010.05.17/outbox.cif.g08.bks.cpg/sg54_9_cif.got.tgz:17285.got - 2010.06.03 13:09:01.
