data_PCOD9421740
_publ_section_title
;
Structure prediction by ZEFSAII (Michael W. Deem and Ramdas Pophale) SiO2 
 PCOD9421740
Probable space group: P C C A
;
_chemical_formula_sum "Si O2"
_cell_formula_units_Z 60
_cell_length_a 27.016520
_cell_length_b 14.705877
_cell_length_c 8.953463
_cell_angle_alpha 90.000000
_cell_angle_beta 90.000000
_cell_angle_gamma 90.000000
_cell_volume 3557.225355
_symmetry_space_group_name_H-M "P C C A"
_symmetry_group_IT_number 54
_symmetry_cell_setting 'orthorhombic'
loop_
_space_group_symop_operation_xyz
x,y,z
1/2-x,-y,z
1/2+x,-y,1/2-z
-x,y,1/2-z
-x,-y,-z
1/2+x,y,-z
1/2-x,y,1/2+z
x,-y,1/2+z
loop_
_atom_site_type_symbol
_atom_site_label
_atom_site_fract_x
_atom_site_fract_y
_atom_site_fract_z
Si Si1 0.312551 0.919273 0.078651
Si Si2 0.706792 0.621909 0.331116
Si Si3 0.776958 0.211056 0.926338
Si Si4 0.250000 0.500000 0.928732
Si Si5 0.950596 0.127879 0.179278
Si Si6 0.344115 0.096724 0.253288
Si Si7 0.450804 0.058879 0.155431
Si Si8 0.147128 0.766814 0.799754
O O1 0.342378 0.927572 0.925894
O O2 0.259275 0.874734 0.038974
O O3 0.335616 0.845101 0.187303
O O4 0.318197 0.013953 0.164164
O O5 0.743724 0.702336 0.385180
O O6 0.709854 0.547192 0.461970
O O7 0.727011 0.574585 0.181476
O O8 0.656060 0.672113 0.286289
O O9 0.810412 0.183178 0.784866
O O10 0.814728 0.229011 0.061583
O O11 0.907798 0.201871 0.159230
O O12 0.000000 0.169858 0.250000
O O13 0.939047 0.045540 0.295869
O O14 0.958944 0.078511 0.019494
O O15 0.400285 0.109575 0.200984
O O16 0.500000 0.083749 0.250000
#
# Coordination Sequence:
#
# PCOD9421740 Si02
#       8
#     8   8   8   4   8   8   8   8
#     4  11  23  33  50  71 108 152 193 221 273 328
#     4  10  21  37  59  84 116 141 176 216 270 340
#     4  11  22  37  50  78 113 146 181 228 270 325
#     4  10  20  38  60  84 112 146 174 208 270 350
#     4  11  22  37  55  74 105 149 197 251 287 321
#     4  12  22  35  51  73 107 155 193 234 276 322
#     4  11  22  36  53  72 102 148 209 248 280 313
#     4  11  21  37  55  81 111 144 187 233 281 325
#
# _framework density 16.867077999999999
#
# number of rings (size 3 to 8) (size 9 to 14) (size 15 to 20)
#    0.000    1.067    4.000    5.200    3.733    1.067 
#    0.000    0.000    0.000    0.000    0.000    0.933 
#    0.000    0.000    0.000    0.000    0.000    0.000 
#
# Total GULP energy -334669.178942 kJ/mol
# GULP energy per Si atom -5577.819649 kJ/mol
# Density = 1.682869 g / cm^3
# Si number density = 16.867078 Si / 1000 Ang^3
#
#
#
# Elastic Constant Matrix: (Units=GPa)
#
#
# Indices 1 2 3 4 5 6 
#
# 1 92.6213 33.8168 22.5995 0.0000 0.0000 0.0000
# 2 33.8168 51.7829 38.9577 0.0000 0.0000 0.0000
# 3 22.5995 38.9577 110.2886 0.0000 0.0000 0.0000
# 4 0.0000 0.0000 0.0000 24.9978 0.0000 0.0000
# 5 0.0000 0.0000 0.0000 0.0000 24.6354 0.0000
# 6 0.0000 0.0000 0.0000 0.0000 0.0000 19.0209
#
#
#
# Elastic Compliance Matrix: (Units=1/GPa)
#
#
# Indices 1 2 3 4 5 6 
#
# 1 0.014197 -0.009646 0.000498 0.000000 0.000000 0.000000
# 2 -0.009646 0.032855 -0.009629 0.000000 0.000000 0.000000
# 3 0.000498 -0.009629 0.012366 0.000000 0.000000 0.000000
# 4 0.000000 0.000000 0.000000 0.040004 0.000000 0.000000
# 5 0.000000 0.000000 0.000000 0.000000 0.040592 0.000000
# 6 0.000000 0.000000 0.000000 0.000000 0.000000 0.052574
#
#
# Mechanical properties :
#
#
# Convention : Reuss Voigt Hill
#
# Bulk Modulus (GPa) = 45.73617 49.49343 47.61480
# Shear Modulus (GPa) = 21.05892 24.35207 22.70549
#
# Velocity S-wave (km/s) = 3.53728 3.80381 3.67296
# Velocity P-wave (km/s) = 6.62251 6.97846 6.80281
#
# Compressibility (1/GPa) = 0.02186453
#
# Stress axis : x y z
#
# Youngs Moduli (GPa) = 70.43754 30.43692 80.86509
#
# Poissons Ratio (x) = 0.29360 -0.04029
# Poissons Ratio (y) = 0.67945 0.77864
# Poissons Ratio (z) = -0.03509 0.29307
#
# Static dielectric constant tensor:
#      x y z
#    x 1.626320 0.000000 0.000000 
#    y 0.000000 1.576560 0.000000 
#    z 0.000000 0.000000 1.593160 
# 
# From -- ./inp_files/5634.got.cif
#   From: 2010.05.17/outbox.cif.g08.bks.cpg/sg54_3_cif.got.tgz:5634.got - 2010.06.03 13:09:01.
