data_PCOD9421799
_publ_section_title
;
Structure prediction by ZEFSAII (Michael W. Deem and Ramdas Pophale) SiO2 
 PCOD9421799
Probable space group: P C C A
;
_chemical_formula_sum "Si O2"
_cell_formula_units_Z 56
_cell_length_a 13.833206
_cell_length_b 10.836274
_cell_length_c 18.649391
_cell_angle_alpha 90.000000
_cell_angle_beta 90.000000
_cell_angle_gamma 90.000000
_cell_volume 2795.551367
_symmetry_space_group_name_H-M "P C C A"
_symmetry_group_IT_number 54
_symmetry_cell_setting 'orthorhombic'
loop_
_space_group_symop_operation_xyz
x,y,z
1/2-x,-y,z
1/2+x,-y,1/2-z
-x,y,1/2-z
-x,-y,-z
1/2+x,y,-z
1/2-x,y,1/2+z
x,-y,1/2+z
loop_
_atom_site_type_symbol
_atom_site_label
_atom_site_fract_x
_atom_site_fract_y
_atom_site_fract_z
Si Si1 0.250000 0.000000 0.296635
Si Si2 0.991331 0.298167 0.008015
Si Si3 0.683653 0.594645 0.276238
Si Si4 0.362257 0.496267 0.568773
Si Si5 0.925624 0.103534 0.124463
Si Si6 0.463395 0.811690 0.864475
Si Si7 0.348361 0.213658 0.225327
Si Si8 0.000000 0.743322 0.750000
O O1 0.184928 0.093550 0.344565
O O2 0.318961 0.074632 0.243973
O O3 0.941481 0.187959 0.053992
O O4 0.068172 0.380056 0.051822
O O5 0.913715 0.389603 0.970841
O O6 0.051181 0.244926 0.941606
O O7 0.750000 0.500000 0.231913
O O8 0.646677 0.515251 0.344542
O O9 0.755230 0.707288 0.295319
O O10 0.591936 0.655857 0.240932
O O11 0.250000 0.500000 0.544760
O O12 0.996388 0.168256 0.181719
O O13 0.951355 0.958556 0.123765
O O14 0.570437 0.785139 0.834781
O O15 0.395501 0.753047 0.802735
#
# Coordination Sequence:
#
# PCOD9421799 Si02
#       8
#     4   8   8   8   8   8   8   4
#     4  10  20  38  64  94 132 166 222 270 328 388
#     4  11  23  43  64  91 134 173 212 266 328 392
#     4  11  23  40  65  95 123 165 217 268 319 392
#     4  10  23  42  64  86 124 169 217 263 319 378
#     4  11  22  40  64  95 128 174 211 273 329 394
#     4  10  22  39  64  93 130 167 217 266 325 395
#     4  10  21  39  62  93 127 167 211 279 323 377
#     4  12  22  42  66  92 132 164 222 274 334 386
#
# _framework density 20.031828000000001
#
# number of rings (size 3 to 8) (size 9 to 14) (size 15 to 20)
#    0.000    1.429    2.857    3.857    0.000    4.571 
#    0.000    0.714    0.000    0.000    0.000    0.000 
#    0.000    0.000    0.000    0.000    0.000    0.000 
#
# Total GULP energy -311887.553920 kJ/mol
# GULP energy per Si atom -5569.420606 kJ/mol
# Density = 1.998623 g / cm^3
# Si number density = 20.031828 Si / 1000 Ang^3
#
#
#
# Elastic Constant Matrix: (Units=GPa)
#
#
# Indices 1 2 3 4 5 6 
#
# 1 63.1945 16.6452 -18.6459 0.0000 0.0000 0.0000
# 2 16.6452 70.1021 12.5486 0.0000 0.0000 0.0000
# 3 -18.6459 12.5486 48.7939 0.0000 0.0000 0.0000
# 4 0.0000 0.0000 0.0000 20.2130 0.0000 0.0000
# 5 0.0000 0.0000 0.0000 0.0000 18.8264 0.0000
# 6 0.0000 0.0000 0.0000 0.0000 0.0000 31.1988
#
#
#
# Elastic Compliance Matrix: (Units=1/GPa)
#
#
# Indices 1 2 3 4 5 6 
#
# 1 0.020327 -0.006517 0.009444 0.000000 0.000000 0.000000
# 2 -0.006517 0.017043 -0.006873 0.000000 0.000000 0.000000
# 3 0.009444 -0.006873 0.025871 0.000000 0.000000 0.000000
# 4 0.000000 0.000000 0.000000 0.049473 0.000000 0.000000
# 5 0.000000 0.000000 0.000000 0.000000 0.053117 0.000000
# 6 0.000000 0.000000 0.000000 0.000000 0.000000 0.032053
#
#
# Mechanical properties :
#
#
# Convention : Reuss Voigt Hill
#
# Bulk Modulus (GPa) = 18.06767 22.57625 20.32196
# Shear Modulus (GPa) = 22.29898 25.48382 23.89140
#
# Velocity S-wave (km/s) = 3.34005 3.57061 3.45725
# Velocity P-wave (km/s) = 4.89016 5.31918 5.10918
#
# Compressibility (1/GPa) = 0.05534748
#
# Stress axis : x y z
#
# Youngs Moduli (GPa) = 49.19527 58.67619 38.65359
#
# Poissons Ratio (x) = 0.38239 -0.36504
# Poissons Ratio (y) = 0.32061 0.26568
# Poissons Ratio (z) = -0.46459 0.40330
#
# Static dielectric constant tensor:
#      x y z
#    x 1.753990 0.000000 0.000000 
#    y 0.000000 1.738640 0.000000 
#    z 0.000000 0.000000 1.729310 
# 
# From -- ./inp_files/21676.got.cif
#   From: 2010.05.17/outbox.cif.g08.bks.cpg/sg54_11_cif.got.tgz:21676.got - 2010.06.03 13:09:01.
