data_PCOD9421562
_publ_section_title
;
Structure prediction by ZEFSAII (Michael W. Deem and Ramdas Pophale) SiO2 
 PCOD9421562
Probable space group: P C C A
;
_chemical_formula_sum "Si O2"
_cell_formula_units_Z 64
_cell_length_a 21.178575
_cell_length_b 9.158650
_cell_length_c 15.443435
_cell_angle_alpha 90.000000
_cell_angle_beta 90.000000
_cell_angle_gamma 90.000000
_cell_volume 2995.519165
_symmetry_space_group_name_H-M "P C C A"
_symmetry_group_IT_number 54
_symmetry_cell_setting 'orthorhombic'
loop_
_space_group_symop_operation_xyz
x,y,z
1/2-x,-y,z
1/2+x,-y,1/2-z
-x,y,1/2-z
-x,-y,-z
1/2+x,y,-z
1/2-x,y,1/2+z
x,-y,1/2+z
loop_
_atom_site_type_symbol
_atom_site_label
_atom_site_fract_x
_atom_site_fract_y
_atom_site_fract_z
Si Si1 0.567482 0.390401 0.275588
Si Si2 0.691393 0.910728 0.481196
Si Si3 0.313881 0.419587 0.724775
Si Si4 0.429822 0.057720 0.278233
Si Si5 0.933729 0.066853 0.031823
Si Si6 0.685237 0.580343 0.487107
Si Si7 0.938255 0.400752 0.983306
Si Si8 0.806889 0.094121 0.280051
O O1 0.500000 0.455828 0.250000
O O2 0.624770 0.491768 0.247790
O O3 0.567696 0.372343 0.379727
O O4 0.572833 0.232200 0.231338
O O5 0.682236 0.748082 0.518555
O O6 0.709300 0.883095 0.380975
O O7 0.750000 0.000000 0.520776
O O8 0.627679 0.006274 0.481613
O O9 0.250000 0.500000 0.750654
O O10 0.315990 0.418850 0.618909
O O11 0.313780 0.254811 0.758402
O O12 0.500000 0.012505 0.250000
O O13 0.421676 0.996695 0.373592
O O14 0.372687 0.989976 0.224653
O O15 0.939853 0.241392 0.026564
O O16 0.000000 0.000000 0.000000
O O17 0.750000 0.500000 0.512902
O O18 0.623445 0.489832 0.513089
O O19 0.000000 0.500000 0.000000
O O20 0.750000 0.000000 0.240988
#
# Coordination Sequence:
#
# PCOD9421562 Si02
#       8
#     8   8   8   8   8   8   8   8
#     4  10  21  39  61  86 121 161 204 252 313 378
#     4  10  20  37  63  90 120 162 207 252 305 369
#     4   9  18  33  57  85 113 151 196 241 290 354
#     4  11  24  40  60  85 118 158 202 256 312 371
#     4  12  24  40  62  87 120 159 208 260 313 375
#     4   9  18  34  57  87 118 152 199 247 296 357
#     4  11  23  39  62  92 125 162 206 261 319 379
#     4  10  20  36  60  88 120 157 200 249 303 367
#
# _framework density 21.365245999999999
#
# number of rings (size 3 to 8) (size 9 to 14) (size 15 to 20)
#    0.000    1.750    0.000    5.250    0.000    8.000 
#    0.000    0.000    0.000    5.250    0.000    0.000 
#    0.000    0.000    0.000    0.000    0.000    0.000 
#
# Total GULP energy -357663.842552 kJ/mol
# GULP energy per Si atom -5588.497540 kJ/mol
# Density = 2.131662 g / cm^3
# Si number density = 21.365246 Si / 1000 Ang^3
#
#
#
# Elastic Constant Matrix: (Units=GPa)
#
#
# Indices 1 2 3 4 5 6 
#
# 1 196.4562 115.1088 -6.8030 0.0000 0.0000 0.0000
# 2 115.1088 193.6580 18.2601 0.0000 0.0000 0.0000
# 3 -6.8030 18.2601 50.7415 0.0000 0.0000 0.0000
# 4 0.0000 0.0000 0.0000 16.6224 0.0000 0.0000
# 5 0.0000 0.0000 0.0000 0.0000 15.8214 0.0000
# 6 0.0000 0.0000 0.0000 0.0000 0.0000 33.0701
#
#
#
# Elastic Compliance Matrix: (Units=1/GPa)
#
#
# Indices 1 2 3 4 5 6 
#
# 1 0.008219 -0.005164 0.002960 0.000000 0.000000 0.000000
# 2 -0.005164 0.008590 -0.003784 0.000000 0.000000 0.000000
# 3 0.002960 -0.003784 0.021466 0.000000 0.000000 0.000000
# 4 0.000000 0.000000 0.000000 0.060160 0.000000 0.000000
# 5 0.000000 0.000000 0.000000 0.000000 0.063205 0.000000
# 6 0.000000 0.000000 0.000000 0.000000 0.000000 0.030239
#
#
# Mechanical properties :
#
#
# Convention : Reuss Voigt Hill
#
# Bulk Modulus (GPa) = 38.02319 77.10974 57.56646
# Shear Modulus (GPa) = 23.51609 34.05544 28.78576
#
# Velocity S-wave (km/s) = 3.32123 3.99678 3.67456
# Velocity P-wave (km/s) = 5.70463 7.58080 6.70863
#
# Compressibility (1/GPa) = 0.02629974
#
# Stress axis : x y z
#
# Youngs Moduli (GPa) = 121.67659 116.41404 46.58486
#
# Poissons Ratio (x) = 0.60118 -0.13790
# Poissons Ratio (y) = 0.62836 0.17626
# Poissons Ratio (z) = -0.36020 0.44047
#
# Static dielectric constant tensor:
#      x y z
#    x 1.816900 0.000000 0.000000 
#    y 0.000000 1.753430 0.000000 
#    z 0.000000 0.000000 1.492070 
# 
# From -- ./inp_files/18955.got.cif
#   From: 2010.05.17/outbox.cif.g08.bks.cpg/sg54_10_cif.got.tgz:18955.got - 2010.06.03 13:09:01.
