data_PCOD9421497
_publ_section_title
;
Structure prediction by ZEFSAII (Michael W. Deem and Ramdas Pophale) SiO2 
 PCOD9421497
Probable space group: P C C A
;
_chemical_formula_sum "Si O2"
_cell_formula_units_Z 48
_cell_length_a 15.828730
_cell_length_b 9.114102
_cell_length_c 18.337696
_cell_angle_alpha 90.000000
_cell_angle_beta 90.000000
_cell_angle_gamma 90.000000
_cell_volume 2645.481474
_symmetry_space_group_name_H-M "P C C A"
_symmetry_group_IT_number 54
_symmetry_cell_setting 'orthorhombic'
loop_
_space_group_symop_operation_xyz
x,y,z
1/2-x,-y,z
1/2+x,-y,1/2-z
-x,y,1/2-z
-x,-y,-z
1/2+x,y,-z
1/2-x,y,1/2+z
x,-y,1/2+z
loop_
_atom_site_type_symbol
_atom_site_label
_atom_site_fract_x
_atom_site_fract_y
_atom_site_fract_z
Si Si1 0.507279 0.244448 0.497965
Si Si2 0.818630 0.288244 0.769993
Si Si3 0.000000 0.854158 0.250000
Si Si4 0.750000 0.500000 0.895194
Si Si5 0.750000 0.000000 0.337005
Si Si6 0.750000 0.500000 0.150348
Si Si7 0.123575 0.472595 0.976260
Si Si8 0.062507 0.985147 0.607026
O O1 0.567319 0.384505 0.507510
O O2 0.426794 0.322878 0.461107
O O3 0.549118 0.120179 0.448581
O O4 0.477480 0.160409 0.571158
O O5 0.800288 0.389014 0.841617
O O6 0.774360 0.367445 0.702779
O O7 0.916149 0.248538 0.752410
O O8 0.772305 0.137732 0.787604
O O9 0.984950 0.960440 0.319708
O O10 0.818804 0.561228 0.952704
O O11 0.836877 0.031779 0.380391
O O12 0.826228 0.479180 0.094923
#
# Coordination Sequence:
#
# PCOD9421497 Si02
#       8
#     8   8   4   4   4   4   8   8
#     4  10  21  36  56  82 111 144 182 224 271 323
#     4  10  21  37  57  81 109 143 183 226 273 324
#     4  10  20  36  58  82 112 146 182 228 274 322
#     4  10  20  36  58  82 110 148 184 216 270 338
#     4  10  20  36  58  78 108 148 184 220 270 332
#     4  10  22  36  54  82 110 138 180 230 274 316
#     4  10  20  36  56  80 112 145 179 223 272 324
#     4  10  21  37  57  82 110 144 185 225 270 323
#
# _framework density 18.144145999999999
#
# number of rings (size 3 to 8) (size 9 to 14) (size 15 to 20)
#    0.000    2.000    0.000    4.000    0.000    5.333 
#    0.000    0.000    0.000    6.000    0.000    0.000 
#    0.000    0.000    0.000    0.000    0.000    0.000 
#
# Total GULP energy -267349.609735 kJ/mol
# GULP energy per Si atom -5569.783536 kJ/mol
# Density = 1.810285 g / cm^3
# Si number density = 18.144146 Si / 1000 Ang^3
#
#
#
# Elastic Constant Matrix: (Units=GPa)
#
#
# Indices 1 2 3 4 5 6 
#
# 1 125.8382 46.1714 53.7639 0.0000 0.0000 0.0000
# 2 46.1714 67.7981 23.6102 0.0000 0.0000 0.0000
# 3 53.7639 23.6102 103.5848 0.0000 0.0000 0.0000
# 4 0.0000 0.0000 0.0000 30.8742 0.0000 0.0000
# 5 0.0000 0.0000 0.0000 0.0000 20.0571 0.0000
# 6 0.0000 0.0000 0.0000 0.0000 0.0000 28.5140
#
#
#
# Elastic Compliance Matrix: (Units=1/GPa)
#
#
# Indices 1 2 3 4 5 6 
#
# 1 0.012578 -0.006835 -0.004971 0.000000 0.000000 0.000000
# 2 -0.006835 0.019735 -0.000951 0.000000 0.000000 0.000000
# 3 -0.004971 -0.000951 0.012451 0.000000 0.000000 0.000000
# 4 0.000000 0.000000 0.000000 0.032389 0.000000 0.000000
# 5 0.000000 0.000000 0.000000 0.000000 0.049858 0.000000
# 6 0.000000 0.000000 0.000000 0.000000 0.000000 0.035070
#
#
# Mechanical properties :
#
#
# Convention : Reuss Voigt Hill
#
# Bulk Modulus (GPa) = 51.94379 60.47912 56.21146
# Shear Modulus (GPa) = 25.77166 27.46744 26.61955
#
# Velocity S-wave (km/s) = 3.77289 3.89504 3.83445
# Velocity P-wave (km/s) = 6.90436 7.32348 7.11700
#
# Compressibility (1/GPa) = 0.01925158
#
# Stress axis : x y z
#
# Youngs Moduli (GPa) = 79.50255 50.67017 80.31780
#
# Poissons Ratio (x) = 0.34633 0.39923
# Poissons Ratio (y) = 0.54340 0.07636
# Poissons Ratio (z) = 0.39518 0.04818
#
# Static dielectric constant tensor:
#      x y z
#    x 1.631870 0.000000 0.000000 
#    y 0.000000 1.599270 0.000000 
#    z 0.000000 0.000000 1.631060 
# 
# From -- ./inp_files/18565.got.cif
#   From: 2010.05.17/outbox.cif.g08.bks.cpg/sg54_10_cif.got.tgz:18565.got - 2010.06.03 13:09:01.
