data_PCOD9421618
_publ_section_title
;
Structure prediction by ZEFSAII (Michael W. Deem and Ramdas Pophale) SiO2 
 PCOD9421618
Probable space group: P C C A
;
_chemical_formula_sum "Si O2"
_cell_formula_units_Z 32
_cell_length_a 15.076682
_cell_length_b 10.641571
_cell_length_c 8.853917
_cell_angle_alpha 90.000000
_cell_angle_beta 90.000000
_cell_angle_gamma 90.000000
_cell_volume 1420.518742
_symmetry_space_group_name_H-M "P C C A"
_symmetry_group_IT_number 54
_symmetry_cell_setting 'orthorhombic'
loop_
_space_group_symop_operation_xyz
x,y,z
1/2-x,-y,z
1/2+x,-y,1/2-z
-x,y,1/2-z
-x,-y,-z
1/2+x,y,-z
1/2-x,y,1/2+z
x,-y,1/2+z
loop_
_atom_site_type_symbol
_atom_site_label
_atom_site_fract_x
_atom_site_fract_y
_atom_site_fract_z
Si Si1 0.677974 0.331525 0.055231
Si Si2 0.250000 0.000000 0.709671
Si Si3 0.250000 0.500000 0.707447
Si Si4 0.984313 0.140280 0.570726
Si Si5 0.838240 0.839202 0.550947
O O1 0.674623 0.432208 0.190159
O O2 0.604888 0.221013 0.044700
O O3 0.697171 0.404416 0.901215
O O4 0.770748 0.266662 0.095936
O O5 0.202280 0.098743 0.600830
O O6 0.325834 0.057741 0.817377
O O7 0.000000 0.134255 0.750000
O O8 0.065283 0.209867 0.486904
O O9 0.000000 0.000000 0.500000
#
# Coordination Sequence:
#
# PCOD9421618 Si02
#       5
#     8   4   4   8   8
#     4  11  24  45  69  94 130 176 231 285 333 393
#     4  10  20  36  64  96 138 176 204 264 344 412
#     4  10  24  48  70  92 132 186 236 280 326 392
#     4  12  25  41  66 103 140 175 219 277 348 415
#     4  11  21  39  62  94 131 170 216 268 333 402
#
# _framework density 22.526982
#
# number of rings (size 3 to 8) (size 9 to 14) (size 15 to 20)
#    0.000    1.000    0.000    9.000    0.000    2.000 
#    0.000   13.750    0.000    0.000    0.000    0.000 
#    0.000    0.000    0.000    0.000    0.000    0.000 
#
# Total GULP energy -178814.976012 kJ/mol
# GULP energy per Si atom -5587.968000 kJ/mol
# Density = 2.247571 g / cm^3
# Si number density = 22.526982 Si / 1000 Ang^3
#
#
#
# Elastic Constant Matrix: (Units=GPa)
#
#
# Indices 1 2 3 4 5 6 
#
# 1 107.7234 43.9851 17.6453 0.0000 0.0000 0.0000
# 2 43.9851 99.7494 49.1814 0.0000 0.0000 0.0000
# 3 17.6453 49.1814 135.1260 0.0000 0.0000 0.0000
# 4 0.0000 0.0000 0.0000 27.2740 0.0000 0.0000
# 5 0.0000 0.0000 0.0000 0.0000 19.3599 0.0000
# 6 0.0000 0.0000 0.0000 0.0000 0.0000 23.6864
#
#
#
# Elastic Compliance Matrix: (Units=1/GPa)
#
#
# Indices 1 2 3 4 5 6 
#
# 1 0.011340 -0.005204 0.000413 0.000000 0.000000 0.000000
# 2 -0.005204 0.014606 -0.004637 0.000000 0.000000 0.000000
# 3 0.000413 -0.004637 0.009034 0.000000 0.000000 0.000000
# 4 0.000000 0.000000 0.000000 0.036665 0.000000 0.000000
# 5 0.000000 0.000000 0.000000 0.000000 0.051653 0.000000
# 6 0.000000 0.000000 0.000000 0.000000 0.000000 0.042218
#
#
# Mechanical properties :
#
#
# Convention : Reuss Voigt Hill
#
# Bulk Modulus (GPa) = 62.01406 62.69136 62.35271
# Shear Modulus (GPa) = 26.35087 29.51654 27.93371
#
# Velocity S-wave (km/s) = 3.42387 3.62370 3.52520
# Velocity P-wave (km/s) = 6.57412 6.73781 6.65647
#
# Compressibility (1/GPa) = 0.01612538
#
# Stress axis : x y z
#
# Youngs Moduli (GPa) = 88.18059 68.46471 110.69227
#
# Poissons Ratio (x) = 0.35632 -0.04576
# Poissons Ratio (y) = 0.45893 0.51323
# Poissons Ratio (z) = -0.03645 0.31744
#
# Static dielectric constant tensor:
#      x y z
#    x 1.894860 0.000000 0.000000 
#    y 0.000000 2.162450 0.000000 
#    z 0.000000 0.000000 1.827920 
# 
# From -- ./inp_files/3333.got.cif
#   From: 2010.05.17/outbox.cif.g08.bks.cpg/sg54_2_cif.got.tgz:3333.got - 2010.06.03 13:09:01.
