data_PCOD9421737
_publ_section_title
;
Structure prediction by ZEFSAII (Michael W. Deem and Ramdas Pophale) SiO2 
 PCOD9421737
Probable space group: P C C A
;
_chemical_formula_sum "Si O2"
_cell_formula_units_Z 52
_cell_length_a 5.190723
_cell_length_b 29.212025
_cell_length_c 17.832817
_cell_angle_alpha 90.000000
_cell_angle_beta 90.000000
_cell_angle_gamma 90.000000
_cell_volume 2704.017327
_symmetry_space_group_name_H-M "P C C A"
_symmetry_group_IT_number 54
_symmetry_cell_setting 'orthorhombic'
loop_
_space_group_symop_operation_xyz
x,y,z
1/2-x,-y,z
1/2+x,-y,1/2-z
-x,y,1/2-z
-x,-y,-z
1/2+x,y,-z
1/2-x,y,1/2+z
x,-y,1/2+z
loop_
_atom_site_type_symbol
_atom_site_label
_atom_site_fract_x
_atom_site_fract_y
_atom_site_fract_z
Si Si1 0.250000 0.000000 0.448268
Si Si2 0.999434 0.530304 0.160751
Si Si3 0.476841 0.801409 0.840889
Si Si4 0.970108 0.854151 0.840304
Si Si5 0.411605 0.718826 0.948515
Si Si6 0.084333 0.612500 0.450357
Si Si7 0.563052 0.043717 0.837808
O O1 0.193527 0.039828 0.388619
O O2 0.500000 0.000000 0.500000
O O3 0.750000 0.500000 0.142981
O O4 0.979367 0.576924 0.114733
O O5 0.250000 0.500000 0.142170
O O6 0.000000 0.539323 0.250000
O O7 0.500000 0.798700 0.750000
O O8 0.755818 0.818760 0.866889
O O9 0.415636 0.753235 0.878893
O O10 0.253833 0.837686 0.864599
O O11 0.854630 0.904730 0.856073
O O12 0.000000 0.853054 0.750000
O O13 0.425698 0.665493 0.925154
O O14 0.656188 0.726552 0.002402
O O15 0.366552 0.605549 0.485889
O O16 0.500000 0.040937 0.750000
O O17 0.750000 0.000000 0.853025
#
# Coordination Sequence:
#
# PCOD9421737 Si02
#       7
#     4   8   8   8   8   8   8
#     4  12  26  42  58  86 126 152 180 240 296 330
#     4  10  21  36  54  80 117 154 191 236 286 338
#     4  10  20  38  59  85 113 148 183 235 290 338
#     4   9  21  36  60  89 117 140 190 243 278 329
#     4  10  21  38  59  83 115 147 188 239 285 342
#     4  10  21  36  56  83 111 148 194 240 285 333
#     4  11  23  40  69  92 114 159 209 237 282 356
#
# _framework density 19.230646
#
# number of rings (size 3 to 8) (size 9 to 14) (size 15 to 20)
#    0.000    1.846    1.538    1.846    2.154    3.077 
#    0.000    4.615    0.000   11.077    0.000    0.000 
#    0.000    0.000    0.000    0.000    0.000    0.000 
#
# Total GULP energy -289789.087220 kJ/mol
# GULP energy per Si atom -5572.867062 kJ/mol
# Density = 1.918688 g / cm^3
# Si number density = 19.230646 Si / 1000 Ang^3
#
#
#
# Elastic Constant Matrix: (Units=GPa)
#
#
# Indices 1 2 3 4 5 6 
#
# 1 114.2343 22.1468 21.1857 0.0000 0.0000 0.0000
# 2 22.1468 102.0463 37.0328 0.0000 0.0000 0.0000
# 3 21.1857 37.0328 52.3097 0.0000 0.0000 0.0000
# 4 0.0000 0.0000 0.0000 81.2974 0.0000 0.0000
# 5 0.0000 0.0000 0.0000 0.0000 2.9885 0.0000
# 6 0.0000 0.0000 0.0000 0.0000 0.0000 17.1775
#
#
#
# Elastic Compliance Matrix: (Units=1/GPa)
#
#
# Indices 1 2 3 4 5 6 
#
# 1 0.009526 -0.000898 -0.003222 0.000000 0.000000 0.000000
# 2 -0.000898 0.013272 -0.009032 0.000000 0.000000 0.000000
# 3 -0.003222 -0.009032 0.026816 0.000000 0.000000 0.000000
# 4 0.000000 0.000000 0.000000 0.012301 0.000000 0.000000
# 5 0.000000 0.000000 0.000000 0.000000 0.334611 0.000000
# 6 0.000000 0.000000 0.000000 0.000000 0.000000 0.058216
#
#
# Mechanical properties :
#
#
# Convention : Reuss Voigt Hill
#
# Bulk Modulus (GPa) = 42.90174 47.70235 45.30204
# Shear Modulus (GPa) = 10.22877 32.84100 21.53489
#
# Velocity S-wave (km/s) = 2.30880 4.13697 3.35000
# Velocity P-wave (km/s) = 5.42816 6.90497 6.21061
#
# Compressibility (1/GPa) = 0.02330908
#
# Stress axis : x y z
#
# Youngs Moduli (GPa) = 104.98013 75.34510 37.29053
#
# Poissons Ratio (x) = 0.06766 0.12016
# Poissons Ratio (y) = 0.09427 0.33683
# Poissons Ratio (z) = 0.33827 0.68055
#
# Static dielectric constant tensor:
#      x y z
#    x 1.774870 0.000000 0.000000 
#    y 0.000000 1.703290 0.000000 
#    z 0.000000 0.000000 1.666640 
# 
# From -- ./inp_files/15966.got.cif
#   From: 2010.05.17/outbox.cif.g08.bks.cpg/sg54_8_cif.got.tgz:15966.got - 2010.06.03 13:09:01.
