data_PCOD9421157
_publ_section_title
;
Structure prediction by ZEFSAII (Michael W. Deem and Ramdas Pophale) SiO2 
 PCOD9421157
Probable space group: P C C A
;
_chemical_formula_sum "Si O2"
_cell_formula_units_Z 48
_cell_length_a 12.875644
_cell_length_b 8.822583
_cell_length_c 21.502600
_cell_angle_alpha 90.000000
_cell_angle_beta 90.000000
_cell_angle_gamma 90.000000
_cell_volume 2442.618765
_symmetry_space_group_name_H-M "P C C A"
_symmetry_group_IT_number 54
_symmetry_cell_setting 'orthorhombic'
loop_
_space_group_symop_operation_xyz
x,y,z
1/2-x,-y,z
1/2+x,-y,1/2-z
-x,y,1/2-z
-x,-y,-z
1/2+x,y,-z
1/2-x,y,1/2+z
x,-y,1/2+z
loop_
_atom_site_type_symbol
_atom_site_label
_atom_site_fract_x
_atom_site_fract_y
_atom_site_fract_z
Si Si1 0.950044 0.776741 0.186265
Si Si2 0.140505 0.909040 0.833255
Si Si3 0.931229 0.184297 0.937779
Si Si4 0.233697 0.319275 0.114047
Si Si5 0.750594 0.320734 0.244585
Si Si6 0.975797 0.827119 0.931374
O O1 0.835889 0.709903 0.192149
O O2 0.000000 0.719293 0.250000
O O3 0.010815 0.748381 0.123026
O O4 0.934448 0.957430 0.190170
O O5 0.155640 0.778446 0.782312
O O6 0.082558 0.837688 0.892200
O O7 0.250000 0.000000 0.845756
O O8 0.813368 0.240564 0.933435
O O9 0.935172 0.001168 0.934933
O O10 0.993053 0.227427 0.999899
O O11 0.250000 0.500000 0.110475
O O12 0.264831 0.265866 0.184253
O O13 0.115488 0.271576 0.099452
O O14 0.750000 0.500000 0.249858
#
# Coordination Sequence:
#
# PCOD9421157 Si02
#       6
#     8   8   8   8   8   8
#     4  10  19  36  61  86 111 153 194 246 295 345
#     4   9  21  37  61  88 119 149 202 249 298 355
#     4  10  22  40  62  87 118 154 202 248 294 355
#     4  11  24  39  58  88 124 159 199 243 296 364
#     4  10  22  38  57  88 122 156 196 247 300 353
#     4  10  23  40  63  90 117 160 198 247 302 350
#
# _framework density 19.651039999999998
#
# number of rings (size 3 to 8) (size 9 to 14) (size 15 to 20)
#    0.000    2.000    1.667    0.500    4.667    8.667 
#    0.000    1.667    0.000    0.000    0.000    0.000 
#    0.000    0.000    0.000    0.000    0.000    0.000 
#
# Total GULP energy -267320.609877 kJ/mol
# GULP energy per Si atom -5569.179372 kJ/mol
# Density = 1.960631 g / cm^3
# Si number density = 19.651040 Si / 1000 Ang^3
#
#
#
# Elastic Constant Matrix: (Units=GPa)
#
#
# Indices 1 2 3 4 5 6 
#
# 1 71.1998 9.9504 44.4794 0.0000 0.0000 0.0000
# 2 9.9504 37.0524 20.4236 0.0000 0.0000 0.0000
# 3 44.4794 20.4236 105.1714 0.0000 0.0000 0.0000
# 4 0.0000 0.0000 0.0000 16.1472 0.0000 0.0000
# 5 0.0000 0.0000 0.0000 0.0000 29.7065 0.0000
# 6 0.0000 0.0000 0.0000 0.0000 0.0000 15.2843
#
#
#
# Elastic Compliance Matrix: (Units=1/GPa)
#
#
# Indices 1 2 3 4 5 6 
#
# 1 0.019107 -0.000758 -0.007934 0.000000 0.000000 0.000000
# 2 -0.000758 0.030254 -0.005555 0.000000 0.000000 0.000000
# 3 -0.007934 -0.005555 0.013942 0.000000 0.000000 0.000000
# 4 0.000000 0.000000 0.000000 0.061930 0.000000 0.000000
# 5 0.000000 0.000000 0.000000 0.000000 0.033663 0.000000
# 6 0.000000 0.000000 0.000000 0.000000 0.000000 0.065427
#
#
# Mechanical properties :
#
#
# Convention : Reuss Voigt Hill
#
# Bulk Modulus (GPa) = 28.72657 40.34781 34.53719
# Shear Modulus (GPa) = 18.90934 21.46560 20.18747
#
# Velocity S-wave (km/s) = 3.10539 3.30864 3.20863
# Velocity P-wave (km/s) = 5.24481 5.93067 5.59825
#
# Compressibility (1/GPa) = 0.03481097
#
# Stress axis : x y z
#
# Youngs Moduli (GPa) = 52.33640 33.05333 71.72444
#
# Poissons Ratio (x) = 0.02506 0.56903
# Poissons Ratio (y) = 0.03968 0.39839
# Poissons Ratio (z) = 0.41522 0.18360
#
# Static dielectric constant tensor:
#      x y z
#    x 1.814490 0.000000 0.000000 
#    y 0.000000 1.707950 0.000000 
#    z 0.000000 0.000000 1.706430 
# 
# From -- ./inp_files/24037.got.cif
#   From: 2010.05.17/outbox.cif.g08.bks.cpg/sg54_13_cif.got.tgz:24037.got - 2010.06.03 13:09:01.
