data_PCOD9421210
_publ_section_title
;
Structure prediction by ZEFSAII (Michael W. Deem and Ramdas Pophale) SiO2 
 PCOD9421210
Probable space group: P C C A
;
_chemical_formula_sum "Si O2"
_cell_formula_units_Z 52
_cell_length_a 9.595569
_cell_length_b 14.663510
_cell_length_c 18.431425
_cell_angle_alpha 90.000000
_cell_angle_beta 90.000000
_cell_angle_gamma 90.000000
_cell_volume 2593.388530
_symmetry_space_group_name_H-M "P C C A"
_symmetry_group_IT_number 54
_symmetry_cell_setting 'orthorhombic'
loop_
_space_group_symop_operation_xyz
x,y,z
1/2-x,-y,z
1/2+x,-y,1/2-z
-x,y,1/2-z
-x,-y,-z
1/2+x,y,-z
1/2-x,y,1/2+z
x,-y,1/2+z
loop_
_atom_site_type_symbol
_atom_site_label
_atom_site_fract_x
_atom_site_fract_y
_atom_site_fract_z
Si Si1 0.401866 0.766433 0.647471
Si Si2 0.742107 0.892129 0.069952
Si Si3 0.108198 0.664985 0.622301
Si Si4 0.750000 0.500000 0.307456
Si Si5 0.226476 0.107960 0.762951
Si Si6 0.519929 0.202748 0.989959
Si Si7 0.500000 0.381229 0.250000
Si Si8 0.500000 0.771386 0.250000
O O1 0.251680 0.719176 0.636659
O O2 0.378012 0.849296 0.703767
O O3 0.451297 0.792815 0.568484
O O4 0.500749 0.688788 0.682350
O O5 0.801441 0.874636 0.151294
O O6 0.834817 0.846558 0.007285
O O7 0.750000 0.000000 0.059738
O O8 0.585009 0.853913 0.061558
O O9 0.151472 0.562689 0.641712
O O10 0.050363 0.698686 0.545354
O O11 0.000997 0.704311 0.681369
O O12 0.640632 0.440604 0.259875
O O13 0.368457 0.162787 0.749151
O O14 0.250000 0.000000 0.753300
#
# Coordination Sequence:
#
# PCOD9421210 Si02
#       8
#     8   8   8   4   8   8   4   4
#     4  10  22  40  64  91 127 167 207 266 317 373
#     4  11  24  39  61  91 129 173 218 260 306 376
#     4  10  21  40  63  90 122 165 208 264 331 388
#     4  10  22  42  68  92 122 154 218 280 322 398
#     4  10  22  38  61  94 126 172 226 262 302 372
#     4  12  22  42  61  92 133 171 208 258 326 383
#     4  10  21  43  66  98 122 162 216 269 327 386
#     4  10  19  37  62  84 126 168 212 263 325 380
#
# _framework density 20.050988
#
# number of rings (size 3 to 8) (size 9 to 14) (size 15 to 20)
#    0.000    1.538    3.077    1.846    0.000    3.692 
#    2.769    3.846    0.000    0.000    0.000    0.000 
#    0.000    0.000    0.000    0.000    0.000    0.000 
#
# Total GULP energy -290065.418057 kJ/mol
# GULP energy per Si atom -5578.181116 kJ/mol
# Density = 2.000535 g / cm^3
# Si number density = 20.050988 Si / 1000 Ang^3
#
#
#
# Elastic Constant Matrix: (Units=GPa)
#
#
# Indices 1 2 3 4 5 6 
#
# 1 66.6362 36.4732 32.5817 0.0000 0.0000 0.0000
# 2 36.4732 114.5943 53.2764 0.0000 0.0000 0.0000
# 3 32.5817 53.2764 121.0663 0.0000 0.0000 0.0000
# 4 0.0000 0.0000 0.0000 -5.3570 0.0000 0.0000
# 5 0.0000 0.0000 0.0000 0.0000 35.2051 0.0000
# 6 0.0000 0.0000 0.0000 0.0000 0.0000 30.0901
#
#
#
# Elastic Compliance Matrix: (Units=1/GPa)
#
#
# Indices 1 2 3 4 5 6 
#
# 1 0.019050 -0.004626 -0.003091 0.000000 0.000000 0.000000
# 2 -0.004626 0.012094 -0.004077 0.000000 0.000000 0.000000
# 3 -0.003091 -0.004077 0.010886 0.000000 0.000000 0.000000
# 4 0.000000 0.000000 0.000000 -0.186671 0.000000 0.000000
# 5 0.000000 0.000000 0.000000 0.000000 0.028405 0.000000
# 6 0.000000 0.000000 0.000000 0.000000 0.000000 0.033234
#
#
# Mechanical properties :
#
#
# Convention : Reuss Voigt Hill
#
# Bulk Modulus (GPa) = 54.22488 60.77328 57.49908
# Shear Modulus (GPa) = -93.86983 23.98533 -34.94225
#
# Velocity S-wave (km/s) = -6.84961 3.46239 -4.17906
# Velocity P-wave (km/s) = 5.95433 6.80877 2.33509
#
# Compressibility (1/GPa) = 0.01844172
#
# Stress axis : x y z
#
# Youngs Moduli (GPa) = 52.49224 82.68233 91.86075
#
# Poissons Ratio (x) = 0.38252 0.28395
# Poissons Ratio (y) = 0.24285 0.37454
# Poissons Ratio (z) = 0.16226 0.33712
#
# Static dielectric constant tensor:
#      x y z
#    x 1.774580 0.000000 0.000000 
#    y 0.000000 1.691990 0.000000 
#    z 0.000000 0.000000 1.711070 
# 
# From -- ./inp_files/17412.got.cif
#   From: 2010.05.17/outbox.cif.g08.bks.cpg/sg54_9_cif.got.tgz:17412.got - 2010.06.03 13:09:01.
