data_PCOD9421501
_publ_section_title
;
Structure prediction by ZEFSAII (Michael W. Deem and Ramdas Pophale) SiO2 
 PCOD9421501
Probable space group: P C C A
;
_chemical_formula_sum "Si O2"
_cell_formula_units_Z 56
_cell_length_a 15.638184
_cell_length_b 12.208943
_cell_length_c 14.383827
_cell_angle_alpha 90.000000
_cell_angle_beta 90.000000
_cell_angle_gamma 90.000000
_cell_volume 2746.242197
_symmetry_space_group_name_H-M "P C C A"
_symmetry_group_IT_number 54
_symmetry_cell_setting 'orthorhombic'
loop_
_space_group_symop_operation_xyz
x,y,z
1/2-x,-y,z
1/2+x,-y,1/2-z
-x,y,1/2-z
-x,-y,-z
1/2+x,y,-z
1/2-x,y,1/2+z
x,-y,1/2+z
loop_
_atom_site_type_symbol
_atom_site_label
_atom_site_fract_x
_atom_site_fract_y
_atom_site_fract_z
Si Si1 0.304198 0.180767 0.775221
Si Si2 0.622120 0.182082 0.132114
Si Si3 0.940950 0.422938 0.625995
Si Si4 0.397455 0.811674 0.079037
Si Si5 0.456240 0.049027 0.848745
Si Si6 0.598717 0.562841 0.426469
Si Si7 0.671378 0.568779 0.238339
O O1 0.204751 0.166264 0.801687
O O2 0.334028 0.165008 0.666733
O O3 0.363781 0.106302 0.840620
O O4 0.325574 0.307496 0.794180
O O5 0.574578 0.297192 0.152677
O O6 0.559363 0.079417 0.142317
O O7 0.646838 0.184375 0.022084
O O8 0.881893 0.443544 0.534985
O O9 0.911540 0.505326 0.704875
O O10 0.034195 0.463166 0.594451
O O11 0.476735 0.895904 0.081198
O O12 0.436553 0.687976 0.087671
O O13 0.500000 0.073215 0.750000
O O14 0.671837 0.564196 0.349996
O O15 0.750000 0.500000 0.201299
#
# Coordination Sequence:
#
# PCOD9421501 Si02
#       7
#     8   8   8   8   8   8   8
#     4  10  21  40  59  86 118 155 198 243 294 349
#     4  11  21  38  60  89 122 150 197 252 294 344
#     4  10  20  36  56  85 117 148 191 241 289 344
#     4   9  20  40  64  84 115 158 204 235 291 361
#     4  10  21  38  61  85 115 159 197 242 292 357
#     4   9  20  36  58  82 114 152 190 236 287 349
#     4  11  20  35  56  83 113 154 188 230 289 349
#
# _framework density 20.391501000000002
#
# number of rings (size 3 to 8) (size 9 to 14) (size 15 to 20)
#    0.000    2.000    1.429    2.143    0.000    4.000 
#    2.571    7.143    0.000    0.000    0.000    0.000 
#    0.000    0.000    0.000    0.000    0.000    0.000 
#
# Total GULP energy -311965.948075 kJ/mol
# GULP energy per Si atom -5570.820501 kJ/mol
# Density = 2.034509 g / cm^3
# Si number density = 20.391501 Si / 1000 Ang^3
#
#
#
# Elastic Constant Matrix: (Units=GPa)
#
#
# Indices 1 2 3 4 5 6 
#
# 1 54.9846 26.4114 -0.9588 0.0000 0.0000 0.0000
# 2 26.4114 81.8102 -9.3907 0.0000 0.0000 0.0000
# 3 -0.9588 -9.3907 45.2526 0.0000 0.0000 0.0000
# 4 0.0000 0.0000 0.0000 8.9286 0.0000 0.0000
# 5 0.0000 0.0000 0.0000 0.0000 20.0301 0.0000
# 6 0.0000 0.0000 0.0000 0.0000 0.0000 28.2851
#
#
#
# Elastic Compliance Matrix: (Units=1/GPa)
#
#
# Indices 1 2 3 4 5 6 
#
# 1 0.021570 -0.007080 -0.001012 0.000000 0.000000 0.000000
# 2 -0.007080 0.014845 0.002931 0.000000 0.000000 0.000000
# 3 -0.001012 0.002931 0.022685 0.000000 0.000000 0.000000
# 4 0.000000 0.000000 0.000000 0.112000 0.000000 0.000000
# 5 0.000000 0.000000 0.000000 0.000000 0.049925 0.000000
# 6 0.000000 0.000000 0.000000 0.000000 0.000000 0.035354
#
#
# Mechanical properties :
#
#
# Convention : Reuss Voigt Hill
#
# Bulk Modulus (GPa) = 20.50112 23.79679 22.14896
# Shear Modulus (GPa) = 17.67024 22.51445 20.09234
#
# Velocity S-wave (km/s) = 2.94691 3.32642 3.14240
# Velocity P-wave (km/s) = 4.65346 5.14283 4.90425
#
# Compressibility (1/GPa) = 0.04877782
#
# Stress axis : x y z
#
# Youngs Moduli (GPa) = 46.36072 67.36079 44.08215
#
# Poissons Ratio (x) = 0.47690 0.04462
# Poissons Ratio (y) = 0.32822 -0.12919
# Poissons Ratio (z) = 0.04692 -0.19741
#
# Static dielectric constant tensor:
#      x y z
#    x 1.746570 0.000000 0.000000 
#    y 0.000000 1.725540 0.000000 
#    z 0.000000 0.000000 1.786700 
# 
# From -- ./inp_files/13484.got.cif
#   From: 2010.05.17/outbox.cif.g08.bks.cpg/sg54_7_cif.got.tgz:13484.got - 2010.06.03 13:09:01.
