data_PCOD9421172
_publ_section_title
;
Structure prediction by ZEFSAII (Michael W. Deem and Ramdas Pophale) SiO2 
 PCOD9421172
Probable space group: P C C A
;
_chemical_formula_sum "Si O2"
_cell_formula_units_Z 40
_cell_length_a 21.670116
_cell_length_b 8.956688
_cell_length_c 10.736822
_cell_angle_alpha 90.000000
_cell_angle_beta 90.000000
_cell_angle_gamma 90.000000
_cell_volume 2083.936280
_symmetry_space_group_name_H-M "P C C A"
_symmetry_group_IT_number 54
_symmetry_cell_setting 'orthorhombic'
loop_
_space_group_symop_operation_xyz
x,y,z
1/2-x,-y,z
1/2+x,-y,1/2-z
-x,y,1/2-z
-x,-y,-z
1/2+x,y,-z
1/2-x,y,1/2+z
x,-y,1/2+z
loop_
_atom_site_type_symbol
_atom_site_label
_atom_site_fract_x
_atom_site_fract_y
_atom_site_fract_z
Si Si1 0.250000 0.500000 0.372315
Si Si2 0.538588 0.176415 0.126385
Si Si3 0.534922 0.185124 0.623374
Si Si4 0.750000 0.000000 0.129385
Si Si5 0.163413 0.749688 0.979333
Si Si6 0.335458 0.252159 0.263674
O O1 0.292385 0.609964 0.453273
O O2 0.294616 0.397057 0.290196
O O3 0.500000 0.216925 0.250000
O O4 0.606716 0.241786 0.143780
O O5 0.542856 0.995378 0.124647
O O6 0.505444 0.222741 0.998721
O O7 0.500000 0.228305 0.750000
O O8 0.603141 0.251801 0.607643
O O9 0.708403 0.110538 0.210976
O O10 0.795753 0.103697 0.049540
O O11 0.142296 0.752932 0.121949
#
# Coordination Sequence:
#
# PCOD9421172 Si02
#       6
#     4   8   8   4   8   8
#     4  10  26  42  58  88 126 172 210 248 308 362
#     4  10  19  36  63  92 121 161 199 256 318 366
#     4  10  21  36  61  96 126 153 202 262 317 368
#     4  10  22  34  62  98 116 160 208 256 318 362
#     4  11  21  42  62  90 126 162 207 260 304 372
#     4  11  21  41  63  89 125 165 208 258 306 373
#
# _framework density 19.194445999999999
#
# number of rings (size 3 to 8) (size 9 to 14) (size 15 to 20)
#    0.000    1.600    4.000    1.200    0.000    0.000 
#   18.000    2.000    0.000    0.000    0.000    0.000 
#    0.000    0.000    0.000    0.000    0.000    0.000 
#
# Total GULP energy -223406.524574 kJ/mol
# GULP energy per Si atom -5585.163114 kJ/mol
# Density = 1.915076 g / cm^3
# Si number density = 19.194446 Si / 1000 Ang^3
#
#
#
# Elastic Constant Matrix: (Units=GPa)
#
#
# Indices 1 2 3 4 5 6 
#
# 1 150.1856 40.4149 57.6368 0.0000 0.0000 0.0000
# 2 40.4149 73.0710 25.8407 0.0000 0.0000 0.0000
# 3 57.6368 25.8407 118.6651 0.0000 0.0000 0.0000
# 4 0.0000 0.0000 0.0000 2.3143 0.0000 0.0000
# 5 0.0000 0.0000 0.0000 0.0000 36.0964 0.0000
# 6 0.0000 0.0000 0.0000 0.0000 0.0000 13.1451
#
#
#
# Elastic Compliance Matrix: (Units=1/GPa)
#
#
# Indices 1 2 3 4 5 6 
#
# 1 0.009035 -0.003733 -0.003576 0.000000 0.000000 0.000000
# 2 -0.003733 0.016369 -0.001752 0.000000 0.000000 0.000000
# 3 -0.003576 -0.001752 0.010545 0.000000 0.000000 0.000000
# 4 0.000000 0.000000 0.000000 0.432091 0.000000 0.000000
# 5 0.000000 0.000000 0.000000 0.000000 0.027704 0.000000
# 6 0.000000 0.000000 0.000000 0.000000 0.000000 0.076074
#
#
# Mechanical properties :
#
#
# Convention : Reuss Voigt Hill
#
# Bulk Modulus (GPa) = 56.08599 65.52296 60.80448
# Shear Modulus (GPa) = 8.39093 24.84645 16.61869
#
# Velocity S-wave (km/s) = 2.09309 3.60176 2.94565
# Velocity P-wave (km/s) = 5.92661 7.17687 6.58150
#
# Compressibility (1/GPa) = 0.01782976
#
# Stress axis : x y z
#
# Youngs Moduli (GPa) = 110.67914 61.08993 94.82985
#
# Poissons Ratio (x) = 0.22804 0.33907
# Poissons Ratio (y) = 0.41314 0.16610
# Poissons Ratio (z) = 0.39574 0.10700
#
# Static dielectric constant tensor:
#      x y z
#    x 1.653070 0.000000 0.000000 
#    y 0.000000 1.648410 0.000000 
#    z 0.000000 0.000000 1.652050 
# 
# From -- ./inp_files/5042.got.cif
#   From: 2010.05.17/outbox.cif.g08.bks.cpg/sg54_3_cif.got.tgz:5042.got - 2010.06.03 13:09:01.
