data_PCOD9421259
_publ_section_title
;
Structure prediction by ZEFSAII (Michael W. Deem and Ramdas Pophale) SiO2 
 PCOD9421259
Probable space group: P C C A
;
_chemical_formula_sum "Si O2"
_cell_formula_units_Z 64
_cell_length_a 33.752096
_cell_length_b 5.704657
_cell_length_c 17.643576
_cell_angle_alpha 90.000000
_cell_angle_beta 90.000000
_cell_angle_gamma 90.000000
_cell_volume 3397.167004
_symmetry_space_group_name_H-M "P C C A"
_symmetry_group_IT_number 54
_symmetry_cell_setting 'orthorhombic'
loop_
_space_group_symop_operation_xyz
x,y,z
1/2-x,-y,z
1/2+x,-y,1/2-z
-x,y,1/2-z
-x,-y,-z
1/2+x,y,-z
1/2-x,y,1/2+z
x,-y,1/2+z
loop_
_atom_site_type_symbol
_atom_site_label
_atom_site_fract_x
_atom_site_fract_y
_atom_site_fract_z
Si Si1 0.352121 0.588827 0.752931
Si Si2 0.796502 0.446321 0.886395
Si Si3 0.589774 0.784015 0.200699
Si Si4 0.667412 0.054004 0.941608
Si Si5 0.052627 0.467572 0.914212
Si Si6 0.907866 0.924407 0.341808
Si Si7 0.021540 0.200807 0.547386
Si Si8 0.372609 0.840092 0.903168
O O1 0.314581 0.575888 0.698417
O O2 0.368819 0.337775 0.776625
O O3 0.387118 0.708906 0.702850
O O4 0.348757 0.732459 0.831463
O O5 0.750000 0.500000 0.885731
O O6 0.814404 0.688113 0.922469
O O7 0.808161 0.191122 0.924719
O O8 0.560337 0.600070 0.164140
O O9 0.575676 0.910294 0.275787
O O10 0.600126 0.960793 0.133555
O O11 0.628213 0.034568 0.889519
O O12 0.654077 0.065467 0.029152
O O13 0.094863 0.346783 0.932322
O O14 0.014607 0.305174 0.904567
O O15 0.040260 0.625485 0.985298
O O16 0.942766 0.869566 0.398862
O O17 0.000000 0.000000 0.500000
#
# Coordination Sequence:
#
# PCOD9421259 Si02
#       8
#     8   8   8   8   8   8   8   8
#     4   9  21  39  64  94 120 169 216 266 321 400
#     4  11  24  44  69 102 138 173 212 267 334 399
#     4  10  19  39  60  87 118 160 220 268 325 387
#     4  11  23  40  71 100 131 176 219 269 324 397
#     4  10  22  37  58  85 124 164 217 274 335 385
#     4  10  21  37  61  89 122 164 227 264 325 391
#     4  11  23  39  56  86 124 170 214 274 341 385
#     4  10  22  39  65  92 125 170 220 276 320 390
#
# _framework density 18.839227000000001
#
# number of rings (size 3 to 8) (size 9 to 14) (size 15 to 20)
#    0.000    1.750    1.250    2.625    7.000    2.000 
#    0.000   15.625    2.750    0.000    0.000    0.000 
#    0.000    0.000    0.000    0.000    0.000    0.000 
#
# Total GULP energy -356775.034266 kJ/mol
# GULP energy per Si atom -5574.609910 kJ/mol
# Density = 1.879635 g / cm^3
# Si number density = 18.839227 Si / 1000 Ang^3
#
#
#
# Elastic Constant Matrix: (Units=GPa)
#
#
# Indices 1 2 3 4 5 6 
#
# 1 119.4066 52.9178 70.1012 0.0000 0.0000 0.0000
# 2 52.9178 92.8573 44.0754 0.0000 0.0000 0.0000
# 3 70.1012 44.0754 102.0392 0.0000 0.0000 0.0000
# 4 0.0000 0.0000 0.0000 24.0241 0.0000 0.0000
# 5 0.0000 0.0000 0.0000 0.0000 24.4864 0.0000
# 6 0.0000 0.0000 0.0000 0.0000 0.0000 -16.5103
#
#
#
# Elastic Compliance Matrix: (Units=1/GPa)
#
#
# Indices 1 2 3 4 5 6 
#
# 1 0.015551 -0.004769 -0.008624 0.000000 0.000000 0.000000
# 2 -0.004769 0.015009 -0.003207 0.000000 0.000000 0.000000
# 3 -0.008624 -0.003207 0.017110 0.000000 0.000000 0.000000
# 4 0.000000 0.000000 0.000000 0.041625 0.000000 0.000000
# 5 0.000000 0.000000 0.000000 0.000000 0.040839 0.000000
# 6 0.000000 0.000000 0.000000 0.000000 0.000000 -0.060568
#
#
# Mechanical properties :
#
#
# Convention : Reuss Voigt Hill
#
# Bulk Modulus (GPa) = 69.10360 72.05465 70.57913
# Shear Modulus (GPa) = 46.47358 16.21396 31.34377
#
# Velocity S-wave (km/s) = 4.97213 2.93686 4.08333
# Velocity P-wave (km/s) = 8.35004 7.05906 7.73154
#
# Compressibility (1/GPa) = 0.01447103
#
# Stress axis : x y z
#
# Youngs Moduli (GPa) = 64.30455 66.62626 58.44603
#
# Poissons Ratio (x) = 0.31774 0.50402
# Poissons Ratio (y) = 0.30667 0.18743
# Poissons Ratio (z) = 0.55454 0.21366
#
# Static dielectric constant tensor:
#      x y z
#    x 1.616560 0.000000 0.000000 
#    y 0.000000 1.747270 0.000000 
#    z 0.000000 0.000000 1.614030 
# 
# From -- ./inp_files/19358.got.cif
#   From: 2010.05.17/outbox.cif.g08.bks.cpg/sg54_10_cif.got.tgz:19358.got - 2010.06.03 13:09:01.
