data_PCOD9421833
_publ_section_title
;
Structure prediction by ZEFSAII (Michael W. Deem and Ramdas Pophale) SiO2 
 PCOD9421833
Probable space group: P C C A
;
_chemical_formula_sum "Si O2"
_cell_formula_units_Z 40
_cell_length_a 16.437403
_cell_length_b 8.419232
_cell_length_c 13.732502
_cell_angle_alpha 90.000000
_cell_angle_beta 90.000000
_cell_angle_gamma 90.000000
_cell_volume 1900.445200
_symmetry_space_group_name_H-M "P C C A"
_symmetry_group_IT_number 54
_symmetry_cell_setting 'orthorhombic'
loop_
_space_group_symop_operation_xyz
x,y,z
1/2-x,-y,z
1/2+x,-y,1/2-z
-x,y,1/2-z
-x,-y,-z
1/2+x,y,-z
1/2-x,y,1/2+z
x,-y,1/2+z
loop_
_atom_site_type_symbol
_atom_site_label
_atom_site_fract_x
_atom_site_fract_y
_atom_site_fract_z
Si Si1 0.350704 0.259280 0.052777
Si Si2 0.125306 0.597883 0.843346
Si Si3 0.000000 0.833770 0.750000
Si Si4 0.032376 0.346922 0.941890
Si Si5 0.079465 0.941874 0.560340
Si Si6 0.250000 0.500000 0.684340
O O1 0.445259 0.276497 0.089098
O O2 0.293844 0.363869 0.121188
O O3 0.347831 0.067451 0.046300
O O4 0.341024 0.337120 0.945792
O O5 0.054923 0.720574 0.816063
O O6 0.087926 0.422483 0.858967
O O7 0.187153 0.587805 0.755423
O O8 0.055381 0.928281 0.673599
O O9 0.086140 0.232993 0.011387
O O10 0.000000 0.500000 0.000000
O O11 0.000000 0.000000 0.500000
#
# Coordination Sequence:
#
# PCOD9421833 Si02
#       6
#     8   8   4   8   8   4
#     4  10  22  43  64  96 139 176 227 298 348 407
#     4  11  23  40  66  97 128 179 234 278 340 434
#     4  12  20  38  76  98 128 168 244 288 350 408
#     4   9  17  38  69  95 121 164 227 294 334 384
#     4  10  20  38  68 101 130 166 220 308 355 388
#     4  12  26  40  66  92 144 192 226 260 356 448
#
# _framework density 21.047699000000001
#
# number of rings (size 3 to 8) (size 9 to 14) (size 15 to 20)
#    0.000    1.600    6.000    1.800    2.800    3.200 
#    0.000    1.000    0.000    0.000    0.000    0.000 
#    0.000    0.000    0.000    0.000    0.000    0.000 
#
# Total GULP energy -223019.199917 kJ/mol
# GULP energy per Si atom -5575.479998 kJ/mol
# Density = 2.099979 g / cm^3
# Si number density = 21.047699 Si / 1000 Ang^3
#
#
#
# Elastic Constant Matrix: (Units=GPa)
#
#
# Indices 1 2 3 4 5 6 
#
# 1 65.5580 41.5121 45.6262 0.0000 0.0000 0.0000
# 2 41.5121 123.8240 43.7849 0.0000 0.0000 0.0000
# 3 45.6262 43.7849 128.3651 0.0000 0.0000 0.0000
# 4 0.0000 0.0000 0.0000 42.1408 0.0000 0.0000
# 5 0.0000 0.0000 0.0000 0.0000 39.3677 0.0000
# 6 0.0000 0.0000 0.0000 0.0000 0.0000 26.8163
#
#
#
# Elastic Compliance Matrix: (Units=1/GPa)
#
#
# Indices 1 2 3 4 5 6 
#
# 1 0.023171 -0.005522 -0.006353 0.000000 0.000000 0.000000
# 2 -0.005522 0.010500 -0.001619 0.000000 0.000000 0.000000
# 3 -0.006353 -0.001619 0.010600 0.000000 0.000000 0.000000
# 4 0.000000 0.000000 0.000000 0.023730 0.000000 0.000000
# 5 0.000000 0.000000 0.000000 0.000000 0.025402 0.000000
# 6 0.000000 0.000000 0.000000 0.000000 0.000000 0.037291
#
#
# Mechanical properties :
#
#
# Convention : Reuss Voigt Hill
#
# Bulk Modulus (GPa) = 57.85345 64.39929 61.12637
# Shear Modulus (GPa) = 30.59198 34.11988 32.35593
#
# Velocity S-wave (km/s) = 3.81656 4.03062 3.92505
# Velocity P-wave (km/s) = 6.85332 7.23357 7.04601
#
# Compressibility (1/GPa) = 0.01728505
#
# Stress axis : x y z
#
# Youngs Moduli (GPa) = 43.15668 95.24193 94.33648
#
# Poissons Ratio (x) = 0.52592 0.59928
# Poissons Ratio (y) = 0.23831 0.15270
# Poissons Ratio (z) = 0.27416 0.15416
#
# Static dielectric constant tensor:
#      x y z
#    x 1.849680 0.000000 0.000000 
#    y 0.000000 2.020190 0.000000 
#    z 0.000000 0.000000 1.771730 
# 
# From -- ./inp_files/8816.got.cif
#   From: 2010.05.17/outbox.cif.g08.bks.cpg/sg54_5_cif.got.tgz:8816.got - 2010.06.03 13:09:01.
