data_PCOD9421027
_publ_section_title
;
Structure prediction by ZEFSAII (Michael W. Deem and Ramdas Pophale) SiO2 
 PCOD9421027
Probable space group: P C C A
;
_chemical_formula_sum "Si O2"
_cell_formula_units_Z 52
_cell_length_a 5.005940
_cell_length_b 20.203879
_cell_length_c 25.221582
_cell_angle_alpha 90.000000
_cell_angle_beta 90.000000
_cell_angle_gamma 90.000000
_cell_volume 2550.895823
_symmetry_space_group_name_H-M "P C C A"
_symmetry_group_IT_number 54
_symmetry_cell_setting 'orthorhombic'
loop_
_space_group_symop_operation_xyz
x,y,z
1/2-x,-y,z
1/2+x,-y,1/2-z
-x,y,1/2-z
-x,-y,-z
1/2+x,y,-z
1/2-x,y,1/2+z
x,-y,1/2+z
loop_
_atom_site_type_symbol
_atom_site_label
_atom_site_fract_x
_atom_site_fract_y
_atom_site_fract_z
Si Si1 0.750000 0.000000 0.372696
Si Si2 0.230798 0.354783 0.462091
Si Si3 0.250000 0.500000 0.461016
Si Si4 0.750000 0.000000 0.558798
Si Si5 0.502314 0.248412 0.619880
Si Si6 0.490577 0.756329 0.690186
Si Si7 0.739180 0.899397 0.784012
Si Si8 0.605123 0.146437 0.531542
O O1 0.499966 0.024293 0.406576
O O2 0.668748 0.941513 0.333855
O O3 0.522006 0.348722 0.488720
O O4 0.230620 0.427910 0.434797
O O5 0.128558 0.301351 0.420524
O O6 0.500000 0.500000 0.500000
O O7 0.625803 0.066114 0.532492
O O8 0.220553 0.269555 0.646076
O O9 0.505339 0.180162 0.585606
O O10 0.713415 0.242343 0.667247
O O11 0.500000 0.726943 0.750000
O O12 0.389757 0.831386 0.697172
O O13 0.500000 0.933932 0.750000
O O14 0.000000 0.886206 0.750000
O O15 0.399548 0.168211 0.485852
#
# Coordination Sequence:
#
# PCOD9421027 Si02
#       8
#     4   8   4   4   8   8   8   8
#     4  12  22  36  54  78  98 128 178 223 274 345
#     4  10  19  34  55  87 122 153 184 224 271 329
#     4   8  16  30  52  80 120 156 180 214 268 322
#     4  12  24  38  54  72 104 144 178 219 268 327
#     4  12  22  37  59  84 110 147 187 230 278 326
#     4  11  23  39  56  79 110 144 183 231 281 332
#     4  11  21  36  54  74 100 131 170 230 291 336
#     4  12  24  40  57  79 108 144 186 230 273 327
#
# _framework density 20.384996000000001
#
# number of rings (size 3 to 8) (size 9 to 14) (size 15 to 20)
#    0.000    0.923    0.000    9.692    0.000    0.000 
#    0.000    0.000    0.000    0.000    0.000    2.154 
#    0.000    1.231    0.000    0.000    0.000    0.000 
#
# Total GULP energy -290396.576053 kJ/mol
# GULP energy per Si atom -5584.549539 kJ/mol
# Density = 2.033860 g / cm^3
# Si number density = 20.384996 Si / 1000 Ang^3
#
#
#
# Elastic Constant Matrix: (Units=GPa)
#
#
# Indices 1 2 3 4 5 6 
#
# 1 84.3503 -11.2848 3.1711 0.0000 0.0000 0.0000
# 2 -11.2848 69.2220 13.3318 0.0000 0.0000 0.0000
# 3 3.1711 13.3318 67.5947 0.0000 0.0000 0.0000
# 4 0.0000 0.0000 0.0000 -47.9310 0.0000 0.0000
# 5 0.0000 0.0000 0.0000 0.0000 48.8791 0.0000
# 6 0.0000 0.0000 0.0000 0.0000 0.0000 18.1249
#
#
#
# Elastic Compliance Matrix: (Units=1/GPa)
#
#
# Indices 1 2 3 4 5 6 
#
# 1 0.012185 0.002179 -0.001001 0.000000 0.000000 0.000000
# 2 0.002179 0.015406 -0.003141 0.000000 0.000000 0.000000
# 3 -0.001001 -0.003141 0.015461 0.000000 0.000000 0.000000
# 4 0.000000 0.000000 0.000000 -0.020863 0.000000 0.000000
# 5 0.000000 0.000000 0.000000 0.000000 0.020459 0.000000
# 6 0.000000 0.000000 0.000000 0.000000 0.000000 0.055173
#
#
# Mechanical properties :
#
#
# Convention : Reuss Voigt Hill
#
# Bulk Modulus (GPa) = 25.55887 25.73368 25.64627
# Shear Modulus (GPa) = 43.55875 18.21121 30.88498
#
# Velocity S-wave (km/s) = 4.62757 2.99216 3.89663
# Velocity P-wave (km/s) = 6.41232 4.95869 5.73177
#
# Compressibility (1/GPa) = 0.03912536
#
# Stress axis : x y z
#
# Youngs Moduli (GPa) = 82.07136 64.90785 64.68088
#
# Poissons Ratio (x) = -0.14145 0.06477
# Poissons Ratio (y) = -0.17885 0.20315
# Poissons Ratio (z) = 0.08219 0.20387
#
# Static dielectric constant tensor:
#      x y z
#    x 1.730470 0.000000 0.000000 
#    y 0.000000 1.790320 0.000000 
#    z 0.000000 0.000000 1.773460 
# 
# From -- ./inp_files/19834.got.cif
#   From: 2010.05.17/outbox.cif.g08.bks.cpg/sg54_10_cif.got.tgz:19834.got - 2010.06.03 13:09:01.
