data_PCOD9421442
_publ_section_title
;
Structure prediction by ZEFSAII (Michael W. Deem and Ramdas Pophale) SiO2 
 PCOD9421442
Probable space group: P C C A
;
_chemical_formula_sum "Si O2"
_cell_formula_units_Z 64
_cell_length_a 10.639961
_cell_length_b 17.289671
_cell_length_c 16.215156
_cell_angle_alpha 90.000000
_cell_angle_beta 90.000000
_cell_angle_gamma 90.000000
_cell_volume 2982.963207
_symmetry_space_group_name_H-M "P C C A"
_symmetry_group_IT_number 54
_symmetry_cell_setting 'orthorhombic'
loop_
_space_group_symop_operation_xyz
x,y,z
1/2-x,-y,z
1/2+x,-y,1/2-z
-x,y,1/2-z
-x,-y,-z
1/2+x,y,-z
1/2-x,y,1/2+z
x,-y,1/2+z
loop_
_atom_site_type_symbol
_atom_site_label
_atom_site_fract_x
_atom_site_fract_y
_atom_site_fract_z
Si Si1 0.900038 0.213162 0.430781
Si Si2 0.240491 0.409129 0.342528
Si Si3 0.490116 0.624183 0.654431
Si Si4 0.621380 0.343358 0.807268
Si Si5 0.889898 0.896453 0.314799
Si Si6 0.875650 0.759981 0.448007
Si Si7 0.485324 0.539397 0.088058
Si Si8 0.104740 0.077863 0.181886
O O1 0.888044 0.259024 0.344287
O O2 0.768886 0.232126 0.476010
O O3 0.910454 0.124867 0.402690
O O4 0.022358 0.237873 0.480045
O O5 0.250000 0.500000 0.319798
O O6 0.367583 0.378360 0.383264
O O7 0.227271 0.361336 0.258484
O O8 0.115311 0.412920 0.397479
O O9 0.500000 0.646482 0.750000
O O10 0.402833 0.682277 0.604234
O O11 0.458022 0.533247 0.648176
O O12 0.500000 0.361189 0.750000
O O13 0.620116 0.399400 0.886515
O O14 0.896850 0.833878 0.387817
O O15 0.744124 0.899199 0.284813
O O16 0.000000 0.877068 0.250000
O O17 0.908062 0.986710 0.337475
O O18 0.500000 0.500000 0.000000
O O19 0.000000 0.097045 0.250000
#
# Coordination Sequence:
#
# PCOD9421442 Si02
#       8
#     8   8   8   8   8   8   8   8
#     4  11  24  40  57  86 120 155 195 239 293 347
#     4   9  19  36  56  80 108 147 195 242 291 346
#     4  11  21  37  58  80 109 149 195 242 293 345
#     4  10  20  36  58  80 108 147 195 243 285 340
#     4   9  19  38  63  92 121 151 193 242 290 345
#     4  11  25  40  58  86 121 156 193 241 293 350
#     4  10  20  35  55  82 114 149 190 237 290 350
#     4   9  19  38  64  90 119 155 195 238 288 350
#
# _framework density 21.455174
#
# number of rings (size 3 to 8) (size 9 to 14) (size 15 to 20)
#    0.000    2.000    0.000    4.125    0.000    5.500 
#    0.000    8.125    0.000    0.000    0.000    0.000 
#    0.000    0.000    0.000    0.000    0.000    0.000 
#
# Total GULP energy -357019.497794 kJ/mol
# GULP energy per Si atom -5578.429653 kJ/mol
# Density = 2.140634 g / cm^3
# Si number density = 21.455174 Si / 1000 Ang^3
#
#
#
# Elastic Constant Matrix: (Units=GPa)
#
#
# Indices 1 2 3 4 5 6 
#
# 1 102.7998 32.0574 27.6228 0.0000 0.0000 0.0000
# 2 32.0574 74.8585 13.9330 0.0000 0.0000 0.0000
# 3 27.6228 13.9330 45.4473 0.0000 0.0000 0.0000
# 4 0.0000 0.0000 0.0000 21.5941 0.0000 0.0000
# 5 0.0000 0.0000 0.0000 0.0000 17.5843 0.0000
# 6 0.0000 0.0000 0.0000 0.0000 0.0000 28.6005
#
#
#
# Elastic Compliance Matrix: (Units=1/GPa)
#
#
# Indices 1 2 3 4 5 6 
#
# 1 0.012800 -0.004277 -0.006468 0.000000 0.000000 0.000000
# 2 -0.004277 0.015596 -0.002182 0.000000 0.000000 0.000000
# 3 -0.006468 -0.002182 0.026604 0.000000 0.000000 0.000000
# 4 0.000000 0.000000 0.000000 0.046309 0.000000 0.000000
# 5 0.000000 0.000000 0.000000 0.000000 0.056869 0.000000
# 6 0.000000 0.000000 0.000000 0.000000 0.000000 0.034964
#
#
# Mechanical properties :
#
#
# Convention : Reuss Voigt Hill
#
# Bulk Modulus (GPa) = 34.31109 41.14799 37.72954
# Shear Modulus (GPa) = 21.86160 23.52194 22.69177
#
# Velocity S-wave (km/s) = 3.19555 3.31468 3.25566
# Velocity P-wave (km/s) = 5.44446 5.81977 5.63524
#
# Compressibility (1/GPa) = 0.02914510
#
# Stress axis : x y z
#
# Youngs Moduli (GPa) = 78.12773 64.11764 37.58872
#
# Poissons Ratio (x) = 0.27426 0.24313
# Poissons Ratio (y) = 0.33418 0.08201
# Poissons Ratio (z) = 0.50535 0.13988
#
# Static dielectric constant tensor:
#      x y z
#    x 1.882870 0.000000 0.000000 
#    y 0.000000 1.802390 0.000000 
#    z 0.000000 0.000000 1.785360 
# 
# From -- ./inp_files/12824.got.cif
#   From: 2010.05.17/outbox.cif.g08.bks.cpg/sg54_7_cif.got.tgz:12824.got - 2010.06.03 13:09:01.
