data_PCOD9421980
_publ_section_title
;
Structure prediction by ZEFSAII (Michael W. Deem and Ramdas Pophale) SiO2 
 PCOD9421980
Probable space group: P C C A
;
_chemical_formula_sum "Si O2"
_cell_formula_units_Z 56
_cell_length_a 14.159328
_cell_length_b 12.365233
_cell_length_c 14.498256
_cell_angle_alpha 90.000000
_cell_angle_beta 90.000000
_cell_angle_gamma 90.000000
_cell_volume 2538.403807
_symmetry_space_group_name_H-M "P C C A"
_symmetry_group_IT_number 54
_symmetry_cell_setting 'orthorhombic'
loop_
_space_group_symop_operation_xyz
x,y,z
1/2-x,-y,z
1/2+x,-y,1/2-z
-x,y,1/2-z
-x,-y,-z
1/2+x,y,-z
1/2-x,y,1/2+z
x,-y,1/2+z
loop_
_atom_site_type_symbol
_atom_site_label
_atom_site_fract_x
_atom_site_fract_y
_atom_site_fract_z
Si Si1 0.250000 0.000000 0.708194
Si Si2 0.576683 0.725778 0.542545
Si Si3 0.606006 0.360944 0.382360
Si Si4 0.604691 0.729220 0.177523
Si Si5 0.105823 0.168724 0.761315
Si Si6 0.089433 0.843746 0.639969
Si Si7 0.240387 0.612829 0.953211
Si Si8 0.000000 0.527926 0.750000
O O1 0.306994 0.912008 0.766589
O O2 0.160349 0.945315 0.654872
O O3 0.474222 0.674839 0.544634
O O4 0.595277 0.766123 0.645058
O O5 0.594803 0.815729 0.466875
O O6 0.652783 0.636842 0.522050
O O7 0.624248 0.253318 0.321449
O O8 0.688658 0.396652 0.449025
O O9 0.565901 0.450738 0.312137
O O10 0.630378 0.759905 0.283190
O O11 0.525652 0.822837 0.154528
O O12 0.690120 0.706860 0.107427
O O13 0.554422 0.612023 0.183605
O O14 0.000000 0.117023 0.750000
O O15 0.250000 0.500000 0.899212
#
# Coordination Sequence:
#
# PCOD9421980 Si02
#       8
#     4   8   8   8   8   8   8   4
#     4  12  24  44  72 102 132 172 240 282 362 422
#     4  11  22  45  66  95 137 176 225 281 344 408
#     4  11  22  45  66  98 139 185 232 284 335 408
#     4  10  24  44  64  99 140 182 220 284 346 400
#     4  10  24  44  70  96 135 181 224 292 351 413
#     4  10  23  43  72  92 132 179 224 287 343 412
#     4  12  26  36  67 104 137 184 232 276 336 414
#     4  10  20  40  72  86 136 192 218 264 338 402
#
# _framework density 22.061108000000001
#
# number of rings (size 3 to 8) (size 9 to 14) (size 15 to 20)
#    0.000    1.429    3.571    2.571    6.000    1.714 
#    0.000    4.286    0.000    0.000    0.000    0.000 
#    0.000    0.000    0.000    0.000    0.000    0.000 
#
# Total GULP energy -311978.821857 kJ/mol
# GULP energy per Si atom -5571.050390 kJ/mol
# Density = 2.201090 g / cm^3
# Si number density = 22.061108 Si / 1000 Ang^3
#
#
#
# Elastic Constant Matrix: (Units=GPa)
#
#
# Indices 1 2 3 4 5 6 
#
# 1 68.5323 37.6600 10.3833 0.0000 0.0000 0.0000
# 2 37.6600 50.6451 -4.1163 0.0000 0.0000 0.0000
# 3 10.3833 -4.1163 68.8203 0.0000 0.0000 0.0000
# 4 0.0000 0.0000 0.0000 12.3883 0.0000 0.0000
# 5 0.0000 0.0000 0.0000 0.0000 26.8402 0.0000
# 6 0.0000 0.0000 0.0000 0.0000 0.0000 32.1748
#
#
#
# Elastic Compliance Matrix: (Units=1/GPa)
#
#
# Indices 1 2 3 4 5 6 
#
# 1 0.026393 -0.020047 -0.005181 0.000000 0.000000 0.000000
# 2 -0.020047 0.035069 0.005122 0.000000 0.000000 0.000000
# 3 -0.005181 0.005122 0.015619 0.000000 0.000000 0.000000
# 4 0.000000 0.000000 0.000000 0.080721 0.000000 0.000000
# 5 0.000000 0.000000 0.000000 0.000000 0.037258 0.000000
# 6 0.000000 0.000000 0.000000 0.000000 0.000000 0.031080
#
#
# Mechanical properties :
#
#
# Convention : Reuss Voigt Hill
#
# Bulk Modulus (GPa) = 27.12360 30.65019 28.88690
# Shear Modulus (GPa) = 17.94424 23.88538 20.91481
#
# Velocity S-wave (km/s) = 2.85509 3.29400 3.08237
# Velocity P-wave (km/s) = 4.81562 5.32829 5.07843
#
# Compressibility (1/GPa) = 0.03686826
#
# Stress axis : x y z
#
# Youngs Moduli (GPa) = 37.88888 28.51545 64.02589
#
# Poissons Ratio (x) = 0.57165 0.33173
# Poissons Ratio (y) = 0.75956 -0.32795
# Poissons Ratio (z) = 0.19631 -0.14606
#
# Static dielectric constant tensor:
#      x y z
#    x 1.892750 0.000000 0.000000 
#    y 0.000000 1.802750 0.000000 
#    z 0.000000 0.000000 1.787260 
# 
# From -- ./inp_files/13531.got.cif
#   From: 2010.05.17/outbox.cif.g08.bks.cpg/sg54_7_cif.got.tgz:13531.got - 2010.06.03 13:09:01.
