data_PCOD9421487
_publ_section_title
;
Structure prediction by ZEFSAII (Michael W. Deem and Ramdas Pophale) SiO2 
 PCOD9421487
Probable space group: P C C A
;
_chemical_formula_sum "Si O2"
_cell_formula_units_Z 52
_cell_length_a 22.583944
_cell_length_b 5.889677
_cell_length_c 17.845110
_cell_angle_alpha 90.000000
_cell_angle_beta 90.000000
_cell_angle_gamma 90.000000
_cell_volume 2373.616190
_symmetry_space_group_name_H-M "P C C A"
_symmetry_group_IT_number 54
_symmetry_cell_setting 'orthorhombic'
loop_
_space_group_symop_operation_xyz
x,y,z
1/2-x,-y,z
1/2+x,-y,1/2-z
-x,y,1/2-z
-x,-y,-z
1/2+x,y,-z
1/2-x,y,1/2+z
x,-y,1/2+z
loop_
_atom_site_type_symbol
_atom_site_label
_atom_site_fract_x
_atom_site_fract_y
_atom_site_fract_z
Si Si1 0.185103 0.181528 0.235239
Si Si2 0.651740 0.819857 0.986046
Si Si3 0.000000 0.810251 0.750000
Si Si4 0.081858 0.903462 0.154174
Si Si5 0.101494 0.459766 0.781225
Si Si6 0.250000 0.500000 0.453941
Si Si7 0.250000 0.000000 0.617035
Si Si8 0.332700 0.865297 0.876411
O O1 0.164001 0.415649 0.269057
O O2 0.132244 0.080007 0.183292
O O3 0.239382 0.199061 0.177498
O O4 0.187328 0.001676 0.302676
O O5 0.595046 0.820530 0.930604
O O6 0.696374 0.972085 0.937897
O O7 0.692667 0.596957 0.000690
O O8 0.644507 0.950333 0.063898
O O9 0.051145 0.649980 0.784185
O O10 0.023131 0.967777 0.681888
O O11 0.087721 0.687581 0.208164
O O12 0.113198 0.297401 0.851364
O O13 0.221204 0.710431 0.408007
#
# Coordination Sequence:
#
# PCOD9421487 Si02
#       8
#     8   8   4   8   8   4   4   8
#     4   9  21  36  58  86 124 161 212 264 309 375
#     4  11  23  39  57  90 131 171 214 261 313 382
#     4  10  20  42  70  94 128 158 212 286 338 370
#     4   9  21  39  62  95 123 160 212 277 321 379
#     4  10  21  39  68  94 119 169 215 262 333 387
#     4  12  24  36  64  84 132 186 212 250 324 382
#     4  10  20  36  54  82 128 162 212 264 306 360
#     4  11  23  40  57  91 131 172 215 261 314 387
#
# _framework density 21.907502000000001
#
# number of rings (size 3 to 8) (size 9 to 14) (size 15 to 20)
#    0.000    1.846    1.538    1.385    6.462    1.231 
#    0.000    0.769    0.000   17.538    0.000    0.000 
#    0.000    0.000    0.000    0.000    0.000    0.000 
#
# Total GULP energy -289874.423977 kJ/mol
# GULP energy per Si atom -5574.508153 kJ/mol
# Density = 2.185764 g / cm^3
# Si number density = 21.907502 Si / 1000 Ang^3
#
#
#
# Elastic Constant Matrix: (Units=GPa)
#
#
# Indices 1 2 3 4 5 6 
#
# 1 41.4153 9.1130 15.2698 0.0000 0.0000 0.0000
# 2 9.1130 72.4256 18.6260 0.0000 0.0000 0.0000
# 3 15.2698 18.6260 82.6918 0.0000 0.0000 0.0000
# 4 0.0000 0.0000 0.0000 -25.5322 0.0000 0.0000
# 5 0.0000 0.0000 0.0000 0.0000 -3.7628 0.0000
# 6 0.0000 0.0000 0.0000 0.0000 0.0000 34.4597
#
#
#
# Elastic Compliance Matrix: (Units=1/GPa)
#
#
# Indices 1 2 3 4 5 6 
#
# 1 0.026230 -0.002181 -0.004352 0.000000 0.000000 0.000000
# 2 -0.002181 0.014838 -0.002939 0.000000 0.000000 0.000000
# 3 -0.004352 -0.002939 0.013559 0.000000 0.000000 0.000000
# 4 0.000000 0.000000 0.000000 -0.039166 0.000000 0.000000
# 5 0.000000 0.000000 0.000000 0.000000 -0.265762 0.000000
# 6 0.000000 0.000000 0.000000 0.000000 0.000000 0.029019
#
#
# Mechanical properties :
#
#
# Convention : Reuss Voigt Hill
#
# Bulk Modulus (GPa) = 28.02603 31.39448 29.71025
# Shear Modulus (GPa) = -26.25461 11.26787 -7.49337
#
# Velocity S-wave (km/s) = -3.46559 2.27036 -1.85145
# Velocity P-wave (km/s) = 1.78692 4.60807 3.00343
#
# Compressibility (1/GPa) = 0.03568112
#
# Stress axis : x y z
#
# Youngs Moduli (GPa) = 38.12382 67.39617 73.75244
#
# Poissons Ratio (x) = 0.14700 0.32100
# Poissons Ratio (y) = 0.08315 0.21678
# Poissons Ratio (z) = 0.16593 0.19810
#
# Static dielectric constant tensor:
#      x y z
#    x 1.944940 0.000000 0.000000 
#    y 0.000000 1.862790 0.000000 
#    z 0.000000 0.000000 1.808240 
# 
# From -- ./inp_files/19226.got.cif
#   From: 2010.05.17/outbox.cif.g08.bks.cpg/sg54_10_cif.got.tgz:19226.got - 2010.06.03 13:09:01.
