data_PCOD9421586
_publ_section_title
;
Structure prediction by ZEFSAII (Michael W. Deem and Ramdas Pophale) SiO2 
 PCOD9421586
Probable space group: P C C A
;
_chemical_formula_sum "Si O2"
_cell_formula_units_Z 32
_cell_length_a 11.134465
_cell_length_b 7.491305
_cell_length_c 14.450228
_cell_angle_alpha 90.000000
_cell_angle_beta 90.000000
_cell_angle_gamma 90.000000
_cell_volume 1205.317697
_symmetry_space_group_name_H-M "P C C A"
_symmetry_group_IT_number 54
_symmetry_cell_setting 'orthorhombic'
loop_
_space_group_symop_operation_xyz
x,y,z
1/2-x,-y,z
1/2+x,-y,1/2-z
-x,y,1/2-z
-x,-y,-z
1/2+x,y,-z
1/2-x,y,1/2+z
x,-y,1/2+z
loop_
_atom_site_type_symbol
_atom_site_label
_atom_site_fract_x
_atom_site_fract_y
_atom_site_fract_z
Si Si1 0.124797 0.010528 0.796251
Si Si2 0.625787 0.593460 0.621741
Si Si3 0.123185 0.514723 0.086230
Si Si4 0.372045 0.099241 0.995150
O O1 0.112402 0.214236 0.831852
O O2 0.000000 0.962344 0.750000
O O3 0.250000 0.000000 0.740573
O O4 0.144667 0.883523 0.884831
O O5 0.750000 0.500000 0.647965
O O6 0.630098 0.602946 0.508065
O O7 0.501421 0.486297 0.638182
O O8 0.250000 0.500000 0.137222
O O9 0.117488 0.717438 0.049354
O O10 0.250000 0.000000 0.025833
O O11 0.500000 0.000000 0.000000
#
# Coordination Sequence:
#
# PCOD9421586 Si02
#       4
#     8   8   8   8
#     4  11  24  45  62  89 130 172 212 260 315 379
#     4  10  20  39  61  88 124 163 204 257 313 372
#     4  10  20  36  61  98 129 155 202 264 319 376
#     4  11  22  39  65  98 128 164 207 265 319 376
#
# _framework density 26.549018
#
# number of rings (size 3 to 8) (size 9 to 14) (size 15 to 20)
#    0.000    1.500    2.500    6.000    3.500    1.000 
#    0.000    6.250    0.000    0.000    0.000    0.000 
#    0.000    0.000    0.000    0.000    0.000    0.000 
#
# Total GULP energy -179158.142972 kJ/mol
# GULP energy per Si atom -5598.691968 kJ/mol
# Density = 2.648859 g / cm^3
# Si number density = 26.549018 Si / 1000 Ang^3
#
#
#
# Elastic Constant Matrix: (Units=GPa)
#
#
# Indices 1 2 3 4 5 6 
#
# 1 310.6161 37.0271 37.4224 0.0000 0.0000 0.0000
# 2 37.0271 111.1688 9.5542 0.0000 0.0000 0.0000
# 3 37.4224 9.5542 86.1906 0.0000 0.0000 0.0000
# 4 0.0000 0.0000 0.0000 14.2986 0.0000 0.0000
# 5 0.0000 0.0000 0.0000 0.0000 15.3043 0.0000
# 6 0.0000 0.0000 0.0000 0.0000 0.0000 48.9620
#
#
#
# Elastic Compliance Matrix: (Units=1/GPa)
#
#
# Indices 1 2 3 4 5 6 
#
# 1 0.003514 -0.001049 -0.001410 0.000000 0.000000 0.000000
# 2 -0.001049 0.009395 -0.000586 0.000000 0.000000 0.000000
# 3 -0.001410 -0.000586 0.012279 0.000000 0.000000 0.000000
# 4 0.000000 0.000000 0.000000 0.069937 0.000000 0.000000
# 5 0.000000 0.000000 0.000000 0.000000 0.065341 0.000000
# 6 0.000000 0.000000 0.000000 0.000000 0.000000 0.020424
#
#
# Mechanical properties :
#
#
# Convention : Reuss Voigt Hill
#
# Bulk Modulus (GPa) = 52.35834 75.10922 63.73378
# Shear Modulus (GPa) = 25.86031 43.97776 34.91904
#
# Velocity S-wave (km/s) = 3.12438 4.07440 3.63059
# Velocity P-wave (km/s) = 5.72537 7.10538 6.45238
#
# Compressibility (1/GPa) = 0.01909915
#
# Stress axis : x y z
#
# Youngs Moduli (GPa) = 284.55036 106.43739 81.43899
#
# Poissons Ratio (x) = 0.11169 0.11479
# Poissons Ratio (y) = 0.29860 0.04771
# Poissons Ratio (z) = 0.40108 0.06235
#
# Static dielectric constant tensor:
#      x y z
#    x 2.235510 0.000000 0.000000 
#    y 0.000000 2.105210 0.000000 
#    z 0.000000 0.000000 2.113920 
# 
# From -- ./inp_files/12311.got.cif
#   From: 2010.05.17/outbox.cif.g08.bks.cpg/sg54_7_cif.got.tgz:12311.got - 2010.06.03 13:09:01.
