data_PCOD9421351
_publ_section_title
;
Structure prediction by ZEFSAII (Michael W. Deem and Ramdas Pophale) SiO2 
 PCOD9421351
Probable space group: P C C A
;
_chemical_formula_sum "Si O2"
_cell_formula_units_Z 48
_cell_length_a 15.675859
_cell_length_b 5.397978
_cell_length_c 22.666384
_cell_angle_alpha 90.000000
_cell_angle_beta 90.000000
_cell_angle_gamma 90.000000
_cell_volume 1917.982767
_symmetry_space_group_name_H-M "P C C A"
_symmetry_group_IT_number 54
_symmetry_cell_setting 'orthorhombic'
loop_
_space_group_symop_operation_xyz
x,y,z
1/2-x,-y,z
1/2+x,-y,1/2-z
-x,y,1/2-z
-x,-y,-z
1/2+x,y,-z
1/2-x,y,1/2+z
x,-y,1/2+z
loop_
_atom_site_type_symbol
_atom_site_label
_atom_site_fract_x
_atom_site_fract_y
_atom_site_fract_z
Si Si1 0.294881 0.248697 0.508027
Si Si2 0.796281 0.249047 0.634804
Si Si3 0.961400 0.355249 0.424495
Si Si4 0.155409 0.427109 0.191504
Si Si5 0.980436 0.860316 0.105553
Si Si6 0.088383 0.072263 0.717481
O O1 0.250000 0.500000 0.528733
O O2 0.290836 0.248796 0.437138
O O3 0.390001 0.257514 0.531655
O O4 0.250000 0.000000 0.530293
O O5 0.750000 0.500000 0.655389
O O6 0.897817 0.222627 0.642478
O O7 0.750000 0.000000 0.655682
O O8 0.911678 0.395034 0.362092
O O9 0.997209 0.629503 0.436446
O O10 0.031946 0.137041 0.420219
O O11 0.250000 0.500000 0.171109
O O12 0.125706 0.658016 0.231423
O O13 0.150528 0.161118 0.223151
O O14 0.060369 0.898658 0.148994
O O15 0.000000 0.015420 0.750000
#
# Coordination Sequence:
#
# PCOD9421351 Si02
#       6
#     8   8   8   8   8   8
#     4  10  20  33  51  77 109 143 175 213 262 308
#     4  10  21  37  54  74 105 142 181 221 257 306
#     4  10  20  33  54  81 108 137 172 217 265 321
#     4  10  20  35  57  83 110 139 173 215 265 319
#     4  10  21  36  55  78 103 140 180 217 271 317
#     4  10  21  38  57  79 111 142 173 220 270 316
#
# _framework density 25.026292999999999
#
# number of rings (size 3 to 8) (size 9 to 14) (size 15 to 20)
#    0.000    2.000    0.000    3.500    0.000    4.000 
#    0.000    2.500    0.000    0.000    0.000    0.000 
#    0.000    0.000    0.000    0.000    0.000    0.000 
#
# Total GULP energy -268430.206953 kJ/mol
# GULP energy per Si atom -5592.295978 kJ/mol
# Density = 2.496933 g / cm^3
# Si number density = 25.026293 Si / 1000 Ang^3
#
#
#
# Elastic Constant Matrix: (Units=GPa)
#
#
# Indices 1 2 3 4 5 6 
#
# 1 83.7993 70.0570 11.0312 0.0000 0.0000 0.0000
# 2 70.0570 259.4136 42.4228 0.0000 0.0000 0.0000
# 3 11.0312 42.4228 45.1833 0.0000 0.0000 0.0000
# 4 0.0000 0.0000 0.0000 -35.3826 0.0000 0.0000
# 5 0.0000 0.0000 0.0000 0.0000 11.4919 0.0000
# 6 0.0000 0.0000 0.0000 0.0000 0.0000 50.5036
#
#
#
# Elastic Compliance Matrix: (Units=1/GPa)
#
#
# Indices 1 2 3 4 5 6 
#
# 1 0.015414 -0.004191 0.000171 0.000000 0.000000 0.000000
# 2 -0.004191 0.005693 -0.004322 0.000000 0.000000 0.000000
# 3 0.000171 -0.004322 0.026149 0.000000 0.000000 0.000000
# 4 0.000000 0.000000 0.000000 -0.028262 0.000000 0.000000
# 5 0.000000 0.000000 0.000000 0.000000 0.087018 0.000000
# 6 0.000000 0.000000 0.000000 0.000000 0.000000 0.019801
#
#
# Mechanical properties :
#
#
# Convention : Reuss Voigt Hill
#
# Bulk Modulus (GPa) = 32.70891 70.60203 51.65547
# Shear Modulus (GPa) = 32.74676 22.98157 27.86417
#
# Velocity S-wave (km/s) = 3.62124 3.03363 3.34038
# Velocity P-wave (km/s) = 5.53016 6.36733 5.96345
#
# Compressibility (1/GPa) = 0.03057271
#
# Stress axis : x y z
#
# Youngs Moduli (GPa) = 64.87508 175.63954 38.24294
#
# Poissons Ratio (x) = 0.73607 -0.00656
# Poissons Ratio (y) = 0.27188 0.16530
# Poissons Ratio (z) = -0.01112 0.75920
#
# Static dielectric constant tensor:
#      x y z
#    x 1.913140 0.000000 0.000000 
#    y 0.000000 1.968520 0.000000 
#    z 0.000000 0.000000 2.016130 
# 
# From -- ./inp_files/28182.got.cif
#   From: 2010.05.17/outbox.cif.g08.bks.cpg/sg54_15_cif.got.tgz:28182.got - 2010.06.03 13:09:01.
