data_PCOD9421838
_publ_section_title
;
Structure prediction by ZEFSAII (Michael W. Deem and Ramdas Pophale) SiO2 
 PCOD9421838
Probable space group: P C C A
;
_chemical_formula_sum "Si O2"
_cell_formula_units_Z 44
_cell_length_a 26.770930
_cell_length_b 9.244358
_cell_length_c 8.809330
_cell_angle_alpha 90.000000
_cell_angle_beta 90.000000
_cell_angle_gamma 90.000000
_cell_volume 2180.133525
_symmetry_space_group_name_H-M "P C C A"
_symmetry_group_IT_number 54
_symmetry_cell_setting 'orthorhombic'
loop_
_space_group_symop_operation_xyz
x,y,z
1/2-x,-y,z
1/2+x,-y,1/2-z
-x,y,1/2-z
-x,-y,-z
1/2+x,y,-z
1/2-x,y,1/2+z
x,-y,1/2+z
loop_
_atom_site_type_symbol
_atom_site_label
_atom_site_fract_x
_atom_site_fract_y
_atom_site_fract_z
Si Si1 0.913714 0.199169 0.902882
Si Si2 0.100578 0.351718 0.096357
Si Si3 0.750000 0.500000 0.699981
Si Si4 0.677856 0.414661 0.453201
Si Si5 0.939567 0.079083 0.233504
Si Si6 0.049602 0.446344 0.796201
O O1 0.863746 0.291193 0.934894
O O2 0.950228 0.318251 0.827978
O O3 0.914322 0.073573 0.776681
O O4 0.930717 0.130741 0.061339
O O5 0.152121 0.423950 0.038019
O O6 0.087237 0.191860 0.150954
O O7 0.093172 0.445662 0.249024
O O8 0.060998 0.392519 0.963565
O O9 0.714381 0.402216 0.595803
O O10 0.786673 0.411073 0.807560
O O11 0.000000 0.070080 0.250000
O O12 0.000000 0.531897 0.750000
#
# Coordination Sequence:
#
# PCOD9421838 Si02
#       6
#     8   8   4   8   8   8
#     4  11  23  38  57  82 120 156 202 240 291 345
#     4  11  21  35  58  85 120 152 198 240 292 345
#     4  10  20  38  68  88 110 134 194 248 312 374
#     4  10  21  39  62  90 110 147 186 250 307 355
#     4  12  23  38  58  87 124 171 203 234 275 344
#     4  11  20  34  53  82 117 158 199 244 278 332
#
# _framework density 20.18225
#
# number of rings (size 3 to 8) (size 9 to 14) (size 15 to 20)
#    0.000    1.091    0.000    9.818    0.000    0.000 
#    0.000    0.000    0.000   18.545    0.000    0.000 
#    0.000    0.000    0.000    0.000    0.000    0.000 
#
# Total GULP energy -245338.516094 kJ/mol
# GULP energy per Si atom -5575.875366 kJ/mol
# Density = 2.013631 g / cm^3
# Si number density = 20.182250 Si / 1000 Ang^3
#
#
#
# Elastic Constant Matrix: (Units=GPa)
#
#
# Indices 1 2 3 4 5 6 
#
# 1 104.7807 21.1449 41.8122 0.0000 0.0000 0.0000
# 2 21.1449 70.3389 13.3547 0.0000 0.0000 0.0000
# 3 41.8122 13.3547 113.0601 0.0000 0.0000 0.0000
# 4 0.0000 0.0000 0.0000 27.9345 0.0000 0.0000
# 5 0.0000 0.0000 0.0000 0.0000 36.2076 0.0000
# 6 0.0000 0.0000 0.0000 0.0000 0.0000 16.3040
#
#
#
# Elastic Compliance Matrix: (Units=1/GPa)
#
#
# Indices 1 2 3 4 5 6 
#
# 1 0.011696 -0.002757 -0.004000 0.000000 0.000000 0.000000
# 2 -0.002757 0.015193 -0.000775 0.000000 0.000000 0.000000
# 3 -0.004000 -0.000775 0.010416 0.000000 0.000000 0.000000
# 4 0.000000 0.000000 0.000000 0.035798 0.000000 0.000000
# 5 0.000000 0.000000 0.000000 0.000000 0.027618 0.000000
# 6 0.000000 0.000000 0.000000 0.000000 0.000000 0.061335
#
#
# Mechanical properties :
#
#
# Convention : Reuss Voigt Hill
#
# Bulk Modulus (GPa) = 44.96136 48.97814 46.96975
# Shear Modulus (GPa) = 27.09545 30.21374 28.65460
#
# Velocity S-wave (km/s) = 3.66804 3.87336 3.77210
# Velocity P-wave (km/s) = 6.34550 6.65767 6.50346
#
# Compressibility (1/GPa) = 0.02224132
#
# Stress axis : x y z
#
# Youngs Moduli (GPa) = 85.49804 65.82097 96.00920
#
# Poissons Ratio (x) = 0.18144 0.38403
# Poissons Ratio (y) = 0.23568 0.07442
# Poissons Ratio (z) = 0.34198 0.05102
#
# Static dielectric constant tensor:
#      x y z
#    x 1.754960 0.000000 0.000000 
#    y 0.000000 1.733300 0.000000 
#    z 0.000000 0.000000 1.736150 
# 
# From -- ./inp_files/5779.got.cif
#   From: 2010.05.17/outbox.cif.g08.bks.cpg/sg54_3_cif.got.tgz:5779.got - 2010.06.03 13:09:01.
