data_PCOD9421167
_publ_section_title
;
Structure prediction by ZEFSAII (Michael W. Deem and Ramdas Pophale) SiO2 
 PCOD9421167
Probable space group: P C C A
;
_chemical_formula_sum "Si O2"
_cell_formula_units_Z 48
_cell_length_a 18.374522
_cell_length_b 10.597620
_cell_length_c 9.382243
_cell_angle_alpha 90.000000
_cell_angle_beta 90.000000
_cell_angle_gamma 90.000000
_cell_volume 1826.968544
_symmetry_space_group_name_H-M "P C C A"
_symmetry_group_IT_number 54
_symmetry_cell_setting 'orthorhombic'
loop_
_space_group_symop_operation_xyz
x,y,z
1/2-x,-y,z
1/2+x,-y,1/2-z
-x,y,1/2-z
-x,-y,-z
1/2+x,y,-z
1/2-x,y,1/2+z
x,-y,1/2+z
loop_
_atom_site_type_symbol
_atom_site_label
_atom_site_fract_x
_atom_site_fract_y
_atom_site_fract_z
Si Si1 0.604790 0.232450 0.207212
Si Si2 0.000380 0.804708 0.950061
Si Si3 0.238679 0.736889 0.817097
Si Si4 0.750000 0.500000 0.894046
Si Si5 0.110925 0.000933 0.584383
Si Si6 0.618432 0.633547 0.996627
Si Si7 0.250000 0.000000 0.381747
O O1 0.460571 0.224982 0.400481
O O2 0.678859 0.269136 0.128531
O O3 0.598402 0.332867 0.334814
O O4 0.616757 0.098171 0.284865
O O5 0.045835 0.675685 0.915526
O O6 0.058438 0.915037 0.980202
O O7 0.934055 0.874656 0.868436
O O8 0.235222 0.623773 0.703887
O O9 0.230976 0.882881 0.778235
O O10 0.179651 0.725107 0.939599
O O11 0.674246 0.516022 0.982496
O O12 0.182254 0.977822 0.489838
#
# Coordination Sequence:
#
# PCOD9421167 Si02
#       7
#     8   8   8   4   8   8   4
#     4  10  20  37  61  94 136 184 228 282 363 429
#     4  10  19  36  62  92 138 182 219 283 358 425
#     4  11  22  40  66  99 137 183 232 301 354 424
#     4  10  24  42  68  94 136 188 244 296 348 430
#     4  10  20  34  56  97 138 172 216 283 351 428
#     4  10  20  40  65  96 125 181 244 286 349 418
#     4  12  20  38  60 106 136 166 226 296 362 414
#
# _framework density 26.273029000000001
#
# number of rings (size 3 to 8) (size 9 to 14) (size 15 to 20)
#    0.000    1.667    5.000    2.500    0.000    0.667 
#    0.000    1.667    0.000   18.000    0.000    0.000 
#    0.000    0.000    0.000    0.000    0.000    0.000 
#
# Total GULP energy -267498.790182 kJ/mol
# GULP energy per Si atom -5572.891462 kJ/mol
# Density = 2.621323 g / cm^3
# Si number density = 26.273029 Si / 1000 Ang^3
#
#
#
# Elastic Constant Matrix: (Units=GPa)
#
#
# Indices 1 2 3 4 5 6 
#
# 1 170.6974 31.5848 33.0043 0.0000 0.0000 0.0000
# 2 31.5848 158.8397 31.0928 0.0000 0.0000 0.0000
# 3 33.0043 31.0928 56.3932 0.0000 0.0000 0.0000
# 4 0.0000 0.0000 0.0000 36.2410 0.0000 0.0000
# 5 0.0000 0.0000 0.0000 0.0000 38.1474 0.0000
# 6 0.0000 0.0000 0.0000 0.0000 0.0000 52.0550
#
#
#
# Elastic Compliance Matrix: (Units=1/GPa)
#
#
# Indices 1 2 3 4 5 6 
#
# 1 0.006661 -0.000629 -0.003552 0.000000 0.000000 0.000000
# 2 -0.000629 0.007117 -0.003556 0.000000 0.000000 0.000000
# 3 -0.003552 -0.003556 0.021772 0.000000 0.000000 0.000000
# 4 0.000000 0.000000 0.000000 0.027593 0.000000 0.000000
# 5 0.000000 0.000000 0.000000 0.000000 0.026214 0.000000
# 6 0.000000 0.000000 0.000000 0.000000 0.000000 0.019210
#
#
# Mechanical properties :
#
#
# Convention : Reuss Voigt Hill
#
# Bulk Modulus (GPa) = 49.80883 64.14379 56.97631
# Shear Modulus (GPa) = 38.24592 44.63857 41.44225
#
# Velocity S-wave (km/s) = 3.81952 4.12640 3.97592
# Velocity P-wave (km/s) = 6.20088 6.86805 6.54298
#
# Compressibility (1/GPa) = 0.02007676
#
# Stress axis : x y z
#
# Youngs Moduli (GPa) = 150.11665 140.51254 45.93136
#
# Poissons Ratio (x) = 0.08844 0.16313
# Poissons Ratio (y) = 0.09448 0.16331
# Poissons Ratio (z) = 0.53316 0.49960
#
# Static dielectric constant tensor:
#      x y z
#    x 2.137120 0.000000 0.000000 
#    y 0.000000 2.499480 0.000000 
#    z 0.000000 0.000000 2.082580 
# 
# From -- ./inp_files/14226.got.cif
#   From: 2010.05.17/outbox.cif.g08.bks.cpg/sg54_8_cif.got.tgz:14226.got - 2010.06.03 13:09:01.
