data_PCOD9421783
_publ_section_title
;
Structure prediction by ZEFSAII (Michael W. Deem and Ramdas Pophale) SiO2 
 PCOD9421783
Probable space group: P C C A
;
_chemical_formula_sum "Si O2"
_cell_formula_units_Z 56
_cell_length_a 20.960777
_cell_length_b 8.019792
_cell_length_c 14.834881
_cell_angle_alpha 90.000000
_cell_angle_beta 90.000000
_cell_angle_gamma 90.000000
_cell_volume 2493.759395
_symmetry_space_group_name_H-M "P C C A"
_symmetry_group_IT_number 54
_symmetry_cell_setting 'orthorhombic'
loop_
_space_group_symop_operation_xyz
x,y,z
1/2-x,-y,z
1/2+x,-y,1/2-z
-x,y,1/2-z
-x,-y,-z
1/2+x,y,-z
1/2-x,y,1/2+z
x,-y,1/2+z
loop_
_atom_site_type_symbol
_atom_site_label
_atom_site_fract_x
_atom_site_fract_y
_atom_site_fract_z
Si Si1 0.574022 0.451424 0.019799
Si Si2 0.585333 0.941985 0.570810
Si Si3 0.139697 0.862374 0.244162
Si Si4 0.175353 0.495490 0.825971
Si Si5 0.464147 0.946011 0.163584
Si Si6 0.813392 0.962034 0.929144
Si Si7 0.140741 0.659893 0.642343
O O1 0.574995 0.254883 0.049375
O O2 0.620597 0.527634 0.097847
O O3 0.500000 0.500000 0.000000
O O4 0.610767 0.475598 0.924210
O O5 0.627106 0.960028 0.662156
O O6 0.625758 0.012080 0.488248
O O7 0.517901 0.025767 0.590319
O O8 0.161720 0.683956 0.278787
O O9 0.070365 0.882959 0.195479
O O10 0.183721 0.944079 0.167287
O O11 0.250000 0.500000 0.856229
O O12 0.164248 0.615541 0.740554
O O13 0.500000 0.878551 0.250000
O O14 0.412481 0.805050 0.146609
O O15 0.807368 0.763527 0.912966
O O16 0.750000 0.000000 0.983050
#
# Coordination Sequence:
#
# PCOD9421783 Si02
#       7
#     8   8   8   8   8   8   8
#     4  10  24  41  64  97 133 174 225 269 325 394
#     4   9  20  40  64  90 130 170 208 271 326 387
#     4   9  20  38  62  91 123 167 205 259 325 385
#     4  11  24  44  66  94 134 175 212 271 335 396
#     4   9  19  38  64  94 129 159 214 265 325 384
#     4  10  20  38  63  93 125 167 218 261 315 391
#     4  10  23  40  65  95 130 166 220 274 317 398
#
# _framework density 22.456057999999999
#
# number of rings (size 3 to 8) (size 9 to 14) (size 15 to 20)
#    0.000    2.286    0.000    0.857    4.000    6.286 
#    0.000   10.000    0.000    0.000    0.000    0.000 
#    0.000    0.000    0.000    0.000    0.000    0.000 
#
# Total GULP energy -311764.584876 kJ/mol
# GULP energy per Si atom -5567.224730 kJ/mol
# Density = 2.240495 g / cm^3
# Si number density = 22.456058 Si / 1000 Ang^3
#
#
#
# Elastic Constant Matrix: (Units=GPa)
#
#
# Indices 1 2 3 4 5 6 
#
# 1 135.6442 18.7315 59.8998 0.0000 0.0000 0.0000
# 2 18.7315 25.7648 13.5280 0.0000 0.0000 0.0000
# 3 59.8998 13.5280 124.3771 0.0000 0.0000 0.0000
# 4 0.0000 0.0000 0.0000 21.5717 0.0000 0.0000
# 5 0.0000 0.0000 0.0000 0.0000 30.4802 0.0000
# 6 0.0000 0.0000 0.0000 0.0000 0.0000 24.1978
#
#
#
# Elastic Compliance Matrix: (Units=1/GPa)
#
#
# Indices 1 2 3 4 5 6 
#
# 1 0.009935 -0.004996 -0.004241 0.000000 0.000000 0.000000
# 2 -0.004996 0.043676 -0.002344 0.000000 0.000000 0.000000
# 3 -0.004241 -0.002344 0.010338 0.000000 0.000000 0.000000
# 4 0.000000 0.000000 0.000000 0.046357 0.000000 0.000000
# 5 0.000000 0.000000 0.000000 0.000000 0.032808 0.000000
# 6 0.000000 0.000000 0.000000 0.000000 0.000000 0.041326
#
#
# Mechanical properties :
#
#
# Convention : Reuss Voigt Hill
#
# Bulk Modulus (GPa) = 24.51877 52.23385 38.37631
# Shear Modulus (GPa) = 22.60416 28.15840 25.38128
#
# Velocity S-wave (km/s) = 3.17613 3.54493 3.36559
# Velocity P-wave (km/s) = 4.93889 6.32980 5.67710
#
# Compressibility (1/GPa) = 0.04078508
#
# Stress axis : x y z
#
# Youngs Moduli (GPa) = 100.65337 22.89599 96.73364
#
# Poissons Ratio (x) = 0.11439 0.41028
# Poissons Ratio (y) = 0.50287 0.22678
# Poissons Ratio (z) = 0.42690 0.05368
#
# Static dielectric constant tensor:
#      x y z
#    x 2.226970 0.000000 0.000000 
#    y 0.000000 1.907540 0.000000 
#    z 0.000000 0.000000 1.900520 
# 
# From -- ./inp_files/14690.got.cif
#   From: 2010.05.17/outbox.cif.g08.bks.cpg/sg54_8_cif.got.tgz:14690.got - 2010.06.03 13:09:01.
