data_PCOD9421679
_publ_section_title
;
Structure prediction by ZEFSAII (Michael W. Deem and Ramdas Pophale) SiO2 
 PCOD9421679
Probable space group: P C C A
;
_chemical_formula_sum "Si O2"
_cell_formula_units_Z 52
_cell_length_a 14.233891
_cell_length_b 9.201499
_cell_length_c 19.540165
_cell_angle_alpha 90.000000
_cell_angle_beta 90.000000
_cell_angle_gamma 90.000000
_cell_volume 2559.236645
_symmetry_space_group_name_H-M "P C C A"
_symmetry_group_IT_number 54
_symmetry_cell_setting 'orthorhombic'
loop_
_space_group_symop_operation_xyz
x,y,z
1/2-x,-y,z
1/2+x,-y,1/2-z
-x,y,1/2-z
-x,-y,-z
1/2+x,y,-z
1/2-x,y,1/2+z
x,-y,1/2+z
loop_
_atom_site_type_symbol
_atom_site_label
_atom_site_fract_x
_atom_site_fract_y
_atom_site_fract_z
Si Si1 0.387313 0.378995 0.162190
Si Si2 0.017559 0.210334 0.057520
Si Si3 0.421886 0.900981 0.578643
Si Si4 0.327266 0.287426 0.463913
Si Si5 0.750000 0.500000 0.728364
Si Si6 0.250000 0.000000 0.985555
Si Si7 0.250000 0.500000 0.048938
Si Si8 0.079690 0.474028 0.365842
O O1 0.405561 0.213306 0.138846
O O2 0.312829 0.394244 0.223951
O O3 0.335228 0.461974 0.099858
O O4 0.487386 0.459392 0.171677
O O5 0.957071 0.332814 0.093801
O O6 0.982956 0.173573 0.980847
O O7 0.029924 0.056274 0.095944
O O8 0.119313 0.270793 0.036948
O O9 0.327696 0.937862 0.537009
O O10 0.297375 0.127635 0.441332
O O11 0.238003 0.371794 0.492672
O O12 0.383186 0.393064 0.413663
O O13 0.831303 0.568538 0.681001
#
# Coordination Sequence:
#
# PCOD9421679 Si02
#       8
#     8   8   8   8   4   4   4   8
#     4  11  22  43  64  84 127 170 222 267 316 380
#     4  10  21  36  63 101 129 160 199 263 360 413
#     4  10  20  37  61  98 131 166 197 263 344 415
#     4  11  20  34  60 100 135 162 198 264 351 406
#     4  11  29  40  64  90 119 183 238 278 300 369
#     4  10  22  32  56 100 140 160 198 254 338 426
#     4  11  19  32  62 100 123 163 200 264 330 405
#     4  12  23  42  63  93 131 169 223 278 325 386
#
# _framework density 20.318557999999999
#
# number of rings (size 3 to 8) (size 9 to 14) (size 15 to 20)
#    0.000    1.231    4.615    2.308    2.154    0.000 
#    0.000    0.000    0.000   12.000    0.000    0.000 
#    0.000    0.000    0.000    0.000    0.000    0.000 
#
# Total GULP energy -289555.596200 kJ/mol
# GULP energy per Si atom -5568.376850 kJ/mol
# Density = 2.027231 g / cm^3
# Si number density = 20.318558 Si / 1000 Ang^3
#
#
#
# Elastic Constant Matrix: (Units=GPa)
#
#
# Indices 1 2 3 4 5 6 
#
# 1 85.9329 45.3221 30.0784 0.0000 0.0000 0.0000
# 2 45.3221 158.3656 63.9114 0.0000 0.0000 0.0000
# 3 30.0784 63.9114 61.2984 0.0000 0.0000 0.0000
# 4 0.0000 0.0000 0.0000 15.3654 0.0000 0.0000
# 5 0.0000 0.0000 0.0000 0.0000 36.3433 0.0000
# 6 0.0000 0.0000 0.0000 0.0000 0.0000 29.7980
#
#
#
# Elastic Compliance Matrix: (Units=1/GPa)
#
#
# Indices 1 2 3 4 5 6 
#
# 1 0.014483 -0.002204 -0.004808 0.000000 0.000000 0.000000
# 2 -0.002204 0.011237 -0.010634 0.000000 0.000000 0.000000
# 3 -0.004808 -0.010634 0.029761 0.000000 0.000000 0.000000
# 4 0.000000 0.000000 0.000000 0.065081 0.000000 0.000000
# 5 0.000000 0.000000 0.000000 0.000000 0.027515 0.000000
# 6 0.000000 0.000000 0.000000 0.000000 0.000000 0.033559
#
#
# Mechanical properties :
#
#
# Convention : Reuss Voigt Hill
#
# Bulk Modulus (GPa) = 49.53804 64.91342 57.22573
# Shear Modulus (GPa) = 22.35548 27.38702 24.87125
#
# Velocity S-wave (km/s) = 3.32060 3.67533 3.50246
# Velocity P-wave (km/s) = 6.25583 7.07305 6.67695
#
# Compressibility (1/GPa) = 0.02018651
#
# Stress axis : x y z
#
# Youngs Moduli (GPa) = 69.04876 88.99117 33.60136
#
# Poissons Ratio (x) = 0.19616 0.16156
# Poissons Ratio (y) = 0.15220 0.35733
# Poissons Ratio (z) = 0.33200 0.94637
#
# Static dielectric constant tensor:
#      x y z
#    x 2.672490 0.000000 0.000000 
#    y 0.000000 2.275650 0.000000 
#    z 0.000000 0.000000 1.706580 
# 
# From -- ./inp_files/21567.got.cif
#   From: 2010.05.17/outbox.cif.g08.bks.cpg/sg54_11_cif.got.tgz:21567.got - 2010.06.03 13:09:01.
