data_PCOD9421233
_publ_section_title
;
Structure prediction by ZEFSAII (Michael W. Deem and Ramdas Pophale) SiO2 
 PCOD9421233
Probable space group: P C C A
;
_chemical_formula_sum "Si O2"
_cell_formula_units_Z 52
_cell_length_a 19.551398
_cell_length_b 21.691191
_cell_length_c 5.466940
_cell_angle_alpha 90.000000
_cell_angle_beta 90.000000
_cell_angle_gamma 90.000000
_cell_volume 2318.491578
_symmetry_space_group_name_H-M "P C C A"
_symmetry_group_IT_number 54
_symmetry_cell_setting 'orthorhombic'
loop_
_space_group_symop_operation_xyz
x,y,z
1/2-x,-y,z
1/2+x,-y,1/2-z
-x,y,1/2-z
-x,-y,-z
1/2+x,y,-z
1/2-x,y,1/2+z
x,-y,1/2+z
loop_
_atom_site_type_symbol
_atom_site_label
_atom_site_fract_x
_atom_site_fract_y
_atom_site_fract_z
Si Si1 0.861428 0.711579 0.247237
Si Si2 0.000000 0.631244 0.250000
Si Si3 0.000000 0.375077 0.250000
Si Si4 0.289084 0.827466 0.850445
Si Si5 0.328208 0.477641 0.920505
Si Si6 0.500000 0.960799 0.750000
Si Si7 0.847350 0.661169 0.747551
Si Si8 0.348175 0.959587 0.785566
O O1 0.934416 0.676780 0.258286
O O2 0.855366 0.783751 0.188083
O O3 0.828769 0.701503 0.513432
O O4 0.823759 0.678447 0.018713
O O5 0.999367 0.591136 0.493850
O O6 0.069470 0.335930 0.239330
O O7 0.239235 0.813627 0.621214
O O8 0.301879 0.900190 0.821920
O O9 0.250000 0.500000 0.954507
O O10 0.358950 0.516350 0.693108
O O11 0.329494 0.408273 0.824319
O O12 0.500000 0.000000 0.500000
O O13 0.425336 0.931405 0.765147
O O14 0.339546 0.997564 0.529758
#
# Coordination Sequence:
#
# PCOD9421233 Si02
#       8
#     8   4   4   8   8   4   8   8
#     4  10  21  39  60  88 112 154 188 241 301 338
#     4   8  16  33  60  83 110 139 196 233 284 362
#     4   8  16  30  56  86 108 138 184 236 278 354
#     4  12  26  42  55  86 127 151 205 249 270 355
#     4  10  21  38  53  80 112 142 192 239 259 329
#     4   8  16  33  58  91 116 139 196 249 292 350
#     4  10  19  38  61  82 114 150 186 231 300 344
#     4  10  21  39  64  87 116 160 196 244 303 342
#
# _framework density 22.428374999999999
#
# number of rings (size 3 to 8) (size 9 to 14) (size 15 to 20)
#    0.000    2.154    0.000    2.769    0.000    2.462 
#   16.615    0.769    0.000   12.923    0.000    0.000 
#    0.000    0.000    0.000    0.000    0.000    0.000 
#
# Total GULP energy -289622.241514 kJ/mol
# GULP energy per Si atom -5569.658491 kJ/mol
# Density = 2.237733 g / cm^3
# Si number density = 22.428375 Si / 1000 Ang^3
#
#
#
# Elastic Constant Matrix: (Units=GPa)
#
#
# Indices 1 2 3 4 5 6 
#
# 1 71.7748 -2.8781 -4.1910 0.0000 0.0000 0.0000
# 2 -2.8781 64.7823 -3.1417 0.0000 0.0000 0.0000
# 3 -4.1910 -3.1417 202.3314 0.0000 0.0000 0.0000
# 4 0.0000 0.0000 0.0000 29.6893 0.0000 0.0000
# 5 0.0000 0.0000 0.0000 0.0000 11.2148 0.0000
# 6 0.0000 0.0000 0.0000 0.0000 0.0000 14.9815
#
#
#
# Elastic Compliance Matrix: (Units=1/GPa)
#
#
# Indices 1 2 3 4 5 6 
#
# 1 0.013975 0.000635 0.000299 0.000000 0.000000 0.000000
# 2 0.000635 0.015477 0.000253 0.000000 0.000000 0.000000
# 3 0.000299 0.000253 0.004953 0.000000 0.000000 0.000000
# 4 0.000000 0.000000 0.000000 0.033682 0.000000 0.000000
# 5 0.000000 0.000000 0.000000 0.000000 0.089168 0.000000
# 6 0.000000 0.000000 0.000000 0.000000 0.000000 0.066749
#
#
# Mechanical properties :
#
#
# Convention : Reuss Voigt Hill
#
# Bulk Modulus (GPa) = 27.18775 35.38520 31.28647
# Shear Modulus (GPa) = 21.37778 34.45041 27.91410
#
# Velocity S-wave (km/s) = 3.09067 3.92346 3.53170
# Velocity P-wave (km/s) = 4.98846 6.02793 5.53266
#
# Compressibility (1/GPa) = 0.03678128
#
# Stress axis : x y z
#
# Youngs Moduli (GPa) = 71.55417 64.61264 201.91729
#
# Poissons Ratio (x) = -0.04106 -0.06044
# Poissons Ratio (y) = -0.04547 -0.05118
# Poissons Ratio (z) = -0.02142 -0.01638
#
# Static dielectric constant tensor:
#      x y z
#    x 1.969650 0.000000 0.000000 
#    y 0.000000 1.769000 0.000000 
#    z 0.000000 0.000000 1.923180 
# 
# From -- ./inp_files/1392.got.cif
#   From: 2010.05.17/outbox.cif.g08.bks.cpg/sg54_1_cif.got.tgz:1392.got - 2010.06.03 13:09:01.
