data_PCOD9421381
_publ_section_title
;
Structure prediction by ZEFSAII (Michael W. Deem and Ramdas Pophale) SiO2 
 PCOD9421381
Probable space group: P C C A
;
_chemical_formula_sum "Si O2"
_cell_formula_units_Z 32
_cell_length_a 5.363728
_cell_length_b 11.955415
_cell_length_c 19.223169
_cell_angle_alpha 90.000000
_cell_angle_beta 90.000000
_cell_angle_gamma 90.000000
_cell_volume 1232.697134
_symmetry_space_group_name_H-M "P C C A"
_symmetry_group_IT_number 54
_symmetry_cell_setting 'orthorhombic'
loop_
_space_group_symop_operation_xyz
x,y,z
1/2-x,-y,z
1/2+x,-y,1/2-z
-x,y,1/2-z
-x,-y,-z
1/2+x,y,-z
1/2-x,y,1/2+z
x,-y,1/2+z
loop_
_atom_site_type_symbol
_atom_site_label
_atom_site_fract_x
_atom_site_fract_y
_atom_site_fract_z
Si Si1 0.000000 0.202950 0.250000
Si Si2 0.351301 0.165679 0.479197
Si Si3 0.838573 0.686115 0.147127
Si Si4 0.334071 0.615385 0.079266
Si Si5 0.750000 0.000000 0.788765
O O1 0.221310 0.276782 0.280324
O O2 0.882910 0.118592 0.309405
O O3 0.597847 0.107152 0.503364
O O4 0.358976 0.201502 0.399625
O O5 0.333951 0.280938 0.525699
O O6 0.607118 0.616758 0.113344
O O7 0.109260 0.632218 0.135392
O O8 0.250000 0.500000 0.043770
O O9 0.500000 0.954476 0.750000
#
# Coordination Sequence:
#
# PCOD9421381 Si02
#       5
#     4   8   8   8   4
#     4  10  22  38  58  84 108 130 184 222 292 346
#     4   8  16  30  46  75  99 136 178 221 259 291
#     4  10  21  31  55  77 107 142 176 229 267 312
#     4  10  20  34  52  78 109 148 192 222 252 298
#     4   8  20  36  60  80 100 130 176 232 276 338
#
# _framework density 25.959340000000001
#
# number of rings (size 3 to 8) (size 9 to 14) (size 15 to 20)
#    0.750    2.000    0.000    0.750    3.500    9.000 
#    0.000    2.500    0.000    0.000    0.000   47.250 
#    0.000    0.000    0.000    0.000    0.000    0.000 
#
# Total GULP energy -178209.513686 kJ/mol
# GULP energy per Si atom -5569.047303 kJ/mol
# Density = 2.590026 g / cm^3
# Si number density = 25.959340 Si / 1000 Ang^3
#
#
#
# Elastic Constant Matrix: (Units=GPa)
#
#
# Indices 1 2 3 4 5 6 
#
# 1 216.3378 14.0363 18.6883 0.0000 0.0000 0.0000
# 2 14.0363 85.5577 12.2735 0.0000 0.0000 0.0000
# 3 18.6883 12.2735 64.5390 0.0000 0.0000 0.0000
# 4 0.0000 0.0000 0.0000 18.2984 0.0000 0.0000
# 5 0.0000 0.0000 0.0000 0.0000 44.0974 0.0000
# 6 0.0000 0.0000 0.0000 0.0000 0.0000 38.4052
#
#
#
# Elastic Compliance Matrix: (Units=1/GPa)
#
#
# Indices 1 2 3 4 5 6 
#
# 1 0.004771 -0.000601 -0.001267 0.000000 0.000000 0.000000
# 2 -0.000601 0.012092 -0.002125 0.000000 0.000000 0.000000
# 3 -0.001267 -0.002125 0.016266 0.000000 0.000000 0.000000
# 4 0.000000 0.000000 0.000000 0.054650 0.000000 0.000000
# 5 0.000000 0.000000 0.000000 0.000000 0.022677 0.000000
# 6 0.000000 0.000000 0.000000 0.000000 0.000000 0.026038
#
#
# Mechanical properties :
#
#
# Convention : Reuss Voigt Hill
#
# Bulk Modulus (GPa) = 39.77589 50.71453 45.24521
# Shear Modulus (GPa) = 32.70960 41.58928 37.14944
#
# Velocity S-wave (km/s) = 3.55354 4.00696 3.78704
# Velocity P-wave (km/s) = 5.67385 6.40204 6.04891
#
# Compressibility (1/GPa) = 0.02514086
#
# Stress axis : x y z
#
# Youngs Moduli (GPa) = 209.60604 82.70272 61.47930
#
# Poissons Ratio (x) = 0.04970 0.07791
# Poissons Ratio (y) = 0.12595 0.13067
# Poissons Ratio (z) = 0.26561 0.17578
#
# Static dielectric constant tensor:
#      x y z
#    x 2.188050 0.000000 0.000000 
#    y 0.000000 2.083220 0.000000 
#    z 0.000000 0.000000 2.108980 
# 
# From -- ./inp_files/25132.got.cif
#   From: 2010.05.17/outbox.cif.g08.bks.cpg/sg54_13_cif.got.tgz:25132.got - 2010.06.03 13:09:01.
