data_PCOD9421409
_publ_section_title
;
Structure prediction by ZEFSAII (Michael W. Deem and Ramdas Pophale) SiO2 
 PCOD9421409
Probable space group: P C C A
;
_chemical_formula_sum "Si O2"
_cell_formula_units_Z 48
_cell_length_a 13.638722
_cell_length_b 8.803438
_cell_length_c 20.650266
_cell_angle_alpha 90.000000
_cell_angle_beta 90.000000
_cell_angle_gamma 90.000000
_cell_volume 2479.428777
_symmetry_space_group_name_H-M "P C C A"
_symmetry_group_IT_number 54
_symmetry_cell_setting 'orthorhombic'
loop_
_space_group_symop_operation_xyz
x,y,z
1/2-x,-y,z
1/2+x,-y,1/2-z
-x,y,1/2-z
-x,-y,-z
1/2+x,y,-z
1/2-x,y,1/2+z
x,-y,1/2+z
loop_
_atom_site_type_symbol
_atom_site_label
_atom_site_fract_x
_atom_site_fract_y
_atom_site_fract_z
Si Si1 0.499432 0.779665 0.537811
Si Si2 0.730533 0.182031 0.046930
Si Si3 0.210505 0.827786 0.680345
Si Si4 0.815865 0.648609 0.423336
Si Si5 0.820084 0.147881 0.175333
Si Si6 0.517623 0.101284 0.897013
O O1 0.615822 0.778116 0.548549
O O2 0.432529 0.642949 0.564098
O O3 0.486751 0.805667 0.461021
O O4 0.463237 0.931999 0.575336
O O5 0.778659 0.239535 0.113732
O O6 0.750000 0.000000 0.044698
O O7 0.777537 0.246891 0.982151
O O8 0.290527 0.724652 0.645122
O O9 0.185261 0.780506 0.753681
O O10 0.113428 0.830088 0.636094
O O11 0.250000 0.000000 0.681133
O O12 0.750000 0.500000 0.427668
O O13 0.929135 0.099209 0.154269
O O14 0.750000 0.000000 0.179088
#
# Coordination Sequence:
#
# PCOD9421409 Si02
#       6
#     8   8   8   8   8   8
#     4  11  20  33  62  92 119 150 202 257 309 354
#     4  11  19  39  64  90 120 148 199 266 316 361
#     4  11  22  37  59  88 121 159 199 253 306 370
#     4  12  25  40  58  85 125 168 206 246 300 370
#     4  10  20  34  58  94 122 148 193 257 318 363
#     4  11  18  33  62  93 117 148 195 261 307 357
#
# _framework density 19.359297000000002
#
# number of rings (size 3 to 8) (size 9 to 14) (size 15 to 20)
#    0.000    1.000    8.333    2.000    0.000    0.667 
#    0.000    1.667    0.000    2.000    0.000    0.000 
#    0.000    0.000    0.000    0.000    0.000    0.000 
#
# Total GULP energy -267871.287563 kJ/mol
# GULP energy per Si atom -5580.651824 kJ/mol
# Density = 1.931523 g / cm^3
# Si number density = 19.359297 Si / 1000 Ang^3
#
#
#
# Elastic Constant Matrix: (Units=GPa)
#
#
# Indices 1 2 3 4 5 6 
#
# 1 116.5538 8.9293 23.4348 0.0000 0.0000 0.0000
# 2 8.9293 28.2596 16.6024 0.0000 0.0000 0.0000
# 3 23.4348 16.6024 147.1702 0.0000 0.0000 0.0000
# 4 0.0000 0.0000 0.0000 -3.2279 0.0000 0.0000
# 5 0.0000 0.0000 0.0000 0.0000 41.4050 0.0000
# 6 0.0000 0.0000 0.0000 0.0000 0.0000 23.4241
#
#
#
# Elastic Compliance Matrix: (Units=1/GPa)
#
#
# Indices 1 2 3 4 5 6 
#
# 1 0.008983 -0.002140 -0.001189 0.000000 0.000000 0.000000
# 2 -0.002140 0.038408 -0.003992 0.000000 0.000000 0.000000
# 3 -0.001189 -0.003992 0.007435 0.000000 0.000000 0.000000
# 4 0.000000 0.000000 0.000000 -0.309795 0.000000 0.000000
# 5 0.000000 0.000000 0.000000 0.000000 0.024152 0.000000
# 6 0.000000 0.000000 0.000000 0.000000 0.000000 0.042691
#
#
# Mechanical properties :
#
#
# Convention : Reuss Voigt Hill
#
# Bulk Modulus (GPa) = 24.88600 43.32407 34.10503
# Shear Modulus (GPa) = -31.23218 28.52138 -1.35540
#
# Velocity S-wave (km/s) = -4.02094 3.84248 -0.83764
# Velocity P-wave (km/s) = 2.94526 6.48951 4.08896
#
# Compressibility (1/GPa) = 0.04018324
#
# Stress axis : x y z
#
# Youngs Moduli (GPa) = 111.32484 26.03649 134.50753
#
# Poissons Ratio (x) = 0.05571 0.15993
# Poissons Ratio (y) = 0.23821 0.53696
# Poissons Ratio (z) = 0.13236 0.10394
#
# Static dielectric constant tensor:
#      x y z
#    x 1.750330 0.000000 0.000000 
#    y 0.000000 1.682020 0.000000 
#    z 0.000000 0.000000 1.689310 
# 
# From -- ./inp_files/21454.got.cif
#   From: 2010.05.17/outbox.cif.g08.bks.cpg/sg54_11_cif.got.tgz:21454.got - 2010.06.03 13:09:01.
