data_PCOD9421684
_publ_section_title
;
Structure prediction by ZEFSAII (Michael W. Deem and Ramdas Pophale) SiO2 
 PCOD9421684
Probable space group: P C C A
;
_chemical_formula_sum "Si O2"
_cell_formula_units_Z 40
_cell_length_a 13.784967
_cell_length_b 7.574509
_cell_length_c 19.377060
_cell_angle_alpha 90.000000
_cell_angle_beta 90.000000
_cell_angle_gamma 90.000000
_cell_volume 2023.243253
_symmetry_space_group_name_H-M "P C C A"
_symmetry_group_IT_number 54
_symmetry_cell_setting 'orthorhombic'
loop_
_space_group_symop_operation_xyz
x,y,z
1/2-x,-y,z
1/2+x,-y,1/2-z
-x,y,1/2-z
-x,-y,-z
1/2+x,y,-z
1/2-x,y,1/2+z
x,-y,1/2+z
loop_
_atom_site_type_symbol
_atom_site_label
_atom_site_fract_x
_atom_site_fract_y
_atom_site_fract_z
Si Si1 0.617241 0.839685 0.306524
Si Si2 0.157521 0.767895 0.172494
Si Si3 0.637538 0.520146 0.209597
Si Si4 0.355302 0.591849 0.528008
Si Si5 0.017379 0.639918 0.907651
O O1 0.725860 0.789376 0.330714
O O2 0.612871 0.714908 0.239316
O O3 0.536696 0.785419 0.361884
O O4 0.615542 0.049387 0.298586
O O5 0.129575 0.612531 0.225657
O O6 0.133885 0.719059 0.094080
O O7 0.750000 0.500000 0.187255
O O8 0.564553 0.498877 0.146029
O O9 0.250000 0.500000 0.522607
O O10 0.431087 0.437341 0.546158
O O11 0.393998 0.685404 0.458696
#
# Coordination Sequence:
#
# PCOD9421684 Si02
#       5
#     8   8   8   8   8
#     4  10  20  37  62  89 113 157 203 240 294 366
#     4  10  20  38  65  82 120 160 195 244 304 350
#     4  10  20  40  60  87 122 156 192 248 301 350
#     4  11  21  39  61  86 116 160 197 242 305 354
#     4  11  22  36  61  90 118 152 204 244 293 360
#
# _framework density 19.770237000000002
#
# number of rings (size 3 to 8) (size 9 to 14) (size 15 to 20)
#    0.000    1.600    4.000    1.800    0.000    0.800 
#    7.200    0.000    0.000    2.400    0.000    0.000 
#    0.000    0.000    0.000    0.000    0.000    0.000 
#
# Total GULP energy -222890.089796 kJ/mol
# GULP energy per Si atom -5572.252245 kJ/mol
# Density = 1.972524 g / cm^3
# Si number density = 19.770237 Si / 1000 Ang^3
#
#
#
# Elastic Constant Matrix: (Units=GPa)
#
#
# Indices 1 2 3 4 5 6 
#
# 1 116.7120 33.0103 54.2838 0.0000 0.0000 0.0000
# 2 33.0103 70.4767 18.3885 0.0000 0.0000 0.0000
# 3 54.2838 18.3885 76.1710 0.0000 0.0000 0.0000
# 4 0.0000 0.0000 0.0000 5.0616 0.0000 0.0000
# 5 0.0000 0.0000 0.0000 0.0000 34.3979 0.0000
# 6 0.0000 0.0000 0.0000 0.0000 0.0000 17.0554
#
#
#
# Elastic Compliance Matrix: (Units=1/GPa)
#
#
# Indices 1 2 3 4 5 6 
#
# 1 0.013884 -0.004185 -0.008884 0.000000 0.000000 0.000000
# 2 -0.004185 0.016404 -0.000978 0.000000 0.000000 0.000000
# 3 -0.008884 -0.000978 0.019696 0.000000 0.000000 0.000000
# 4 0.000000 0.000000 0.000000 0.197564 0.000000 0.000000
# 5 0.000000 0.000000 0.000000 0.000000 0.029072 0.000000
# 6 0.000000 0.000000 0.000000 0.000000 0.000000 0.058633
#
#
# Mechanical properties :
#
#
# Convention : Reuss Voigt Hill
#
# Bulk Modulus (GPa) = 45.68238 52.74722 49.21480
# Shear Modulus (GPa) = 13.49007 21.81478 17.65242
#
# Velocity S-wave (km/s) = 2.61500 3.32537 2.99135
# Velocity P-wave (km/s) = 5.68106 6.44067 6.07275
#
# Compressibility (1/GPa) = 0.02189028
#
# Stress axis : x y z
#
# Youngs Moduli (GPa) = 72.02606 60.95931 50.77238
#
# Poissons Ratio (x) = 0.25512 0.45107
# Poissons Ratio (y) = 0.30143 0.04964
# Poissons Ratio (z) = 0.63989 0.05960
#
# Static dielectric constant tensor:
#      x y z
#    x 1.746210 0.000000 0.000000 
#    y 0.000000 1.696830 0.000000 
#    z 0.000000 0.000000 1.707790 
# 
# From -- ./inp_files/17806.got.cif
#   From: 2010.05.17/outbox.cif.g08.bks.cpg/sg54_9_cif.got.tgz:17806.got - 2010.06.03 13:09:01.
