data_PCOD9421200
_publ_section_title
;
Structure prediction by ZEFSAII (Michael W. Deem and Ramdas Pophale) SiO2 
 PCOD9421200
Probable space group: P C C A
;
_chemical_formula_sum "Si O2"
_cell_formula_units_Z 40
_cell_length_a 15.194242
_cell_length_b 12.938750
_cell_length_c 9.391455
_cell_angle_alpha 90.000000
_cell_angle_beta 90.000000
_cell_angle_gamma 90.000000
_cell_volume 1846.308388
_symmetry_space_group_name_H-M "P C C A"
_symmetry_group_IT_number 54
_symmetry_cell_setting 'orthorhombic'
loop_
_space_group_symop_operation_xyz
x,y,z
1/2-x,-y,z
1/2+x,-y,1/2-z
-x,y,1/2-z
-x,-y,-z
1/2+x,y,-z
1/2-x,y,1/2+z
x,-y,1/2+z
loop_
_atom_site_type_symbol
_atom_site_label
_atom_site_fract_x
_atom_site_fract_y
_atom_site_fract_z
Si Si1 0.685199 0.883337 0.193599
Si Si2 0.475304 0.754647 0.911454
Si Si3 0.565630 0.542206 0.619724
Si Si4 0.090080 0.676465 0.844263
Si Si5 0.356684 0.935683 0.986519
O O1 0.654764 0.765245 0.207644
O O2 0.675296 0.932700 0.350387
O O3 0.780865 0.891444 0.120101
O O4 0.627379 0.951547 0.081748
O O5 0.500000 0.777959 0.750000
O O6 0.405359 0.657945 0.919413
O O7 0.436844 0.857363 0.978614
O O8 0.558499 0.712897 0.999739
O O9 0.500000 0.560650 0.750000
O O10 0.500000 0.500000 0.500000
O O11 0.624527 0.441926 0.653883
O O12 0.000000 0.676490 0.750000
#
# Coordination Sequence:
#
# PCOD9421200 Si02
#       5
#     8   8   8   8   8
#     4  11  24  40  60  79 114 152 186 234 285 340
#     4  10  21  35  60  89 114 146 188 233 273 331
#     4   8  16  32  55  82 114 145 177 222 280 330
#     4  10  19  37  60  86 113 146 186 231 279 328
#     4  11  24  41  58  81 113 151 190 229 288 336
#
# _framework density 21.664853999999998
#
# number of rings (size 3 to 8) (size 9 to 14) (size 15 to 20)
#    0.000    2.000    2.000    2.400    5.600    1.600 
#    0.000    1.000    0.000    2.400    0.000    0.000 
#    0.000    0.000    0.000    0.000    0.000    0.000 
#
# Total GULP energy -222845.514122 kJ/mol
# GULP energy per Si atom -5571.137853 kJ/mol
# Density = 2.161554 g / cm^3
# Si number density = 21.664854 Si / 1000 Ang^3
#
#
#
# Elastic Constant Matrix: (Units=GPa)
#
#
# Indices 1 2 3 4 5 6 
#
# 1 21.4218 19.0513 0.9043 0.0000 0.0000 0.0000
# 2 19.0513 105.8095 -33.6911 0.0000 0.0000 0.0000
# 3 0.9043 -33.6911 125.4039 0.0000 0.0000 0.0000
# 4 0.0000 0.0000 0.0000 15.9954 0.0000 0.0000
# 5 0.0000 0.0000 0.0000 0.0000 17.2322 0.0000
# 6 0.0000 0.0000 0.0000 0.0000 0.0000 -3.4764
#
#
#
# Elastic Compliance Matrix: (Units=1/GPa)
#
#
# Indices 1 2 3 4 5 6 
#
# 1 0.056922 -0.011351 -0.003460 0.000000 0.000000 0.000000
# 2 -0.011351 0.012598 0.003467 0.000000 0.000000 0.000000
# 3 -0.003460 0.003467 0.008931 0.000000 0.000000 0.000000
# 4 0.000000 0.000000 0.000000 0.062518 0.000000 0.000000
# 5 0.000000 0.000000 0.000000 0.000000 0.058031 0.000000
# 6 0.000000 0.000000 0.000000 0.000000 0.000000 -0.287653
#
#
# Mechanical properties :
#
#
# Convention : Reuss Voigt Hill
#
# Bulk Modulus (GPa) = 17.93305 25.01823 21.47564
# Shear Modulus (GPa) = -105.53525 23.70828 -40.91349
#
# Velocity S-wave (km/s) = -6.98702 3.31164 -4.35037
# Velocity P-wave (km/s) = 7.53630 5.11816 3.91154
#
# Compressibility (1/GPa) = 0.05576296
#
# Stress axis : x y z
#
# Youngs Moduli (GPa) = 17.56790 79.37478 111.97566
#
# Poissons Ratio (x) = 0.90095 0.38743
# Poissons Ratio (y) = 0.19941 -0.38817
# Poissons Ratio (z) = 0.06078 -0.27516
#
# Static dielectric constant tensor:
#      x y z
#    x 1.809910 0.000000 0.000000 
#    y 0.000000 1.913040 0.000000 
#    z 0.000000 0.000000 1.743610 
# 
# From -- ./inp_files/3431.got.cif
#   From: 2010.05.17/outbox.cif.g08.bks.cpg/sg54_2_cif.got.tgz:3431.got - 2010.06.03 13:09:01.
