data_PCOD9421319
_publ_section_title
;
Structure prediction by ZEFSAII (Michael W. Deem and Ramdas Pophale) SiO2 
 PCOD9421319
Probable space group: P C C A
;
_chemical_formula_sum "Si O2"
_cell_formula_units_Z 40
_cell_length_a 8.384244
_cell_length_b 7.935853
_cell_length_c 25.850513
_cell_angle_alpha 90.000000
_cell_angle_beta 90.000000
_cell_angle_gamma 90.000000
_cell_volume 1719.993039
_symmetry_space_group_name_H-M "P C C A"
_symmetry_group_IT_number 54
_symmetry_cell_setting 'orthorhombic'
loop_
_space_group_symop_operation_xyz
x,y,z
1/2-x,-y,z
1/2+x,-y,1/2-z
-x,y,1/2-z
-x,-y,-z
1/2+x,y,-z
1/2-x,y,1/2+z
x,-y,1/2+z
loop_
_atom_site_type_symbol
_atom_site_label
_atom_site_fract_x
_atom_site_fract_y
_atom_site_fract_z
Si Si1 0.692049 0.816041 0.018727
Si Si2 0.070625 0.287392 0.695026
Si Si3 0.738933 0.703454 0.633047
Si Si4 0.578677 0.662532 0.338793
Si Si5 0.588010 0.378283 0.959302
O O1 0.764763 0.752185 0.073034
O O2 0.507254 0.796793 0.030522
O O3 0.750000 0.000000 0.007528
O O4 0.738246 0.680702 0.975231
O O5 0.254160 0.247043 0.677529
O O6 0.069937 0.492884 0.694995
O O7 0.000000 0.229049 0.750000
O O8 0.928084 0.236713 0.656346
O O9 0.750000 0.500000 0.636815
O O10 0.906827 0.758710 0.660580
O O11 0.584884 0.592878 0.398269
O O12 0.500000 0.500000 0.000000
#
# Coordination Sequence:
#
# PCOD9421319 Si02
#       5
#     8   8   8   8   8
#     4  11  23  37  58  90 124 166 203 254 314 375
#     4  10  20  31  55  86 116 151 197 265 320 358
#     4   9  19  37  55  83 120 156 203 249 306 376
#     4   9  21  32  51  86 119 153 198 248 311 365
#     4  11  22  38  61  87 127 168 207 254 310 384
#
# _framework density 23.255908000000002
#
# number of rings (size 3 to 8) (size 9 to 14) (size 15 to 20)
#    0.000    2.000    0.000    4.800   16.800    0.000 
#    0.000    0.000    0.000    0.000   10.400    0.000 
#    0.000    0.000    0.000    0.000    0.000    0.000 
#
# Total GULP energy -222705.053167 kJ/mol
# GULP energy per Si atom -5567.626329 kJ/mol
# Density = 2.320298 g / cm^3
# Si number density = 23.255908 Si / 1000 Ang^3
#
#
#
# Elastic Constant Matrix: (Units=GPa)
#
#
# Indices 1 2 3 4 5 6 
#
# 1 168.1168 6.4064 35.2109 0.0000 0.0000 0.0000
# 2 6.4064 27.4990 -0.7589 0.0000 0.0000 0.0000
# 3 35.2109 -0.7589 84.4465 0.0000 0.0000 0.0000
# 4 0.0000 0.0000 0.0000 -1.4995 0.0000 0.0000
# 5 0.0000 0.0000 0.0000 0.0000 24.8971 0.0000
# 6 0.0000 0.0000 0.0000 0.0000 0.0000 -3.5332
#
#
#
# Elastic Compliance Matrix: (Units=1/GPa)
#
#
# Indices 1 2 3 4 5 6 
#
# 1 0.006588 -0.001611 -0.002761 0.000000 0.000000 0.000000
# 2 -0.001611 0.036768 0.001002 0.000000 0.000000 0.000000
# 3 -0.002761 0.001002 0.013002 0.000000 0.000000 0.000000
# 4 0.000000 0.000000 0.000000 -0.666911 0.000000 0.000000
# 5 0.000000 0.000000 0.000000 0.000000 0.040165 0.000000
# 6 0.000000 0.000000 0.000000 0.000000 0.000000 -0.283030
#
#
# Mechanical properties :
#
#
# Convention : Reuss Voigt Hill
#
# Bulk Modulus (GPa) = 20.15415 40.19769 30.17592
# Shear Modulus (GPa) = -6.02309 19.91982 6.94836
#
# Velocity S-wave (km/s) = -1.61107 2.92986 1.73040
# Velocity P-wave (km/s) = 2.28568 5.36357 4.12264
#
# Compressibility (1/GPa) = 0.04961756
#
# Stress axis : x y z
#
# Youngs Moduli (GPa) = 151.79122 27.19763 76.90989
#
# Poissons Ratio (x) = 0.04382 0.21238
# Poissons Ratio (y) = 0.24453 -0.07707
# Poissons Ratio (z) = 0.41916 -0.02726
#
# Static dielectric constant tensor:
#      x y z
#    x 1.786570 0.000000 0.000000 
#    y 0.000000 1.900180 0.000000 
#    z 0.000000 0.000000 1.929140 
# 
# From -- ./inp_files/25722.got.cif
#   From: 2010.05.17/outbox.cif.g08.bks.cpg/sg54_13_cif.got.tgz:25722.got - 2010.06.03 13:09:01.
