data_PCOD9421368
_publ_section_title
;
Structure prediction by ZEFSAII (Michael W. Deem and Ramdas Pophale) SiO2 
 PCOD9421368
Probable space group: P C C A
;
_chemical_formula_sum "Si O2"
_cell_formula_units_Z 40
_cell_length_a 18.235961
_cell_length_b 9.197912
_cell_length_c 12.504928
_cell_angle_alpha 90.000000
_cell_angle_beta 90.000000
_cell_angle_gamma 90.000000
_cell_volume 2097.486143
_symmetry_space_group_name_H-M "P C C A"
_symmetry_group_IT_number 54
_symmetry_cell_setting 'orthorhombic'
loop_
_space_group_symop_operation_xyz
x,y,z
1/2-x,-y,z
1/2+x,-y,1/2-z
-x,y,1/2-z
-x,-y,-z
1/2+x,y,-z
1/2-x,y,1/2+z
x,-y,1/2+z
loop_
_atom_site_type_symbol
_atom_site_label
_atom_site_fract_x
_atom_site_fract_y
_atom_site_fract_z
Si Si1 0.078198 0.065596 0.973244
Si Si2 0.675526 0.797232 0.956331
Si Si3 0.219312 0.659778 0.836190
Si Si4 0.834322 0.169072 0.345855
Si Si5 0.644720 0.853789 0.735965
O O1 0.139024 0.936840 0.986386
O O2 0.102280 0.175322 0.066441
O O3 0.084194 0.131179 0.855317
O O4 0.000000 0.000000 0.000000
O O5 0.757272 0.825157 0.909960
O O6 0.630584 0.767982 0.846937
O O7 0.683606 0.678101 0.047738
O O8 0.250000 0.500000 0.821395
O O9 0.165160 0.704157 0.740914
O O10 0.285415 0.777886 0.821217
O O11 0.840103 0.016870 0.280788
#
# Coordination Sequence:
#
# PCOD9421368 Si02
#       5
#     8   8   8   8   8
#     4  11  21  35  59  89 118 153 196 253 309 365
#     4  10  20  33  56  86 116 145 195 249 304 354
#     4  11  21  35  59  89 120 154 195 246 307 364
#     4  10  21  35  61  87 115 149 200 264 303 354
#     4  10  20  35  57  83 119 146 194 256 305 351
#
# _framework density 19.070447999999999
#
# number of rings (size 3 to 8) (size 9 to 14) (size 15 to 20)
#    0.000    1.600    4.000    5.400    0.000    6.400 
#    0.000    0.000    0.000    1.200   15.600    0.000 
#    0.000    0.000    0.000    0.000    0.000    0.000 
#
# Total GULP energy -222930.159778 kJ/mol
# GULP energy per Si atom -5573.253994 kJ/mol
# Density = 1.902704 g / cm^3
# Si number density = 19.070448 Si / 1000 Ang^3
#
#
#
# Elastic Constant Matrix: (Units=GPa)
#
#
# Indices 1 2 3 4 5 6 
#
# 1 45.0542 8.8905 36.9815 0.0000 0.0000 0.0000
# 2 8.8905 61.0800 49.8714 0.0000 0.0000 0.0000
# 3 36.9815 49.8714 166.2067 0.0000 0.0000 0.0000
# 4 0.0000 0.0000 0.0000 13.9139 0.0000 0.0000
# 5 0.0000 0.0000 0.0000 0.0000 11.5871 0.0000
# 6 0.0000 0.0000 0.0000 0.0000 0.0000 13.5262
#
#
#
# Elastic Compliance Matrix: (Units=1/GPa)
#
#
# Indices 1 2 3 4 5 6 
#
# 1 0.027233 0.001303 -0.006450 0.000000 0.000000 0.000000
# 2 0.001303 0.021747 -0.006815 0.000000 0.000000 0.000000
# 3 -0.006450 -0.006815 0.009497 0.000000 0.000000 0.000000
# 4 0.000000 0.000000 0.000000 0.071871 0.000000 0.000000
# 5 0.000000 0.000000 0.000000 0.000000 0.086303 0.000000
# 6 0.000000 0.000000 0.000000 0.000000 0.000000 0.073930
#
#
# Mechanical properties :
#
#
# Convention : Reuss Voigt Hill
#
# Bulk Modulus (GPa) = 28.94260 51.53642 40.23951
# Shear Modulus (GPa) = 15.33635 19.57861 17.45748
#
# Velocity S-wave (km/s) = 2.83891 3.20761 3.02887
# Velocity P-wave (km/s) = 5.09465 6.38758 5.77740
#
# Compressibility (1/GPa) = 0.03455115
#
# Stress axis : x y z
#
# Youngs Moduli (GPa) = 36.72017 45.98355 105.29912
#
# Poissons Ratio (x) = -0.05990 0.67921
# Poissons Ratio (y) = -0.04784 0.71763
# Poissons Ratio (z) = 0.23686 0.31339
#
# Static dielectric constant tensor:
#      x y z
#    x 1.671250 0.000000 0.000000 
#    y 0.000000 1.656730 0.000000 
#    z 0.000000 0.000000 1.743600 
# 
# From -- ./inp_files/9414.got.cif
#   From: 2010.05.17/outbox.cif.g08.bks.cpg/sg54_5_cif.got.tgz:9414.got - 2010.06.03 13:09:01.
