data_PCOD9421909
_publ_section_title
;
Structure prediction by ZEFSAII (Michael W. Deem and Ramdas Pophale) SiO2 
 PCOD9421909
Probable space group: P C C A
;
_chemical_formula_sum "Si O2"
_cell_formula_units_Z 48
_cell_length_a 9.691794
_cell_length_b 15.930944
_cell_length_c 16.897572
_cell_angle_alpha 90.000000
_cell_angle_beta 90.000000
_cell_angle_gamma 90.000000
_cell_volume 2608.975442
_symmetry_space_group_name_H-M "P C C A"
_symmetry_group_IT_number 54
_symmetry_cell_setting 'orthorhombic'
loop_
_space_group_symop_operation_xyz
x,y,z
1/2-x,-y,z
1/2+x,-y,1/2-z
-x,y,1/2-z
-x,-y,-z
1/2+x,y,-z
1/2-x,y,1/2+z
x,-y,1/2+z
loop_
_atom_site_type_symbol
_atom_site_label
_atom_site_fract_x
_atom_site_fract_y
_atom_site_fract_z
Si Si1 0.837036 0.916908 0.740709
Si Si2 0.773204 0.752931 0.170020
Si Si3 0.505078 0.337300 0.620992
Si Si4 0.248895 0.775317 0.159954
Si Si5 0.523636 0.697982 0.933728
Si Si6 0.913673 0.488462 0.919264
O O1 0.783707 0.871600 0.821326
O O2 0.000000 0.931567 0.750000
O O3 0.198926 0.844524 0.824283
O O4 0.750000 0.000000 0.725261
O O5 0.654579 0.685401 0.153384
O O6 0.827926 0.744643 0.259913
O O7 0.891597 0.740723 0.106088
O O8 0.390678 0.276130 0.657194
O O9 0.505184 0.317999 0.526755
O O10 0.463241 0.433910 0.634021
O O11 0.156391 0.754690 0.085156
O O12 0.554244 0.606680 0.894656
O O13 0.750000 0.500000 0.933315
O O14 0.000000 0.500000 0.000000
#
# Coordination Sequence:
#
# PCOD9421909 Si02
#       6
#     8   8   8   8   8   8
#     4  10  22  39  67  88 115 154 196 235 295 376
#     4  10  22  38  59  90 116 152 199 240 300 351
#     4  11  20  39  60  82 122 161 200 242 287 341
#     4  10  20  40  59  87 120 147 200 240 296 350
#     4  11  22  35  61  88 117 159 204 242 286 344
#     4  10  22  35  55  83 120 164 208 238 285 352
#
# _framework density 18.398026000000002
#
# number of rings (size 3 to 8) (size 9 to 14) (size 15 to 20)
#    1.000    0.667    3.333    2.000    9.333    0.000 
#    0.000    5.000    0.000    6.000    0.000    0.000 
#    0.000    0.000    0.000    0.000    0.000    0.000 
#
# Total GULP energy -267322.700359 kJ/mol
# GULP energy per Si atom -5569.222924 kJ/mol
# Density = 1.835615 g / cm^3
# Si number density = 18.398026 Si / 1000 Ang^3
#
#
#
# Elastic Constant Matrix: (Units=GPa)
#
#
# Indices 1 2 3 4 5 6 
#
# 1 94.2356 36.9625 -3.2668 0.0000 0.0000 0.0000
# 2 36.9625 100.4506 6.9879 0.0000 0.0000 0.0000
# 3 -3.2668 6.9879 42.1503 0.0000 0.0000 0.0000
# 4 0.0000 0.0000 0.0000 19.3359 0.0000 0.0000
# 5 0.0000 0.0000 0.0000 0.0000 23.4634 0.0000
# 6 0.0000 0.0000 0.0000 0.0000 0.0000 33.9679
#
#
#
# Elastic Compliance Matrix: (Units=1/GPa)
#
#
# Indices 1 2 3 4 5 6 
#
# 1 0.012529 -0.004732 0.001756 0.000000 0.000000 0.000000
# 2 -0.004732 0.011859 -0.002333 0.000000 0.000000 0.000000
# 3 0.001756 -0.002333 0.024247 0.000000 0.000000 0.000000
# 4 0.000000 0.000000 0.000000 0.051717 0.000000 0.000000
# 5 0.000000 0.000000 0.000000 0.000000 0.042620 0.000000
# 6 0.000000 0.000000 0.000000 0.000000 0.000000 0.029440
#
#
# Mechanical properties :
#
#
# Convention : Reuss Voigt Hill
#
# Bulk Modulus (GPa) = 26.30477 35.35596 30.83036
# Shear Modulus (GPa) = 25.54904 28.43031 26.98968
#
# Velocity S-wave (km/s) = 3.73055 3.93528 3.83428
# Velocity P-wave (km/s) = 5.73451 6.31725 6.03292
#
# Compressibility (1/GPa) = 0.03801592
#
# Stress axis : x y z
#
# Youngs Moduli (GPa) = 79.81664 84.32598 41.24147
#
# Poissons Ratio (x) = 0.39905 -0.07240
# Poissons Ratio (y) = 0.37771 0.09621
# Poissons Ratio (z) = -0.14012 0.19671
#
# Static dielectric constant tensor:
#      x y z
#    x 1.618650 0.000000 0.000000 
#    y 0.000000 1.644810 0.000000 
#    z 0.000000 0.000000 1.653630 
# 
# From -- ./inp_files/16639.got.cif
#   From: 2010.05.17/outbox.cif.g08.bks.cpg/sg54_9_cif.got.tgz:16639.got - 2010.06.03 13:09:01.
