data_PCOD9421260
_publ_section_title
;
Structure prediction by ZEFSAII (Michael W. Deem and Ramdas Pophale) SiO2 
 PCOD9421260
Probable space group: P C C A
;
_chemical_formula_sum "Si O2"
_cell_formula_units_Z 48
_cell_length_a 9.053411
_cell_length_b 15.922649
_cell_length_c 16.369428
_cell_angle_alpha 90.000000
_cell_angle_beta 90.000000
_cell_angle_gamma 90.000000
_cell_volume 2359.723199
_symmetry_space_group_name_H-M "P C C A"
_symmetry_group_IT_number 54
_symmetry_cell_setting 'orthorhombic'
loop_
_space_group_symop_operation_xyz
x,y,z
1/2-x,-y,z
1/2+x,-y,1/2-z
-x,y,1/2-z
-x,-y,-z
1/2+x,y,-z
1/2-x,y,1/2+z
x,-y,1/2+z
loop_
_atom_site_type_symbol
_atom_site_label
_atom_site_fract_x
_atom_site_fract_y
_atom_site_fract_z
Si Si1 0.201013 0.094334 0.816545
Si Si2 0.545723 0.078370 0.444361
Si Si3 0.258247 0.823728 0.147175
Si Si4 0.130124 0.559869 0.466702
Si Si5 0.867633 0.329477 0.953598
Si Si6 0.434209 0.200171 0.917518
O O1 0.047328 0.080874 0.861933
O O2 0.206703 0.151479 0.736872
O O3 0.307421 0.140106 0.882259
O O4 0.250000 0.000000 0.794456
O O5 0.711591 0.099133 0.413562
O O6 0.502744 0.156660 0.500929
O O7 0.500000 0.000000 0.500000
O O8 0.180439 0.742374 0.108970
O O9 0.431452 0.803287 0.145241
O O10 0.250000 0.500000 0.421119
O O11 0.233480 0.604337 0.535175
O O12 0.000000 0.500000 0.500000
O O13 0.026020 0.631872 0.428236
O O14 0.883206 0.288858 0.045347
#
# Coordination Sequence:
#
# PCOD9421260 Si02
#       6
#     8   8   8   8   8   8
#     4  12  26  42  59  89 124 171 229 276 327 371
#     4  11  23  41  60  83 115 167 220 279 322 368
#     4  11  25  38  60  87 129 172 211 265 327 375
#     4   9  18  34  66 105 133 156 204 263 308 374
#     4  10  19  39  61  97 137 163 211 255 311 388
#     4  11  23  39  64  86 124 171 218 263 321 371
#
# _framework density 20.341370000000001
#
# number of rings (size 3 to 8) (size 9 to 14) (size 15 to 20)
#    0.000    1.333    3.333    3.000    4.667    1.333 
#    0.000    0.000    0.000    0.000    0.000   17.500 
#    0.000    0.000    0.000    0.000    0.000    0.000 
#
# Total GULP energy -267436.742744 kJ/mol
# GULP energy per Si atom -5571.598807 kJ/mol
# Density = 2.029507 g / cm^3
# Si number density = 20.341370 Si / 1000 Ang^3
#
#
#
# Elastic Constant Matrix: (Units=GPa)
#
#
# Indices 1 2 3 4 5 6 
#
# 1 113.9800 33.2007 13.2872 0.0000 0.0000 0.0000
# 2 33.2007 91.3124 18.0361 0.0000 0.0000 0.0000
# 3 13.2872 18.0361 73.7749 0.0000 0.0000 0.0000
# 4 0.0000 0.0000 0.0000 7.7772 0.0000 0.0000
# 5 0.0000 0.0000 0.0000 0.0000 17.7298 0.0000
# 6 0.0000 0.0000 0.0000 0.0000 0.0000 27.5625
#
#
#
# Elastic Compliance Matrix: (Units=1/GPa)
#
#
# Indices 1 2 3 4 5 6 
#
# 1 0.009875 -0.003404 -0.000946 0.000000 0.000000 0.000000
# 2 -0.003404 0.012680 -0.002487 0.000000 0.000000 0.000000
# 3 -0.000946 -0.002487 0.014333 0.000000 0.000000 0.000000
# 4 0.000000 0.000000 0.000000 0.128581 0.000000 0.000000
# 5 0.000000 0.000000 0.000000 0.000000 0.056402 0.000000
# 6 0.000000 0.000000 0.000000 0.000000 0.000000 0.036281
#
#
# Mechanical properties :
#
#
# Convention : Reuss Voigt Hill
#
# Bulk Modulus (GPa) = 43.07660 45.34615 44.21137
# Shear Modulus (GPa) = 17.88490 24.91680 21.40085
#
# Velocity S-wave (km/s) = 2.96841 3.50370 3.24710
# Velocity P-wave (km/s) = 5.74208 6.22164 5.98666
#
# Compressibility (1/GPa) = 0.02321446
#
# Stress axis : x y z
#
# Youngs Moduli (GPa) = 101.26348 78.86323 69.76804
#
# Poissons Ratio (x) = 0.26842 0.06603
# Poissons Ratio (y) = 0.34466 0.17351
# Poissons Ratio (z) = 0.09584 0.19613
#
# Static dielectric constant tensor:
#      x y z
#    x 1.842750 0.000000 0.000000 
#    y 0.000000 1.823930 0.000000 
#    z 0.000000 0.000000 1.695740 
# 
# From -- ./inp_files/16647.got.cif
#   From: 2010.05.17/outbox.cif.g08.bks.cpg/sg54_9_cif.got.tgz:16647.got - 2010.06.03 13:09:01.
