data_PCOD9421871
_publ_section_title
;
Structure prediction by ZEFSAII (Michael W. Deem and Ramdas Pophale) SiO2 
 PCOD9421871
Probable space group: P C C A
;
_chemical_formula_sum "Si O2"
_cell_formula_units_Z 64
_cell_length_a 8.186699
_cell_length_b 11.995719
_cell_length_c 29.398832
_cell_angle_alpha 90.000000
_cell_angle_beta 90.000000
_cell_angle_gamma 90.000000
_cell_volume 2887.122314
_symmetry_space_group_name_H-M "P C C A"
_symmetry_group_IT_number 54
_symmetry_cell_setting 'orthorhombic'
loop_
_space_group_symop_operation_xyz
x,y,z
1/2-x,-y,z
1/2+x,-y,1/2-z
-x,y,1/2-z
-x,-y,-z
1/2+x,y,-z
1/2-x,y,1/2+z
x,-y,1/2+z
loop_
_atom_site_type_symbol
_atom_site_label
_atom_site_fract_x
_atom_site_fract_y
_atom_site_fract_z
Si Si1 0.423786 0.947234 0.545205
Si Si2 0.116393 0.847737 0.693213
Si Si3 0.623222 0.575744 0.529135
Si Si4 0.905013 0.418863 0.704338
Si Si5 0.173938 0.302318 0.548637
Si Si6 0.236679 0.169312 0.783568
Si Si7 0.502142 0.934660 0.856798
Si Si8 0.179226 0.691842 0.145832
O O1 0.367927 0.822069 0.535185
O O2 0.539053 0.953415 0.589753
O O3 0.250000 0.000000 0.558344
O O4 0.500000 0.000000 0.500000
O O5 0.254461 0.874382 0.731660
O O6 0.172473 0.723896 0.678293
O O7 0.928132 0.830838 0.706365
O O8 0.093589 0.952788 0.659281
O O9 0.750000 0.500000 0.555752
O O10 0.500000 0.500000 0.500000
O O11 0.506236 0.649361 0.558494
O O12 0.726079 0.644481 0.492323
O O13 0.750000 0.500000 0.693797
O O14 0.835448 0.293948 0.714420
O O15 0.000000 0.457695 0.750000
O O16 0.046968 0.393701 0.666269
O O17 0.257081 0.329448 0.596390
O O18 0.136696 0.095166 0.819639
O O19 0.600905 0.817173 0.858857
#
# Coordination Sequence:
#
# PCOD9421871 Si02
#       8
#     8   8   8   8   8   8   8   8
#     4  11  23  40  63  94 131 179 224 265 333 410
#     4  11  21  38  63  92 132 170 216 269 335 388
#     4   9  19  38  63  89 114 153 204 262 326 385
#     4  11  24  44  67  88 126 170 216 273 332 390
#     4  10  20  39  63  90 128 162 206 266 324 385
#     4  10  24  41  61  97 128 169 224 273 328 404
#     4  10  22  40  61  94 135 174 218 271 328 399
#     4  10  22  40  61  94 127 167 216 268 325 399
#
# _framework density 22.167403
#
# number of rings (size 3 to 8) (size 9 to 14) (size 15 to 20)
#    0.000    1.750    1.250    3.000    1.750    5.500 
#    0.000   14.375    0.000    0.000    0.000    0.000 
#    0.000    0.000    0.000    0.000    0.000    0.000 
#
# Total GULP energy -356470.238227 kJ/mol
# GULP energy per Si atom -5569.847472 kJ/mol
# Density = 2.211695 g / cm^3
# Si number density = 22.167403 Si / 1000 Ang^3
#
#
#
# Elastic Constant Matrix: (Units=GPa)
#
#
# Indices 1 2 3 4 5 6 
#
# 1 65.5930 20.7979 14.3419 0.0000 0.0000 0.0000
# 2 20.7979 84.4204 8.4408 0.0000 0.0000 0.0000
# 3 14.3419 8.4408 114.6018 0.0000 0.0000 0.0000
# 4 0.0000 0.0000 0.0000 30.3946 0.0000 0.0000
# 5 0.0000 0.0000 0.0000 0.0000 20.0615 0.0000
# 6 0.0000 0.0000 0.0000 0.0000 0.0000 39.7777
#
#
#
# Elastic Compliance Matrix: (Units=1/GPa)
#
#
# Indices 1 2 3 4 5 6 
#
# 1 0.016907 -0.003983 -0.001822 0.000000 0.000000 0.000000
# 2 -0.003983 0.012872 -0.000450 0.000000 0.000000 0.000000
# 3 -0.001822 -0.000450 0.008987 0.000000 0.000000 0.000000
# 4 0.000000 0.000000 0.000000 0.032901 0.000000 0.000000
# 5 0.000000 0.000000 0.000000 0.000000 0.049847 0.000000
# 6 0.000000 0.000000 0.000000 0.000000 0.000000 0.025140
#
#
# Mechanical properties :
#
#
# Convention : Reuss Voigt Hill
#
# Bulk Modulus (GPa) = 38.08715 39.08626 38.58671
# Shear Modulus (GPa) = 29.77701 32.78238 31.27970
#
# Velocity S-wave (km/s) = 3.66905 3.84976 3.76049
# Velocity P-wave (km/s) = 5.93028 6.11813 6.02493
#
# Compressibility (1/GPa) = 0.02625557
#
# Stress axis : x y z
#
# Youngs Moduli (GPa) = 59.14743 77.68993 111.27116
#
# Poissons Ratio (x) = 0.30944 0.20279
# Poissons Ratio (y) = 0.23558 0.05003
# Poissons Ratio (z) = 0.10779 0.03493
#
# Static dielectric constant tensor:
#      x y z
#    x 1.874400 0.000000 0.000000 
#    y 0.000000 1.823010 0.000000 
#    z 0.000000 0.000000 1.891320 
# 
# From -- ./inp_files/27969.got.cif
#   From: 2010.05.17/outbox.cif.g08.bks.cpg/sg54_14_cif.got.tgz:27969.got - 2010.06.03 13:09:01.
