data_PCOD9421943
_publ_section_title
;
Structure prediction by ZEFSAII (Michael W. Deem and Ramdas Pophale) SiO2 
 PCOD9421943
Probable space group: P C C A
;
_chemical_formula_sum "Si O2"
_cell_formula_units_Z 32
_cell_length_a 8.391689
_cell_length_b 8.829604
_cell_length_c 21.891200
_cell_angle_alpha 90.000000
_cell_angle_beta 90.000000
_cell_angle_gamma 90.000000
_cell_volume 1622.034829
_symmetry_space_group_name_H-M "P C C A"
_symmetry_group_IT_number 54
_symmetry_cell_setting 'orthorhombic'
loop_
_space_group_symop_operation_xyz
x,y,z
1/2-x,-y,z
1/2+x,-y,1/2-z
-x,y,1/2-z
-x,-y,-z
1/2+x,y,-z
1/2-x,y,1/2+z
x,-y,1/2+z
loop_
_atom_site_type_symbol
_atom_site_label
_atom_site_fract_x
_atom_site_fract_y
_atom_site_fract_z
Si Si1 0.250000 0.500000 0.626408
Si Si2 0.035742 0.236634 0.679165
Si Si3 0.944509 0.737776 0.955124
Si Si4 0.250000 0.000000 0.106836
Si Si5 0.706459 0.676465 0.580916
O O1 0.143040 0.386219 0.666300
O O2 0.364325 0.398704 0.583536
O O3 0.000000 0.215450 0.750000
O O4 0.872775 0.260573 0.641767
O O5 0.132995 0.098673 0.649218
O O6 0.128855 0.753687 0.938638
O O7 0.850598 0.886951 0.935236
O O8 0.919056 0.700364 0.026066
O O9 0.750000 0.500000 0.587091
#
# Coordination Sequence:
#
# PCOD9421943 Si02
#       5
#     4   8   8   4   8
#     4  10  20  40  64  94 128 168 216 270 322 380
#     4  11  26  43  66  95 132 178 224 263 324 396
#     4  11  22  40  69  97 135 164 216 275 334 391
#     4  10  26  46  62  98 136 180 212 274 336 392
#     4  12  23  40  69 103 130 171 218 283 330 376
#
# _framework density 19.728307000000001
#
# number of rings (size 3 to 8) (size 9 to 14) (size 15 to 20)
#    0.000    1.000    3.750    3.750    1.750    7.000 
#    0.000    5.000    0.000    0.000    0.000    0.000 
#    0.000    0.000    0.000    0.000    0.000    0.000 
#
# Total GULP energy -179137.070683 kJ/mol
# GULP energy per Si atom -5598.033459 kJ/mol
# Density = 1.968340 g / cm^3
# Si number density = 19.728307 Si / 1000 Ang^3
#
#
#
# Elastic Constant Matrix: (Units=GPa)
#
#
# Indices 1 2 3 4 5 6 
#
# 1 125.6384 28.8351 47.9087 0.0000 0.0000 0.0000
# 2 28.8351 104.8748 33.4756 0.0000 0.0000 0.0000
# 3 47.9087 33.4756 127.0761 0.0000 0.0000 0.0000
# 4 0.0000 0.0000 0.0000 9.4918 0.0000 0.0000
# 5 0.0000 0.0000 0.0000 0.0000 30.3567 0.0000
# 6 0.0000 0.0000 0.0000 0.0000 0.0000 16.4620
#
#
#
# Elastic Compliance Matrix: (Units=1/GPa)
#
#
# Indices 1 2 3 4 5 6 
#
# 1 0.009538 -0.001610 -0.003172 0.000000 0.000000 0.000000
# 2 -0.001610 0.010682 -0.002207 0.000000 0.000000 0.000000
# 3 -0.003172 -0.002207 0.009647 0.000000 0.000000 0.000000
# 4 0.000000 0.000000 0.000000 0.105354 0.000000 0.000000
# 5 0.000000 0.000000 0.000000 0.000000 0.032942 0.000000
# 6 0.000000 0.000000 0.000000 0.000000 0.000000 0.060746
#
#
# Mechanical properties :
#
#
# Convention : Reuss Voigt Hill
#
# Bulk Modulus (GPa) = 62.93578 64.22534 63.58056
# Shear Modulus (GPa) = 20.14640 27.75343 23.94992
#
# Velocity S-wave (km/s) = 3.19908 3.75478 3.48801
# Velocity P-wave (km/s) = 6.75396 7.17101 6.96561
#
# Compressibility (1/GPa) = 0.01588921
#
# Stress axis : x y z
#
# Youngs Moduli (GPa) = 104.83935 93.61240 103.66419
#
# Poissons Ratio (x) = 0.15073 0.32881
# Poissons Ratio (y) = 0.16880 0.22879
# Poissons Ratio (z) = 0.33254 0.20660
#
# Static dielectric constant tensor:
#      x y z
#    x 1.696800 0.000000 0.000000 
#    y 0.000000 1.690860 0.000000 
#    z 0.000000 0.000000 1.639280 
# 
# From -- ./inp_files/20047.got.cif
#   From: 2010.05.17/outbox.cif.g08.bks.cpg/sg54_11_cif.got.tgz:20047.got - 2010.06.03 13:09:01.
