data_PCOD9421863
_publ_section_title
;
Structure prediction by ZEFSAII (Michael W. Deem and Ramdas Pophale) SiO2 
 PCOD9421863
Probable space group: P C C A
;
_chemical_formula_sum "Si O2"
_cell_formula_units_Z 40
_cell_length_a 8.212459
_cell_length_b 14.455629
_cell_length_c 14.337474
_cell_angle_alpha 90.000000
_cell_angle_beta 90.000000
_cell_angle_gamma 90.000000
_cell_volume 1702.091298
_symmetry_space_group_name_H-M "P C C A"
_symmetry_group_IT_number 54
_symmetry_cell_setting 'orthorhombic'
loop_
_space_group_symop_operation_xyz
x,y,z
1/2-x,-y,z
1/2+x,-y,1/2-z
-x,y,1/2-z
-x,-y,-z
1/2+x,y,-z
1/2-x,y,1/2+z
x,-y,1/2+z
loop_
_atom_site_type_symbol
_atom_site_label
_atom_site_fract_x
_atom_site_fract_y
_atom_site_fract_z
Si Si1 0.319162 0.097062 0.146585
Si Si2 0.180132 0.709635 0.703964
Si Si3 0.304643 0.394188 0.371007
Si Si4 0.501800 0.686783 0.475467
Si Si5 0.570607 0.102157 0.021047
O O1 0.252793 0.187780 0.196452
O O2 0.234731 0.101933 0.041572
O O3 0.250000 0.000000 0.185481
O O4 0.514681 0.102323 0.130497
O O5 0.294382 0.646605 0.767589
O O6 0.141608 0.668895 0.602119
O O7 0.000000 0.715815 0.750000
O O8 0.250000 0.500000 0.370176
O O9 0.463757 0.370212 0.430681
O O10 0.166201 0.339235 0.427889
O O11 0.505657 0.796495 0.492320
O O12 0.500000 0.000000 0.000000
#
# Coordination Sequence:
#
# PCOD9421863 Si02
#       5
#     8   8   8   8   8
#     4   9  17  33  57  87 120 154 192 233 283 346
#     4   9  20  38  57  81 117 153 187 234 291 347
#     4  11  23  40  61  84 111 151 198 247 296 340
#     4  10  20  39  62  86 116 150 191 239 293 351
#     4   9  17  32  58  88 118 150 185 229 283 344
#
# _framework density 23.500499999999999
#
# number of rings (size 3 to 8) (size 9 to 14) (size 15 to 20)
#    0.000    2.400    0.000    3.000    0.000    0.800 
#    0.000   20.000    0.000    0.000    0.000    0.000 
#    0.000    0.000    0.000    0.000    0.000    0.000 
#
# Total GULP energy -222721.303192 kJ/mol
# GULP energy per Si atom -5568.032580 kJ/mol
# Density = 2.344701 g / cm^3
# Si number density = 23.500500 Si / 1000 Ang^3
#
#
#
# Elastic Constant Matrix: (Units=GPa)
#
#
# Indices 1 2 3 4 5 6 
#
# 1 35.9685 2.9048 10.5698 0.0000 0.0000 0.0000
# 2 2.9048 86.9763 10.8185 0.0000 0.0000 0.0000
# 3 10.5698 10.8185 84.3480 0.0000 0.0000 0.0000
# 4 0.0000 0.0000 0.0000 -128.8959 0.0000 0.0000
# 5 0.0000 0.0000 0.0000 0.0000 32.9529 0.0000
# 6 0.0000 0.0000 0.0000 0.0000 0.0000 11.0639
#
#
#
# Elastic Compliance Matrix: (Units=1/GPa)
#
#
# Indices 1 2 3 4 5 6 
#
# 1 0.028888 -0.000523 -0.003553 0.000000 0.000000 0.000000
# 2 -0.000523 0.011693 -0.001434 0.000000 0.000000 0.000000
# 3 -0.003553 -0.001434 0.012485 0.000000 0.000000 0.000000
# 4 0.000000 0.000000 0.000000 -0.007758 0.000000 0.000000
# 5 0.000000 0.000000 0.000000 0.000000 0.030346 0.000000
# 6 0.000000 0.000000 0.000000 0.000000 0.000000 0.090384
#
#
# Mechanical properties :
#
#
# Convention : Reuss Voigt Hill
#
# Bulk Modulus (GPa) = 23.78334 28.43099 26.10716
# Shear Modulus (GPa) = 26.16783 -4.77584 10.69600
#
# Velocity S-wave (km/s) = 3.34054 -1.42711 2.13571
# Velocity P-wave (km/s) = 5.00212 3.06737 4.14910
#
# Compressibility (1/GPa) = 0.04204624
#
# Stress axis : x y z
#
# Youngs Moduli (GPa) = 34.61599 85.51945 80.09714
#
# Poissons Ratio (x) = 0.04472 0.28458
# Poissons Ratio (y) = 0.01810 0.11488
# Poissons Ratio (z) = 0.12299 0.12266
#
# Static dielectric constant tensor:
#      x y z
#    x 2.024580 0.000000 0.000000 
#    y 0.000000 1.819930 0.000000 
#    z 0.000000 0.000000 1.984680 
# 
# From -- ./inp_files/11500.got.cif
#   From: 2010.05.17/outbox.cif.g08.bks.cpg/sg54_6_cif.got.tgz:11500.got - 2010.06.03 13:09:01.
