data_PCOD9421993
_publ_section_title
;
Structure prediction by ZEFSAII (Michael W. Deem and Ramdas Pophale) SiO2 
 PCOD9421993
Probable space group: P C C A
;
_chemical_formula_sum "Si O2"
_cell_formula_units_Z 44
_cell_length_a 14.351459
_cell_length_b 7.889542
_cell_length_c 18.216386
_cell_angle_alpha 90.000000
_cell_angle_beta 90.000000
_cell_angle_gamma 90.000000
_cell_volume 2062.576510
_symmetry_space_group_name_H-M "P C C A"
_symmetry_group_IT_number 54
_symmetry_cell_setting 'orthorhombic'
loop_
_space_group_symop_operation_xyz
x,y,z
1/2-x,-y,z
1/2+x,-y,1/2-z
-x,y,1/2-z
-x,-y,-z
1/2+x,y,-z
1/2-x,y,1/2+z
x,-y,1/2+z
loop_
_atom_site_type_symbol
_atom_site_label
_atom_site_fract_x
_atom_site_fract_y
_atom_site_fract_z
Si Si1 0.641721 0.554983 0.354711
Si Si2 0.250000 0.500000 0.409940
Si Si3 0.483484 0.779594 0.634147
Si Si4 0.424485 0.652371 0.998226
Si Si5 0.674798 0.747997 0.212614
Si Si6 0.373419 0.104996 0.257665
O O1 0.750000 0.500000 0.364028
O O2 0.578953 0.388487 0.363191
O O3 0.607516 0.682765 0.418458
O O4 0.628964 0.633040 0.274498
O O5 0.169023 0.586876 0.457682
O O6 0.200127 0.360737 0.358231
O O7 0.526678 0.794111 0.553037
O O8 0.569643 0.767132 0.690529
O O9 0.418630 0.913392 0.677317
O O10 0.500000 0.500000 0.000000
O O11 0.771605 0.816630 0.247462
O O12 0.622688 0.925054 0.200860
#
# Coordination Sequence:
#
# PCOD9421993 Si02
#       6
#     8   4   8   8   8   8
#     4  11  20  39  67  95 127 168 222 271 333 396
#     4  12  20  40  70  96 126 168 230 280 318 402
#     4  10  20  41  60  90 129 169 209 277 322 387
#     4  10  23  39  64  94 132 170 219 268 332 396
#     4  11  22  38  65  99 119 172 221 268 336 392
#     4  10  21  38  61  91 137 161 209 277 333 386
#
# _framework density 21.332543000000001
#
# number of rings (size 3 to 8) (size 9 to 14) (size 15 to 20)
#    0.000    1.455    5.455    0.000    2.545    0.000 
#   13.091    0.909   12.000    0.000    0.000    0.000 
#    0.000    0.000    0.000    0.000    0.000    0.000 
#
# Total GULP energy -245345.496943 kJ/mol
# GULP energy per Si atom -5576.034021 kJ/mol
# Density = 2.128399 g / cm^3
# Si number density = 21.332543 Si / 1000 Ang^3
#
#
#
# Elastic Constant Matrix: (Units=GPa)
#
#
# Indices 1 2 3 4 5 6 
#
# 1 66.0637 12.0284 15.4744 0.0000 0.0000 0.0000
# 2 12.0284 51.2647 14.5252 0.0000 0.0000 0.0000
# 3 15.4744 14.5252 77.1431 0.0000 0.0000 0.0000
# 4 0.0000 0.0000 0.0000 4.9923 0.0000 0.0000
# 5 0.0000 0.0000 0.0000 0.0000 38.7127 0.0000
# 6 0.0000 0.0000 0.0000 0.0000 0.0000 18.8732
#
#
#
# Elastic Compliance Matrix: (Units=1/GPa)
#
#
# Indices 1 2 3 4 5 6 
#
# 1 0.016327 -0.003067 -0.002698 0.000000 0.000000 0.000000
# 2 -0.003067 0.021182 -0.003373 0.000000 0.000000 0.000000
# 3 -0.002698 -0.003373 0.014139 0.000000 0.000000 0.000000
# 4 0.000000 0.000000 0.000000 0.200309 0.000000 0.000000
# 5 0.000000 0.000000 0.000000 0.000000 0.025831 0.000000
# 6 0.000000 0.000000 0.000000 0.000000 0.000000 0.052985
#
#
# Mechanical properties :
#
#
# Convention : Reuss Voigt Hill
#
# Bulk Modulus (GPa) = 29.96405 30.94750 30.45577
# Shear Modulus (GPa) = 13.88222 22.67852 18.28037
#
# Velocity S-wave (km/s) = 2.55375 3.26405 2.93050
# Velocity P-wave (km/s) = 4.77202 5.36135 5.07525
#
# Compressibility (1/GPa) = 0.03337333
#
# Stress axis : x y z
#
# Youngs Moduli (GPa) = 61.24769 47.21017 70.72532
#
# Poissons Ratio (x) = 0.14477 0.19080
# Poissons Ratio (y) = 0.18782 0.23857
# Poissons Ratio (z) = 0.16523 0.15925
#
# Static dielectric constant tensor:
#      x y z
#    x 1.815720 0.000000 0.000000 
#    y 0.000000 1.805540 0.000000 
#    z 0.000000 0.000000 1.799110 
# 
# From -- ./inp_files/17932.got.cif
#   From: 2010.05.17/outbox.cif.g08.bks.cpg/sg54_9_cif.got.tgz:17932.got - 2010.06.03 13:09:01.
