data_PCOD9421714
_publ_section_title
;
Structure prediction by ZEFSAII (Michael W. Deem and Ramdas Pophale) SiO2 
 PCOD9421714
Probable space group: P C C A
;
_chemical_formula_sum "Si O2"
_cell_formula_units_Z 40
_cell_length_a 6.464400
_cell_length_b 13.541262
_cell_length_c 20.772533
_cell_angle_alpha 90.000000
_cell_angle_beta 90.000000
_cell_angle_gamma 90.000000
_cell_volume 1818.347234
_symmetry_space_group_name_H-M "P C C A"
_symmetry_group_IT_number 54
_symmetry_cell_setting 'orthorhombic'
loop_
_space_group_symop_operation_xyz
x,y,z
1/2-x,-y,z
1/2+x,-y,1/2-z
-x,y,1/2-z
-x,-y,-z
1/2+x,y,-z
1/2-x,y,1/2+z
x,-y,1/2+z
loop_
_atom_site_type_symbol
_atom_site_label
_atom_site_fract_x
_atom_site_fract_y
_atom_site_fract_z
Si Si1 0.621202 0.272638 0.956873
Si Si2 0.333443 0.897544 0.202422
Si Si3 0.494910 0.771365 0.637110
Si Si4 0.367059 0.096107 0.917440
Si Si5 0.751469 0.616919 0.588615
O O1 0.826254 0.245093 0.918858
O O2 0.488193 0.171236 0.964515
O O3 0.482685 0.340395 0.909797
O O4 0.671125 0.336032 0.020395
O O5 0.500000 0.851470 0.250000
O O6 0.144427 0.824550 0.189967
O O7 0.459777 0.926193 0.137140
O O8 0.250000 0.000000 0.231056
O O9 0.681482 0.843001 0.615973
O O10 0.608980 0.666142 0.643360
O O11 0.250000 0.000000 0.944706
O O12 0.750000 0.500000 0.587065
#
# Coordination Sequence:
#
# PCOD9421714 Si02
#       5
#     8   8   8   8   8
#     4  10  21  33  56  85 118 161 209 255 295 352
#     4  11  22  36  62  90 119 154 195 248 314 371
#     4  10  22  37  54  87 129 151 205 258 294 367
#     4  10  20  38  55  79 124 162 198 245 299 367
#     4  11  21  37  60  84 120 163 213 259 308 355
#
# _framework density 21.998000000000001
#
# number of rings (size 3 to 8) (size 9 to 14) (size 15 to 20)
#    0.000    1.600    4.000    1.200    0.000    0.000 
#    0.000    5.000    0.000    0.000    0.000    0.000 
#  216.000    0.000    0.000    0.000    0.000    0.000 
#
# Total GULP energy -223329.360804 kJ/mol
# GULP energy per Si atom -5583.234020 kJ/mol
# Density = 2.194793 g / cm^3
# Si number density = 21.998000 Si / 1000 Ang^3
#
#
#
# Elastic Constant Matrix: (Units=GPa)
#
#
# Indices 1 2 3 4 5 6 
#
# 1 130.4421 33.6546 16.2553 0.0000 0.0000 0.0000
# 2 33.6546 138.2201 12.6030 0.0000 0.0000 0.0000
# 3 16.2553 12.6030 29.7902 0.0000 0.0000 0.0000
# 4 0.0000 0.0000 0.0000 7.5778 0.0000 0.0000
# 5 0.0000 0.0000 0.0000 0.0000 34.7782 0.0000
# 6 0.0000 0.0000 0.0000 0.0000 0.0000 29.7769
#
#
#
# Elastic Compliance Matrix: (Units=1/GPa)
#
#
# Indices 1 2 3 4 5 6 
#
# 1 0.008608 -0.001734 -0.003963 0.000000 0.000000 0.000000
# 2 -0.001734 0.007875 -0.002385 0.000000 0.000000 0.000000
# 3 -0.003963 -0.002385 0.036740 0.000000 0.000000 0.000000
# 4 0.000000 0.000000 0.000000 0.131965 0.000000 0.000000
# 5 0.000000 0.000000 0.000000 0.000000 0.028754 0.000000
# 6 0.000000 0.000000 0.000000 0.000000 0.000000 0.033583
#
#
# Mechanical properties :
#
#
# Convention : Reuss Voigt Hill
#
# Bulk Modulus (GPa) = 26.98563 47.05314 37.01939
# Shear Modulus (GPa) = 18.11328 30.15587 24.13457
#
# Velocity S-wave (km/s) = 2.87262 3.70651 3.31588
# Velocity P-wave (km/s) = 4.82665 6.30506 5.61473
#
# Compressibility (1/GPa) = 0.03705676
#
# Stress axis : x y z
#
# Youngs Moduli (GPa) = 116.17643 126.99017 27.21862
#
# Poissons Ratio (x) = 0.22026 0.10787
# Poissons Ratio (y) = 0.20150 0.06492
# Poissons Ratio (z) = 0.46041 0.30287
#
# Static dielectric constant tensor:
#      x y z
#    x 1.874130 0.000000 0.000000 
#    y 0.000000 1.804110 0.000000 
#    z 0.000000 0.000000 1.879890 
# 
# From -- ./inp_files/25149.got.cif
#   From: 2010.05.17/outbox.cif.g08.bks.cpg/sg54_13_cif.got.tgz:25149.got - 2010.06.03 13:09:01.
