data_PCOD9421318
_publ_section_title
;
Structure prediction by ZEFSAII (Michael W. Deem and Ramdas Pophale) SiO2 
 PCOD9421318
Probable space group: P C C A
;
_chemical_formula_sum "Si O2"
_cell_formula_units_Z 40
_cell_length_a 10.459191
_cell_length_b 9.523920
_cell_length_c 19.466986
_cell_angle_alpha 90.000000
_cell_angle_beta 90.000000
_cell_angle_gamma 90.000000
_cell_volume 1939.155111
_symmetry_space_group_name_H-M "P C C A"
_symmetry_group_IT_number 54
_symmetry_cell_setting 'orthorhombic'
loop_
_space_group_symop_operation_xyz
x,y,z
1/2-x,-y,z
1/2+x,-y,1/2-z
-x,y,1/2-z
-x,-y,-z
1/2+x,y,-z
1/2-x,y,1/2+z
x,-y,1/2+z
loop_
_atom_site_type_symbol
_atom_site_label
_atom_site_fract_x
_atom_site_fract_y
_atom_site_fract_z
Si Si1 0.382880 0.933287 0.459950
Si Si2 0.776598 0.343134 0.083020
Si Si3 0.857108 0.612847 0.739475
Si Si4 0.567532 0.847349 0.646230
Si Si5 0.699481 0.846196 0.796009
O O1 0.363747 0.766369 0.458938
O O2 0.250000 0.000000 0.485740
O O3 0.500000 0.000000 0.500000
O O4 0.404770 0.997229 0.383492
O O5 0.750000 0.500000 0.056233
O O6 0.839275 0.357621 0.158629
O O7 0.643463 0.261109 0.097800
O O8 0.750000 0.500000 0.757476
O O9 0.820561 0.744490 0.787173
O O10 0.000000 0.561078 0.750000
O O11 0.632419 0.840627 0.720918
O O12 0.417589 0.813512 0.652766
O O13 0.750000 0.000000 0.811291
#
# Coordination Sequence:
#
# PCOD9421318 Si02
#       5
#     8   8   8   8   8
#     4  10  21  40  60  81 112 151 199 251 305 347
#     4   9  19  36  61  80 114 157 194 232 300 357
#     4  10  22  34  54  84 124 158 189 228 287 356
#     4   9  19  35  54  81 113 152 188 240 295 348
#     4  10  20  31  55  82 116 148 195 235 281 352
#
# _framework density 20.627541999999998
#
# number of rings (size 3 to 8) (size 9 to 14) (size 15 to 20)
#    0.000    2.400    0.000    3.000   14.000    0.800 
#    0.000    4.000    0.000    1.200    0.000    0.000 
#    0.000    0.000    0.000    0.000    0.000    0.000 
#
# Total GULP energy -223126.639913 kJ/mol
# GULP energy per Si atom -5578.165998 kJ/mol
# Density = 2.058059 g / cm^3
# Si number density = 20.627542 Si / 1000 Ang^3
#
#
#
# Elastic Constant Matrix: (Units=GPa)
#
#
# Indices 1 2 3 4 5 6 
#
# 1 144.7821 42.7848 21.0896 0.0000 0.0000 0.0000
# 2 42.7848 143.7893 20.0804 0.0000 0.0000 0.0000
# 3 21.0896 20.0804 16.3408 0.0000 0.0000 0.0000
# 4 0.0000 0.0000 0.0000 21.0082 0.0000 0.0000
# 5 0.0000 0.0000 0.0000 0.0000 2.8662 0.0000
# 6 0.0000 0.0000 0.0000 0.0000 0.0000 27.9014
#
#
#
# Elastic Compliance Matrix: (Units=1/GPa)
#
#
# Indices 1 2 3 4 5 6 
#
# 1 0.008682 -0.001230 -0.009695 0.000000 0.000000 0.000000
# 2 -0.001230 0.008570 -0.008944 0.000000 0.000000 0.000000
# 3 -0.009695 -0.008944 0.084699 0.000000 0.000000 0.000000
# 4 0.000000 0.000000 0.000000 0.047600 0.000000 0.000000
# 5 0.000000 0.000000 0.000000 0.000000 0.348893 0.000000
# 6 0.000000 0.000000 0.000000 0.000000 0.000000 0.035840
#
#
# Mechanical properties :
#
#
# Convention : Reuss Voigt Hill
#
# Bulk Modulus (GPa) = 16.07326 52.53576 34.30451
# Shear Modulus (GPa) = 8.40675 25.08565 16.74620
#
# Velocity S-wave (km/s) = 2.02098 3.49108 2.85237
# Velocity P-wave (km/s) = 3.64072 6.46330 5.24543
#
# Compressibility (1/GPa) = 0.06221513
#
# Stress axis : x y z
#
# Youngs Moduli (GPa) = 115.17471 116.69289 11.80649
#
# Poissons Ratio (x) = 0.14349 0.11446
# Poissons Ratio (y) = 0.14162 0.10559
# Poissons Ratio (z) = 1.11658 1.04367
#
# Static dielectric constant tensor:
#      x y z
#    x 1.759340 0.000000 0.000000 
#    y 0.000000 1.792270 0.000000 
#    z 0.000000 0.000000 1.773180 
# 
# From -- ./inp_files/25725.got.cif
#   From: 2010.05.17/outbox.cif.g08.bks.cpg/sg54_13_cif.got.tgz:25725.got - 2010.06.03 13:09:01.
