data_PCOD9421545
_publ_section_title
;
Structure prediction by ZEFSAII (Michael W. Deem and Ramdas Pophale) SiO2 
 PCOD9421545
Probable space group: P C C A
;
_chemical_formula_sum "Si O2"
_cell_formula_units_Z 56
_cell_length_a 20.825283
_cell_length_b 13.998919
_cell_length_c 8.259994
_cell_angle_alpha 90.000000
_cell_angle_beta 90.000000
_cell_angle_gamma 90.000000
_cell_volume 2408.048027
_symmetry_space_group_name_H-M "P C C A"
_symmetry_group_IT_number 54
_symmetry_cell_setting 'orthorhombic'
loop_
_space_group_symop_operation_xyz
x,y,z
1/2-x,-y,z
1/2+x,-y,1/2-z
-x,y,1/2-z
-x,-y,-z
1/2+x,y,-z
1/2-x,y,1/2+z
x,-y,1/2+z
loop_
_atom_site_type_symbol
_atom_site_label
_atom_site_fract_x
_atom_site_fract_y
_atom_site_fract_z
Si Si1 0.971137 0.837860 0.432881
Si Si2 0.403771 0.111830 0.582749
Si Si3 0.098946 0.646338 0.053698
Si Si4 0.713413 0.255601 0.269714
Si Si5 0.424576 0.460825 0.734064
Si Si6 0.353086 0.070202 0.222385
Si Si7 0.843484 0.692119 0.918316
O O1 0.954610 0.728219 0.472192
O O2 0.904229 0.892068 0.410391
O O3 0.000000 0.838275 0.250000
O O4 0.019119 0.890371 0.556718
O O5 0.377261 0.093026 0.402256
O O6 0.389485 0.220347 0.627893
O O7 0.362295 0.042160 0.695860
O O8 0.163840 0.699795 0.102106
O O9 0.081505 0.572728 0.196802
O O10 0.105464 0.581456 0.896613
O O11 0.708811 0.139654 0.292621
O O12 0.782528 0.299759 0.300603
O O13 0.685139 0.285686 0.095708
O O14 0.500000 0.439476 0.750000
O O15 0.385609 0.402454 0.597521
#
# Coordination Sequence:
#
# PCOD9421545 Si02
#       7
#     8   8   8   8   8   8   8
#     4   9  18  36  59  87 126 169 209 262 320 377
#     4  10  20  36  59  90 125 165 209 261 319 375
#     4  11  23  41  65  93 129 166 212 268 325 390
#     4  10  23  44  65  92 127 172 218 270 331 391
#     4  12  25  41  66  99 128 167 213 266 327 393
#     4   9  20  35  58  87 122 165 213 261 314 378
#     4  11  24  43  65  92 129 170 218 271 327 396
#
# _framework density 23.255348999999999
#
# number of rings (size 3 to 8) (size 9 to 14) (size 15 to 20)
#    0.000    1.714    0.000    4.714    0.000    4.571 
#    0.000    9.286    0.000    0.000    0.000    0.000 
#    0.000    0.000    0.000    0.000    0.000    0.000 
#
# Total GULP energy -312730.498562 kJ/mol
# GULP energy per Si atom -5584.473189 kJ/mol
# Density = 2.320242 g / cm^3
# Si number density = 23.255349 Si / 1000 Ang^3
#
#
#
# Elastic Constant Matrix: (Units=GPa)
#
#
# Indices 1 2 3 4 5 6 
#
# 1 79.6303 9.6504 -2.5882 0.0000 0.0000 0.0000
# 2 9.6504 85.1099 1.6357 0.0000 0.0000 0.0000
# 3 -2.5882 1.6357 66.1502 0.0000 0.0000 0.0000
# 4 0.0000 0.0000 0.0000 24.9950 0.0000 0.0000
# 5 0.0000 0.0000 0.0000 0.0000 4.3539 0.0000
# 6 0.0000 0.0000 0.0000 0.0000 0.0000 -42.8597
#
#
#
# Elastic Compliance Matrix: (Units=1/GPa)
#
#
# Indices 1 2 3 4 5 6 
#
# 1 0.012752 -0.001456 0.000535 0.000000 0.000000 0.000000
# 2 -0.001456 0.011921 -0.000352 0.000000 0.000000 0.000000
# 3 0.000535 -0.000352 0.015147 0.000000 0.000000 0.000000
# 4 0.000000 0.000000 0.000000 0.040008 0.000000 0.000000
# 5 0.000000 0.000000 0.000000 0.000000 0.229680 0.000000
# 6 0.000000 0.000000 0.000000 0.000000 0.000000 -0.023332
#
#
# Mechanical properties :
#
#
# Convention : Reuss Voigt Hill
#
# Bulk Modulus (GPa) = 26.82834 27.58736 27.20785
# Shear Modulus (GPa) = 16.60320 12.11066 14.35693
#
# Velocity S-wave (km/s) = 2.67489 2.28451 2.48737
# Velocity P-wave (km/s) = 4.59364 4.34134 4.46927
#
# Compressibility (1/GPa) = 0.03727402
#
# Stress axis : x y z
#
# Youngs Moduli (GPa) = 78.41973 83.88283 66.02082
#
# Poissons Ratio (x) = 0.12215 -0.03532
# Poissons Ratio (y) = 0.11419 0.02322
# Poissons Ratio (z) = -0.04195 0.02951
#
# Static dielectric constant tensor:
#      x y z
#    x 1.884280 0.000000 0.000000 
#    y 0.000000 1.894360 0.000000 
#    z 0.000000 0.000000 1.919940 
# 
# From -- ./inp_files/4822.got.cif
#   From: 2010.05.17/outbox.cif.g08.bks.cpg/sg54_3_cif.got.tgz:4822.got - 2010.06.03 13:09:01.
