data_PCOD9421285
_publ_section_title
;
Structure prediction by ZEFSAII (Michael W. Deem and Ramdas Pophale) SiO2 
 PCOD9421285
Probable space group: P C C A
;
_chemical_formula_sum "Si O2"
_cell_formula_units_Z 60
_cell_length_a 18.549264
_cell_length_b 17.395972
_cell_length_c 9.066552
_cell_angle_alpha 90.000000
_cell_angle_beta 90.000000
_cell_angle_gamma 90.000000
_cell_volume 2925.617459
_symmetry_space_group_name_H-M "P C C A"
_symmetry_group_IT_number 54
_symmetry_cell_setting 'orthorhombic'
loop_
_space_group_symop_operation_xyz
x,y,z
1/2-x,-y,z
1/2+x,-y,1/2-z
-x,y,1/2-z
-x,-y,-z
1/2+x,y,-z
1/2-x,y,1/2+z
x,-y,1/2+z
loop_
_atom_site_type_symbol
_atom_site_label
_atom_site_fract_x
_atom_site_fract_y
_atom_site_fract_z
Si Si1 0.919836 0.989695 0.212638
Si Si2 0.331643 0.277941 0.861918
Si Si3 0.443539 0.604423 0.484712
Si Si4 0.811352 0.763020 0.969060
Si Si5 0.534274 0.259861 0.090652
Si Si6 0.952270 0.847828 0.604739
Si Si7 0.180774 0.057672 0.029708
Si Si8 0.000000 0.484364 0.750000
O O1 0.935561 0.062988 0.107347
O O2 0.875803 0.025438 0.349941
O O3 0.000000 0.959798 0.250000
O O4 0.862810 0.938685 0.124504
O O5 0.322692 0.280700 0.685769
O O6 0.256910 0.266384 0.942891
O O7 0.380815 0.202691 0.890228
O O8 0.373543 0.349094 0.934782
O O9 0.506459 0.669368 0.489294
O O10 0.447179 0.566629 0.647404
O O11 0.459121 0.538747 0.365568
O O12 0.881172 0.749359 0.071077
O O13 0.800661 0.853994 0.933308
O O14 0.500000 0.272940 0.250000
O O15 0.499001 0.182186 0.029257
O O16 0.000000 0.831698 0.750000
O O17 0.250000 0.000000 0.020835
#
# Coordination Sequence:
#
# PCOD9421285 Si02
#       8
#     8   8   8   8   8   8   8   4
#     4  11  23  42  64  88 125 167 228 289 353 407
#     4  11  24  41  65  96 134 175 225 277 328 398
#     4  10  22  41  70 108 133 176 212 263 318 394
#     4  12  26  42  65  95 133 181 224 288 345 392
#     4  11  23  40  68 102 135 170 233 280 330 401
#     4  10  19  41  63  86 124 172 223 285 350 398
#     4  12  26  42  62  91 128 178 225 279 354 421
#     4  10  20  40  76 104 142 168 218 252 326 398
#
# _framework density 20.508492
#
# number of rings (size 3 to 8) (size 9 to 14) (size 15 to 20)
#    0.000    1.067    3.333    3.200    7.467    1.600 
#    0.000    0.000    0.000   13.600    0.000    0.000 
#    0.000    0.000    0.000    0.000    0.000    0.000 
#
# Total GULP energy -335386.131674 kJ/mol
# GULP energy per Si atom -5589.768861 kJ/mol
# Density = 2.046181 g / cm^3
# Si number density = 20.508492 Si / 1000 Ang^3
#
#
#
# Elastic Constant Matrix: (Units=GPa)
#
#
# Indices 1 2 3 4 5 6 
#
# 1 164.2399 49.4621 52.1592 0.0000 0.0000 0.0000
# 2 49.4621 84.7504 56.0073 0.0000 0.0000 0.0000
# 3 52.1592 56.0073 110.9705 0.0000 0.0000 0.0000
# 4 0.0000 0.0000 0.0000 43.8737 0.0000 0.0000
# 5 0.0000 0.0000 0.0000 0.0000 26.1269 0.0000
# 6 0.0000 0.0000 0.0000 0.0000 0.0000 1.1918
#
#
#
# Elastic Compliance Matrix: (Units=1/GPa)
#
#
# Indices 1 2 3 4 5 6 
#
# 1 0.007678 -0.003145 -0.002021 0.000000 0.000000 0.000000
# 2 -0.003145 0.018993 -0.008107 0.000000 0.000000 0.000000
# 3 -0.002021 -0.008107 0.014053 0.000000 0.000000 0.000000
# 4 0.000000 0.000000 0.000000 0.022793 0.000000 0.000000
# 5 0.000000 0.000000 0.000000 0.000000 0.038275 0.000000
# 6 0.000000 0.000000 0.000000 0.000000 0.000000 0.839099
#
#
# Mechanical properties :
#
#
# Convention : Reuss Voigt Hill
#
# Bulk Modulus (GPa) = 70.54173 75.02421 72.78297
# Shear Modulus (GPa) = 5.14317 27.72729 16.43523
#
# Velocity S-wave (km/s) = 1.58533 3.68093 2.83395
# Velocity P-wave (km/s) = 6.14996 7.39778 6.80254
#
# Compressibility (1/GPa) = 0.01417601
#
# Stress axis : x y z
#
# Youngs Moduli (GPa) = 130.24597 52.65193 71.15720
#
# Poissons Ratio (x) = 0.16559 0.14384
# Poissons Ratio (y) = 0.40963 0.57690
# Poissons Ratio (z) = 0.26329 0.42687
#
# Static dielectric constant tensor:
#      x y z
#    x 1.681510 0.000000 0.000000 
#    y 0.000000 1.749010 0.000000 
#    z 0.000000 0.000000 1.772170 
# 
# From -- ./inp_files/4358.got.cif
#   From: 2010.05.17/outbox.cif.g08.bks.cpg/sg54_3_cif.got.tgz:4358.got - 2010.06.03 13:09:01.
