data_PCOD9421173
_publ_section_title
;
Structure prediction by ZEFSAII (Michael W. Deem and Ramdas Pophale) SiO2 
 PCOD9421173
Probable space group: P C C A
;
_chemical_formula_sum "Si O2"
_cell_formula_units_Z 48
_cell_length_a 5.643862
_cell_length_b 13.919696
_cell_length_c 28.024675
_cell_angle_alpha 90.000000
_cell_angle_beta 90.000000
_cell_angle_gamma 90.000000
_cell_volume 2201.642101
_symmetry_space_group_name_H-M "P C C A"
_symmetry_group_IT_number 54
_symmetry_cell_setting 'orthorhombic'
loop_
_space_group_symop_operation_xyz
x,y,z
1/2-x,-y,z
1/2+x,-y,1/2-z
-x,y,1/2-z
-x,-y,-z
1/2+x,y,-z
1/2-x,y,1/2+z
x,-y,1/2+z
loop_
_atom_site_type_symbol
_atom_site_label
_atom_site_fract_x
_atom_site_fract_y
_atom_site_fract_z
Si Si1 0.835177 0.355057 0.481183
Si Si2 0.651979 0.606430 0.201079
Si Si3 0.520101 0.213958 0.197354
Si Si4 0.874043 0.722210 0.877795
Si Si5 0.410573 0.138076 0.482819
Si Si6 0.749348 0.114452 0.614071
O O1 0.597260 0.397540 0.505941
O O2 0.791419 0.336843 0.424628
O O3 0.871120 0.247380 0.501445
O O4 0.750000 0.500000 0.195000
O O5 0.500000 0.610795 0.250000
O O6 0.516481 0.645044 0.154405
O O7 0.861775 0.682709 0.205325
O O8 0.500000 0.171820 0.250000
O O9 0.302802 0.233343 0.161686
O O10 0.687289 0.145384 0.167019
O O11 0.029392 0.813492 0.896546
O O12 0.647516 0.095302 0.506349
O O13 0.442831 0.140472 0.426035
O O14 0.750000 0.000000 0.611511
#
# Coordination Sequence:
#
# PCOD9421173 Si02
#       6
#     8   8   8   8   8   8
#     4  10  19  36  63  95 131 181 227 279 335 405
#     4  11  24  42  70 105 133 160 210 282 352 417
#     4  11  23  44  65  91 129 173 219 276 339 414
#     4  11  23  41  67  96 134 178 222 274 347 405
#     4  10  19  37  60  92 127 173 224 291 341 390
#     4  11  25  40  59  94 132 178 235 281 330 393
#
# _framework density 21.801908999999998
#
# number of rings (size 3 to 8) (size 9 to 14) (size 15 to 20)
#    0.000    1.333    5.000    2.500    2.333    1.333 
#    3.000    0.000    0.000    1.000    0.000    0.000 
#    0.000    0.000    0.000    0.000    0.000    0.000 
#
# Total GULP energy -267509.607184 kJ/mol
# GULP energy per Si atom -5573.116816 kJ/mol
# Density = 2.175229 g / cm^3
# Si number density = 21.801909 Si / 1000 Ang^3
#
#
#
# Elastic Constant Matrix: (Units=GPa)
#
#
# Indices 1 2 3 4 5 6 
#
# 1 106.2115 15.4136 25.8421 0.0000 0.0000 0.0000
# 2 15.4136 92.8364 21.3857 0.0000 0.0000 0.0000
# 3 25.8421 21.3857 133.8984 0.0000 0.0000 0.0000
# 4 0.0000 0.0000 0.0000 -14.2418 0.0000 0.0000
# 5 0.0000 0.0000 0.0000 0.0000 -32.6916 0.0000
# 6 0.0000 0.0000 0.0000 0.0000 0.0000 7.5499
#
#
#
# Elastic Compliance Matrix: (Units=1/GPa)
#
#
# Indices 1 2 3 4 5 6 
#
# 1 0.010020 -0.001265 -0.001732 0.000000 0.000000 0.000000
# 2 -0.001265 0.011343 -0.001568 0.000000 0.000000 0.000000
# 3 -0.001732 -0.001568 0.008053 0.000000 0.000000 0.000000
# 4 0.000000 0.000000 0.000000 -0.070216 0.000000 0.000000
# 5 0.000000 0.000000 0.000000 0.000000 -0.030589 0.000000
# 6 0.000000 0.000000 0.000000 0.000000 0.000000 0.132452
#
#
# Mechanical properties :
#
#
# Convention : Reuss Voigt Hill
#
# Bulk Modulus (GPa) = 49.29119 50.91433 50.10276
# Shear Modulus (GPa) = 64.97421 10.14362 37.55891
#
# Velocity S-wave (km/s) = 5.46505 2.15934 4.15509
# Velocity P-wave (km/s) = 7.90444 5.44250 6.78605
#
# Compressibility (1/GPa) = 0.02028760
#
# Stress axis : x y z
#
# Youngs Moduli (GPa) = 99.79950 88.16244 124.17803
#
# Poissons Ratio (x) = 0.11150 0.21506
# Poissons Ratio (y) = 0.12621 0.19465
# Poissons Ratio (z) = 0.17284 0.13820
#
# Static dielectric constant tensor:
#      x y z
#    x 1.987510 0.000000 0.000000 
#    y 0.000000 1.886090 0.000000 
#    z 0.000000 0.000000 1.976070 
# 
# From -- ./inp_files/25359.got.cif
#   From: 2010.05.17/outbox.cif.g08.bks.cpg/sg54_13_cif.got.tgz:25359.got - 2010.06.03 13:09:01.
