data_PCOD9421584
_publ_section_title
;
Structure prediction by ZEFSAII (Michael W. Deem and Ramdas Pophale) SiO2 
 PCOD9421584
Probable space group: P C C A
;
_chemical_formula_sum "Si O2"
_cell_formula_units_Z 40
_cell_length_a 9.053340
_cell_length_b 7.717786
_cell_length_c 21.965384
_cell_angle_alpha 90.000000
_cell_angle_beta 90.000000
_cell_angle_gamma 90.000000
_cell_volume 1534.759615
_symmetry_space_group_name_H-M "P C C A"
_symmetry_group_IT_number 54
_symmetry_cell_setting 'orthorhombic'
loop_
_space_group_symop_operation_xyz
x,y,z
1/2-x,-y,z
1/2+x,-y,1/2-z
-x,y,1/2-z
-x,-y,-z
1/2+x,y,-z
1/2-x,y,1/2+z
x,-y,1/2+z
loop_
_atom_site_type_symbol
_atom_site_label
_atom_site_fract_x
_atom_site_fract_y
_atom_site_fract_z
Si Si1 0.301960 0.698516 0.608980
Si Si2 0.335489 0.664589 0.274330
Si Si3 0.004938 0.774965 0.874571
Si Si4 0.797562 0.299544 0.029155
Si Si5 0.890613 0.836839 0.143479
O O1 0.250000 0.500000 0.606122
O O2 0.302069 0.767243 0.539740
O O3 0.455271 0.735256 0.640693
O O4 0.164957 0.784727 0.643036
O O5 0.250000 0.500000 0.246381
O O6 0.500000 0.718998 0.250000
O O7 0.401917 0.622403 0.341810
O O8 0.203051 0.790402 0.295888
O O9 0.036596 0.730267 0.944669
O O10 0.071615 0.960747 0.858679
O O11 0.750000 0.500000 0.027702
O O12 0.693443 0.208808 0.079728
#
# Coordination Sequence:
#
# PCOD9421584 Si02
#       5
#     8   8   8   8   8
#     4  11  22  37  62  96 138 185 227 267 315 382
#     4  11  25  47  72  95 122 163 217 276 341 409
#     4  11  23  41  65  97 136 175 217 272 332 389
#     4  10  20  36  61  94 136 186 229 265 311 377
#     4  11  23  41  65  96 137 175 216 274 331 393
#
# _framework density 26.062712999999999
#
# number of rings (size 3 to 8) (size 9 to 14) (size 15 to 20)
#    0.000    1.200    0.000    9.000    0.000   10.400 
#    0.000    8.000    0.000    0.000    0.000    0.000 
#    0.000    0.000    0.000    0.000    0.000    0.000 
#
# Total GULP energy -223253.552973 kJ/mol
# GULP energy per Si atom -5581.338824 kJ/mol
# Density = 2.600339 g / cm^3
# Si number density = 26.062713 Si / 1000 Ang^3
#
#
#
# Elastic Constant Matrix: (Units=GPa)
#
#
# Indices 1 2 3 4 5 6 
#
# 1 211.6508 54.4323 36.7043 0.0000 0.0000 0.0000
# 2 54.4323 106.0436 10.4884 0.0000 0.0000 0.0000
# 3 36.7043 10.4884 61.0032 0.0000 0.0000 0.0000
# 4 0.0000 0.0000 0.0000 -0.5212 0.0000 0.0000
# 5 0.0000 0.0000 0.0000 0.0000 46.7186 0.0000
# 6 0.0000 0.0000 0.0000 0.0000 0.0000 49.8477
#
#
#
# Elastic Compliance Matrix: (Units=1/GPa)
#
#
# Indices 1 2 3 4 5 6 
#
# 1 0.005975 -0.002759 -0.003121 0.000000 0.000000 0.000000
# 2 -0.002759 0.010867 -0.000209 0.000000 0.000000 0.000000
# 3 -0.003121 -0.000209 0.018306 0.000000 0.000000 0.000000
# 4 0.000000 0.000000 0.000000 -1.918630 0.000000 0.000000
# 5 0.000000 0.000000 0.000000 0.000000 0.021405 0.000000
# 6 0.000000 0.000000 0.000000 0.000000 0.000000 0.020061
#
#
# Mechanical properties :
#
#
# Convention : Reuss Voigt Hill
#
# Bulk Modulus (GPa) = 43.53097 64.66086 54.09592
# Shear Modulus (GPa) = -2.74396 37.68053 17.46828
#
# Velocity S-wave (km/s) = -1.02719 3.80645 2.59171
# Velocity P-wave (km/s) = 3.91559 6.64697 5.45500
#
# Compressibility (1/GPa) = 0.02297215
#
# Stress axis : x y z
#
# Youngs Moduli (GPa) = 167.35173 92.02457 54.62603
#
# Poissons Ratio (x) = 0.25385 0.17049
# Poissons Ratio (y) = 0.46164 0.01139
# Poissons Ratio (z) = 0.52231 0.01920
#
# Static dielectric constant tensor:
#      x y z
#    x 2.155200 0.000000 0.000000 
#    y 0.000000 2.063610 0.000000 
#    z 0.000000 0.000000 2.140130 
# 
# From -- ./inp_files/23244.got.cif
#   From: 2010.05.17/outbox.cif.g08.bks.cpg/sg54_12_cif.got.tgz:23244.got - 2010.06.03 13:09:01.
