data_PCOD9421250
_publ_section_title
;
Structure prediction by ZEFSAII (Michael W. Deem and Ramdas Pophale) SiO2 
 PCOD9421250
Probable space group: P C C A
;
_chemical_formula_sum "Si O2"
_cell_formula_units_Z 20
_cell_length_a 5.403067
_cell_length_b 11.383997
_cell_length_c 13.385642
_cell_angle_alpha 90.000000
_cell_angle_beta 90.000000
_cell_angle_gamma 90.000000
_cell_volume 823.330741
_symmetry_space_group_name_H-M "P C C A"
_symmetry_group_IT_number 54
_symmetry_cell_setting 'orthorhombic'
loop_
_space_group_symop_operation_xyz
x,y,z
1/2-x,-y,z
1/2+x,-y,1/2-z
-x,y,1/2-z
-x,-y,-z
1/2+x,y,-z
1/2-x,y,1/2+z
x,-y,1/2+z
loop_
_atom_site_type_symbol
_atom_site_label
_atom_site_fract_x
_atom_site_fract_y
_atom_site_fract_z
Si Si1 0.857311 0.872006 0.404480
Si Si2 0.500000 0.434669 0.750000
Si Si3 0.634664 0.779354 0.125778
O O1 0.634286 0.823526 0.338787
O O2 0.884879 0.795454 0.505350
O O3 0.123169 0.858310 0.353651
O O4 0.750000 0.000000 0.433594
O O5 0.250000 0.500000 0.709606
O O6 0.369390 0.352734 0.834750
#
# Coordination Sequence:
#
# PCOD9421250 Si02
#       3
#     8   4   8
#     4  10  19  38  66  95 122 150 187 250 312 376
#     4  12  26  44  58  80 124 172 214 264 298 332
#     4  10  20  37  61  88 119 158 201 244 303 366
#
# _framework density 24.291575000000002
#
# number of rings (size 3 to 8) (size 9 to 14) (size 15 to 20)
#    0.000    1.600    0.000    8.400    0.000    0.000 
#    0.000   30.000    0.000    0.000    0.000    0.000 
#    0.000    0.000    0.000    0.000    0.000    0.000 
#
# Total GULP energy -111351.796490 kJ/mol
# GULP energy per Si atom -5567.589825 kJ/mol
# Density = 2.423629 g / cm^3
# Si number density = 24.291575 Si / 1000 Ang^3
#
#
#
# Elastic Constant Matrix: (Units=GPa)
#
#
# Indices 1 2 3 4 5 6 
#
# 1 266.7182 37.7997 25.9995 0.0000 0.0000 0.0000
# 2 37.7997 96.0312 28.3237 0.0000 0.0000 0.0000
# 3 25.9995 28.3237 82.9247 0.0000 0.0000 0.0000
# 4 0.0000 0.0000 0.0000 30.9413 0.0000 0.0000
# 5 0.0000 0.0000 0.0000 0.0000 38.5335 0.0000
# 6 0.0000 0.0000 0.0000 0.0000 0.0000 43.8688
#
#
#
# Elastic Compliance Matrix: (Units=1/GPa)
#
#
# Indices 1 2 3 4 5 6 
#
# 1 0.004018 -0.001346 -0.000800 0.000000 0.000000 0.000000
# 2 -0.001346 0.012030 -0.003687 0.000000 0.000000 0.000000
# 3 -0.000800 -0.003687 0.013569 0.000000 0.000000 0.000000
# 4 0.000000 0.000000 0.000000 0.032319 0.000000 0.000000
# 5 0.000000 0.000000 0.000000 0.000000 0.025951 0.000000
# 6 0.000000 0.000000 0.000000 0.000000 0.000000 0.022795
#
#
# Mechanical properties :
#
#
# Convention : Reuss Voigt Hill
#
# Bulk Modulus (GPa) = 55.70435 69.99108 62.84771
# Shear Modulus (GPa) = 38.96094 46.23880 42.59987
#
# Velocity S-wave (km/s) = 4.00920 4.36764 4.19225
# Velocity P-wave (km/s) = 6.66430 7.36956 7.02579
#
# Compressibility (1/GPa) = 0.01795192
#
# Stress axis : x y z
#
# Youngs Moduli (GPa) = 248.88201 83.12255 73.69513
#
# Poissons Ratio (x) = 0.11184 0.05897
# Poissons Ratio (y) = 0.33488 0.27173
# Poissons Ratio (z) = 0.19915 0.30649
#
# Static dielectric constant tensor:
#      x y z
#    x 2.087280 0.000000 0.000000 
#    y 0.000000 2.070280 0.000000 
#    z 0.000000 0.000000 2.031450 
# 
# From -- ./inp_files/10625.got.cif
#   From: 2010.05.17/outbox.cif.g08.bks.cpg/sg54_6_cif.got.tgz:10625.got - 2010.06.03 13:09:01.
