data_PCOD9421194
_publ_section_title
;
Structure prediction by ZEFSAII (Michael W. Deem and Ramdas Pophale) SiO2 
 PCOD9421194
Probable space group: P C C A
;
_chemical_formula_sum "Si O2"
_cell_formula_units_Z 48
_cell_length_a 29.962118
_cell_length_b 8.976647
_cell_length_c 8.534978
_cell_angle_alpha 90.000000
_cell_angle_beta 90.000000
_cell_angle_gamma 90.000000
_cell_volume 2295.562192
_symmetry_space_group_name_H-M "P C C A"
_symmetry_group_IT_number 54
_symmetry_cell_setting 'orthorhombic'
loop_
_space_group_symop_operation_xyz
x,y,z
1/2-x,-y,z
1/2+x,-y,1/2-z
-x,y,1/2-z
-x,-y,-z
1/2+x,y,-z
1/2-x,y,1/2+z
x,-y,1/2+z
loop_
_atom_site_type_symbol
_atom_site_label
_atom_site_fract_x
_atom_site_fract_y
_atom_site_fract_z
Si Si1 0.687785 0.815897 0.464227
Si Si2 0.966350 0.552112 0.366963
Si Si3 0.212584 0.718000 0.049465
Si Si4 0.589552 0.655664 0.144333
Si Si5 0.680562 0.531673 0.650356
Si Si6 0.350563 0.086105 0.864909
O O1 0.741663 0.809597 0.461816
O O2 0.674549 0.647744 0.507582
O O3 0.674602 0.871832 0.293873
O O4 0.660999 0.917557 0.589200
O O5 0.945107 0.414881 0.268783
O O6 0.928022 0.632623 0.466703
O O7 0.000000 0.639233 0.250000
O O8 0.000000 0.500000 0.500000
O O9 0.200564 0.626008 0.205619
O O10 0.212816 0.598872 0.908801
O O11 0.171997 0.826414 0.009661
O O12 0.633687 0.554027 0.172172
O O13 0.602229 0.830213 0.160196
#
# Coordination Sequence:
#
# PCOD9421194 Si02
#       6
#     8   8   8   8   8   8
#     4  12  24  39  54  80 113 159 215 257 300 356
#     4   9  18  33  61  98 125 146 177 238 307 371
#     4  11  23  39  56  82 116 157 211 265 310 353
#     4  10  19  37  58  90 124 149 192 241 302 381
#     4  11  22  37  61  86 117 163 204 260 316 353
#     4  11  24  39  58  80 116 166 205 257 312 354
#
# _framework density 20.90991
#
# number of rings (size 3 to 8) (size 9 to 14) (size 15 to 20)
#    0.000    1.333    0.000    8.000    0.000    4.000 
#    0.000    1.667    0.000    0.000    0.000   73.500 
#    0.000    0.000    0.000    0.000    0.000    0.000 
#
# Total GULP energy -267628.649263 kJ/mol
# GULP energy per Si atom -5575.596860 kJ/mol
# Density = 2.086232 g / cm^3
# Si number density = 20.909910 Si / 1000 Ang^3
#
#
#
# Elastic Constant Matrix: (Units=GPa)
#
#
# Indices 1 2 3 4 5 6 
#
# 1 91.0407 19.0586 29.8200 0.0000 0.0000 0.0000
# 2 19.0586 83.6580 15.3419 0.0000 0.0000 0.0000
# 3 29.8200 15.3419 101.4432 0.0000 0.0000 0.0000
# 4 0.0000 0.0000 0.0000 26.8550 0.0000 0.0000
# 5 0.0000 0.0000 0.0000 0.0000 43.1736 0.0000
# 6 0.0000 0.0000 0.0000 0.0000 0.0000 6.5182
#
#
#
# Elastic Compliance Matrix: (Units=1/GPa)
#
#
# Indices 1 2 3 4 5 6 
#
# 1 0.012551 -0.002245 -0.003350 0.000000 0.000000 0.000000
# 2 -0.002245 0.012696 -0.001260 0.000000 0.000000 0.000000
# 3 -0.003350 -0.001260 0.011033 0.000000 0.000000 0.000000
# 4 0.000000 0.000000 0.000000 0.037237 0.000000 0.000000
# 5 0.000000 0.000000 0.000000 0.000000 0.023162 0.000000
# 6 0.000000 0.000000 0.000000 0.000000 0.000000 0.153416
#
#
# Mechanical properties :
#
#
# Convention : Reuss Voigt Hill
#
# Bulk Modulus (GPa) = 44.30665 44.95366 44.63016
# Shear Modulus (GPa) = 18.42775 29.43745 23.93260
#
# Velocity S-wave (km/s) = 2.97188 3.75617 3.38680
# Velocity P-wave (km/s) = 5.74555 6.35273 6.05675
#
# Compressibility (1/GPa) = 0.02256997
#
# Stress axis : x y z
#
# Youngs Moduli (GPa) = 79.67257 78.76511 90.63650
#
# Poissons Ratio (x) = 0.17683 0.30364
# Poissons Ratio (y) = 0.17887 0.11422
# Poissons Ratio (z) = 0.26691 0.09926
#
# Static dielectric constant tensor:
#      x y z
#    x 1.817070 0.000000 0.000000 
#    y 0.000000 1.805480 0.000000 
#    z 0.000000 0.000000 1.829750 
# 
# From -- ./inp_files/5852.got.cif
#   From: 2010.05.17/outbox.cif.g08.bks.cpg/sg54_3_cif.got.tgz:5852.got - 2010.06.03 13:09:01.
