data_PCOD9421948
_publ_section_title
;
Structure prediction by ZEFSAII (Michael W. Deem and Ramdas Pophale) SiO2 
 PCOD9421948
Probable space group: P C C A
;
_chemical_formula_sum "Si O2"
_cell_formula_units_Z 60
_cell_length_a 18.262486
_cell_length_b 18.653871
_cell_length_c 8.891884
_cell_angle_alpha 90.000000
_cell_angle_beta 90.000000
_cell_angle_gamma 90.000000
_cell_volume 3029.163070
_symmetry_space_group_name_H-M "P C C A"
_symmetry_group_IT_number 54
_symmetry_cell_setting 'orthorhombic'
loop_
_space_group_symop_operation_xyz
x,y,z
1/2-x,-y,z
1/2+x,-y,1/2-z
-x,y,1/2-z
-x,-y,-z
1/2+x,y,-z
1/2-x,y,1/2+z
x,-y,1/2+z
loop_
_atom_site_type_symbol
_atom_site_label
_atom_site_fract_x
_atom_site_fract_y
_atom_site_fract_z
Si Si1 0.204209 0.896827 0.973647
Si Si2 0.032664 0.273897 0.079780
Si Si3 0.668270 0.215786 0.076847
Si Si4 0.750000 0.000000 0.772258
Si Si5 0.299900 0.563376 0.187971
Si Si6 0.787341 0.338640 0.041211
Si Si7 0.541791 0.440373 0.906700
Si Si8 0.105686 0.224867 0.592210
O O1 0.141201 0.838708 0.993443
O O2 0.206568 0.946271 0.120491
O O3 0.280996 0.852909 0.958745
O O4 0.200125 0.950359 0.833600
O O5 0.041737 0.358039 0.036912
O O6 0.000000 0.268406 0.250000
O O7 0.111183 0.236053 0.054799
O O8 0.976206 0.238521 0.962325
O O9 0.726163 0.281105 0.092152
O O10 0.624293 0.209023 0.233718
O O11 0.250000 0.500000 0.251986
O O12 0.319887 0.620499 0.316099
O O13 0.374571 0.535971 0.116066
O O14 0.252268 0.604496 0.064766
O O15 0.849333 0.296177 0.952186
O O16 0.500000 0.437178 0.750000
O O17 0.500000 0.500000 0.000000
#
# Coordination Sequence:
#
# PCOD9421948 Si02
#       8
#     8   8   8   4   8   8   8   8
#     4  10  22  38  69 103 131 168 212 257 315 381
#     4  11  25  42  65  89 130 172 219 277 327 388
#     4  11  22  41  64  97 128 167 216 270 318 387
#     4  10  20  40  66 102 140 166 202 258 316 384
#     4  12  26  41  64  88 125 168 220 279 342 398
#     4  11  23  41  63  91 122 158 221 275 329 380
#     4  11  27  45  62  89 126 171 220 272 346 411
#     4  11  23  39  66  94 128 168 215 267 320 380
#
# _framework density 19.807451
#
# number of rings (size 3 to 8) (size 9 to 14) (size 15 to 20)
#    0.000    1.067    4.000    2.400    7.467    1.067 
#    0.000    0.000    0.000    4.800    0.000    0.000 
#    0.000    0.000    0.000    0.000    0.000    0.000 
#
# Total GULP energy -335373.406195 kJ/mol
# GULP energy per Si atom -5589.556770 kJ/mol
# Density = 1.976237 g / cm^3
# Si number density = 19.807451 Si / 1000 Ang^3
#
#
#
# Elastic Constant Matrix: (Units=GPa)
#
#
# Indices 1 2 3 4 5 6 
#
# 1 89.7730 41.3706 8.3756 0.0000 0.0000 0.0000
# 2 41.3706 96.2789 32.7779 0.0000 0.0000 0.0000
# 3 8.3756 32.7779 68.8088 0.0000 0.0000 0.0000
# 4 0.0000 0.0000 0.0000 -137.9771 0.0000 0.0000
# 5 0.0000 0.0000 0.0000 0.0000 26.6832 0.0000
# 6 0.0000 0.0000 0.0000 0.0000 0.0000 3.8342
#
#
#
# Elastic Compliance Matrix: (Units=1/GPa)
#
#
# Indices 1 2 3 4 5 6 
#
# 1 0.014000 -0.006488 0.001386 0.000000 0.000000 0.000000
# 2 -0.006488 0.015403 -0.006548 0.000000 0.000000 0.000000
# 3 0.001386 -0.006548 0.017483 0.000000 0.000000 0.000000
# 4 0.000000 0.000000 0.000000 -0.007248 0.000000 0.000000
# 5 0.000000 0.000000 0.000000 0.000000 0.037477 0.000000
# 6 0.000000 0.000000 0.000000 0.000000 0.000000 0.260810
#
#
# Mechanical properties :
#
#
# Convention : Reuss Voigt Hill
#
# Bulk Modulus (GPa) = 42.39403 46.65651 44.52527
# Shear Modulus (GPa) = 13.54698 -10.00283 1.77208
#
# Velocity S-wave (km/s) = 2.61805 -2.24967 0.94689
# Velocity P-wave (km/s) = 5.53068 4.10587 4.87066
#
# Compressibility (1/GPa) = 0.02358823
#
# Stress axis : x y z
#
# Youngs Moduli (GPa) = 71.43088 64.92088 57.19696
#
# Poissons Ratio (x) = 0.42118 -0.07930
# Poissons Ratio (y) = 0.46341 0.37452
# Poissons Ratio (z) = -0.09903 0.42510
#
# Static dielectric constant tensor:
#      x y z
#    x 1.775060 0.000000 0.000000 
#    y 0.000000 1.699440 0.000000 
#    z 0.000000 0.000000 1.718380 
# 
# From -- ./inp_files/4349.got.cif
#   From: 2010.05.17/outbox.cif.g08.bks.cpg/sg54_3_cif.got.tgz:4349.got - 2010.06.03 13:09:01.
