data_PCOD9421975
_publ_section_title
;
Structure prediction by ZEFSAII (Michael W. Deem and Ramdas Pophale) SiO2 
 PCOD9421975
Probable space group: P C C A
;
_chemical_formula_sum "Si O2"
_cell_formula_units_Z 44
_cell_length_a 26.347692
_cell_length_b 8.309174
_cell_length_c 9.517894
_cell_angle_alpha 90.000000
_cell_angle_beta 90.000000
_cell_angle_gamma 90.000000
_cell_volume 2083.729284
_symmetry_space_group_name_H-M "P C C A"
_symmetry_group_IT_number 54
_symmetry_cell_setting 'orthorhombic'
loop_
_space_group_symop_operation_xyz
x,y,z
1/2-x,-y,z
1/2+x,-y,1/2-z
-x,y,1/2-z
-x,-y,-z
1/2+x,y,-z
1/2-x,y,1/2+z
x,-y,1/2+z
loop_
_atom_site_type_symbol
_atom_site_label
_atom_site_fract_x
_atom_site_fract_y
_atom_site_fract_z
Si Si1 0.894978 0.884260 0.588894
Si Si2 0.188592 0.140096 0.990066
Si Si3 0.750000 0.000000 0.747679
Si Si4 0.894446 0.679698 0.862621
Si Si5 0.428363 0.685418 0.651864
Si Si6 0.961505 0.827692 0.075818
O O1 0.886785 0.751936 0.708009
O O2 0.892215 0.794796 0.440364
O O3 0.851830 0.017537 0.578445
O O4 0.947967 0.985878 0.607130
O O5 0.155767 0.293124 0.042188
O O6 0.210159 0.070779 0.138054
O O7 0.230284 0.136947 0.864143
O O8 0.915755 0.500052 0.867441
O O9 0.938924 0.792232 0.924937
O O10 0.427412 0.727784 0.814294
O O11 0.483592 0.749594 0.599603
#
# Coordination Sequence:
#
# PCOD9421975 Si02
#       6
#     8   8   4   8   8   8
#     4  11  22  39  62  94 125 171 219 267 319 389
#     4  10  21  39  67 100 121 168 211 266 318 391
#     4  10  20  40  70  98 128 158 224 264 316 390
#     4  11  22  38  60  94 131 169 209 268 330 376
#     4  11  23  38  59  91 132 173 212 271 320 374
#     4  10  22  39  59  88 124 176 227 259 309 377
#
# _framework density 21.115985999999999
#
# number of rings (size 3 to 8) (size 9 to 14) (size 15 to 20)
#    0.000    1.455    1.818    4.364    2.545    3.636 
#    0.000    0.000    0.000    6.545    0.000    0.000 
#    0.000    0.000    0.000    0.000    0.000    0.000 
#
# Total GULP energy -245102.891347 kJ/mol
# GULP energy per Si atom -5570.520258 kJ/mol
# Density = 2.106792 g / cm^3
# Si number density = 21.115986 Si / 1000 Ang^3
#
#
#
# Elastic Constant Matrix: (Units=GPa)
#
#
# Indices 1 2 3 4 5 6 
#
# 1 59.9002 34.6760 26.5223 0.0000 0.0000 0.0000
# 2 34.6760 64.4089 18.1797 0.0000 0.0000 0.0000
# 3 26.5223 18.1797 83.1829 0.0000 0.0000 0.0000
# 4 0.0000 0.0000 0.0000 26.3443 0.0000 0.0000
# 5 0.0000 0.0000 0.0000 0.0000 34.4455 0.0000
# 6 0.0000 0.0000 0.0000 0.0000 0.0000 -7.1233
#
#
#
# Elastic Compliance Matrix: (Units=1/GPa)
#
#
# Indices 1 2 3 4 5 6 
#
# 1 0.026565 -0.012694 -0.005696 0.000000 0.000000 0.000000
# 2 -0.012694 0.022613 -0.000895 0.000000 0.000000 0.000000
# 3 -0.005696 -0.000895 0.014033 0.000000 0.000000 0.000000
# 4 0.000000 0.000000 0.000000 0.037959 0.000000 0.000000
# 5 0.000000 0.000000 0.000000 0.000000 0.029031 0.000000
# 6 0.000000 0.000000 0.000000 0.000000 0.000000 -0.140385
#
#
# Mechanical properties :
#
#
# Convention : Reuss Voigt Hill
#
# Bulk Modulus (GPa) = 40.58145 40.69422 40.63783
# Shear Modulus (GPa) = 136.61624 19.27423 77.94524
#
# Velocity S-wave (km/s) = 8.05223 3.02450 6.08219
# Velocity P-wave (km/s) = 10.28160 5.61341 8.28317
#
# Compressibility (1/GPa) = 0.02464180
#
# Stress axis : x y z
#
# Youngs Moduli (GPa) = 37.64344 44.22323 71.25927
#
# Poissons Ratio (x) = 0.56138 0.40588
# Poissons Ratio (y) = 0.47786 0.06374
# Poissons Ratio (z) = 0.21441 0.03956
#
# Static dielectric constant tensor:
#      x y z
#    x 1.885090 0.000000 0.000000 
#    y 0.000000 1.719290 0.000000 
#    z 0.000000 0.000000 1.762460 
# 
# From -- ./inp_files/5792.got.cif
#   From: 2010.05.17/outbox.cif.g08.bks.cpg/sg54_3_cif.got.tgz:5792.got - 2010.06.03 13:09:01.
