data_PCOD9421731
_publ_section_title
;
Structure prediction by ZEFSAII (Michael W. Deem and Ramdas Pophale) SiO2 
 PCOD9421731
Probable space group: P C C A
;
_chemical_formula_sum "Si O2"
_cell_formula_units_Z 36
_cell_length_a 14.454078
_cell_length_b 8.089854
_cell_length_c 13.774162
_cell_angle_alpha 90.000000
_cell_angle_beta 90.000000
_cell_angle_gamma 90.000000
_cell_volume 1610.631781
_symmetry_space_group_name_H-M "P C C A"
_symmetry_group_IT_number 54
_symmetry_cell_setting 'orthorhombic'
loop_
_space_group_symop_operation_xyz
x,y,z
1/2-x,-y,z
1/2+x,-y,1/2-z
-x,y,1/2-z
-x,-y,-z
1/2+x,y,-z
1/2-x,y,1/2+z
x,-y,1/2+z
loop_
_atom_site_type_symbol
_atom_site_label
_atom_site_fract_x
_atom_site_fract_y
_atom_site_fract_z
Si Si1 0.340379 0.309207 0.865324
Si Si2 0.124649 0.340859 0.935298
Si Si3 0.916950 0.975817 0.177418
Si Si4 0.686309 0.660964 0.365368
Si Si5 0.750000 0.000000 0.324141
O O1 0.234744 0.312069 0.906704
O O2 0.391910 0.473286 0.900038
O O3 0.338505 0.326396 0.747747
O O4 0.389559 0.135096 0.886550
O O5 0.071192 0.192020 0.883251
O O6 0.110774 0.344078 0.050725
O O7 0.000000 0.014046 0.250000
O O8 0.832115 0.952796 0.251424
O O9 0.750000 0.500000 0.377867
O O10 0.733950 0.837102 0.385859
#
# Coordination Sequence:
#
# PCOD9421731 Si02
#       5
#     8   8   8   8   4
#     4  10  20  38  58  89 122 153 204 251 292 356
#     4  11  20  35  65  88 114 161 202 239 307 358
#     4  11  22  40  63  88 123 166 200 247 304 360
#     4  11  19  33  61  93 114 156 201 245 300 358
#     4  10  22  38  60  86 126 158 198 258 296 358
#
# _framework density 22.351475000000001
#
# number of rings (size 3 to 8) (size 9 to 14) (size 15 to 20)
#    0.000    1.333    8.889    0.000    3.111    0.889 
#    0.000    4.444    0.000    8.000    0.000    0.000 
#    0.000    0.000    0.000    0.000    0.000    0.000 
#
# Total GULP energy -200945.831220 kJ/mol
# GULP energy per Si atom -5581.828645 kJ/mol
# Density = 2.230060 g / cm^3
# Si number density = 22.351475 Si / 1000 Ang^3
#
#
#
# Elastic Constant Matrix: (Units=GPa)
#
#
# Indices 1 2 3 4 5 6 
#
# 1 32.8796 -18.1059 -2.2984 0.0000 0.0000 0.0000
# 2 -18.1059 164.3852 0.3740 0.0000 0.0000 0.0000
# 3 -2.2984 0.3740 85.4503 0.0000 0.0000 0.0000
# 4 0.0000 0.0000 0.0000 -50.0918 0.0000 0.0000
# 5 0.0000 0.0000 0.0000 0.0000 -8.3516 0.0000
# 6 0.0000 0.0000 0.0000 0.0000 0.0000 9.9654
#
#
#
# Elastic Compliance Matrix: (Units=1/GPa)
#
#
# Indices 1 2 3 4 5 6 
#
# 1 0.032440 0.003571 0.000857 0.000000 0.000000 0.000000
# 2 0.003571 0.006476 0.000068 0.000000 0.000000 0.000000
# 3 0.000857 0.000068 0.011725 0.000000 0.000000 0.000000
# 4 0.000000 0.000000 0.000000 -0.019963 0.000000 0.000000
# 5 0.000000 0.000000 0.000000 0.000000 -0.119738 0.000000
# 6 0.000000 0.000000 0.000000 0.000000 0.000000 0.100347
#
#
# Mechanical properties :
#
#
# Convention : Reuss Voigt Hill
#
# Bulk Modulus (GPa) = 16.76897 26.96161 21.86529
# Shear Modulus (GPa) = 225.48482 10.48744 117.98613
#
# Velocity S-wave (km/s) = 10.05487 2.16847 7.27333
# Velocity P-wave (km/s) = 11.92976 4.28467 8.96319
#
# Compressibility (1/GPa) = 0.05963395
#
# Stress axis : x y z
#
# Youngs Moduli (GPa) = 30.82572 154.40549 85.28449
#
# Poissons Ratio (x) = -0.55140 -0.07308
# Poissons Ratio (y) = -0.11008 -0.00577
# Poissons Ratio (z) = -0.02642 -0.01045
#
# Static dielectric constant tensor:
#      x y z
#    x 1.823790 0.000000 0.000000 
#    y 0.000000 1.870570 0.000000 
#    z 0.000000 0.000000 1.796560 
# 
# From -- ./inp_files/13880.got.cif
#   From: 2010.05.17/outbox.cif.g08.bks.cpg/sg54_7_cif.got.tgz:13880.got - 2010.06.03 13:09:01.
