data_PCOD9421554
_publ_section_title
;
Structure prediction by ZEFSAII (Michael W. Deem and Ramdas Pophale) SiO2 
 PCOD9421554
Probable space group: P C C A
;
_chemical_formula_sum "Si O2"
_cell_formula_units_Z 56
_cell_length_a 19.339981
_cell_length_b 14.724456
_cell_length_c 8.906094
_cell_angle_alpha 90.000000
_cell_angle_beta 90.000000
_cell_angle_gamma 90.000000
_cell_volume 2536.194616
_symmetry_space_group_name_H-M "P C C A"
_symmetry_group_IT_number 54
_symmetry_cell_setting 'orthorhombic'
loop_
_space_group_symop_operation_xyz
x,y,z
1/2-x,-y,z
1/2+x,-y,1/2-z
-x,y,1/2-z
-x,-y,-z
1/2+x,y,-z
1/2-x,y,1/2+z
x,-y,1/2+z
loop_
_atom_site_type_symbol
_atom_site_label
_atom_site_fract_x
_atom_site_fract_y
_atom_site_fract_z
Si Si1 0.196446 0.071630 0.142704
Si Si2 0.285433 0.766550 0.655205
Si Si3 0.050566 0.531198 0.632344
Si Si4 0.930554 0.134292 0.804779
Si Si5 0.394301 0.035531 0.902676
Si Si6 0.360073 0.457475 0.367938
Si Si7 0.714139 0.357163 0.620371
O O1 0.242491 0.152255 0.079172
O O2 0.143667 0.095056 0.275877
O O3 0.250000 0.000000 0.213794
O O4 0.157402 0.018564 0.012296
O O5 0.358639 0.809012 0.709982
O O6 0.229567 0.727208 0.772138
O O7 0.298639 0.685391 0.541267
O O8 0.110176 0.573525 0.528938
O O9 0.086224 0.450532 0.730351
O O10 0.000000 0.581596 0.750000
O O11 0.000000 0.500000 0.500000
O O12 0.000000 0.184654 0.750000
O O13 0.927676 0.045295 0.696302
O O14 0.934921 0.098289 0.977682
O O15 0.343713 0.565871 0.358907
O O16 0.287043 0.409046 0.358930
#
# Coordination Sequence:
#
# PCOD9421554 Si02
#       7
#     8   8   8   8   8   8   8
#     4  11  20  34  63  89 118 149 190 259 307 355
#     4  12  23  36  58  90 125 147 209 251 314 356
#     4   9  18  34  63  95 116 151 200 242 282 363
#     4  11  23  38  56  83 121 161 201 246 296 369
#     4  10  20  36  60  86 113 159 202 238 305 370
#     4  10  20  41  62  85 127 157 208 244 307 360
#     4  11  24  38  61  90 116 165 196 265 312 354
#
# _framework density 22.080324000000001
#
# number of rings (size 3 to 8) (size 9 to 14) (size 15 to 20)
#    0.000    1.429    2.857    4.286    0.000    2.286 
#    0.000    7.143    0.000    1.714    0.000    0.000 
#    0.000    0.000    0.000    0.000    0.000    0.000 
#
# Total GULP energy -311892.829586 kJ/mol
# GULP energy per Si atom -5569.514814 kJ/mol
# Density = 2.203007 g / cm^3
# Si number density = 22.080324 Si / 1000 Ang^3
#
#
#
# Elastic Constant Matrix: (Units=GPa)
#
#
# Indices 1 2 3 4 5 6 
#
# 1 83.6655 22.6455 24.1544 0.0000 0.0000 0.0000
# 2 22.6455 55.2950 12.4884 0.0000 0.0000 0.0000
# 3 24.1544 12.4884 110.2264 0.0000 0.0000 0.0000
# 4 0.0000 0.0000 0.0000 12.1053 0.0000 0.0000
# 5 0.0000 0.0000 0.0000 0.0000 28.5259 0.0000
# 6 0.0000 0.0000 0.0000 0.0000 0.0000 5.6500
#
#
#
# Elastic Compliance Matrix: (Units=1/GPa)
#
#
# Indices 1 2 3 4 5 6 
#
# 1 0.014081 -0.005203 -0.002496 0.000000 0.000000 0.000000
# 2 -0.005203 0.020482 -0.001180 0.000000 0.000000 0.000000
# 3 -0.002496 -0.001180 0.009753 0.000000 0.000000 0.000000
# 4 0.000000 0.000000 0.000000 0.082608 0.000000 0.000000
# 5 0.000000 0.000000 0.000000 0.000000 0.035056 0.000000
# 6 0.000000 0.000000 0.000000 0.000000 0.000000 0.176990
#
#
# Mechanical properties :
#
#
# Convention : Reuss Voigt Hill
#
# Bulk Modulus (GPa) = 37.65464 40.86261 39.25862
# Shear Modulus (GPa) = 13.67680 21.91616 17.79648
#
# Velocity S-wave (km/s) = 2.49150 3.15392 2.84207
# Velocity P-wave (km/s) = 5.03659 5.63999 5.34681
#
# Compressibility (1/GPa) = 0.02655715
#
# Stress axis : x y z
#
# Youngs Moduli (GPa) = 71.01608 48.82271 102.53275
#
# Poissons Ratio (x) = 0.25403 0.25594
# Poissons Ratio (y) = 0.36950 0.12103
# Poissons Ratio (z) = 0.17727 0.05763
#
# Static dielectric constant tensor:
#      x y z
#    x 1.921210 0.000000 0.000000 
#    y 0.000000 1.831730 0.000000 
#    z 0.000000 0.000000 1.874670 
# 
# From -- ./inp_files/4792.got.cif
#   From: 2010.05.17/outbox.cif.g08.bks.cpg/sg54_3_cif.got.tgz:4792.got - 2010.06.03 13:09:01.
