data_PCOD9421576
_publ_section_title
;
Structure prediction by ZEFSAII (Michael W. Deem and Ramdas Pophale) SiO2 
 PCOD9421576
Probable space group: P C C A
;
_chemical_formula_sum "Si O2"
_cell_formula_units_Z 52
_cell_length_a 20.072297
_cell_length_b 9.440517
_cell_length_c 14.861220
_cell_angle_alpha 90.000000
_cell_angle_beta 90.000000
_cell_angle_gamma 90.000000
_cell_volume 2816.095097
_symmetry_space_group_name_H-M "P C C A"
_symmetry_group_IT_number 54
_symmetry_cell_setting 'orthorhombic'
loop_
_space_group_symop_operation_xyz
x,y,z
1/2-x,-y,z
1/2+x,-y,1/2-z
-x,y,1/2-z
-x,-y,-z
1/2+x,y,-z
1/2-x,y,1/2+z
x,-y,1/2+z
loop_
_atom_site_type_symbol
_atom_site_label
_atom_site_fract_x
_atom_site_fract_y
_atom_site_fract_z
Si Si1 0.423189 0.142095 0.431041
Si Si2 0.178844 0.678861 0.546738
Si Si3 0.825560 0.619022 0.503780
Si Si4 0.077332 0.867598 0.057080
Si Si5 0.720523 0.212727 0.764383
Si Si6 0.250000 0.500000 0.839340
Si Si7 0.141401 0.049849 0.747137
O O1 0.376766 0.252176 0.484357
O O2 0.500918 0.180764 0.432893
O O3 0.397201 0.120237 0.329930
O O4 0.417837 0.994267 0.485208
O O5 0.166955 0.512023 0.564667
O O6 0.252713 0.690066 0.503809
O O7 0.186604 0.756621 0.640593
O O8 0.878948 0.737424 0.481284
O O9 0.815002 0.528419 0.596288
O O10 0.101481 0.930636 0.153583
O O11 0.744282 0.358786 0.719350
O O12 0.789150 0.128231 0.772521
O O13 0.665580 0.107492 0.720702
#
# Coordination Sequence:
#
# PCOD9421576 Si02
#       7
#     8   8   8   8   8   4   8
#     4  11  24  40  63  89 129 169 215 264 323 393
#     4  10  20  39  59  90 120 162 202 263 319 381
#     4  10  21  37  63  89 123 158 204 266 322 386
#     4  11  23  41  62  92 127 171 213 266 328 389
#     4  11  21  36  61  93 123 157 210 265 318 378
#     4  10  20  36  60  96 120 158 206 262 324 374
#     4  11  22  39  61  94 122 167 214 269 318 388
#
# _framework density 18.465284
#
# number of rings (size 3 to 8) (size 9 to 14) (size 15 to 20)
#    0.000    1.538    3.077    4.154    0.000    2.462 
#    0.000    0.000    0.000    0.000    0.000    0.000 
#    0.000    0.000    0.000    0.000    0.000    0.000 
#
# Total GULP energy -289504.622483 kJ/mol
# GULP energy per Si atom -5567.396586 kJ/mol
# Density = 1.842326 g / cm^3
# Si number density = 18.465284 Si / 1000 Ang^3
#
#
#
# Elastic Constant Matrix: (Units=GPa)
#
#
# Indices 1 2 3 4 5 6 
#
# 1 404.0521 190.7862 310.2063 0.0000 0.0000 0.0000
# 2 190.7862 154.8132 150.3127 0.0000 0.0000 0.0000
# 3 310.2063 150.3127 364.7945 0.0000 0.0000 0.0000
# 4 0.0000 0.0000 0.0000 28.8734 0.0000 0.0000
# 5 0.0000 0.0000 0.0000 0.0000 422.1051 0.0000
# 6 0.0000 0.0000 0.0000 0.0000 0.0000 31.4329
#
#
#
# Elastic Compliance Matrix: (Units=1/GPa)
#
#
# Indices 1 2 3 4 5 6 
#
# 1 0.010248 -0.006948 -0.005852 0.000000 0.000000 0.000000
# 2 -0.006948 0.015477 -0.000469 0.000000 0.000000 0.000000
# 3 -0.005852 -0.000469 0.007911 0.000000 0.000000 0.000000
# 4 0.000000 0.000000 0.000000 0.034634 0.000000 0.000000
# 5 0.000000 0.000000 0.000000 0.000000 0.002369 0.000000
# 6 0.000000 0.000000 0.000000 0.000000 0.000000 0.031814
#
#
# Mechanical properties :
#
#
# Convention : Reuss Voigt Hill
#
# Bulk Modulus (GPa) = 140.87529 247.36335 194.11932
# Shear Modulus (GPa) = 38.06415 114.63925 76.35170
#
# Velocity S-wave (km/s) = 4.54518 7.88787 6.43728
# Velocity P-wave (km/s) = 10.19816 14.73805 12.67305
#
# Compressibility (1/GPa) = 0.00709848
#
# Stress axis : x y z
#
# Youngs Moduli (GPa) = 97.57702 64.61102 126.40951
#
# Poissons Ratio (x) = 0.44891 0.73973
# Poissons Ratio (y) = 0.67795 0.05931
# Poissons Ratio (z) = 0.57101 0.03031
#
# Static dielectric constant tensor:
#      x y z
#    x 1.604160 0.000000 0.000000 
#    y 0.000000 1.526400 0.000000 
#    z 0.000000 0.000000 1.707270 
# 
# From -- ./inp_files/14607.got.cif
#   From: 2010.05.17/outbox.cif.g08.bks.cpg/sg54_8_cif.got.tgz:14607.got - 2010.06.03 13:09:01.
