data_PCOD9421815
_publ_section_title
;
Structure prediction by ZEFSAII (Michael W. Deem and Ramdas Pophale) SiO2 
 PCOD9421815
Probable space group: P C C A
;
_chemical_formula_sum "Si O2"
_cell_formula_units_Z 36
_cell_length_a 10.701360
_cell_length_b 17.774047
_cell_length_c 9.411889
_cell_angle_alpha 90.000000
_cell_angle_beta 90.000000
_cell_angle_gamma 90.000000
_cell_volume 1790.202235
_symmetry_space_group_name_H-M "P C C A"
_symmetry_group_IT_number 54
_symmetry_cell_setting 'orthorhombic'
loop_
_space_group_symop_operation_xyz
x,y,z
1/2-x,-y,z
1/2+x,-y,1/2-z
-x,y,1/2-z
-x,-y,-z
1/2+x,y,-z
1/2-x,y,1/2+z
x,-y,1/2+z
loop_
_atom_site_type_symbol
_atom_site_label
_atom_site_fract_x
_atom_site_fract_y
_atom_site_fract_z
Si Si1 0.353584 0.229239 0.791721
Si Si2 0.814953 0.858849 0.429689
Si Si3 0.645883 0.398386 0.741499
Si Si4 0.250000 0.500000 0.007331
Si Si5 0.250000 0.000000 0.390823
Si Si6 0.000000 0.950444 0.250000
O O1 0.500000 0.223780 0.750000
O O2 0.270396 0.173552 0.695834
O O3 0.301766 0.313949 0.770133
O O4 0.341436 0.205095 0.955044
O O5 0.941493 0.896021 0.369396
O O6 0.747011 0.926471 0.511826
O O7 0.500000 0.387605 0.750000
O O8 0.672812 0.448546 0.602494
O O9 0.685262 0.442464 0.883431
O O10 0.119984 0.998058 0.302928
#
# Coordination Sequence:
#
# PCOD9421815 Si02
#       6
#     8   8   8   4   4   4
#     4  11  25  42  66  94 134 172 215 271 330 393
#     4  12  25  45  67  96 131 173 224 271 335 390
#     4  10  21  39  63  95 127 167 211 260 321 381
#     4  10  20  38  66  92 128 164 212 260 312 386
#     4  12  26  46  72  96 132 172 230 276 334 392
#     4  12  26  46  70 100 126 176 228 282 334 396
#
# _framework density 20.109462000000001
#
# number of rings (size 3 to 8) (size 9 to 14) (size 15 to 20)
#    0.000    0.889    2.222    4.667    1.556    0.000 
#    0.000    0.000    4.889    0.000    0.000    0.000 
#    0.000    0.000    0.000    0.000    0.000    0.000 
#
# Total GULP energy -201094.544357 kJ/mol
# GULP energy per Si atom -5585.959565 kJ/mol
# Density = 2.006369 g / cm^3
# Si number density = 20.109462 Si / 1000 Ang^3
#
#
#
# Elastic Constant Matrix: (Units=GPa)
#
#
# Indices 1 2 3 4 5 6 
#
# 1 85.4539 26.9518 38.0560 0.0000 0.0000 0.0000
# 2 26.9518 117.1876 40.8111 0.0000 0.0000 0.0000
# 3 38.0560 40.8111 127.8517 0.0000 0.0000 0.0000
# 4 0.0000 0.0000 0.0000 34.9383 0.0000 0.0000
# 5 0.0000 0.0000 0.0000 0.0000 23.9606 0.0000
# 6 0.0000 0.0000 0.0000 0.0000 0.0000 37.1664
#
#
#
# Elastic Compliance Matrix: (Units=1/GPa)
#
#
# Indices 1 2 3 4 5 6 
#
# 1 0.013885 -0.001973 -0.003503 0.000000 0.000000 0.000000
# 2 -0.001973 0.009881 -0.002567 0.000000 0.000000 0.000000
# 3 -0.003503 -0.002567 0.009684 0.000000 0.000000 0.000000
# 4 0.000000 0.000000 0.000000 0.028622 0.000000 0.000000
# 5 0.000000 0.000000 0.000000 0.000000 0.041735 0.000000
# 6 0.000000 0.000000 0.000000 0.000000 0.000000 0.026906
#
#
# Mechanical properties :
#
#
# Convention : Reuss Voigt Hill
#
# Bulk Modulus (GPa) = 57.59325 60.23679 58.91502
# Shear Modulus (GPa) = 32.76841 34.19136 33.47988
#
# Velocity S-wave (km/s) = 4.04109 4.12790 4.08472
# Velocity P-wave (km/s) = 7.10464 7.26215 7.18383
#
# Compressibility (1/GPa) = 0.01736315
#
# Stress axis : x y z
#
# Youngs Moduli (GPa) = 72.02216 101.20381 103.26799
#
# Poissons Ratio (x) = 0.19971 0.36174
# Poissons Ratio (y) = 0.14213 0.26506
# Poissons Ratio (z) = 0.25229 0.25976
#
# Static dielectric constant tensor:
#      x y z
#    x 1.693000 0.000000 0.000000 
#    y 0.000000 1.728570 0.000000 
#    z 0.000000 0.000000 1.707100 
# 
# From -- ./inp_files/2516.got.cif
#   From: 2010.05.17/outbox.cif.g08.bks.cpg/sg54_2_cif.got.tgz:2516.got - 2010.06.03 13:09:01.
