data_PCOD9421201
_publ_section_title
;
Structure prediction by ZEFSAII (Michael W. Deem and Ramdas Pophale) SiO2 
 PCOD9421201
Probable space group: P C C A
;
_chemical_formula_sum "Si O2"
_cell_formula_units_Z 40
_cell_length_a 17.998959
_cell_length_b 10.597454
_cell_length_c 10.724891
_cell_angle_alpha 90.000000
_cell_angle_beta 90.000000
_cell_angle_gamma 90.000000
_cell_volume 2045.699386
_symmetry_space_group_name_H-M "P C C A"
_symmetry_group_IT_number 54
_symmetry_cell_setting 'orthorhombic'
loop_
_space_group_symop_operation_xyz
x,y,z
1/2-x,-y,z
1/2+x,-y,1/2-z
-x,y,1/2-z
-x,-y,-z
1/2+x,y,-z
1/2-x,y,1/2+z
x,-y,1/2+z
loop_
_atom_site_type_symbol
_atom_site_label
_atom_site_fract_x
_atom_site_fract_y
_atom_site_fract_z
Si Si1 0.737895 0.359461 0.799640
Si Si2 0.165041 0.217597 0.525778
Si Si3 0.784485 0.878674 0.136966
Si Si4 0.587028 0.754080 0.240098
Si Si5 0.914712 0.949349 0.265514
O O1 0.750000 0.500000 0.751734
O O2 0.793302 0.339230 0.916777
O O3 0.767484 0.251211 0.706701
O O4 0.650099 0.326660 0.813107
O O5 0.235788 0.133478 0.485352
O O6 0.114974 0.245941 0.404531
O O7 0.119585 0.136236 0.625608
O O8 0.870617 0.909587 0.139690
O O9 0.750000 0.000000 0.208091
O O10 0.500000 0.715945 0.250000
O O11 0.592361 0.900245 0.283839
O O12 0.000000 0.919868 0.250000
#
# Coordination Sequence:
#
# PCOD9421201 Si02
#       5
#     8   8   8   8   8
#     4  10  22  39  59  85 119 161 202 240 283 359
#     4  10  22  35  60  86 121 154 201 233 302 355
#     4  10  19  37  60  88 114 151 197 245 287 348
#     4  10  22  38  58  87 119 152 193 249 297 347
#     4  10  21  35  56  92 122 148 189 249 303 347
#
# _framework density 19.553217
#
# number of rings (size 3 to 8) (size 9 to 14) (size 15 to 20)
#    0.000    2.000    4.000    0.000    2.800    8.000 
#    0.000    5.000    0.000    0.000    0.000    0.000 
#    0.000    0.000    0.000    0.000    0.000    0.000 
#
# Total GULP energy -222709.762865 kJ/mol
# GULP energy per Si atom -5567.744072 kJ/mol
# Density = 1.950871 g / cm^3
# Si number density = 19.553217 Si / 1000 Ang^3
#
#
#
# Elastic Constant Matrix: (Units=GPa)
#
#
# Indices 1 2 3 4 5 6 
#
# 1 178.6412 45.1187 26.4828 0.0000 0.0000 0.0000
# 2 45.1187 109.7325 10.9865 0.0000 0.0000 0.0000
# 3 26.4828 10.9865 55.5707 0.0000 0.0000 0.0000
# 4 0.0000 0.0000 0.0000 -38.6189 0.0000 0.0000
# 5 0.0000 0.0000 0.0000 0.0000 27.8252 0.0000
# 6 0.0000 0.0000 0.0000 0.0000 0.0000 20.5338
#
#
#
# Elastic Compliance Matrix: (Units=1/GPa)
#
#
# Indices 1 2 3 4 5 6 
#
# 1 0.006612 -0.002452 -0.002666 0.000000 0.000000 0.000000
# 2 -0.002452 0.010206 -0.000849 0.000000 0.000000 0.000000
# 3 -0.002666 -0.000849 0.019434 0.000000 0.000000 0.000000
# 4 0.000000 0.000000 0.000000 -0.025894 0.000000 0.000000
# 5 0.000000 0.000000 0.000000 0.000000 0.035939 0.000000
# 6 0.000000 0.000000 0.000000 0.000000 0.000000 0.048700
#
#
# Mechanical properties :
#
#
# Convention : Reuss Voigt Hill
#
# Bulk Modulus (GPa) = 41.12342 56.56893 48.84617
# Shear Modulus (GPa) = 43.46388 19.37177 31.41783
#
# Velocity S-wave (km/s) = 4.71983 3.15099 4.01282
# Velocity P-wave (km/s) = 7.12598 6.49860 6.81951
#
# Compressibility (1/GPa) = 0.02431705
#
# Stress axis : x y z
#
# Youngs Moduli (GPa) = 151.23207 97.97941 51.45684
#
# Poissons Ratio (x) = 0.24023 0.13721
# Poissons Ratio (y) = 0.37080 0.04371
# Poissons Ratio (z) = 0.40325 0.08322
#
# Static dielectric constant tensor:
#      x y z
#    x 1.722660 0.000000 0.000000 
#    y 0.000000 1.695980 0.000000 
#    z 0.000000 0.000000 1.798840 
# 
# From -- ./inp_files/8752.got.cif
#   From: 2010.05.17/outbox.cif.g08.bks.cpg/sg54_5_cif.got.tgz:8752.got - 2010.06.03 13:09:01.
