data_PCOD9421694
_publ_section_title
;
Structure prediction by ZEFSAII (Michael W. Deem and Ramdas Pophale) SiO2 
 PCOD9421694
Probable space group: P C C A
;
_chemical_formula_sum "Si O2"
_cell_formula_units_Z 52
_cell_length_a 9.742280
_cell_length_b 16.291561
_cell_length_c 16.954731
_cell_angle_alpha 90.000000
_cell_angle_beta 90.000000
_cell_angle_gamma 90.000000
_cell_volume 2691.003174
_symmetry_space_group_name_H-M "P C C A"
_symmetry_group_IT_number 54
_symmetry_cell_setting 'orthorhombic'
loop_
_space_group_symop_operation_xyz
x,y,z
1/2-x,-y,z
1/2+x,-y,1/2-z
-x,y,1/2-z
-x,-y,-z
1/2+x,y,-z
1/2-x,y,1/2+z
x,-y,1/2+z
loop_
_atom_site_type_symbol
_atom_site_label
_atom_site_fract_x
_atom_site_fract_y
_atom_site_fract_z
Si Si1 0.211906 0.741624 0.712498
Si Si2 0.500000 0.825459 0.750000
Si Si3 0.974081 0.836992 0.082405
Si Si4 0.706281 0.094293 0.524375
Si Si5 0.755475 0.594950 0.908332
Si Si6 0.944503 0.787425 0.631322
Si Si7 0.995452 0.330469 0.512896
O O1 0.364997 0.776545 0.720865
O O2 0.220209 0.654995 0.666545
O O3 0.143225 0.745671 0.798851
O O4 0.101604 0.794037 0.661029
O O5 0.452832 0.870286 0.829593
O O6 0.850882 0.860260 0.024994
O O7 0.964570 0.738054 0.079698
O O8 0.112071 0.876287 0.047798
O O9 0.623447 0.128295 0.600951
O O10 0.750000 0.000000 0.525293
O O11 0.750000 0.500000 0.885690
O O12 0.611131 0.613517 0.949881
O O13 0.871281 0.620109 0.973029
O O14 0.943040 0.726221 0.557006
#
# Coordination Sequence:
#
# PCOD9421694 Si02
#       7
#     8   4   8   8   8   8   8
#     4  10  21  39  61  87 119 165 211 251 307 379
#     4  12  22  38  64  92 120 158 228 252 296 374
#     4  11  23  40  65  92 124 170 216 255 308 388
#     4  11  23  41  65  97 128 161 210 266 321 367
#     4  11  22  37  58  90 125 157 202 266 319 362
#     4   9  20  39  65  84 119 165 211 248 309 386
#     4  10  20  37  63  85 116 162 210 246 303 380
#
# _framework density 19.323647999999999
#
# number of rings (size 3 to 8) (size 9 to 14) (size 15 to 20)
#    0.000    1.538    3.077    2.769    4.308    0.000 
#    0.000    6.154    0.000    0.000    0.000    0.000 
#    0.000    0.000    0.000    0.000    0.000    0.000 
#
# Total GULP energy -289830.124679 kJ/mol
# GULP energy per Si atom -5573.656244 kJ/mol
# Density = 1.927967 g / cm^3
# Si number density = 19.323648 Si / 1000 Ang^3
#
#
#
# Elastic Constant Matrix: (Units=GPa)
#
#
# Indices 1 2 3 4 5 6 
#
# 1 94.6278 31.4710 -0.1775 0.0000 0.0000 0.0000
# 2 31.4710 77.2141 3.7272 0.0000 0.0000 0.0000
# 3 -0.1775 3.7272 72.4935 0.0000 0.0000 0.0000
# 4 0.0000 0.0000 0.0000 9.9328 0.0000 0.0000
# 5 0.0000 0.0000 0.0000 0.0000 21.9437 0.0000
# 6 0.0000 0.0000 0.0000 0.0000 0.0000 -43.8859
#
#
#
# Elastic Compliance Matrix: (Units=1/GPa)
#
#
# Indices 1 2 3 4 5 6 
#
# 1 0.012231 -0.004999 0.000287 0.000000 0.000000 0.000000
# 2 -0.004999 0.015026 -0.000785 0.000000 0.000000 0.000000
# 3 0.000287 -0.000785 0.013835 0.000000 0.000000 0.000000
# 4 0.000000 0.000000 0.000000 0.100677 0.000000 0.000000
# 5 0.000000 0.000000 0.000000 0.000000 0.045571 0.000000
# 6 0.000000 0.000000 0.000000 0.000000 0.000000 -0.022786
#
#
# Mechanical properties :
#
#
# Convention : Reuss Voigt Hill
#
# Bulk Modulus (GPa) = 33.22365 34.93076 34.07721
# Shear Modulus (GPa) = 26.94249 11.55243 19.24746
#
# Velocity S-wave (km/s) = 3.73805 2.44773 3.15946
# Velocity P-wave (km/s) = 5.98843 5.10925 5.56622
#
# Compressibility (1/GPa) = 0.03009904
#
# Stress axis : x y z
#
# Youngs Moduli (GPa) = 81.76099 66.54977 72.27841
#
# Poissons Ratio (x) = 0.33268 -0.02074
# Poissons Ratio (y) = 0.40871 0.05672
# Poissons Ratio (z) = -0.02346 0.05223
#
# Static dielectric constant tensor:
#      x y z
#    x 1.710050 0.000000 0.000000 
#    y 0.000000 1.721470 0.000000 
#    z 0.000000 0.000000 1.721830 
# 
# From -- ./inp_files/16772.got.cif
#   From: 2010.05.17/outbox.cif.g08.bks.cpg/sg54_9_cif.got.tgz:16772.got - 2010.06.03 13:09:01.
