data_PCOD9421971
_publ_section_title
;
Structure prediction by ZEFSAII (Michael W. Deem and Ramdas Pophale) SiO2 
 PCOD9421971
Probable space group: P C C A
;
_chemical_formula_sum "Si O2"
_cell_formula_units_Z 60
_cell_length_a 28.545637
_cell_length_b 5.370474
_cell_length_c 17.667128
_cell_angle_alpha 90.000000
_cell_angle_beta 90.000000
_cell_angle_gamma 90.000000
_cell_volume 2708.434347
_symmetry_space_group_name_H-M "P C C A"
_symmetry_group_IT_number 54
_symmetry_cell_setting 'orthorhombic'
loop_
_space_group_symop_operation_xyz
x,y,z
1/2-x,-y,z
1/2+x,-y,1/2-z
-x,y,1/2-z
-x,-y,-z
1/2+x,y,-z
1/2-x,y,1/2+z
x,-y,1/2+z
loop_
_atom_site_type_symbol
_atom_site_label
_atom_site_fract_x
_atom_site_fract_y
_atom_site_fract_z
Si Si1 0.938664 0.647154 0.407682
Si Si2 0.611922 0.845470 0.359876
Si Si3 0.916531 0.101361 0.062678
Si Si4 0.473359 0.788560 0.822023
Si Si5 0.250000 0.000000 0.924994
Si Si6 0.804168 0.584670 0.617063
Si Si7 0.167142 0.244671 0.005245
Si Si8 0.887169 0.432876 0.203118
O O1 0.917952 0.371019 0.402283
O O2 0.938639 0.741817 0.493994
O O3 0.987160 0.625620 0.362927
O O4 0.908317 0.875076 0.369313
O O5 0.659807 0.803831 0.406160
O O6 0.613013 0.750027 0.274295
O O7 0.895893 0.276073 0.127483
O O8 0.956142 0.959923 0.110075
O O9 0.876261 0.911680 0.032190
O O10 0.500000 0.910747 0.750000
O O11 0.428653 0.633191 0.792782
O O12 0.208234 0.875299 0.876752
O O13 0.281773 0.843885 0.981713
O O14 0.750000 0.500000 0.620149
O O15 0.829093 0.514417 0.536374
O O16 0.835340 0.467367 0.683479
#
# Coordination Sequence:
#
# PCOD9421971 Si02
#       8
#     8   8   8   8   4   8   8   8
#     4  11  26  47  68 103 139 191 242 293 334 421
#     4  11  26  45  71 102 148 184 230 290 359 419
#     4  11  24  41  73  96 139 188 243 288 350 415
#     4  12  25  43  65 103 142 190 235 291 349 414
#     4  10  20  40  70 104 128 174 236 302 346 426
#     4  10  21  40  68 100 133 174 237 289 353 428
#     4  10  21  42  70 101 133 182 235 290 355 423
#     4  12  24  42  70 100 141 191 229 294 363 416
#
# _framework density 22.153020000000001
#
# number of rings (size 3 to 8) (size 9 to 14) (size 15 to 20)
#    0.000    1.067    4.000    2.000    5.600    1.067 
#    0.000    2.667    0.000    0.000    0.000    0.000 
#    0.000    0.000    0.000    0.000    0.000    0.000 
#
# Total GULP energy -334176.463944 kJ/mol
# GULP energy per Si atom -5569.607732 kJ/mol
# Density = 2.210260 g / cm^3
# Si number density = 22.153020 Si / 1000 Ang^3
#
#
#
# Elastic Constant Matrix: (Units=GPa)
#
#
# Indices 1 2 3 4 5 6 
#
# 1 90.1133 10.3853 20.9550 0.0000 0.0000 0.0000
# 2 10.3853 39.1840 -2.4871 0.0000 0.0000 0.0000
# 3 20.9550 -2.4871 121.7674 0.0000 0.0000 0.0000
# 4 0.0000 0.0000 0.0000 31.7719 0.0000 0.0000
# 5 0.0000 0.0000 0.0000 0.0000 28.5754 0.0000
# 6 0.0000 0.0000 0.0000 0.0000 0.0000 79.5412
#
#
#
# Elastic Compliance Matrix: (Units=1/GPa)
#
#
# Indices 1 2 3 4 5 6 
#
# 1 0.011973 -0.003308 -0.002128 0.000000 0.000000 0.000000
# 2 -0.003308 0.026468 0.001110 0.000000 0.000000 0.000000
# 3 -0.002128 0.001110 0.008601 0.000000 0.000000 0.000000
# 4 0.000000 0.000000 0.000000 0.031474 0.000000 0.000000
# 5 0.000000 0.000000 0.000000 0.000000 0.034995 0.000000
# 6 0.000000 0.000000 0.000000 0.000000 0.000000 0.012572
#
#
# Mechanical properties :
#
#
# Convention : Reuss Voigt Hill
#
# Bulk Modulus (GPa) = 26.04888 34.30790 30.17839
# Shear Modulus (GPa) = 33.89058 42.79180 38.34119
#
# Velocity S-wave (km/s) = 3.91556 4.39982 4.16473
# Velocity P-wave (km/s) = 5.67682 6.42897 6.06456
#
# Compressibility (1/GPa) = 0.03838937
#
# Stress axis : x y z
#
# Youngs Moduli (GPa) = 83.51922 37.78158 116.26189
#
# Poissons Ratio (x) = 0.12500 0.24741
# Poissons Ratio (y) = 0.27632 -0.12905
# Poissons Ratio (z) = 0.17773 -0.04194
#
# Static dielectric constant tensor:
#      x y z
#    x 2.063160 0.000000 0.000000 
#    y 0.000000 2.226750 0.000000 
#    z 0.000000 0.000000 1.832500 
# 
# From -- ./inp_files/19335.got.cif
#   From: 2010.05.17/outbox.cif.g08.bks.cpg/sg54_10_cif.got.tgz:19335.got - 2010.06.03 13:09:01.
