data_PCOD9421945
_publ_section_title
;
Structure prediction by ZEFSAII (Michael W. Deem and Ramdas Pophale) SiO2 
 PCOD9421945
Probable space group: P C C A
;
_chemical_formula_sum "Si O2"
_cell_formula_units_Z 48
_cell_length_a 12.337340
_cell_length_b 9.347166
_cell_length_c 18.726976
_cell_angle_alpha 90.000000
_cell_angle_beta 90.000000
_cell_angle_gamma 90.000000
_cell_volume 2159.579235
_symmetry_space_group_name_H-M "P C C A"
_symmetry_group_IT_number 54
_symmetry_cell_setting 'orthorhombic'
loop_
_space_group_symop_operation_xyz
x,y,z
1/2-x,-y,z
1/2+x,-y,1/2-z
-x,y,1/2-z
-x,-y,-z
1/2+x,y,-z
1/2-x,y,1/2+z
x,-y,1/2+z
loop_
_atom_site_type_symbol
_atom_site_label
_atom_site_fract_x
_atom_site_fract_y
_atom_site_fract_z
Si Si1 0.909989 0.185591 0.612219
Si Si2 0.564514 0.133920 0.622711
Si Si3 0.716332 0.343680 0.543664
Si Si4 0.068050 0.431916 0.568011
Si Si5 0.752823 0.153871 0.740842
Si Si6 0.591310 0.664495 0.310382
O O1 0.815035 0.239399 0.559540
O O2 0.859022 0.184005 0.692549
O O3 0.003237 0.300330 0.601877
O O4 0.942743 0.024606 0.592217
O O5 0.611712 0.261635 0.574646
O O6 0.657164 0.126968 0.683095
O O7 0.454021 0.187365 0.656609
O O8 0.750000 0.500000 0.575682
O O9 0.680495 0.374915 0.463848
O O10 0.087307 0.547983 0.628497
O O11 0.000000 0.500000 0.500000
O O12 0.709519 0.294302 0.780856
O O13 0.750000 0.000000 0.780712
O O14 0.500000 0.627265 0.250000
#
# Coordination Sequence:
#
# PCOD9421945 Si02
#       6
#     8   8   8   8   8   8
#     4  10  21  40  67  96 129 177 228 272 349 407
#     4   9  18  36  65  97 121 168 219 273 332 409
#     4  11  20  37  61  89 133 172 210 273 338 400
#     4  12  23  40  65  97 137 174 222 282 341 403
#     4   8  17  36  66  92 123 169 219 273 334 404
#     4  10  20  40  65  93 130 173 223 275 344 413
#
# _framework density 22.226551000000001
#
# number of rings (size 3 to 8) (size 9 to 14) (size 15 to 20)
#    0.000    2.000    3.333    1.500    0.000    0.667 
#    0.000    7.500    0.000    6.000    0.000    0.000 
#    0.000    0.000    0.000    0.000    0.000    0.000 
#
# Total GULP energy -267761.720500 kJ/mol
# GULP energy per Si atom -5578.369177 kJ/mol
# Density = 2.217596 g / cm^3
# Si number density = 22.226551 Si / 1000 Ang^3
#
#
#
# Elastic Constant Matrix: (Units=GPa)
#
#
# Indices 1 2 3 4 5 6 
#
# 1 36.7956 23.5185 22.2259 0.0000 0.0000 0.0000
# 2 23.5185 141.7280 66.4307 0.0000 0.0000 0.0000
# 3 22.2259 66.4307 84.1971 0.0000 0.0000 0.0000
# 4 0.0000 0.0000 0.0000 3.1990 0.0000 0.0000
# 5 0.0000 0.0000 0.0000 0.0000 24.2220 0.0000
# 6 0.0000 0.0000 0.0000 0.0000 0.0000 25.6001
#
#
#
# Elastic Compliance Matrix: (Units=1/GPa)
#
#
# Indices 1 2 3 4 5 6 
#
# 1 0.032757 -0.002194 -0.006916 0.000000 0.000000 0.000000
# 2 -0.002194 0.011343 -0.008371 0.000000 0.000000 0.000000
# 3 -0.006916 -0.008371 0.020307 0.000000 0.000000 0.000000
# 4 0.000000 0.000000 0.000000 0.312598 0.000000 0.000000
# 5 0.000000 0.000000 0.000000 0.000000 0.041285 0.000000
# 6 0.000000 0.000000 0.000000 0.000000 0.000000 0.039062
#
#
# Mechanical properties :
#
#
# Convention : Reuss Voigt Hill
#
# Bulk Modulus (GPa) = 33.96050 54.11900 44.03975
# Shear Modulus (GPa) = 9.95760 20.64060 15.29910
#
# Velocity S-wave (km/s) = 2.11891 3.05068 2.62644
# Velocity P-wave (km/s) = 4.61506 6.06717 5.39024
#
# Compressibility (1/GPa) = 0.02944597
#
# Stress axis : x y z
#
# Youngs Moduli (GPa) = 30.52786 88.15766 49.24465
#
# Poissons Ratio (x) = 0.19343 0.34057
# Poissons Ratio (y) = 0.06698 0.41221
# Poissons Ratio (z) = 0.21113 0.73793
#
# Static dielectric constant tensor:
#      x y z
#    x 1.884140 0.000000 0.000000 
#    y 0.000000 1.862860 0.000000 
#    z 0.000000 0.000000 1.863690 
# 
# From -- ./inp_files/17999.got.cif
#   From: 2010.05.17/outbox.cif.g08.bks.cpg/sg54_9_cif.got.tgz:17999.got - 2010.06.03 13:09:01.
