data_PCOD9421180
_publ_section_title
;
Structure prediction by ZEFSAII (Michael W. Deem and Ramdas Pophale) SiO2 
 PCOD9421180
Probable space group: P C C A
;
_chemical_formula_sum "Si O2"
_cell_formula_units_Z 56
_cell_length_a 31.727767
_cell_length_b 5.631723
_cell_length_c 13.562250
_cell_angle_alpha 90.000000
_cell_angle_beta 90.000000
_cell_angle_gamma 90.000000
_cell_volume 2423.329889
_symmetry_space_group_name_H-M "P C C A"
_symmetry_group_IT_number 54
_symmetry_cell_setting 'orthorhombic'
loop_
_space_group_symop_operation_xyz
x,y,z
1/2-x,-y,z
1/2+x,-y,1/2-z
-x,y,1/2-z
-x,-y,-z
1/2+x,y,-z
1/2-x,y,1/2+z
x,-y,1/2+z
loop_
_atom_site_type_symbol
_atom_site_label
_atom_site_fract_x
_atom_site_fract_y
_atom_site_fract_z
Si Si1 0.493396 0.638472 0.370266
Si Si2 0.618796 0.987638 0.321423
Si Si3 0.605270 0.670250 0.126957
Si Si4 0.834505 0.989593 0.502187
Si Si5 0.025713 0.137896 0.645935
Si Si6 0.750000 0.000000 0.384305
Si Si7 0.331858 0.299351 0.312877
Si Si8 0.250000 0.500000 0.733248
O O1 0.500000 0.634578 0.250000
O O2 0.444010 0.657585 0.392888
O O3 0.512173 0.385419 0.403450
O O4 0.515185 0.883700 0.403010
O O5 0.575611 0.129116 0.337573
O O6 0.655510 0.165046 0.286368
O O7 0.611071 0.816069 0.229087
O O8 0.636549 0.872022 0.421438
O O9 0.625228 0.418228 0.150203
O O10 0.633907 0.785404 0.041510
O O11 0.820845 0.122188 0.600698
O O12 0.790507 0.939288 0.450315
O O13 0.000000 0.134040 0.750000
O O14 0.743752 0.752661 0.323637
O O15 0.292976 0.471289 0.294842
#
# Coordination Sequence:
#
# PCOD9421180 Si02
#       8
#     8   8   8   8   8   4   8   4
#     4  10  19  37  66  99 137 192 243 299 359 432
#     4  11  22  47  69 104 148 197 251 303 381 445
#     4  11  24  43  71 105 147 196 251 306 381 445
#     4  11  28  45  74 111 151 192 247 321 370 453
#     4  10  19  36  69  99 134 194 242 301 359 433
#     4  12  28  54  76 112 150 192 254 302 382 450
#     4  11  26  44  76 105 148 195 250 309 373 454
#     4  12  28  50  84 108 144 202 250 298 386 458
#
# _framework density 23.108699000000001
#
# number of rings (size 3 to 8) (size 9 to 14) (size 15 to 20)
#    0.000    1.143    4.286    2.571    8.000    1.143 
#    0.000    1.429    0.000    0.000    0.000    0.000 
#    0.000    0.000    0.000    0.000    0.000    0.000 
#
# Total GULP energy -312881.409410 kJ/mol
# GULP energy per Si atom -5587.168025 kJ/mol
# Density = 2.305610 g / cm^3
# Si number density = 23.108699 Si / 1000 Ang^3
#
#
#
# Elastic Constant Matrix: (Units=GPa)
#
#
# Indices 1 2 3 4 5 6 
#
# 1 133.5153 9.8150 57.9526 0.0000 0.0000 0.0000
# 2 9.8150 101.4009 24.4840 0.0000 0.0000 0.0000
# 3 57.9526 24.4840 71.3778 0.0000 0.0000 0.0000
# 4 0.0000 0.0000 0.0000 9.0923 0.0000 0.0000
# 5 0.0000 0.0000 0.0000 0.0000 -33.7612 0.0000
# 6 0.0000 0.0000 0.0000 0.0000 0.0000 16.9384
#
#
#
# Elastic Compliance Matrix: (Units=1/GPa)
#
#
# Indices 1 2 3 4 5 6 
#
# 1 0.011713 0.001267 -0.009945 0.000000 0.000000 0.000000
# 2 0.001267 0.010890 -0.004764 0.000000 0.000000 0.000000
# 3 -0.009945 -0.004764 0.023719 0.000000 0.000000 0.000000
# 4 0.000000 0.000000 0.000000 0.109983 0.000000 0.000000
# 5 0.000000 0.000000 0.000000 0.000000 -0.029620 0.000000
# 6 0.000000 0.000000 0.000000 0.000000 0.000000 0.059037
#
#
# Mechanical properties :
#
#
# Convention : Reuss Voigt Hill
#
# Bulk Modulus (GPa) = 51.44625 54.53303 52.98964
# Shear Modulus (GPa) = 22.82218 12.72339 17.77279
#
# Velocity S-wave (km/s) = 3.14602 2.34901 2.77626
# Velocity P-wave (km/s) = 5.95883 5.56838 5.76691
#
# Compressibility (1/GPa) = 0.01943776
#
# Stress axis : x y z
#
# Youngs Moduli (GPa) = 85.37380 91.83099 42.16091
#
# Poissons Ratio (x) = -0.11640 0.41929
# Poissons Ratio (y) = -0.10821 0.20087
# Poissons Ratio (z) = 0.84903 0.43752
#
# Static dielectric constant tensor:
#      x y z
#    x 1.838500 0.000000 0.000000 
#    y 0.000000 1.902810 0.000000 
#    z 0.000000 0.000000 1.938900 
# 
# From -- ./inp_files/15390.got.cif
#   From: 2010.05.17/outbox.cif.g08.bks.cpg/sg54_8_cif.got.tgz:15390.got - 2010.06.03 13:09:01.
