data_PCOD9421024
_publ_section_title
;
Structure prediction by ZEFSAII (Michael W. Deem and Ramdas Pophale) SiO2 
 PCOD9421024
Probable space group: P C C A
;
_chemical_formula_sum "Si O2"
_cell_formula_units_Z 48
_cell_length_a 11.401176
_cell_length_b 8.725579
_cell_length_c 19.442241
_cell_angle_alpha 90.000000
_cell_angle_beta 90.000000
_cell_angle_gamma 90.000000
_cell_volume 1934.150334
_symmetry_space_group_name_H-M "P C C A"
_symmetry_group_IT_number 54
_symmetry_cell_setting 'orthorhombic'
loop_
_space_group_symop_operation_xyz
x,y,z
1/2-x,-y,z
1/2+x,-y,1/2-z
-x,y,1/2-z
-x,-y,-z
1/2+x,y,-z
1/2-x,y,1/2+z
x,-y,1/2+z
loop_
_atom_site_type_symbol
_atom_site_label
_atom_site_fract_x
_atom_site_fract_y
_atom_site_fract_z
Si Si1 0.001748 0.490596 0.174809
Si Si2 0.606543 0.732871 0.586418
Si Si3 0.534373 0.930612 0.099312
Si Si4 0.193005 0.777578 0.802659
Si Si5 0.193200 0.247122 0.147328
Si Si6 0.794562 0.177524 0.986477
O O1 0.969648 0.590351 0.109022
O O2 0.901019 0.361323 0.187407
O O3 0.000000 0.572775 0.250000
O O4 0.124092 0.406493 0.158564
O O5 0.696547 0.747130 0.650107
O O6 0.691511 0.720981 0.521175
O O7 0.537713 0.892703 0.578799
O O8 0.619155 0.916499 0.165295
O O9 0.408240 0.866869 0.118858
O O10 0.597041 0.827946 0.039983
O O11 0.227296 0.799210 0.724113
O O12 0.295403 0.235132 0.091598
O O13 0.750000 0.000000 0.988799
#
# Coordination Sequence:
#
# PCOD9421024 Si02
#       6
#     8   8   8   8   8   8
#     4   9  19  34  55  81 109 146 188 237 294 349
#     4  10  19  34  55  80 112 148 190 241 290 346
#     4   9  19  36  58  84 113 150 197 242 291 352
#     4   9  18  35  57  80 108 147 193 237 292 353
#     4  10  20  37  59  82 116 157 194 240 298 354
#     4   9  20  35  54  83 116 151 194 241 292 348
#
# _framework density 24.817101000000001
#
# number of rings (size 3 to 8) (size 9 to 14) (size 15 to 20)
#    0.000    2.667    0.000    3.500    0.000    6.000 
#    0.000    1.667    0.000   30.000    0.000    0.000 
#    0.000    0.000    0.000    0.000    0.000    0.000 
#
# Total GULP energy -268511.436770 kJ/mol
# GULP energy per Si atom -5593.988266 kJ/mol
# Density = 2.476062 g / cm^3
# Si number density = 24.817101 Si / 1000 Ang^3
#
#
#
# Elastic Constant Matrix: (Units=GPa)
#
#
# Indices 1 2 3 4 5 6 
#
# 1 78.7775 4.0265 32.4818 0.0000 0.0000 0.0000
# 2 4.0265 38.9172 13.2773 0.0000 0.0000 0.0000
# 3 32.4818 13.2773 175.5248 0.0000 0.0000 0.0000
# 4 0.0000 0.0000 0.0000 17.5430 0.0000 0.0000
# 5 0.0000 0.0000 0.0000 0.0000 25.9956 0.0000
# 6 0.0000 0.0000 0.0000 0.0000 0.0000 20.4856
#
#
#
# Elastic Compliance Matrix: (Units=1/GPa)
#
#
# Indices 1 2 3 4 5 6 
#
# 1 0.013755 -0.000569 -0.002502 0.000000 0.000000 0.000000
# 2 -0.000569 0.026400 -0.001892 0.000000 0.000000 0.000000
# 3 -0.002502 -0.001892 0.006303 0.000000 0.000000 0.000000
# 4 0.000000 0.000000 0.000000 0.057003 0.000000 0.000000
# 5 0.000000 0.000000 0.000000 0.000000 0.038468 0.000000
# 6 0.000000 0.000000 0.000000 0.000000 0.000000 0.048815
#
#
# Mechanical properties :
#
#
# Convention : Reuss Voigt Hill
#
# Bulk Modulus (GPa) = 27.37372 43.64342 35.50857
# Shear Modulus (GPa) = 23.49098 29.03375 26.26237
#
# Velocity S-wave (km/s) = 3.07997 3.42410 3.25658
# Velocity P-wave (km/s) = 4.86851 5.76688 5.33663
#
# Compressibility (1/GPa) = 0.03653139
#
# Stress axis : x y z
#
# Youngs Moduli (GPa) = 72.70161 37.87899 158.64551
#
# Poissons Ratio (x) = 0.02157 0.39699
# Poissons Ratio (y) = 0.04140 0.30010
# Poissons Ratio (z) = 0.18192 0.07165
#
# Static dielectric constant tensor:
#      x y z
#    x 2.015710 0.000000 0.000000 
#    y 0.000000 1.993510 0.000000 
#    z 0.000000 0.000000 1.977150 
# 
# From -- ./inp_files/18038.got.cif
#   From: 2010.05.17/outbox.cif.g08.bks.cpg/sg54_10_cif.got.tgz:18038.got - 2010.06.03 13:09:01.
