data_PCOD9421043
_publ_section_title
;
Structure prediction by ZEFSAII (Michael W. Deem and Ramdas Pophale) SiO2 
 PCOD9421043
Probable space group: P C C A
;
_chemical_formula_sum "Si O2"
_cell_formula_units_Z 32
_cell_length_a 16.352570
_cell_length_b 10.155662
_cell_length_c 8.052195
_cell_angle_alpha 90.000000
_cell_angle_beta 90.000000
_cell_angle_gamma 90.000000
_cell_volume 1337.237475
_symmetry_space_group_name_H-M "P C C A"
_symmetry_group_IT_number 54
_symmetry_cell_setting 'orthorhombic'
loop_
_space_group_symop_operation_xyz
x,y,z
1/2-x,-y,z
1/2+x,-y,1/2-z
-x,y,1/2-z
-x,-y,-z
1/2+x,y,-z
1/2-x,y,1/2+z
x,-y,1/2+z
loop_
_atom_site_type_symbol
_atom_site_label
_atom_site_fract_x
_atom_site_fract_y
_atom_site_fract_z
Si Si1 0.092429 0.442740 0.683241
Si Si2 0.158166 0.045149 0.482431
Si Si3 0.409770 0.699016 0.321886
Si Si4 0.594463 0.820596 0.694826
O O1 0.088029 0.377628 0.501130
O O2 0.129827 0.587961 0.701635
O O3 0.126548 0.328631 0.804187
O O4 0.000000 0.463595 0.750000
O O5 0.134726 0.163998 0.358213
O O6 0.143774 0.104251 0.663113
O O7 0.250000 0.000000 0.459543
O O8 0.102847 0.914769 0.461304
O O9 0.500000 0.730039 0.250000
O O10 0.500000 0.814650 0.750000
#
# Coordination Sequence:
#
# PCOD9421043 Si02
#       4
#     8   8   8   8
#     4   9  18  32  55  88 119 148 195 250 291 348
#     4  11  23  38  57  86 123 161 201 253 307 362
#     4  10  19  34  58  88 120 156 197 243 296 359
#     4  10  21  38  60  86 116 159 207 250 298 361
#
# _framework density 23.929929000000001
#
# number of rings (size 3 to 8) (size 9 to 14) (size 15 to 20)
#    0.000    2.000    0.000    5.250    0.000    6.000 
#    0.000    1.250    0.000    6.000    0.000    0.000 
#    0.000    0.000    0.000    0.000    0.000    0.000 
#
# Total GULP energy -178770.316921 kJ/mol
# GULP energy per Si atom -5586.572404 kJ/mol
# Density = 2.387546 g / cm^3
# Si number density = 23.929929 Si / 1000 Ang^3
#
#
#
# Elastic Constant Matrix: (Units=GPa)
#
#
# Indices 1 2 3 4 5 6 
#
# 1 57.9932 42.6135 13.9410 0.0000 0.0000 0.0000
# 2 42.6135 150.2393 39.9974 0.0000 0.0000 0.0000
# 3 13.9410 39.9974 87.9523 0.0000 0.0000 0.0000
# 4 0.0000 0.0000 0.0000 48.3518 0.0000 0.0000
# 5 0.0000 0.0000 0.0000 0.0000 25.0707 0.0000
# 6 0.0000 0.0000 0.0000 0.0000 0.0000 33.9765
#
#
#
# Elastic Compliance Matrix: (Units=1/GPa)
#
#
# Indices 1 2 3 4 5 6 
#
# 1 0.021825 -0.005995 -0.000733 0.000000 0.000000 0.000000
# 2 -0.005995 0.009220 -0.003243 0.000000 0.000000 0.000000
# 3 -0.000733 -0.003243 0.012961 0.000000 0.000000 0.000000
# 4 0.000000 0.000000 0.000000 0.020682 0.000000 0.000000
# 5 0.000000 0.000000 0.000000 0.000000 0.039887 0.000000
# 6 0.000000 0.000000 0.000000 0.000000 0.000000 0.029432
#
#
# Mechanical properties :
#
#
# Convention : Reuss Voigt Hill
#
# Bulk Modulus (GPa) = 41.55626 54.36540 47.96083
# Shear Modulus (GPa) = 30.87009 34.78865 32.82937
#
# Velocity S-wave (km/s) = 3.59558 3.81697 3.70793
# Velocity P-wave (km/s) = 5.88567 6.49566 6.19817
#
# Compressibility (1/GPa) = 0.02406376
#
# Stress axis : x y z
#
# Youngs Moduli (GPa) = 45.81918 108.46267 77.15717
#
# Poissons Ratio (x) = 0.65026 0.05656
# Poissons Ratio (y) = 0.27470 0.25018
# Poissons Ratio (z) = 0.03358 0.35169
#
# Static dielectric constant tensor:
#      x y z
#    x 1.960040 0.000000 0.000000 
#    y 0.000000 2.006490 0.000000 
#    z 0.000000 0.000000 2.024950 
# 
# From -- ./inp_files/3325.got.cif
#   From: 2010.05.17/outbox.cif.g08.bks.cpg/sg54_2_cif.got.tgz:3325.got - 2010.06.03 13:09:01.
