data_PCOD9421974
_publ_section_title
;
Structure prediction by ZEFSAII (Michael W. Deem and Ramdas Pophale) SiO2 
 PCOD9421974
Probable space group: P C C A
;
_chemical_formula_sum "Si O2"
_cell_formula_units_Z 48
_cell_length_a 10.945338
_cell_length_b 8.185967
_cell_length_c 22.927778
_cell_angle_alpha 90.000000
_cell_angle_beta 90.000000
_cell_angle_gamma 90.000000
_cell_volume 2054.287081
_symmetry_space_group_name_H-M "P C C A"
_symmetry_group_IT_number 54
_symmetry_cell_setting 'orthorhombic'
loop_
_space_group_symop_operation_xyz
x,y,z
1/2-x,-y,z
1/2+x,-y,1/2-z
-x,y,1/2-z
-x,-y,-z
1/2+x,y,-z
1/2-x,y,1/2+z
x,-y,1/2+z
loop_
_atom_site_type_symbol
_atom_site_label
_atom_site_fract_x
_atom_site_fract_y
_atom_site_fract_z
Si Si1 0.891802 0.732871 0.833805
Si Si2 0.750000 0.000000 0.088795
Si Si3 0.883662 0.226166 0.671312
Si Si4 0.000000 0.534003 0.250000
Si Si5 0.750000 0.500000 0.899641
Si Si6 0.500000 0.962286 0.250000
Si Si7 0.450263 0.759798 0.447429
Si Si8 0.511423 0.599361 0.562467
O O1 0.769022 0.659045 0.859524
O O2 0.893563 0.859190 0.781140
O O3 0.959085 0.579895 0.803159
O O4 0.966763 0.793568 0.890362
O O5 0.725745 0.151885 0.133559
O O6 0.853985 0.090841 0.049967
O O7 0.888769 0.355745 0.724505
O O8 0.964603 0.305674 0.621138
O O9 0.944885 0.069942 0.699640
O O10 0.872429 0.468744 0.935560
O O11 0.520619 0.726100 0.508696
O O12 0.407895 0.567965 0.437965
#
# Coordination Sequence:
#
# PCOD9421974 Si02
#       8
#     8   4   8   4   4   4   8   8
#     4  10  20  42  66  96 125 174 213 278 318 394
#     4  12  26  40  66 102 132 172 222 264 354 388
#     4  11  23  42  62  99 131 173 211 271 326 397
#     4  10  20  42  66  90 132 168 220 262 324 384
#     4  10  20  40  70  98 112 170 230 256 334 392
#     4  10  22  42  64  88 148 166 208 276 338 380
#     4  10  22  45  66  98 131 171 217 284 328 393
#     4  10  23  45  70  91 132 169 223 275 326 399
#
# _framework density 23.365770999999999
#
# number of rings (size 3 to 8) (size 9 to 14) (size 15 to 20)
#    0.000    1.667    5.000    0.000    0.000    6.667 
#    3.000    0.000    0.000    0.000    0.000    0.000 
#    0.000    0.000    0.000    0.000    0.000    0.000 
#
# Total GULP energy -267228.579782 kJ/mol
# GULP energy per Si atom -5567.262079 kJ/mol
# Density = 2.331259 g / cm^3
# Si number density = 23.365771 Si / 1000 Ang^3
#
#
#
# Elastic Constant Matrix: (Units=GPa)
#
#
# Indices 1 2 3 4 5 6 
#
# 1 28.2956 21.5853 1.7427 0.0000 0.0000 0.0000
# 2 21.5853 100.2719 41.4714 0.0000 0.0000 0.0000
# 3 1.7427 41.4714 129.7047 0.0000 0.0000 0.0000
# 4 0.0000 0.0000 0.0000 39.0509 0.0000 0.0000
# 5 0.0000 0.0000 0.0000 0.0000 13.4380 0.0000
# 6 0.0000 0.0000 0.0000 0.0000 0.0000 27.3533
#
#
#
# Elastic Compliance Matrix: (Units=1/GPa)
#
#
# Indices 1 2 3 4 5 6 
#
# 1 0.043121 -0.010421 0.002753 0.000000 0.000000 0.000000
# 2 -0.010421 0.014011 -0.004340 0.000000 0.000000 0.000000
# 3 0.002753 -0.004340 0.009060 0.000000 0.000000 0.000000
# 4 0.000000 0.000000 0.000000 0.025608 0.000000 0.000000
# 5 0.000000 0.000000 0.000000 0.000000 0.074416 0.000000
# 6 0.000000 0.000000 0.000000 0.000000 0.000000 0.036559
#
#
# Mechanical properties :
#
#
# Convention : Reuss Voigt Hill
#
# Bulk Modulus (GPa) = 23.70997 43.09676 33.40337
# Shear Modulus (GPa) = 20.75977 28.86663 24.81320
#
# Velocity S-wave (km/s) = 2.98395 3.51867 3.26229
# Velocity P-wave (km/s) = 4.69482 5.91545 5.34012
#
# Compressibility (1/GPa) = 0.04217635
#
# Stress axis : x y z
#
# Youngs Moduli (GPa) = 23.19032 71.37178 110.36977
#
# Poissons Ratio (x) = 0.74377 -0.30381
# Poissons Ratio (y) = 0.24167 0.47899
# Poissons Ratio (z) = -0.06383 0.30974
#
# Static dielectric constant tensor:
#      x y z
#    x 1.950330 0.000000 0.000000 
#    y 0.000000 1.951800 0.000000 
#    z 0.000000 0.000000 1.908760 
# 
# From -- ./inp_files/24135.got.cif
#   From: 2010.05.17/outbox.cif.g08.bks.cpg/sg54_13_cif.got.tgz:24135.got - 2010.06.03 13:09:01.
