data_PCOD9421127
_publ_section_title
;
Structure prediction by ZEFSAII (Michael W. Deem and Ramdas Pophale) SiO2 
 PCOD9421127
Probable space group: P C C A
;
_chemical_formula_sum "Si O2"
_cell_formula_units_Z 60
_cell_length_a 31.672192
_cell_length_b 10.924313
_cell_length_c 9.024028
_cell_angle_alpha 90.000000
_cell_angle_beta 90.000000
_cell_angle_gamma 90.000000
_cell_volume 3122.286064
_symmetry_space_group_name_H-M "P C C A"
_symmetry_group_IT_number 54
_symmetry_cell_setting 'orthorhombic'
loop_
_space_group_symop_operation_xyz
x,y,z
1/2-x,-y,z
1/2+x,-y,1/2-z
-x,y,1/2-z
-x,-y,-z
1/2+x,y,-z
1/2-x,y,1/2+z
x,-y,1/2+z
loop_
_atom_site_type_symbol
_atom_site_label
_atom_site_fract_x
_atom_site_fract_y
_atom_site_fract_z
Si Si1 0.914473 0.952608 0.719155
Si Si2 0.374967 0.853239 0.985329
Si Si3 0.698429 0.289886 0.905644
Si Si4 0.592387 0.386617 0.180243
Si Si5 0.531390 0.892671 0.949430
Si Si6 0.227765 0.375889 0.382358
Si Si7 0.000000 0.318530 0.750000
Si Si8 0.355424 0.469717 0.045484
O O1 0.939914 0.875635 0.595585
O O2 0.881882 0.030336 0.619904
O O3 0.943323 0.051106 0.808787
O O4 0.895160 0.875463 0.852972
O O5 0.397940 0.740454 0.903693
O O6 0.326939 0.818378 0.018007
O O7 0.716754 0.277864 0.742435
O O8 0.665044 0.403062 0.895584
O O9 0.737085 0.329376 0.006660
O O10 0.543182 0.391721 0.221458
O O11 0.622658 0.394926 0.323685
O O12 0.608834 0.493292 0.072443
O O13 0.509074 0.771422 0.889733
O O14 0.500000 0.000000 0.000000
O O15 0.250000 0.500000 0.315386
O O16 0.184456 0.406934 0.466804
#
# Coordination Sequence:
#
# PCOD9421127 Si02
#       8
#     8   8   8   8   8   8   4   8
#     4  10  20  38  62  86 121 161 210 261 314 361
#     4  10  22  40  61  93 122 163 207 253 312 379
#     4  10  21  35  61  96 123 149 202 251 310 363
#     4  11  23  40  60  88 125 166 208 253 304 377
#     4  11  18  34  59  88 115 157 214 279 306 340
#     4  10  19  35  63  95 120 154 199 261 305 355
#     4  12  22  36  58  88 124 164 214 252 310 368
#     4  10  21  39  61  86 127 162 200 250 308 371
#
# _framework density 19.216688000000001
#
# number of rings (size 3 to 8) (size 9 to 14) (size 15 to 20)
#    0.000    1.600    4.000    2.000    3.733    1.600 
#    0.000    0.000    0.000    2.400    0.000    0.000 
#    0.000    0.000    0.000    0.000    0.000    0.000 
#
# Total GULP energy -334755.647735 kJ/mol
# GULP energy per Si atom -5579.260796 kJ/mol
# Density = 1.917295 g / cm^3
# Si number density = 19.216688 Si / 1000 Ang^3
#
#
#
# Elastic Constant Matrix: (Units=GPa)
#
#
# Indices 1 2 3 4 5 6 
#
# 1 124.8982 44.1289 61.8201 0.0000 0.0000 0.0000
# 2 44.1289 31.0663 36.4913 0.0000 0.0000 0.0000
# 3 61.8201 36.4913 131.4059 0.0000 0.0000 0.0000
# 4 0.0000 0.0000 0.0000 25.9840 0.0000 0.0000
# 5 0.0000 0.0000 0.0000 0.0000 29.5580 0.0000
# 6 0.0000 0.0000 0.0000 0.0000 0.0000 11.5725
#
#
#
# Elastic Compliance Matrix: (Units=1/GPa)
#
#
# Indices 1 2 3 4 5 6 
#
# 1 0.016370 -0.021084 -0.001846 0.000000 0.000000 0.000000
# 2 -0.021084 0.074929 -0.010888 0.000000 0.000000 0.000000
# 3 -0.001846 -0.010888 0.011502 0.000000 0.000000 0.000000
# 4 0.000000 0.000000 0.000000 0.038485 0.000000 0.000000
# 5 0.000000 0.000000 0.000000 0.000000 0.033832 0.000000
# 6 0.000000 0.000000 0.000000 0.000000 0.000000 0.086412
#
#
# Mechanical properties :
#
#
# Convention : Reuss Voigt Hill
#
# Bulk Modulus (GPa) = 28.43901 63.58343 46.01122
# Shear Modulus (GPa) = 14.66756 23.08491 18.87624
#
# Velocity S-wave (km/s) = 2.76574 3.46973 3.13754
# Velocity P-wave (km/s) = 5.00303 7.01509 6.09269
#
# Compressibility (1/GPa) = 0.03516297
#
# Stress axis : x y z
#
# Youngs Moduli (GPa) = 61.08822 13.34600 86.93976
#
# Poissons Ratio (x) = 0.28139 0.16050
# Poissons Ratio (y) = 1.28801 0.94664
# Poissons Ratio (z) = 0.11277 0.14532
#
# Static dielectric constant tensor:
#      x y z
#    x 1.686100 0.000000 0.000000 
#    y 0.000000 1.688600 0.000000 
#    z 0.000000 0.000000 1.679990 
# 
# From -- ./inp_files/5954.got.cif
#   From: 2010.05.17/outbox.cif.g08.bks.cpg/sg54_3_cif.got.tgz:5954.got - 2010.06.03 13:09:01.
