data_PCOD9421237
_publ_section_title
;
Structure prediction by ZEFSAII (Michael W. Deem and Ramdas Pophale) SiO2 
 PCOD9421237
Probable space group: P C C A
;
_chemical_formula_sum "Si O2"
_cell_formula_units_Z 60
_cell_length_a 8.898261
_cell_length_b 30.757151
_cell_length_c 11.673256
_cell_angle_alpha 90.000000
_cell_angle_beta 90.000000
_cell_angle_gamma 90.000000
_cell_volume 3194.796904
_symmetry_space_group_name_H-M "P C C A"
_symmetry_group_IT_number 54
_symmetry_cell_setting 'orthorhombic'
loop_
_space_group_symop_operation_xyz
x,y,z
1/2-x,-y,z
1/2+x,-y,1/2-z
-x,y,1/2-z
-x,-y,-z
1/2+x,y,-z
1/2-x,y,1/2+z
x,-y,1/2+z
loop_
_atom_site_type_symbol
_atom_site_label
_atom_site_fract_x
_atom_site_fract_y
_atom_site_fract_z
Si Si1 0.500000 0.695844 0.250000
Si Si2 0.234966 0.548163 0.155069
Si Si3 0.552906 0.880222 0.623316
Si Si4 0.805341 0.379682 0.155551
Si Si5 0.922337 0.983699 0.122080
Si Si6 0.542193 0.583259 0.525643
Si Si7 0.192905 0.828324 0.998691
Si Si8 0.553793 0.219363 0.869774
O O1 0.634070 0.665207 0.206461
O O2 0.437195 0.729260 0.154393
O O3 0.250000 0.500000 0.204285
O O4 0.288276 0.584612 0.244277
O O5 0.066038 0.558337 0.113672
O O6 0.343711 0.552334 0.044073
O O7 0.500000 0.869912 0.750000
O O8 0.581355 0.931370 0.613907
O O9 0.694950 0.850774 0.590721
O O10 0.415102 0.866116 0.543397
O O11 0.646485 0.381643 0.090079
O O12 0.931817 0.394790 0.065749
O O13 0.000000 0.994067 0.250000
O O14 0.750000 0.000000 0.125326
O O15 0.000000 0.000000 0.000000
O O16 0.081767 0.791334 0.953881
O O17 0.298328 0.804911 0.090647
O O18 0.500000 0.199447 0.750000
#
# Coordination Sequence:
#
# PCOD9421237 Si02
#       8
#     4   8   8   8   8   8   8   8
#     4  10  22  42  62  82 124 150 194 246 318 358
#     4  11  22  39  62  90 122 154 199 245 293 339
#     4  10  21  36  62  88 125 163 207 265 314 373
#     4  11  22  42  60  86 122 154 197 244 290 371
#     4  11  23  40  60  92 135 179 231 276 329 398
#     4  10  23  38  62  85 118 158 197 240 289 349
#     4  10  19  38  62  89 117 154 202 253 323 369
#     4   9  21  37  60  85 116 148 192 251 300 374
#
# _framework density 18.780536999999999
#
# number of rings (size 3 to 8) (size 9 to 14) (size 15 to 20)
#    0.400    1.333    1.333    2.800    0.000    6.400 
#    0.000    3.333    5.867    0.000    0.000    0.000 
#    0.000    0.000    0.000    0.000    0.000    0.000 
#
# Total GULP energy -334401.052213 kJ/mol
# GULP energy per Si atom -5573.350870 kJ/mol
# Density = 1.873779 g / cm^3
# Si number density = 18.780537 Si / 1000 Ang^3
#
#
#
# Elastic Constant Matrix: (Units=GPa)
#
#
# Indices 1 2 3 4 5 6 
#
# 1 126.0703 35.1423 35.1319 0.0000 0.0000 0.0000
# 2 35.1423 92.7155 22.2243 0.0000 0.0000 0.0000
# 3 35.1319 22.2243 70.7150 0.0000 0.0000 0.0000
# 4 0.0000 0.0000 0.0000 -11.0648 0.0000 0.0000
# 5 0.0000 0.0000 0.0000 0.0000 2.5858 0.0000
# 6 0.0000 0.0000 0.0000 0.0000 0.0000 30.8063
#
#
#
# Elastic Compliance Matrix: (Units=1/GPa)
#
#
# Indices 1 2 3 4 5 6 
#
# 1 0.009819 -0.002760 -0.004011 0.000000 0.000000 0.000000
# 2 -0.002760 0.012440 -0.002538 0.000000 0.000000 0.000000
# 3 -0.004011 -0.002538 0.016932 0.000000 0.000000 0.000000
# 4 0.000000 0.000000 0.000000 -0.090377 0.000000 0.000000
# 5 0.000000 0.000000 0.000000 0.000000 0.386732 0.000000
# 6 0.000000 0.000000 0.000000 0.000000 0.000000 0.032461
#
#
# Mechanical properties :
#
#
# Convention : Reuss Voigt Hill
#
# Bulk Modulus (GPa) = 48.60934 52.72199 50.66567
# Shear Modulus (GPa) = 12.70699 17.59893 15.15296
#
# Velocity S-wave (km/s) = 2.60398 3.06450 2.84358
# Velocity P-wave (km/s) = 5.91439 6.37614 6.14960
#
# Compressibility (1/GPa) = 0.02057218
#
# Stress axis : x y z
#
# Youngs Moduli (GPa) = 101.84097 80.38297 59.06116
#
# Poissons Ratio (x) = 0.22189 0.23688
# Poissons Ratio (y) = 0.28112 0.14992
# Poissons Ratio (z) = 0.40846 0.20404
#
# Static dielectric constant tensor:
#      x y z
#    x 1.732400 0.000000 0.000000 
#    y 0.000000 1.623220 0.000000 
#    z 0.000000 0.000000 1.686060 
# 
# From -- ./inp_files/7009.got.cif
#   From: 2010.05.17/outbox.cif.g08.bks.cpg/sg54_4_cif.got.tgz:7009.got - 2010.06.03 13:09:01.
