data_PCOD9421951
_publ_section_title
;
Structure prediction by ZEFSAII (Michael W. Deem and Ramdas Pophale) SiO2 
 PCOD9421951
Probable space group: P C C A
;
_chemical_formula_sum "Si O2"
_cell_formula_units_Z 40
_cell_length_a 14.948055
_cell_length_b 14.037405
_cell_length_c 8.986367
_cell_angle_alpha 90.000000
_cell_angle_beta 90.000000
_cell_angle_gamma 90.000000
_cell_volume 1885.626480
_symmetry_space_group_name_H-M "P C C A"
_symmetry_group_IT_number 54
_symmetry_cell_setting 'orthorhombic'
loop_
_space_group_symop_operation_xyz
x,y,z
1/2-x,-y,z
1/2+x,-y,1/2-z
-x,y,1/2-z
-x,-y,-z
1/2+x,y,-z
1/2-x,y,1/2+z
x,-y,1/2+z
loop_
_atom_site_type_symbol
_atom_site_label
_atom_site_fract_x
_atom_site_fract_y
_atom_site_fract_z
Si Si1 0.362445 0.630947 0.849098
Si Si2 0.058609 0.561631 0.881461
Si Si3 0.785842 0.322882 0.953100
Si Si4 0.500000 0.218309 0.250000
Si Si5 0.337815 0.118381 0.090376
Si Si6 0.250000 0.000000 0.850272
O O1 0.390088 0.525678 0.803437
O O2 0.296621 0.666951 0.722115
O O3 0.305683 0.629253 0.997605
O O4 0.441818 0.707761 0.849465
O O5 0.128736 0.628924 0.965824
O O6 0.000000 0.608504 0.750000
O O7 0.000000 0.500000 0.000000
O O8 0.787934 0.210173 0.978341
O O9 0.434345 0.155876 0.146960
O O10 0.289326 0.078899 0.238141
O O11 0.327082 0.039406 0.961446
#
# Coordination Sequence:
#
# PCOD9421951 Si02
#       6
#     8   8   8   4   8   4
#     4  11  23  42  62  94 133 179 215 267 313 379
#     4  12  23  41  63  93 135 173 214 265 319 374
#     4  11  24  40  65  93 128 174 222 257 323 391
#     4  10  20  40  66  90 138 164 214 266 318 386
#     4  10  21  42  66  97 123 170 207 276 335 390
#     4  10  22  42  72  92 130 156 218 276 342 412
#
# _framework density 21.21311
#
# number of rings (size 3 to 8) (size 9 to 14) (size 15 to 20)
#    0.000    1.200    3.000    4.200    2.800    2.400 
#    0.000    0.000    2.200    0.000    0.000    0.000 
#    0.000    0.000    0.000    0.000    0.000    0.000 
#
# Total GULP energy -223303.255571 kJ/mol
# GULP energy per Si atom -5582.581389 kJ/mol
# Density = 2.116483 g / cm^3
# Si number density = 21.213110 Si / 1000 Ang^3
#
#
#
# Elastic Constant Matrix: (Units=GPa)
#
#
# Indices 1 2 3 4 5 6 
#
# 1 75.3062 24.4776 23.9370 0.0000 0.0000 0.0000
# 2 24.4776 87.8063 28.9007 0.0000 0.0000 0.0000
# 3 23.9370 28.9007 71.5255 0.0000 0.0000 0.0000
# 4 0.0000 0.0000 0.0000 40.5591 0.0000 0.0000
# 5 0.0000 0.0000 0.0000 0.0000 22.1856 0.0000
# 6 0.0000 0.0000 0.0000 0.0000 0.0000 31.6625
#
#
#
# Elastic Compliance Matrix: (Units=1/GPa)
#
#
# Indices 1 2 3 4 5 6 
#
# 1 0.015524 -0.003019 -0.003975 0.000000 0.000000 0.000000
# 2 -0.003019 0.013723 -0.004534 0.000000 0.000000 0.000000
# 3 -0.003975 -0.004534 0.017144 0.000000 0.000000 0.000000
# 4 0.000000 0.000000 0.000000 0.024655 0.000000 0.000000
# 5 0.000000 0.000000 0.000000 0.000000 0.045074 0.000000
# 6 0.000000 0.000000 0.000000 0.000000 0.000000 0.031583
#
#
# Mechanical properties :
#
#
# Convention : Reuss Voigt Hill
#
# Bulk Modulus (GPa) = 42.85869 43.25209 43.05539
# Shear Modulus (GPa) = 28.00508 29.36961 28.68735
#
# Velocity S-wave (km/s) = 3.63737 3.72493 3.68141
# Velocity P-wave (km/s) = 6.15535 6.23969 6.19766
#
# Compressibility (1/GPa) = 0.02333249
#
# Stress axis : x y z
#
# Youngs Moduli (GPa) = 64.41591 72.87121 58.33050
#
# Poissons Ratio (x) = 0.22001 0.23189
# Poissons Ratio (y) = 0.19448 0.26450
# Poissons Ratio (z) = 0.25608 0.33043
#
# Static dielectric constant tensor:
#      x y z
#    x 1.860590 0.000000 0.000000 
#    y 0.000000 1.827250 0.000000 
#    z 0.000000 0.000000 1.759440 
# 
# From -- ./inp_files/3484.got.cif
#   From: 2010.05.17/outbox.cif.g08.bks.cpg/sg54_2_cif.got.tgz:3484.got - 2010.06.03 13:09:01.
