data_PCOD9421622
_publ_section_title
;
Structure prediction by ZEFSAII (Michael W. Deem and Ramdas Pophale) SiO2 
 PCOD9421622
Probable space group: P C C A
;
_chemical_formula_sum "Si O2"
_cell_formula_units_Z 48
_cell_length_a 13.845090
_cell_length_b 8.442514
_cell_length_c 18.864633
_cell_angle_alpha 90.000000
_cell_angle_beta 90.000000
_cell_angle_gamma 90.000000
_cell_volume 2205.037265
_symmetry_space_group_name_H-M "P C C A"
_symmetry_group_IT_number 54
_symmetry_cell_setting 'orthorhombic'
loop_
_space_group_symop_operation_xyz
x,y,z
1/2-x,-y,z
1/2+x,-y,1/2-z
-x,y,1/2-z
-x,-y,-z
1/2+x,y,-z
1/2-x,y,1/2+z
x,-y,1/2+z
loop_
_atom_site_type_symbol
_atom_site_label
_atom_site_fract_x
_atom_site_fract_y
_atom_site_fract_z
Si Si1 0.500000 0.738528 0.250000
Si Si2 0.048422 0.397462 0.598455
Si Si3 0.403492 0.289839 0.514182
Si Si4 0.750000 0.500000 0.565447
Si Si5 0.382074 0.471037 0.304346
Si Si6 0.108494 0.915475 0.643016
Si Si7 0.808090 0.244106 0.814764
O O1 0.409777 0.622147 0.258690
O O2 0.515089 0.843928 0.318918
O O3 0.057586 0.572224 0.566268
O O4 0.156033 0.353794 0.620992
O O5 0.988446 0.286340 0.544705
O O6 0.982454 0.397456 0.668348
O O7 0.304046 0.362205 0.479831
O O8 0.392250 0.130188 0.559855
O O9 0.666509 0.463604 0.623269
O O10 0.323860 0.342381 0.257931
O O11 0.202611 0.823459 0.672357
O O12 0.122488 0.092700 0.671314
#
# Coordination Sequence:
#
# PCOD9421622 Si02
#       7
#     4   8   8   4   8   8   8
#     4  12  22  38  64  94 122 162 216 276 314 376
#     4  10  20  36  65  87 120 160 213 261 315 375
#     4  10  20  39  60  95 122 164 215 264 313 381
#     4  10  22  34  68  94 130 160 212 272 318 372
#     4  11  20  38  62  96 119 162 213 268 322 373
#     4  11  25  39  61  90 130 166 214 257 327 392
#     4  11  23  41  61  88 129 172 204 265 325 391
#
# _framework density 21.768339000000001
#
# number of rings (size 3 to 8) (size 9 to 14) (size 15 to 20)
#    0.000    1.333    3.333    2.000    2.333    2.000 
#    0.000    0.000    0.000    6.000    0.000    0.000 
#    0.000    0.000    0.000    0.000    0.000    0.000 
#
# Total GULP energy -267465.115979 kJ/mol
# GULP energy per Si atom -5572.189916 kJ/mol
# Density = 2.171879 g / cm^3
# Si number density = 21.768339 Si / 1000 Ang^3
#
#
#
# Elastic Constant Matrix: (Units=GPa)
#
#
# Indices 1 2 3 4 5 6 
#
# 1 40.6334 16.5075 9.5764 0.0000 0.0000 0.0000
# 2 16.5075 44.6694 27.9507 0.0000 0.0000 0.0000
# 3 9.5764 27.9507 98.6526 0.0000 0.0000 0.0000
# 4 0.0000 0.0000 0.0000 20.7773 0.0000 0.0000
# 5 0.0000 0.0000 0.0000 0.0000 48.1560 0.0000
# 6 0.0000 0.0000 0.0000 0.0000 0.0000 20.1279
#
#
#
# Elastic Compliance Matrix: (Units=1/GPa)
#
#
# Indices 1 2 3 4 5 6 
#
# 1 0.028964 -0.010871 0.000269 0.000000 0.000000 0.000000
# 2 -0.010871 0.031291 -0.007810 0.000000 0.000000 0.000000
# 3 0.000269 -0.007810 0.012323 0.000000 0.000000 0.000000
# 4 0.000000 0.000000 0.000000 0.048129 0.000000 0.000000
# 5 0.000000 0.000000 0.000000 0.000000 0.020766 0.000000
# 6 0.000000 0.000000 0.000000 0.000000 0.000000 0.049682
#
#
# Mechanical properties :
#
#
# Convention : Reuss Voigt Hill
#
# Bulk Modulus (GPa) = 27.97055 32.44718 30.20887
# Shear Modulus (GPa) = 20.84208 26.47364 23.65786
#
# Velocity S-wave (km/s) = 3.09762 3.49112 3.30024
# Velocity P-wave (km/s) = 5.06663 5.58468 5.33195
#
# Compressibility (1/GPa) = 0.03575189
#
# Stress axis : x y z
#
# Youngs Moduli (GPa) = 34.52613 31.95779 81.14677
#
# Poissons Ratio (x) = 0.34743 -0.02180
# Poissons Ratio (y) = 0.37535 0.63378
# Poissons Ratio (z) = -0.00927 0.24960
#
# Static dielectric constant tensor:
#      x y z
#    x 1.895780 0.000000 0.000000 
#    y 0.000000 1.825500 0.000000 
#    z 0.000000 0.000000 1.836520 
# 
# From -- ./inp_files/18068.got.cif
#   From: 2010.05.17/outbox.cif.g08.bks.cpg/sg54_10_cif.got.tgz:18068.got - 2010.06.03 13:09:01.
