data_PCOD9421841
_publ_section_title
;
Structure prediction by ZEFSAII (Michael W. Deem and Ramdas Pophale) SiO2 
 PCOD9421841
Probable space group: P C C A
;
_chemical_formula_sum "Si O2"
_cell_formula_units_Z 52
_cell_length_a 15.182506
_cell_length_b 8.309262
_cell_length_c 19.585026
_cell_angle_alpha 90.000000
_cell_angle_beta 90.000000
_cell_angle_gamma 90.000000
_cell_volume 2470.757184
_symmetry_space_group_name_H-M "P C C A"
_symmetry_group_IT_number 54
_symmetry_cell_setting 'orthorhombic'
loop_
_space_group_symop_operation_xyz
x,y,z
1/2-x,-y,z
1/2+x,-y,1/2-z
-x,y,1/2-z
-x,-y,-z
1/2+x,y,-z
1/2-x,y,1/2+z
x,-y,1/2+z
loop_
_atom_site_type_symbol
_atom_site_label
_atom_site_fract_x
_atom_site_fract_y
_atom_site_fract_z
Si Si1 0.431993 0.621943 0.148076
Si Si2 0.250000 0.500000 0.926170
Si Si3 0.773349 0.693887 0.752442
Si Si4 0.875874 0.266057 0.126186
Si Si5 0.142664 0.723701 0.137070
Si Si6 0.810615 0.264846 0.461313
Si Si7 0.096909 0.935747 0.012858
O O1 0.359961 0.695684 0.199457
O O2 0.526913 0.702075 0.155849
O O3 0.418782 0.429609 0.152707
O O4 0.397849 0.661222 0.072008
O O5 0.162969 0.557392 0.888824
O O6 0.282438 0.648078 0.970780
O O7 0.750000 0.500000 0.745189
O O8 0.804650 0.783247 0.683797
O O9 0.690021 0.771298 0.791875
O O10 0.879618 0.166900 0.055362
O O11 0.230425 0.692514 0.090363
O O12 0.094166 0.842631 0.085396
O O13 0.834575 0.080687 0.474900
O O14 0.000000 0.000000 0.000000
#
# Coordination Sequence:
#
# PCOD9421841 Si02
#       7
#     8   4   8   8   8   8   8
#     4  10  20  38  68  94 128 169 227 269 321 405
#     4  12  24  36  68  90 130 170 226 276 340 380
#     4   9  20  41  67  94 128 176 227 270 335 402
#     4  12  23  39  64 102 133 169 217 289 338 393
#     4  10  21  40  66  95 127 179 223 267 335 415
#     4  11  20  40  61  94 130 174 214 270 331 402
#     4  12  25  38  65 101 141 172 223 282 345 400
#
# _framework density 21.046181000000001
#
# number of rings (size 3 to 8) (size 9 to 14) (size 15 to 20)
#    0.000    1.231    5.385    1.846    2.154    1.231 
#    0.000    0.000   13.538    0.000    0.000    0.000 
#    0.000    0.000    0.000    0.000    0.000    0.000 
#
# Total GULP energy -289559.760881 kJ/mol
# GULP energy per Si atom -5568.456940 kJ/mol
# Density = 2.099828 g / cm^3
# Si number density = 21.046181 Si / 1000 Ang^3
#
#
#
# Elastic Constant Matrix: (Units=GPa)
#
#
# Indices 1 2 3 4 5 6 
#
# 1 68.1588 14.1709 27.5770 0.0000 0.0000 0.0000
# 2 14.1709 36.6389 11.8064 0.0000 0.0000 0.0000
# 3 27.5770 11.8064 79.3266 0.0000 0.0000 0.0000
# 4 0.0000 0.0000 0.0000 46.5717 0.0000 0.0000
# 5 0.0000 0.0000 0.0000 0.0000 24.4353 0.0000
# 6 0.0000 0.0000 0.0000 0.0000 0.0000 33.6783
#
#
#
# Elastic Compliance Matrix: (Units=1/GPa)
#
#
# Indices 1 2 3 4 5 6 
#
# 1 0.017964 -0.005184 -0.005473 0.000000 0.000000 0.000000
# 2 -0.005184 0.030164 -0.002687 0.000000 0.000000 0.000000
# 3 -0.005473 -0.002687 0.014909 0.000000 0.000000 0.000000
# 4 0.000000 0.000000 0.000000 0.021472 0.000000 0.000000
# 5 0.000000 0.000000 0.000000 0.000000 0.040924 0.000000
# 6 0.000000 0.000000 0.000000 0.000000 0.000000 0.029693
#
#
# Mechanical properties :
#
#
# Convention : Reuss Voigt Hill
#
# Bulk Modulus (GPa) = 27.51215 32.35920 29.93567
# Shear Modulus (GPa) = 25.78221 29.64172 27.71196
#
# Velocity S-wave (km/s) = 3.50384 3.75695 3.63260
# Velocity P-wave (km/s) = 5.42861 5.85050 5.64350
#
# Compressibility (1/GPa) = 0.03634758
#
# Stress axis : x y z
#
# Youngs Moduli (GPa) = 55.66686 33.15162 67.07430
#
# Poissons Ratio (x) = 0.17187 0.36713
# Poissons Ratio (y) = 0.28859 0.18024
# Poissons Ratio (z) = 0.30469 0.08909
#
# Static dielectric constant tensor:
#      x y z
#    x 2.064740 0.000000 0.000000 
#    y 0.000000 1.819540 0.000000 
#    z 0.000000 0.000000 1.862370 
# 
# From -- ./inp_files/21532.got.cif
#   From: 2010.05.17/outbox.cif.g08.bks.cpg/sg54_11_cif.got.tgz:21532.got - 2010.06.03 13:09:01.
