data_PCOD9421504
_publ_section_title
;
Structure prediction by ZEFSAII (Michael W. Deem and Ramdas Pophale) SiO2 
 PCOD9421504
Probable space group: P C C A
;
_chemical_formula_sum "Si O2"
_cell_formula_units_Z 40
_cell_length_a 9.284921
_cell_length_b 10.577461
_cell_length_c 21.611784
_cell_angle_alpha 90.000000
_cell_angle_beta 90.000000
_cell_angle_gamma 90.000000
_cell_volume 2122.512536
_symmetry_space_group_name_H-M "P C C A"
_symmetry_group_IT_number 54
_symmetry_cell_setting 'orthorhombic'
loop_
_space_group_symop_operation_xyz
x,y,z
1/2-x,-y,z
1/2+x,-y,1/2-z
-x,y,1/2-z
-x,-y,-z
1/2+x,y,-z
1/2-x,y,1/2+z
x,-y,1/2+z
loop_
_atom_site_type_symbol
_atom_site_label
_atom_site_fract_x
_atom_site_fract_y
_atom_site_fract_z
Si Si1 0.995551 0.710850 0.624660
Si Si2 0.250000 0.000000 0.191269
Si Si3 0.500000 0.156900 0.750000
Si Si4 0.621654 0.900859 0.021457
Si Si5 0.921114 0.539568 0.317445
Si Si6 0.669679 0.780123 0.890453
O O1 0.955293 0.759453 0.692313
O O2 0.999341 0.559716 0.636001
O O3 0.162697 0.743236 0.613191
O O4 0.912447 0.799982 0.575818
O O5 0.343160 0.090464 0.147473
O O6 0.137771 0.076812 0.231275
O O7 0.750000 0.000000 0.036317
O O8 0.641646 0.811924 0.961391
O O9 0.500000 0.000000 0.000000
O O10 0.750000 0.500000 0.308934
O O11 0.917067 0.672282 0.354194
O O12 0.000000 0.544746 0.250000
#
# Coordination Sequence:
#
# PCOD9421504 Si02
#       6
#     8   4   4   8   8   8
#     4  10  21  40  63  88 129 168 204 267 327 382
#     4  10  20  36  56  88 122 162 206 264 324 380
#     4  10  20  36  56  86 124 158 208 254 322 378
#     4  12  22  41  64  92 127 166 216 266 324 390
#     4  10  22  43  66  91 129 173 214 266 327 395
#     4  10  21  41  62  87 127 168 206 264 331 380
#
# _framework density 18.845587999999999
#
# number of rings (size 3 to 8) (size 9 to 14) (size 15 to 20)
#    0.000    1.600    4.000    1.200    2.800    0.800 
#    3.600    0.000    0.000    0.000    0.000    0.000 
#    0.000    0.000    0.000    0.000    0.000    0.000 
#
# Total GULP energy -222685.103039 kJ/mol
# GULP energy per Si atom -5567.127576 kJ/mol
# Density = 1.880269 g / cm^3
# Si number density = 18.845588 Si / 1000 Ang^3
#
#
#
# Elastic Constant Matrix: (Units=GPa)
#
#
# Indices 1 2 3 4 5 6 
#
# 1 40.9233 28.3802 29.4700 0.0000 0.0000 0.0000
# 2 28.3802 152.4766 83.8426 0.0000 0.0000 0.0000
# 3 29.4700 83.8426 154.9605 0.0000 0.0000 0.0000
# 4 0.0000 0.0000 0.0000 -105.3479 0.0000 0.0000
# 5 0.0000 0.0000 0.0000 0.0000 7.7489 0.0000
# 6 0.0000 0.0000 0.0000 0.0000 0.0000 -82.2593
#
#
#
# Elastic Compliance Matrix: (Units=1/GPa)
#
#
# Indices 1 2 3 4 5 6 
#
# 1 0.029520 -0.003427 -0.003760 0.000000 0.000000 0.000000
# 2 -0.003427 0.009734 -0.004615 0.000000 0.000000 0.000000
# 3 -0.003760 -0.004615 0.009665 0.000000 0.000000 0.000000
# 4 0.000000 0.000000 0.000000 -0.009492 0.000000 0.000000
# 5 0.000000 0.000000 0.000000 0.000000 0.129051 0.000000
# 6 0.000000 0.000000 0.000000 0.000000 0.000000 -0.012157
#
#
# Mechanical properties :
#
#
# Convention : Reuss Voigt Hill
#
# Bulk Modulus (GPa) = 39.50114 70.19401 54.84757
# Shear Modulus (GPa) = 26.54453 -22.19383 2.17535
#
# Velocity S-wave (km/s) = 3.75711 -3.43544 1.07555
# Velocity P-wave (km/s) = 6.31087 4.64666 5.54159
#
# Compressibility (1/GPa) = 0.02531573
#
# Stress axis : x y z
#
# Youngs Moduli (GPa) = 33.87507 102.73456 103.46443
#
# Poissons Ratio (x) = 0.35209 0.38901
# Poissons Ratio (y) = 0.11610 0.47747
# Poissons Ratio (z) = 0.12736 0.47410
#
# Static dielectric constant tensor:
#      x y z
#    x 1.691890 0.000000 0.000000 
#    y 0.000000 1.724660 0.000000 
#    z 0.000000 0.000000 1.690630 
# 
# From -- ./inp_files/16394.got.cif
#   From: 2010.05.17/outbox.cif.g08.bks.cpg/sg54_9_cif.got.tgz:16394.got - 2010.06.03 13:09:01.
