data_PCOD9421884
_publ_section_title
;
Structure prediction by ZEFSAII (Michael W. Deem and Ramdas Pophale) SiO2 
 PCOD9421884
Probable space group: P C C A
;
_chemical_formula_sum "Si O2"
_cell_formula_units_Z 44
_cell_length_a 14.498822
_cell_length_b 8.863840
_cell_length_c 16.454478
_cell_angle_alpha 90.000000
_cell_angle_beta 90.000000
_cell_angle_gamma 90.000000
_cell_volume 2114.651163
_symmetry_space_group_name_H-M "P C C A"
_symmetry_group_IT_number 54
_symmetry_cell_setting 'orthorhombic'
loop_
_space_group_symop_operation_xyz
x,y,z
1/2-x,-y,z
1/2+x,-y,1/2-z
-x,y,1/2-z
-x,-y,-z
1/2+x,y,-z
1/2-x,y,1/2+z
x,-y,1/2+z
loop_
_atom_site_type_symbol
_atom_site_label
_atom_site_fract_x
_atom_site_fract_y
_atom_site_fract_z
Si Si1 0.425158 0.141150 0.374991
Si Si2 0.117846 0.880358 0.078178
Si Si3 0.356006 0.652526 0.178990
Si Si4 0.353782 0.678614 0.730517
Si Si5 0.695210 0.805798 0.475942
Si Si6 0.000000 0.890800 0.750000
O O1 0.510836 0.145820 0.438454
O O2 0.405652 0.276921 0.312697
O O3 0.338142 0.154248 0.434301
O O4 0.449592 0.996450 0.318281
O O5 0.124775 0.813098 0.168153
O O6 0.194061 0.795546 0.024991
O O7 0.154956 0.049801 0.073526
O O8 0.258114 0.673722 0.226671
O O9 0.386560 0.482797 0.198257
O O10 0.338859 0.670582 0.081867
O O11 0.426114 0.778968 0.209430
#
# Coordination Sequence:
#
# PCOD9421884 Si02
#       6
#     8   8   8   8   8   4
#     4  12  22  41  68 100 126 173 218 273 320 392
#     4  10  20  39  65  92 126 172 205 269 318 384
#     4  10  23  42  61  96 131 175 213 271 319 398
#     4  10  22  43  67  89 135 176 218 261 331 381
#     4  10  22  40  63  91 132 163 215 264 332 373
#     4  12  24  36  70  98 128 162 230 266 320 382
#
# _framework density 20.807213999999998
#
# number of rings (size 3 to 8) (size 9 to 14) (size 15 to 20)
#    0.000    1.455    3.636    0.545    2.545    3.636 
#    0.000   10.000    0.000    0.000    0.000    0.000 
#    0.000    0.000    0.000    0.000    0.000    0.000 
#
# Total GULP energy -244992.716205 kJ/mol
# GULP energy per Si atom -5568.016277 kJ/mol
# Density = 2.075986 g / cm^3
# Si number density = 20.807214 Si / 1000 Ang^3
#
#
#
# Elastic Constant Matrix: (Units=GPa)
#
#
# Indices 1 2 3 4 5 6 
#
# 1 39.9621 -11.3041 31.7665 0.0000 0.0000 0.0000
# 2 -11.3041 100.0113 49.3974 0.0000 0.0000 0.0000
# 3 31.7665 49.3974 88.3354 0.0000 0.0000 0.0000
# 4 0.0000 0.0000 0.0000 5.2948 0.0000 0.0000
# 5 0.0000 0.0000 0.0000 0.0000 10.4070 0.0000
# 6 0.0000 0.0000 0.0000 0.0000 0.0000 26.5672
#
#
#
# Elastic Compliance Matrix: (Units=1/GPa)
#
#
# Indices 1 2 3 4 5 6 
#
# 1 0.059291 0.023809 -0.034636 0.000000 0.000000 0.000000
# 2 0.023809 0.023375 -0.021633 0.000000 0.000000 0.000000
# 3 -0.034636 -0.021633 0.035873 0.000000 0.000000 0.000000
# 4 0.000000 0.000000 0.000000 0.188863 0.000000 0.000000
# 5 0.000000 0.000000 0.000000 0.000000 0.096089 0.000000
# 6 0.000000 0.000000 0.000000 0.000000 0.000000 0.037640
#
#
# Mechanical properties :
#
#
# Convention : Reuss Voigt Hill
#
# Bulk Modulus (GPa) = 18.65013 40.89204 29.77108
# Shear Modulus (GPa) = 9.54334 19.01708 14.28021
#
# Velocity S-wave (km/s) = 2.14395 3.02647 2.62260
# Velocity P-wave (km/s) = 3.88734 5.64873 4.84869
#
# Compressibility (1/GPa) = 0.05361893
#
# Stress axis : x y z
#
# Youngs Moduli (GPa) = 16.86596 42.78063 27.87585
#
# Poissons Ratio (x) = -1.01856 0.96550
# Poissons Ratio (y) = -0.40156 0.60305
# Poissons Ratio (z) = 0.58416 0.92549
#
# Static dielectric constant tensor:
#      x y z
#    x 1.881640 0.000000 0.000000 
#    y 0.000000 1.750120 0.000000 
#    z 0.000000 0.000000 1.779450 
# 
# From -- ./inp_files/17905.got.cif
#   From: 2010.05.17/outbox.cif.g08.bks.cpg/sg54_9_cif.got.tgz:17905.got - 2010.06.03 13:09:01.
