data_PCOD9421100
_publ_section_title
;
Structure prediction by ZEFSAII (Michael W. Deem and Ramdas Pophale) SiO2 
 PCOD9421100
Probable space group: P C C A
;
_chemical_formula_sum "Si O2"
_cell_formula_units_Z 32
_cell_length_a 5.080526
_cell_length_b 22.749025
_cell_length_c 11.442173
_cell_angle_alpha 90.000000
_cell_angle_beta 90.000000
_cell_angle_gamma 90.000000
_cell_volume 1322.452177
_symmetry_space_group_name_H-M "P C C A"
_symmetry_group_IT_number 54
_symmetry_cell_setting 'orthorhombic'
loop_
_space_group_symop_operation_xyz
x,y,z
1/2-x,-y,z
1/2+x,-y,1/2-z
-x,y,1/2-z
-x,-y,-z
1/2+x,y,-z
1/2-x,y,1/2+z
x,-y,1/2+z
loop_
_atom_site_type_symbol
_atom_site_label
_atom_site_fract_x
_atom_site_fract_y
_atom_site_fract_z
Si Si1 0.224260 0.878509 0.937993
Si Si2 0.750000 0.500000 0.163560
Si Si3 0.749497 0.248469 0.165089
Si Si4 0.000000 0.038436 0.750000
Si Si5 0.250101 0.374734 0.836146
O O1 0.257429 0.809556 0.911673
O O2 0.356623 0.919564 0.842494
O O3 0.415535 0.889955 0.048142
O O4 0.500000 0.500058 0.250000
O O5 0.750016 0.562665 0.097435
O O6 0.500000 0.247255 0.250000
O O7 0.752326 0.311785 0.100102
O O8 0.000000 0.244999 0.250000
O O9 0.250000 0.000000 0.704629
O O10 0.500000 0.374559 0.750000
O O11 0.000000 0.374735 0.750000
#
# Coordination Sequence:
#
# PCOD9421100 Si02
#       5
#     8   4   8   4   8
#     4  12  26  43  69  99 127 165 209 252 304 369
#     4   8  12  20  34  62 104 138 188 246 290 344
#     4  10  19  35  59  84 120 161 203 252 309 360
#     4  12  28  48  72  96 130 168 200 254 308 366
#     4   8  14  23  41  70 103 148 192 243 298 350
#
# _framework density 24.197474
#
# number of rings (size 3 to 8) (size 9 to 14) (size 15 to 20)
#    0.000    2.000    1.250    3.000    1.750    3.000 
#    0.000    0.000    0.000    0.000    0.000    1.750 
#    0.000    0.000    0.000    0.000    0.000    0.250 
#
# Total GULP energy -178699.494608 kJ/mol
# GULP energy per Si atom -5584.359206 kJ/mol
# Density = 2.414240 g / cm^3
# Si number density = 24.197474 Si / 1000 Ang^3
#
#
#
# Elastic Constant Matrix: (Units=GPa)
#
#
# Indices 1 2 3 4 5 6 
#
# 1 184.3638 21.5528 13.1666 0.0000 0.0000 0.0000
# 2 21.5528 212.7783 36.0688 0.0000 0.0000 0.0000
# 3 13.1666 36.0688 20.7288 0.0000 0.0000 0.0000
# 4 0.0000 0.0000 0.0000 77.4544 0.0000 0.0000
# 5 0.0000 0.0000 0.0000 0.0000 34.8794 0.0000
# 6 0.0000 0.0000 0.0000 0.0000 0.0000 31.9426
#
#
#
# Elastic Compliance Matrix: (Units=1/GPa)
#
#
# Indices 1 2 3 4 5 6 
#
# 1 0.005682 0.000051 -0.003699 0.000000 0.000000 0.000000
# 2 0.000051 0.006666 -0.011632 0.000000 0.000000 0.000000
# 3 -0.003699 -0.011632 0.070832 0.000000 0.000000 0.000000
# 4 0.000000 0.000000 0.000000 0.012911 0.000000 0.000000
# 5 0.000000 0.000000 0.000000 0.000000 0.028670 0.000000
# 6 0.000000 0.000000 0.000000 0.000000 0.000000 0.031306
#
#
# Mechanical properties :
#
#
# Convention : Reuss Voigt Hill
#
# Bulk Modulus (GPa) = 19.00366 62.16082 40.58224
# Shear Modulus (GPa) = 24.48965 51.99411 38.24188
#
# Velocity S-wave (km/s) = 3.18476 4.64048 3.97975
# Velocity P-wave (km/s) = 4.62539 7.37949 6.15837
#
# Compressibility (1/GPa) = 0.05262144
#
# Stress axis : x y z
#
# Youngs Moduli (GPa) = 175.98834 150.00673 14.11787
#
# Poissons Ratio (x) = -0.00771 0.05222
# Poissons Ratio (y) = -0.00905 0.16422
# Poissons Ratio (z) = 0.65093 1.74494
#
# Static dielectric constant tensor:
#      x y z
#    x 1.860760 0.000000 0.000000 
#    y 0.000000 2.029670 0.000000 
#    z 0.000000 0.000000 0.191640 
# 
# From -- ./inp_files/6283.got.cif
#   From: 2010.05.17/outbox.cif.g08.bks.cpg/sg54_4_cif.got.tgz:6283.got - 2010.06.03 13:09:01.
