data_PCOD9421739
_publ_section_title
;
Structure prediction by ZEFSAII (Michael W. Deem and Ramdas Pophale) SiO2 
 PCOD9421739
Probable space group: P C C A
;
_chemical_formula_sum "Si O2"
_cell_formula_units_Z 48
_cell_length_a 10.628178
_cell_length_b 24.395684
_cell_length_c 9.472210
_cell_angle_alpha 90.000000
_cell_angle_beta 90.000000
_cell_angle_gamma 90.000000
_cell_volume 2455.970446
_symmetry_space_group_name_H-M "P C C A"
_symmetry_group_IT_number 54
_symmetry_cell_setting 'orthorhombic'
loop_
_space_group_symop_operation_xyz
x,y,z
1/2-x,-y,z
1/2+x,-y,1/2-z
-x,y,1/2-z
-x,-y,-z
1/2+x,y,-z
1/2-x,y,1/2+z
x,-y,1/2+z
loop_
_atom_site_type_symbol
_atom_site_label
_atom_site_fract_x
_atom_site_fract_y
_atom_site_fract_z
Si Si1 0.405020 0.950599 0.479323
Si Si2 0.352992 0.425906 0.740786
Si Si3 0.750000 0.000000 0.275122
Si Si4 0.754513 0.227889 0.999381
Si Si5 0.505401 0.160210 0.082937
Si Si6 0.848387 0.697797 0.750818
Si Si7 0.250000 0.500000 0.491850
O O1 0.480549 0.894291 0.491396
O O2 0.500000 0.000000 0.500000
O O3 0.334568 0.963889 0.332650
O O4 0.315240 0.957459 0.616424
O O5 0.500000 0.418665 0.750000
O O6 0.298054 0.364492 0.734335
O O7 0.325543 0.461794 0.601613
O O8 0.314941 0.458375 0.882256
O O9 0.696522 0.263004 0.874315
O O10 0.883552 0.197657 0.953565
O O11 0.641345 0.187588 0.050321
O O12 0.794343 0.272581 0.114199
O O13 0.500000 0.147488 0.250000
O O14 0.000000 0.697362 0.750000
#
# Coordination Sequence:
#
# PCOD9421739 Si02
#       7
#     8   8   4   8   8   8   4
#     4  11  25  46  67 100 131 173 217 273 340 414
#     4  10  21  37  64  91 135 170 216 271 329 388
#     4  10  24  44  70  96 134 168 218 268 326 434
#     4  12  25  45  66  98 131 174 229 275 333 396
#     4  12  27  44  72  99 135 172 219 287 335 393
#     4  11  23  43  65  96 132 180 222 278 332 394
#     4  10  20  38  60 100 126 172 218 268 322 398
#
# _framework density 19.544208999999999
#
# number of rings (size 3 to 8) (size 9 to 14) (size 15 to 20)
#    0.000    1.000    3.333    3.000    7.000    0.000 
#    3.000    0.000    3.667    0.000    0.000    0.000 
#    0.000    0.000    0.000    0.000    0.000    0.000 
#
# Total GULP energy -267866.885528 kJ/mol
# GULP energy per Si atom -5580.560115 kJ/mol
# Density = 1.949973 g / cm^3
# Si number density = 19.544209 Si / 1000 Ang^3
#
#
#
# Elastic Constant Matrix: (Units=GPa)
#
#
# Indices 1 2 3 4 5 6 
#
# 1 88.9376 27.7203 21.5046 0.0000 0.0000 0.0000
# 2 27.7203 106.2632 7.3382 0.0000 0.0000 0.0000
# 3 21.5046 7.3382 91.4779 0.0000 0.0000 0.0000
# 4 0.0000 0.0000 0.0000 28.8202 0.0000 0.0000
# 5 0.0000 0.0000 0.0000 0.0000 15.2137 0.0000
# 6 0.0000 0.0000 0.0000 0.0000 0.0000 22.2556
#
#
#
# Elastic Compliance Matrix: (Units=1/GPa)
#
#
# Indices 1 2 3 4 5 6 
#
# 1 0.012905 -0.003175 -0.002779 0.000000 0.000000 0.000000
# 2 -0.003175 0.010244 -0.000075 0.000000 0.000000 0.000000
# 3 -0.002779 -0.000075 0.011591 0.000000 0.000000 0.000000
# 4 0.000000 0.000000 0.000000 0.034698 0.000000 0.000000
# 5 0.000000 0.000000 0.000000 0.000000 0.065730 0.000000
# 6 0.000000 0.000000 0.000000 0.000000 0.000000 0.044932
#
#
# Mechanical properties :
#
#
# Convention : Reuss Voigt Hill
#
# Bulk Modulus (GPa) = 44.08814 44.42275 44.25544
# Shear Modulus (GPa) = 25.03506 28.59893 26.81700
#
# Velocity S-wave (km/s) = 3.58291 3.82945 3.70823
# Velocity P-wave (km/s) = 6.30266 6.50628 6.40528
#
# Compressibility (1/GPa) = 0.02268184
#
# Stress axis : x y z
#
# Youngs Moduli (GPa) = 77.48761 97.61853 86.27406
#
# Poissons Ratio (x) = 0.30990 0.23976
# Poissons Ratio (y) = 0.24599 0.00651
# Poissons Ratio (z) = 0.21535 0.00737
#
# Static dielectric constant tensor:
#      x y z
#    x 1.702400 0.000000 0.000000 
#    y 0.000000 1.670340 0.000000 
#    z 0.000000 0.000000 1.790200 
# 
# From -- ./inp_files/3046.got.cif
#   From: 2010.05.17/outbox.cif.g08.bks.cpg/sg54_2_cif.got.tgz:3046.got - 2010.06.03 13:09:01.
