data_PCOD9421531
_publ_section_title
;
Structure prediction by ZEFSAII (Michael W. Deem and Ramdas Pophale) SiO2 
 PCOD9421531
Probable space group: P C C A
;
_chemical_formula_sum "Si O2"
_cell_formula_units_Z 32
_cell_length_a 5.129076
_cell_length_b 10.521711
_cell_length_c 28.842631
_cell_angle_alpha 90.000000
_cell_angle_beta 90.000000
_cell_angle_gamma 90.000000
_cell_volume 1556.540327
_symmetry_space_group_name_H-M "P C C A"
_symmetry_group_IT_number 54
_symmetry_cell_setting 'orthorhombic'
loop_
_space_group_symop_operation_xyz
x,y,z
1/2-x,-y,z
1/2+x,-y,1/2-z
-x,y,1/2-z
-x,-y,-z
1/2+x,y,-z
1/2-x,y,1/2+z
x,-y,1/2+z
loop_
_atom_site_type_symbol
_atom_site_label
_atom_site_fract_x
_atom_site_fract_y
_atom_site_fract_z
Si Si1 0.823828 0.758447 0.371429
Si Si2 0.750000 0.500000 0.825472
Si Si3 0.500000 0.329037 0.750000
Si Si4 0.281320 0.649464 0.031058
Si Si5 0.305887 0.143502 0.818862
O O1 0.870590 0.612616 0.355108
O O2 0.759679 0.741931 0.425372
O O3 0.585951 0.823597 0.342669
O O4 0.087262 0.827726 0.357197
O O5 0.563295 0.423320 0.791585
O O6 0.291089 0.234479 0.773621
O O7 0.250000 0.500000 0.044956
O O8 0.562361 0.668830 0.008119
O O9 0.250000 0.000000 0.803995
#
# Coordination Sequence:
#
# PCOD9421531 Si02
#       5
#     8   4   4   8   8
#     4  11  22  40  64  90 127 159 199 258 307 374
#     4  10  20  36  58  94 118 156 192 248 326 364
#     4  10  22  38  62  88 124 158 204 262 300 368
#     4  10  20  36  61  96 128 156 193 247 314 382
#     4  11  25  41  62  87 120 171 214 252 295 355
#
# _framework density 20.558413000000002
#
# number of rings (size 3 to 8) (size 9 to 14) (size 15 to 20)
#    0.000    1.500    1.250    3.750    0.000   10.000 
#    0.000    0.000    0.000   15.000    0.000    0.000 
#    0.000    0.000    0.000    0.000    0.000    0.000 
#
# Total GULP energy -178524.177973 kJ/mol
# GULP energy per Si atom -5578.880562 kJ/mol
# Density = 2.051162 g / cm^3
# Si number density = 20.558413 Si / 1000 Ang^3
#
#
#
# Elastic Constant Matrix: (Units=GPa)
#
#
# Indices 1 2 3 4 5 6 
#
# 1 68.9606 21.5481 2.9535 0.0000 0.0000 0.0000
# 2 21.5481 105.6701 4.8006 0.0000 0.0000 0.0000
# 3 2.9535 4.8006 60.2562 0.0000 0.0000 0.0000
# 4 0.0000 0.0000 0.0000 15.3839 0.0000 0.0000
# 5 0.0000 0.0000 0.0000 0.0000 21.6883 0.0000
# 6 0.0000 0.0000 0.0000 0.0000 0.0000 20.0771
#
#
#
# Elastic Compliance Matrix: (Units=1/GPa)
#
#
# Indices 1 2 3 4 5 6 
#
# 1 0.015504 -0.003138 -0.000510 0.000000 0.000000 0.000000
# 2 -0.003138 0.010133 -0.000653 0.000000 0.000000 0.000000
# 3 -0.000510 -0.000653 0.016673 0.000000 0.000000 0.000000
# 4 0.000000 0.000000 0.000000 0.065003 0.000000 0.000000
# 5 0.000000 0.000000 0.000000 0.000000 0.046108 0.000000
# 6 0.000000 0.000000 0.000000 0.000000 0.000000 0.049808
#
#
# Mechanical properties :
#
#
# Convention : Reuss Voigt Hill
#
# Bulk Modulus (GPa) = 29.66821 32.61015 31.13918
# Shear Modulus (GPa) = 22.41478 25.13549 23.77514
#
# Velocity S-wave (km/s) = 3.30555 3.50042 3.40438
# Velocity P-wave (km/s) = 5.38808 5.67749 5.53467
#
# Compressibility (1/GPa) = 0.03370611
#
# Stress axis : x y z
#
# Youngs Moduli (GPa) = 64.50155 98.68692 59.97770
#
# Poissons Ratio (x) = 0.30971 0.03058
# Poissons Ratio (y) = 0.20242 0.03919
# Poissons Ratio (z) = 0.03289 0.06449
#
# Static dielectric constant tensor:
#      x y z
#    x 1.745170 0.000000 0.000000 
#    y 0.000000 1.590710 0.000000 
#    z 0.000000 0.000000 1.753650 
# 
# From -- ./inp_files/26882.got.cif
#   From: 2010.05.17/outbox.cif.g08.bks.cpg/sg54_14_cif.got.tgz:26882.got - 2010.06.03 13:09:01.
