data_PCOD9421375
_publ_section_title
;
Structure prediction by ZEFSAII (Michael W. Deem and Ramdas Pophale) SiO2 
 PCOD9421375
Probable space group: P C C A
;
_chemical_formula_sum "Si O2"
_cell_formula_units_Z 60
_cell_length_a 19.643709
_cell_length_b 11.651457
_cell_length_c 11.689879
_cell_angle_alpha 90.000000
_cell_angle_beta 90.000000
_cell_angle_gamma 90.000000
_cell_volume 2675.554147
_symmetry_space_group_name_H-M "P C C A"
_symmetry_group_IT_number 54
_symmetry_cell_setting 'orthorhombic'
loop_
_space_group_symop_operation_xyz
x,y,z
1/2-x,-y,z
1/2+x,-y,1/2-z
-x,y,1/2-z
-x,-y,-z
1/2+x,y,-z
1/2-x,y,1/2+z
x,-y,1/2+z
loop_
_atom_site_type_symbol
_atom_site_label
_atom_site_fract_x
_atom_site_fract_y
_atom_site_fract_z
Si Si1 0.376281 0.104538 0.343653
Si Si2 0.092679 0.669565 0.057104
Si Si3 0.307340 0.316500 0.263795
Si Si4 0.500000 0.744751 0.750000
Si Si5 0.171802 0.685483 0.687548
Si Si6 0.633558 0.842474 0.119307
Si Si7 0.229562 0.123773 0.028214
Si Si8 0.668553 0.467479 0.021930
O O1 0.319329 0.179373 0.277214
O O2 0.443135 0.172106 0.305523
O O3 0.344807 0.112810 0.470470
O O4 0.382260 0.968293 0.331403
O O5 0.155024 0.656899 0.146453
O O6 0.091840 0.789325 0.987027
O O7 0.115208 0.572019 0.967650
O O8 0.029927 0.670511 0.144907
O O9 0.231319 0.366090 0.265530
O O10 0.340173 0.378639 0.373607
O O11 0.217613 0.775721 0.616008
O O12 0.145851 0.597373 0.594951
O O13 0.126208 0.756841 0.773710
O O14 0.710285 0.847718 0.063407
O O15 0.250000 0.000000 0.077252
O O16 0.750000 0.500000 0.010422
#
# Coordination Sequence:
#
# PCOD9421375 Si02
#       8
#     8   8   8   4   8   8   8   8
#     4  10  22  43  67  99 137 182 231 288 342 424
#     4  11  25  45  68  96 132 186 236 283 340 415
#     4  11  22  39  61  97 140 176 222 272 355 415
#     4  10  26  50  74  94 134 202 240 278 350 422
#     4  12  21  35  60 103 145 178 211 276 365 421
#     4  11  23  38  66 105 135 171 228 289 357 415
#     4  10  20  33  60  99 142 174 217 285 352 416
#     4  12  24  38  64 101 137 180 227 287 352 408
#
# _framework density 22.425260999999999
#
# number of rings (size 3 to 8) (size 9 to 14) (size 15 to 20)
#    0.000    1.067    5.333    0.800    5.600    1.600 
#    0.000    2.667    0.000    0.000    0.000    0.000 
#    0.000    0.000    0.000    0.000    0.000    0.000 
#
# Total GULP energy -334321.939644 kJ/mol
# GULP energy per Si atom -5572.032327 kJ/mol
# Density = 2.237422 g / cm^3
# Si number density = 22.425261 Si / 1000 Ang^3
#
#
#
# Elastic Constant Matrix: (Units=GPa)
#
#
# Indices 1 2 3 4 5 6 
#
# 1 40.2846 -8.2870 -2.6818 0.0000 0.0000 0.0000
# 2 -8.2870 94.5308 27.2795 0.0000 0.0000 0.0000
# 3 -2.6818 27.2795 47.5964 0.0000 0.0000 0.0000
# 4 0.0000 0.0000 0.0000 34.5387 0.0000 0.0000
# 5 0.0000 0.0000 0.0000 0.0000 31.7627 0.0000
# 6 0.0000 0.0000 0.0000 0.0000 0.0000 9.5658
#
#
#
# Elastic Compliance Matrix: (Units=1/GPa)
#
#
# Indices 1 2 3 4 5 6 
#
# 1 0.025281 0.002163 0.000185 0.000000 0.000000 0.000000
# 2 0.002163 0.012860 -0.007249 0.000000 0.000000 0.000000
# 3 0.000185 -0.007249 0.025175 0.000000 0.000000 0.000000
# 4 0.000000 0.000000 0.000000 0.028953 0.000000 0.000000
# 5 0.000000 0.000000 0.000000 0.000000 0.031483 0.000000
# 6 0.000000 0.000000 0.000000 0.000000 0.000000 0.104540
#
#
# Mechanical properties :
#
#
# Convention : Reuss Voigt Hill
#
# Bulk Modulus (GPa) = 18.68687 23.89256 21.28971
# Shear Modulus (GPa) = 19.53647 26.24684 22.89165
#
# Velocity S-wave (km/s) = 2.95478 3.42484 3.19846
# Velocity P-wave (km/s) = 4.47124 5.12999 4.81190
#
# Compressibility (1/GPa) = 0.05351351
#
# Stress axis : x y z
#
# Youngs Moduli (GPa) = 39.55596 77.76049 39.72197
#
# Poissons Ratio (x) = -0.16819 -0.00734
# Poissons Ratio (y) = -0.08555 0.28793
# Poissons Ratio (z) = -0.00731 0.56367
#
# Static dielectric constant tensor:
#      x y z
#    x 1.891480 0.000000 0.000000 
#    y 0.000000 1.923950 0.000000 
#    z 0.000000 0.000000 1.888420 
# 
# From -- ./inp_files/9589.got.cif
#   From: 2010.05.17/outbox.cif.g08.bks.cpg/sg54_5_cif.got.tgz:9589.got - 2010.06.03 13:09:01.
