data_PCOD9421000
_publ_section_title
;
Structure prediction by ZEFSAII (Michael W. Deem and Ramdas Pophale) SiO2 
 PCOD9421000
Probable space group: P C C A
;
_chemical_formula_sum "Si O2"
_cell_formula_units_Z 56
_cell_length_a 18.728698
_cell_length_b 9.393605
_cell_length_c 18.770557
_cell_angle_alpha 90.000000
_cell_angle_beta 90.000000
_cell_angle_gamma 90.000000
_cell_volume 3302.303927
_symmetry_space_group_name_H-M "P C C A"
_symmetry_group_IT_number 54
_symmetry_cell_setting 'orthorhombic'
loop_
_space_group_symop_operation_xyz
x,y,z
1/2-x,-y,z
1/2+x,-y,1/2-z
-x,y,1/2-z
-x,-y,-z
1/2+x,y,-z
1/2-x,y,1/2+z
x,-y,1/2+z
loop_
_atom_site_type_symbol
_atom_site_label
_atom_site_fract_x
_atom_site_fract_y
_atom_site_fract_z
Si Si1 0.203577 0.137445 0.585372
Si Si2 0.176456 0.776040 0.479905
Si Si3 0.418229 0.050121 0.989950
Si Si4 0.819678 0.400028 0.812410
Si Si5 0.427621 0.357613 0.932130
Si Si6 0.909652 0.550667 0.929987
Si Si7 0.828411 0.434791 0.652501
O O1 0.246089 0.191317 0.514148
O O2 0.123346 0.096498 0.562153
O O3 0.200413 0.256756 0.645514
O O4 0.250000 0.000000 0.607944
O O5 0.137286 0.680640 0.539924
O O6 0.174758 0.685346 0.408098
O O7 0.130883 0.918153 0.466059
O O8 0.417017 0.188895 0.939523
O O9 0.500000 0.000000 0.000000
O O10 0.750000 0.500000 0.811572
O O11 0.877969 0.482767 0.859258
O O12 0.844999 0.378429 0.731429
O O13 0.510388 0.394130 0.920543
O O14 0.381478 0.440956 0.873741
O O15 0.408223 0.430400 0.008201
O O16 0.750000 0.500000 0.654856
#
# Coordination Sequence:
#
# PCOD9421000 Si02
#       7
#     8   8   8   8   8   8   8
#     4  10  21  35  57  85 112 151 190 239 289 337
#     4  10  20  36  59  84 112 143 191 237 287 341
#     4  11  20  34  57  86 113 144 192 241 281 338
#     4  11  21  37  59  84 114 151 190 236 288 340
#     4  10  20  35  56  85 112 144 189 237 285 334
#     4  10  19  33  60  85 107 143 189 241 280 329
#     4  10  23  37  56  85 114 148 188 233 288 352
#
# _framework density 16.957858000000002
#
# number of rings (size 3 to 8) (size 9 to 14) (size 15 to 20)
#    0.000    1.714    4.286    0.857    2.000    0.571 
#    0.000    5.000    0.000    0.000    0.000    0.000 
#    0.000    0.000    0.000    0.000    0.000    0.000 
#
# Total GULP energy -312314.265319 kJ/mol
# GULP energy per Si atom -5577.040452 kJ/mol
# Density = 1.691926 g / cm^3
# Si number density = 16.957858 Si / 1000 Ang^3
#
#
#
# Elastic Constant Matrix: (Units=GPa)
#
#
# Indices 1 2 3 4 5 6 
#
# 1 89.6833 32.7609 40.9132 0.0000 0.0000 0.0000
# 2 32.7609 130.7985 60.3368 0.0000 0.0000 0.0000
# 3 40.9132 60.3368 119.3386 0.0000 0.0000 0.0000
# 4 0.0000 0.0000 0.0000 11.5734 0.0000 0.0000
# 5 0.0000 0.0000 0.0000 0.0000 4.1987 0.0000
# 6 0.0000 0.0000 0.0000 0.0000 0.0000 23.7952
#
#
#
# Elastic Compliance Matrix: (Units=1/GPa)
#
#
# Indices 1 2 3 4 5 6 
#
# 1 0.013477 -0.001623 -0.003800 0.000000 0.000000 0.000000
# 2 -0.001623 0.010166 -0.004584 0.000000 0.000000 0.000000
# 3 -0.003800 -0.004584 0.012000 0.000000 0.000000 0.000000
# 4 0.000000 0.000000 0.000000 0.086405 0.000000 0.000000
# 5 0.000000 0.000000 0.000000 0.000000 0.238168 0.000000
# 6 0.000000 0.000000 0.000000 0.000000 0.000000 0.042025
#
#
# Mechanical properties :
#
#
# Convention : Reuss Voigt Hill
#
# Bulk Modulus (GPa) = 63.97862 67.53802 65.75832
# Shear Modulus (GPa) = 11.69692 21.63411 16.66552
#
# Velocity S-wave (km/s) = 2.62919 3.57565 3.13830
# Velocity P-wave (km/s) = 6.85760 7.54722 7.21066
#
# Compressibility (1/GPa) = 0.01563022
#
# Stress axis : x y z
#
# Youngs Moduli (GPa) = 74.20301 98.36530 83.33543
#
# Poissons Ratio (x) = 0.15961 0.31666
# Poissons Ratio (y) = 0.12040 0.38198
# Poissons Ratio (z) = 0.28196 0.45087
#
# Static dielectric constant tensor:
#      x y z
#    x 1.577720 0.000000 0.000000 
#    y 0.000000 1.600450 0.000000 
#    z 0.000000 0.000000 1.553930 
# 
# From -- ./inp_files/21884.got.cif
#   From: 2010.05.17/outbox.cif.g08.bks.cpg/sg54_11_cif.got.tgz:21884.got - 2010.06.03 13:09:01.
