data_PCOD9421158
_publ_section_title
;
Structure prediction by ZEFSAII (Michael W. Deem and Ramdas Pophale) SiO2 
 PCOD9421158
Probable space group: P C C A
;
_chemical_formula_sum "Si O2"
_cell_formula_units_Z 32
_cell_length_a 5.631735
_cell_length_b 8.890911
_cell_length_c 27.703033
_cell_angle_alpha 90.000000
_cell_angle_beta 90.000000
_cell_angle_gamma 90.000000
_cell_volume 1387.125620
_symmetry_space_group_name_H-M "P C C A"
_symmetry_group_IT_number 54
_symmetry_cell_setting 'orthorhombic'
loop_
_space_group_symop_operation_xyz
x,y,z
1/2-x,-y,z
1/2+x,-y,1/2-z
-x,y,1/2-z
-x,-y,-z
1/2+x,y,-z
1/2-x,y,1/2+z
x,-y,1/2+z
loop_
_atom_site_type_symbol
_atom_site_label
_atom_site_fract_x
_atom_site_fract_y
_atom_site_fract_z
Si Si1 0.750000 0.500000 0.633161
Si Si2 0.750000 0.000000 0.449862
Si Si3 0.623806 0.736742 0.887891
Si Si4 0.388854 0.310906 0.522819
Si Si5 0.378535 0.346515 0.704041
O O1 0.595529 0.624844 0.605662
O O2 0.581162 0.405578 0.668568
O O3 0.589694 0.102321 0.413335
O O4 0.885522 0.128115 0.479527
O O5 0.838361 0.666598 0.920383
O O6 0.699259 0.740479 0.831896
O O7 0.641086 0.359854 0.502337
O O8 0.250000 0.500000 0.721664
O O9 0.500000 0.268994 0.750000
#
# Coordination Sequence:
#
# PCOD9421158 Si02
#       5
#     4   4   8   8   8
#     4  10  20  38  58  88 120 158 208 272 310 392
#     4   8  20  38  60  90 124 162 214 266 320 392
#     4   9  22  34  62  88 125 157 213 262 331 374
#     4  10  21  39  64  92 125 172 224 262 318 405
#     4  10  19  36  61  86 114 160 209 259 312 388
#
# _framework density 23.069286000000002
#
# number of rings (size 3 to 8) (size 9 to 14) (size 15 to 20)
#    1.500    1.000    1.250    0.750    3.500    0.000 
#    4.500    1.250    5.500    0.000    0.000    0.000 
#    0.000    0.000    0.000    0.000    0.000    0.000 
#
# Total GULP energy -178372.559000 kJ/mol
# GULP energy per Si atom -5574.142469 kJ/mol
# Density = 2.301678 g / cm^3
# Si number density = 23.069286 Si / 1000 Ang^3
#
#
#
# Elastic Constant Matrix: (Units=GPa)
#
#
# Indices 1 2 3 4 5 6 
#
# 1 123.5554 54.9953 57.8046 0.0000 0.0000 0.0000
# 2 54.9953 98.5422 10.5548 0.0000 0.0000 0.0000
# 3 57.8046 10.5548 128.8999 0.0000 0.0000 0.0000
# 4 0.0000 0.0000 0.0000 25.7268 0.0000 0.0000
# 5 0.0000 0.0000 0.0000 0.0000 45.4095 0.0000
# 6 0.0000 0.0000 0.0000 0.0000 0.0000 36.0610
#
#
#
# Elastic Compliance Matrix: (Units=1/GPa)
#
#
# Indices 1 2 3 4 5 6 
#
# 1 0.013933 -0.007170 -0.005661 0.000000 0.000000 0.000000
# 2 -0.007170 0.013927 0.002075 0.000000 0.000000 0.000000
# 3 -0.005661 0.002075 0.010127 0.000000 0.000000 0.000000
# 4 0.000000 0.000000 0.000000 0.038870 0.000000 0.000000
# 5 0.000000 0.000000 0.000000 0.000000 0.022022 0.000000
# 6 0.000000 0.000000 0.000000 0.000000 0.000000 0.027731
#
#
# Mechanical properties :
#
#
# Convention : Reuss Voigt Hill
#
# Bulk Modulus (GPa) = 60.69824 66.41188 63.55506
# Shear Modulus (GPa) = 32.54914 36.61564 34.58239
#
# Velocity S-wave (km/s) = 3.76031 3.98829 3.87598
# Velocity P-wave (km/s) = 6.72470 7.07525 6.90220
#
# Compressibility (1/GPa) = 0.01647494
#
# Stress axis : x y z
#
# Youngs Moduli (GPa) = 71.76991 71.80284 98.74742
#
# Poissons Ratio (x) = 0.51480 0.55904
# Poissons Ratio (y) = 0.51457 -0.20488
# Poissons Ratio (z) = 0.40631 -0.14898
#
# Static dielectric constant tensor:
#      x y z
#    x 1.925130 0.000000 0.000000 
#    y 0.000000 1.901880 0.000000 
#    z 0.000000 0.000000 1.884340 
# 
# From -- ./inp_files/27011.got.cif
#   From: 2010.05.17/outbox.cif.g08.bks.cpg/sg54_14_cif.got.tgz:27011.got - 2010.06.03 13:09:01.
