data_PCOD9421754
_publ_section_title
;
Structure prediction by ZEFSAII (Michael W. Deem and Ramdas Pophale) SiO2 
 PCOD9421754
Probable space group: P C C A
;
_chemical_formula_sum "Si O2"
_cell_formula_units_Z 48
_cell_length_a 9.584537
_cell_length_b 25.071949
_cell_length_c 9.652910
_cell_angle_alpha 90.000000
_cell_angle_beta 90.000000
_cell_angle_gamma 90.000000
_cell_volume 2319.623452
_symmetry_space_group_name_H-M "P C C A"
_symmetry_group_IT_number 54
_symmetry_cell_setting 'orthorhombic'
loop_
_space_group_symop_operation_xyz
x,y,z
1/2-x,-y,z
1/2+x,-y,1/2-z
-x,y,1/2-z
-x,-y,-z
1/2+x,y,-z
1/2-x,y,1/2+z
x,-y,1/2+z
loop_
_atom_site_type_symbol
_atom_site_label
_atom_site_fract_x
_atom_site_fract_y
_atom_site_fract_z
Si Si1 0.250000 0.000000 0.500699
Si Si2 0.474045 0.193363 0.581623
Si Si3 0.724900 0.260433 0.506037
Si Si4 0.831654 0.672998 0.762590
Si Si5 0.498238 0.075317 0.907879
Si Si6 0.652006 0.428328 0.239064
Si Si7 0.250000 0.500000 0.008006
O O1 0.136918 0.960113 0.569311
O O2 0.359630 0.959631 0.430202
O O3 0.500000 0.197849 0.750000
O O4 0.569610 0.236939 0.504752
O O5 0.319599 0.211121 0.541711
O O6 0.501733 0.133670 0.523665
O O7 0.735777 0.283398 0.660248
O O8 0.772868 0.309314 0.410703
O O9 0.774335 0.614746 0.727957
O O10 0.000000 0.674559 0.750000
O O11 0.500000 0.089894 0.750000
O O12 0.500000 0.402045 0.250000
O O13 0.673103 0.461395 0.381796
O O14 0.659393 0.465500 0.101871
#
# Coordination Sequence:
#
# PCOD9421754 Si02
#       7
#     4   8   8   8   8   8   4
#     4  10  20  38  60  94 120 166 208 258 308 394
#     4  11  23  42  62  94 127 171 213 273 324 383
#     4  12  22  44  64  88 132 168 216 274 324 382
#     4  12  27  45  64  97 134 169 217 271 327 376
#     4  10  21  37  63  88 128 162 208 260 323 377
#     4  11  25  43  72 100 130 176 215 261 319 385
#     4  10  24  46  68 102 142 162 214 268 314 372
#
# _framework density 20.693014999999999
#
# number of rings (size 3 to 8) (size 9 to 14) (size 15 to 20)
#    0.000    1.000    3.333    3.000    2.333    6.667 
#    0.000    0.000    7.333    0.000    0.000    0.000 
#    0.000    0.000    0.000    0.000    0.000    0.000 
#
# Total GULP energy -267297.683126 kJ/mol
# GULP energy per Si atom -5568.701732 kJ/mol
# Density = 2.064592 g / cm^3
# Si number density = 20.693015 Si / 1000 Ang^3
#
#
#
# Elastic Constant Matrix: (Units=GPa)
#
#
# Indices 1 2 3 4 5 6 
#
# 1 91.3709 19.2131 34.0538 0.0000 0.0000 0.0000
# 2 19.2131 96.0255 14.9135 0.0000 0.0000 0.0000
# 3 34.0538 14.9135 73.3073 0.0000 0.0000 0.0000
# 4 0.0000 0.0000 0.0000 25.9678 0.0000 0.0000
# 5 0.0000 0.0000 0.0000 0.0000 5.5820 0.0000
# 6 0.0000 0.0000 0.0000 0.0000 0.0000 11.5340
#
#
#
# Elastic Compliance Matrix: (Units=1/GPa)
#
#
# Indices 1 2 3 4 5 6 
#
# 1 0.013527 -0.001787 -0.005920 0.000000 0.000000 0.000000
# 2 -0.001787 0.010990 -0.001406 0.000000 0.000000 0.000000
# 3 -0.005920 -0.001406 0.016677 0.000000 0.000000 0.000000
# 4 0.000000 0.000000 0.000000 0.038509 0.000000 0.000000
# 5 0.000000 0.000000 0.000000 0.000000 0.179149 0.000000
# 6 0.000000 0.000000 0.000000 0.000000 0.000000 0.086700
#
#
# Mechanical properties :
#
#
# Convention : Reuss Voigt Hill
#
# Bulk Modulus (GPa) = 43.53835 44.11828 43.82831
# Shear Modulus (GPa) = 13.46137 21.45163 17.45650
#
# Velocity S-wave (km/s) = 2.55331 3.22321 2.90762
# Velocity P-wave (km/s) = 5.45695 5.93454 5.70075
#
# Compressibility (1/GPa) = 0.02296826
#
# Stress axis : x y z
#
# Youngs Moduli (GPa) = 73.92863 90.99382 59.96200
#
# Poissons Ratio (x) = 0.16261 0.35498
# Poissons Ratio (y) = 0.13211 0.08428
# Poissons Ratio (z) = 0.43766 0.12790
#
# Static dielectric constant tensor:
#      x y z
#    x 1.713700 0.000000 0.000000 
#    y 0.000000 1.769380 0.000000 
#    z 0.000000 0.000000 1.724820 
# 
# From -- ./inp_files/2555.got.cif
#   From: 2010.05.17/outbox.cif.g08.bks.cpg/sg54_2_cif.got.tgz:2555.got - 2010.06.03 13:09:01.
