data_PCOD9421861
_publ_section_title
;
Structure prediction by ZEFSAII (Michael W. Deem and Ramdas Pophale) SiO2 
 PCOD9421861
Probable space group: P C C A
;
_chemical_formula_sum "Si O2"
_cell_formula_units_Z 60
_cell_length_a 11.396704
_cell_length_b 8.290561
_cell_length_c 26.624425
_cell_angle_alpha 90.000000
_cell_angle_beta 90.000000
_cell_angle_gamma 90.000000
_cell_volume 2515.610652
_symmetry_space_group_name_H-M "P C C A"
_symmetry_group_IT_number 54
_symmetry_cell_setting 'orthorhombic'
loop_
_space_group_symop_operation_xyz
x,y,z
1/2-x,-y,z
1/2+x,-y,1/2-z
-x,y,1/2-z
-x,-y,-z
1/2+x,y,-z
1/2-x,y,1/2+z
x,-y,1/2+z
loop_
_atom_site_type_symbol
_atom_site_label
_atom_site_fract_x
_atom_site_fract_y
_atom_site_fract_z
Si Si1 0.940029 0.437348 0.295127
Si Si2 0.871657 0.724262 0.551706
Si Si3 0.348477 0.263365 0.066282
Si Si4 0.548485 0.049253 0.897028
Si Si5 0.120509 0.917394 0.719361
Si Si6 0.750000 0.500000 0.867220
Si Si7 0.814585 0.858041 0.128326
Si Si8 0.433240 0.548785 0.881111
O O1 0.881451 0.277232 0.272243
O O2 0.849861 0.539350 0.327020
O O3 0.000000 0.529124 0.250000
O O4 0.034465 0.412513 0.339607
O O5 0.849136 0.716765 0.492957
O O6 0.769543 0.818419 0.581398
O O7 0.873498 0.546396 0.574331
O O8 0.995649 0.809260 0.567763
O O9 0.364194 0.075441 0.076737
O O10 0.239866 0.346119 0.096214
O O11 0.457411 0.363495 0.090816
O O12 0.433403 0.940542 0.888366
O O13 0.594798 0.078813 0.840647
O O14 0.000000 0.974743 0.750000
O O15 0.250000 0.000000 0.727521
O O16 0.854760 0.682845 0.146967
O O17 0.750000 0.000000 0.159547
#
# Coordination Sequence:
#
# PCOD9421861 Si02
#       8
#     8   8   8   8   8   4   8   8
#     4  10  22  45  66  98 131 179 239 307 371 445
#     4  11  20  37  62  96 133 184 232 291 360 442
#     4  10  22  37  61  89 135 180 232 288 365 442
#     4  10  21  43  60  94 138 178 233 295 359 445
#     4  11  24  45  74 105 141 190 248 309 389 453
#     4  10  22  42  62  94 130 176 232 298 368 454
#     4   9  21  37  59  90 139 174 232 293 358 433
#     4  10  20  39  61  92 132 176 236 294 368 442
#
# _framework density 23.851068999999999
#
# number of rings (size 3 to 8) (size 9 to 14) (size 15 to 20)
#    0.000    1.867    1.333    2.000    1.867    1.600 
#    4.800   14.000    0.000    0.000    0.000    0.000 
#    0.000    0.000    0.000    0.000    0.000    0.000 
#
# Total GULP energy -334103.802557 kJ/mol
# GULP energy per Si atom -5568.396709 kJ/mol
# Density = 2.379678 g / cm^3
# Si number density = 23.851069 Si / 1000 Ang^3
#
#
#
# Elastic Constant Matrix: (Units=GPa)
#
#
# Indices 1 2 3 4 5 6 
#
# 1 101.5226 28.4045 42.9229 0.0000 0.0000 0.0000
# 2 28.4045 72.1104 2.6686 0.0000 0.0000 0.0000
# 3 42.9229 2.6686 148.9444 0.0000 0.0000 0.0000
# 4 0.0000 0.0000 0.0000 9.5973 0.0000 0.0000
# 5 0.0000 0.0000 0.0000 0.0000 16.0064 0.0000
# 6 0.0000 0.0000 0.0000 0.0000 0.0000 32.4360
#
#
#
# Elastic Compliance Matrix: (Units=1/GPa)
#
#
# Indices 1 2 3 4 5 6 
#
# 1 0.012730 -0.004882 -0.003581 0.000000 0.000000 0.000000
# 2 -0.004882 0.015749 0.001125 0.000000 0.000000 0.000000
# 3 -0.003581 0.001125 0.007726 0.000000 0.000000 0.000000
# 4 0.000000 0.000000 0.000000 0.104196 0.000000 0.000000
# 5 0.000000 0.000000 0.000000 0.000000 0.062475 0.000000
# 6 0.000000 0.000000 0.000000 0.000000 0.000000 0.030830
#
#
# Mechanical properties :
#
#
# Convention : Reuss Voigt Hill
#
# Bulk Modulus (GPa) = 46.45061 52.28548 49.36805
# Shear Modulus (GPa) = 19.56501 28.18004 23.87252
#
# Velocity S-wave (km/s) = 2.86719 3.44102 3.16713
# Velocity P-wave (km/s) = 5.52074 6.14465 5.84104
#
# Compressibility (1/GPa) = 0.02152824
#
# Stress axis : x y z
#
# Youngs Moduli (GPa) = 78.55511 63.49626 129.43715
#
# Poissons Ratio (x) = 0.30998 0.46352
# Poissons Ratio (y) = 0.38349 -0.14558
# Poissons Ratio (z) = 0.28131 -0.07141
#
# Static dielectric constant tensor:
#      x y z
#    x 2.180650 0.000000 0.000000 
#    y 0.000000 2.050770 0.000000 
#    z 0.000000 0.000000 1.850800 
# 
# From -- ./inp_files/26292.got.cif
#   From: 2010.05.17/outbox.cif.g08.bks.cpg/sg54_14_cif.got.tgz:26292.got - 2010.06.03 13:09:01.
