data_PCOD9421987
_publ_section_title
;
Structure prediction by ZEFSAII (Michael W. Deem and Ramdas Pophale) SiO2 
 PCOD9421987
Probable space group: P C C A
;
_chemical_formula_sum "Si O2"
_cell_formula_units_Z 44
_cell_length_a 28.265328
_cell_length_b 8.188247
_cell_length_c 8.913869
_cell_angle_alpha 90.000000
_cell_angle_beta 90.000000
_cell_angle_gamma 90.000000
_cell_volume 2063.056926
_symmetry_space_group_name_H-M "P C C A"
_symmetry_group_IT_number 54
_symmetry_cell_setting 'orthorhombic'
loop_
_space_group_symop_operation_xyz
x,y,z
1/2-x,-y,z
1/2+x,-y,1/2-z
-x,y,1/2-z
-x,-y,-z
1/2+x,y,-z
1/2-x,y,1/2+z
x,-y,1/2+z
loop_
_atom_site_type_symbol
_atom_site_label
_atom_site_fract_x
_atom_site_fract_y
_atom_site_fract_z
Si Si1 0.603299 0.381694 0.635213
Si Si2 0.462134 0.657948 0.865956
Si Si3 0.890181 0.843330 0.352275
Si Si4 0.815402 0.636729 0.233521
Si Si5 0.250000 0.500000 0.509905
Si Si6 0.544339 0.851620 0.350090
O O1 0.567163 0.511050 0.562484
O O2 0.617178 0.254308 0.506948
O O3 0.645842 0.492087 0.701727
O O4 0.573509 0.285566 0.759802
O O5 0.500000 0.590195 0.750000
O O6 0.427834 0.757606 0.756805
O O7 0.477922 0.776364 0.998782
O O8 0.841833 0.808913 0.260111
O O9 0.915276 0.014737 0.385507
O O10 0.778898 0.623707 0.096438
O O11 0.786824 0.590181 0.382343
O O12 0.500000 0.911517 0.250000
#
# Coordination Sequence:
#
# PCOD9421987 Si02
#       6
#     8   8   8   8   4   8
#     4  11  23  41  64  97 129 173 226 276 328 388
#     4  11  23  40  64  89 126 172 232 281 315 380
#     4  11  23  40  61  94 134 173 216 264 332 394
#     4  10  21  40  71 104 127 168 213 278 326 403
#     4  10  20  40  74 104 128 162 224 272 342 390
#     4  12  26  42  64  93 136 186 223 269 330 390
#
# _framework density 21.327575
#
# number of rings (size 3 to 8) (size 9 to 14) (size 15 to 20)
#    0.000    1.091    1.818    5.455    2.545    4.364 
#    0.000    1.818    0.000    6.545    0.000    0.000 
#    0.000    0.000    0.000    0.000    0.000    0.000 
#
# Total GULP energy -245786.123124 kJ/mol
# GULP energy per Si atom -5586.048253 kJ/mol
# Density = 2.127903 g / cm^3
# Si number density = 21.327575 Si / 1000 Ang^3
#
#
#
# Elastic Constant Matrix: (Units=GPa)
#
#
# Indices 1 2 3 4 5 6 
#
# 1 107.6048 33.9216 47.6193 0.0000 0.0000 0.0000
# 2 33.9216 78.5769 25.5362 0.0000 0.0000 0.0000
# 3 47.6193 25.5362 111.0597 0.0000 0.0000 0.0000
# 4 0.0000 0.0000 0.0000 25.3685 0.0000 0.0000
# 5 0.0000 0.0000 0.0000 0.0000 36.3855 0.0000
# 6 0.0000 0.0000 0.0000 0.0000 0.0000 15.6352
#
#
#
# Elastic Compliance Matrix: (Units=1/GPa)
#
#
# Indices 1 2 3 4 5 6 
#
# 1 0.012511 -0.003953 -0.004456 0.000000 0.000000 0.000000
# 2 -0.003953 0.015003 -0.001755 0.000000 0.000000 0.000000
# 3 -0.004456 -0.001755 0.011318 0.000000 0.000000 0.000000
# 4 0.000000 0.000000 0.000000 0.039419 0.000000 0.000000
# 5 0.000000 0.000000 0.000000 0.000000 0.027484 0.000000
# 6 0.000000 0.000000 0.000000 0.000000 0.000000 0.063958
#
#
# Mechanical properties :
#
#
# Convention : Reuss Voigt Hill
#
# Bulk Modulus (GPa) = 54.03731 56.82173 55.42952
# Shear Modulus (GPa) = 25.48569 28.15544 26.82057
#
# Velocity S-wave (km/s) = 3.46058 3.63732 3.55005
# Velocity P-wave (km/s) = 6.43112 6.65885 6.54598
#
# Compressibility (1/GPa) = 0.01850573
#
# Stress axis : x y z
#
# Youngs Moduli (GPa) = 79.92843 66.65241 88.35459
#
# Poissons Ratio (x) = 0.26348 0.39366
# Poissons Ratio (y) = 0.31597 0.15504
# Poissons Ratio (z) = 0.35612 0.11696
#
# Static dielectric constant tensor:
#      x y z
#    x 1.814770 0.000000 0.000000 
#    y 0.000000 1.795900 0.000000 
#    z 0.000000 0.000000 1.772010 
# 
# From -- ./inp_files/5786.got.cif
#   From: 2010.05.17/outbox.cif.g08.bks.cpg/sg54_3_cif.got.tgz:5786.got - 2010.06.03 13:09:01.
