data_PCOD9421546
_publ_section_title
;
Structure prediction by ZEFSAII (Michael W. Deem and Ramdas Pophale) SiO2 
 PCOD9421546
Probable space group: P C C A
;
_chemical_formula_sum "Si O2"
_cell_formula_units_Z 56
_cell_length_a 7.686982
_cell_length_b 21.757731
_cell_length_c 14.554016
_cell_angle_alpha 90.000000
_cell_angle_beta 90.000000
_cell_angle_gamma 90.000000
_cell_volume 2434.177901
_symmetry_space_group_name_H-M "P C C A"
_symmetry_group_IT_number 54
_symmetry_cell_setting 'orthorhombic'
loop_
_space_group_symop_operation_xyz
x,y,z
1/2-x,-y,z
1/2+x,-y,1/2-z
-x,y,1/2-z
-x,-y,-z
1/2+x,y,-z
1/2-x,y,1/2+z
x,-y,1/2+z
loop_
_atom_site_type_symbol
_atom_site_label
_atom_site_fract_x
_atom_site_fract_y
_atom_site_fract_z
Si Si1 0.559952 0.450550 0.921923
Si Si2 0.100792 0.140100 0.898763
Si Si3 0.000000 0.214934 0.250000
Si Si4 0.542902 0.993225 0.644479
Si Si5 0.359138 0.268718 0.320674
Si Si6 0.786526 0.389519 0.592971
Si Si7 0.486896 0.122690 0.599636
Si Si8 0.500000 0.532743 0.750000
O O1 0.415419 0.401762 0.892327
O O2 0.585731 0.488087 0.827538
O O3 0.500000 0.500000 0.000000
O O4 0.691626 0.413904 0.987769
O O5 0.062339 0.202857 0.848222
O O6 0.305522 0.127143 0.885420
O O7 0.997892 0.077714 0.873929
O O8 0.067113 0.151151 0.004695
O O9 0.838011 0.255079 0.213819
O O10 0.085787 0.166503 0.178121
O O11 0.500000 0.005819 0.750000
O O12 0.446399 0.049701 0.594760
O O13 0.750000 0.000000 0.627696
O O14 0.500000 0.295064 0.250000
O O15 0.342457 0.319225 0.399943
O O16 0.882233 0.426492 0.677968
#
# Coordination Sequence:
#
# PCOD9421546 Si02
#       8
#     8   8   4   8   8   8   8   4
#     4  10  23  42  68 101 136 173 225 282 344 407
#     4  10  23  37  63  94 127 174 223 273 354 408
#     4  10  24  45  70  97 130 186 238 280 354 410
#     4  10  20  36  59  91 126 165 223 285 347 415
#     4  11  25  48  69  99 140 183 234 281 340 425
#     4  11  24  44  68 105 141 184 231 283 350 419
#     4  10  21  40  61  93 129 165 227 292 342 416
#     4  10  20  41  70 101 138 180 226 282 350 412
#
# _framework density 23.005713
#
# number of rings (size 3 to 8) (size 9 to 14) (size 15 to 20)
#    0.000    1.714    1.429    2.571    2.000    8.571 
#    2.571    0.000    0.000    0.000    0.000    0.000 
#    0.000    0.000    0.000    0.000    0.000    0.000 
#
# Total GULP energy -311997.044727 kJ/mol
# GULP energy per Si atom -5571.375799 kJ/mol
# Density = 2.295335 g / cm^3
# Si number density = 23.005713 Si / 1000 Ang^3
#
#
#
# Elastic Constant Matrix: (Units=GPa)
#
#
# Indices 1 2 3 4 5 6 
#
# 1 36.0462 26.7290 11.8688 0.0000 0.0000 0.0000
# 2 26.7290 104.0478 28.8231 0.0000 0.0000 0.0000
# 3 11.8688 28.8231 117.9798 0.0000 0.0000 0.0000
# 4 0.0000 0.0000 0.0000 -218.6054 0.0000 0.0000
# 5 0.0000 0.0000 0.0000 0.0000 30.1490 0.0000
# 6 0.0000 0.0000 0.0000 0.0000 0.0000 4.5187
#
#
#
# Elastic Compliance Matrix: (Units=1/GPa)
#
#
# Indices 1 2 3 4 5 6 
#
# 1 0.034484 -0.008471 -0.001400 0.000000 0.000000 0.000000
# 2 -0.008471 0.012390 -0.002175 0.000000 0.000000 0.000000
# 3 -0.001400 -0.002175 0.009148 0.000000 0.000000 0.000000
# 4 0.000000 0.000000 0.000000 -0.004574 0.000000 0.000000
# 5 0.000000 0.000000 0.000000 0.000000 0.033169 0.000000
# 6 0.000000 0.000000 0.000000 0.000000 0.000000 0.221304
#
#
# Mechanical properties :
#
#
# Convention : Reuss Voigt Hill
#
# Bulk Modulus (GPa) = 31.31704 43.65727 37.48715
# Shear Modulus (GPa) = 14.67760 -24.07735 -4.69987
#
# Velocity S-wave (km/s) = 2.52860 -3.23860 -1.43086
# Velocity P-wave (km/s) = 4.70823 2.24348 3.68786
#
# Compressibility (1/GPa) = 0.03193150
#
# Stress axis : x y z
#
# Youngs Moduli (GPa) = 28.99855 80.71344 109.31228
#
# Poissons Ratio (x) = 0.68373 0.15300
# Poissons Ratio (y) = 0.24565 0.23771
# Poissons Ratio (z) = 0.04059 0.17552
#
# Static dielectric constant tensor:
#      x y z
#    x 1.954430 0.000000 0.000000 
#    y 0.000000 1.889470 0.000000 
#    z 0.000000 0.000000 1.876570 
# 
# From -- ./inp_files/11893.got.cif
#   From: 2010.05.17/outbox.cif.g08.bks.cpg/sg54_6_cif.got.tgz:11893.got - 2010.06.03 13:09:01.
