data_PCOD9421520
_publ_section_title
;
Structure prediction by ZEFSAII (Michael W. Deem and Ramdas Pophale) SiO2 
 PCOD9421520
Probable space group: P C C A
;
_chemical_formula_sum "Si O2"
_cell_formula_units_Z 48
_cell_length_a 15.786662
_cell_length_b 15.476961
_cell_length_c 8.953913
_cell_angle_alpha 90.000000
_cell_angle_beta 90.000000
_cell_angle_gamma 90.000000
_cell_volume 2187.705553
_symmetry_space_group_name_H-M "P C C A"
_symmetry_group_IT_number 54
_symmetry_cell_setting 'orthorhombic'
loop_
_space_group_symop_operation_xyz
x,y,z
1/2-x,-y,z
1/2+x,-y,1/2-z
-x,y,1/2-z
-x,-y,-z
1/2+x,y,-z
1/2-x,y,1/2+z
x,-y,1/2+z
loop_
_atom_site_type_symbol
_atom_site_label
_atom_site_fract_x
_atom_site_fract_y
_atom_site_fract_z
Si Si1 0.606579 0.066161 0.594760
Si Si2 0.710909 0.256115 0.058742
Si Si3 0.000000 0.537658 0.750000
Si Si4 0.000000 0.742268 0.250000
Si Si5 0.423450 0.607138 0.956644
Si Si6 0.328434 0.187386 0.143504
Si Si7 0.089970 0.109114 0.067552
O O1 0.668032 0.107242 0.469088
O O2 0.622208 0.077768 0.770106
O O3 0.513131 0.110986 0.573673
O O4 0.604876 0.965224 0.555179
O O5 0.666756 0.348451 0.075705
O O6 0.728181 0.203955 0.210995
O O7 0.796697 0.262625 0.966399
O O8 0.642225 0.195095 0.972176
O O9 0.058455 0.477007 0.855954
O O10 0.056008 0.589868 0.629677
O O11 0.013454 0.679464 0.390018
O O12 0.079921 0.799693 0.213546
#
# Coordination Sequence:
#
# PCOD9421520 Si02
#       7
#     8   8   4   4   8   8   8
#     4  10  20  36  58  83 121 162 205 247 295 366
#     4  11  23  37  57  86 119 154 202 257 309 361
#     4   9  18  36  64  91 118 156 194 237 306 376
#     4   9  20  38  62  87 116 160 202 245 304 370
#     4   9  19  36  62  90 117 150 194 243 296 371
#     4  11  22  38  59  86 123 163 205 255 312 369
#     4  10  21  36  57  87 117 159 206 251 301 355
#
# _framework density 21.940795999999999
#
# number of rings (size 3 to 8) (size 9 to 14) (size 15 to 20)
#    0.000    2.000    0.000    4.000    0.000    7.333 
#    0.000    3.333    0.000   34.000    0.000    0.000 
#    0.000    0.000    0.000    0.000    0.000    0.000 
#
# Total GULP energy -267547.102457 kJ/mol
# GULP energy per Si atom -5573.897968 kJ/mol
# Density = 2.189086 g / cm^3
# Si number density = 21.940796 Si / 1000 Ang^3
#
#
#
# Elastic Constant Matrix: (Units=GPa)
#
#
# Indices 1 2 3 4 5 6 
#
# 1 47.8808 4.0223 16.5625 0.0000 0.0000 0.0000
# 2 4.0223 47.4481 30.0515 0.0000 0.0000 0.0000
# 3 16.5625 30.0515 161.8920 0.0000 0.0000 0.0000
# 4 0.0000 0.0000 0.0000 18.6737 0.0000 0.0000
# 5 0.0000 0.0000 0.0000 0.0000 31.7300 0.0000
# 6 0.0000 0.0000 0.0000 0.0000 0.0000 18.9072
#
#
#
# Elastic Compliance Matrix: (Units=1/GPa)
#
#
# Indices 1 2 3 4 5 6 
#
# 1 0.021661 -0.000490 -0.002125 0.000000 0.000000 0.000000
# 2 -0.000490 0.023895 -0.004385 0.000000 0.000000 0.000000
# 3 -0.002125 -0.004385 0.007208 0.000000 0.000000 0.000000
# 4 0.000000 0.000000 0.000000 0.053551 0.000000 0.000000
# 5 0.000000 0.000000 0.000000 0.000000 0.031516 0.000000
# 6 0.000000 0.000000 0.000000 0.000000 0.000000 0.052890
#
#
# Mechanical properties :
#
#
# Convention : Reuss Voigt Hill
#
# Bulk Modulus (GPa) = 25.79776 39.83259 32.81518
# Shear Modulus (GPa) = 22.97329 27.63450 25.30389
#
# Velocity S-wave (km/s) = 3.23934 3.55280 3.39968
# Velocity P-wave (km/s) = 5.07686 5.91809 5.51354
#
# Compressibility (1/GPa) = 0.03876305
#
# Stress axis : x y z
#
# Youngs Moduli (GPa) = 46.16495 41.85026 138.72702
#
# Poissons Ratio (x) = 0.02052 0.29480
# Poissons Ratio (y) = 0.02264 0.60836
# Poissons Ratio (z) = 0.09810 0.18353
#
# Static dielectric constant tensor:
#      x y z
#    x 1.893770 0.000000 0.000000 
#    y 0.000000 1.781040 0.000000 
#    z 0.000000 0.000000 1.981280 
# 
# From -- ./inp_files/4256.got.cif
#   From: 2010.05.17/outbox.cif.g08.bks.cpg/sg54_3_cif.got.tgz:4256.got - 2010.06.03 13:09:01.
