data_PCOD9421925
_publ_section_title
;
Structure prediction by ZEFSAII (Michael W. Deem and Ramdas Pophale) SiO2 
 PCOD9421925
Probable space group: P C C A
;
_chemical_formula_sum "Si O2"
_cell_formula_units_Z 32
_cell_length_a 10.973850
_cell_length_b 10.075009
_cell_length_c 13.700452
_cell_angle_alpha 90.000000
_cell_angle_beta 90.000000
_cell_angle_gamma 90.000000
_cell_volume 1514.744408
_symmetry_space_group_name_H-M "P C C A"
_symmetry_group_IT_number 54
_symmetry_cell_setting 'orthorhombic'
loop_
_space_group_symop_operation_xyz
x,y,z
1/2-x,-y,z
1/2+x,-y,1/2-z
-x,y,1/2-z
-x,-y,-z
1/2+x,y,-z
1/2-x,y,1/2+z
x,-y,1/2+z
loop_
_atom_site_type_symbol
_atom_site_label
_atom_site_fract_x
_atom_site_fract_y
_atom_site_fract_z
Si Si1 0.750000 0.000000 0.781813
Si Si2 0.942346 0.654022 0.389763
Si Si3 0.694104 0.296204 0.806156
Si Si4 0.435992 0.618248 0.386451
Si Si5 0.500000 0.112528 0.250000
O O1 0.725487 0.142620 0.830813
O O2 0.879607 0.026828 0.731208
O O3 0.817344 0.625912 0.331665
O O4 0.906374 0.656108 0.503126
O O5 0.044929 0.540671 0.377367
O O6 0.988057 0.790414 0.342939
O O7 0.654547 0.321760 0.693918
O O8 0.573335 0.332350 0.865257
#
# Coordination Sequence:
#
# PCOD9421925 Si02
#       5
#     4   8   8   8   4
#     4  10  22  40  60  86 124 166 210 246 292 362
#     4  10  22  38  63  94 119 152 201 251 306 363
#     4  10  21  40  60  84 123 162 195 249 302 353
#     4  10  21  40  63  90 119 154 199 249 308 367
#     4  10  20  40  62  88 124 162 202 254 300 352
#
# _framework density 21.125675999999999
#
# number of rings (size 3 to 8) (size 9 to 14) (size 15 to 20)
#    0.000    2.000    0.000    3.750    0.000    6.000 
#    0.000   30.000    0.000    0.000    0.000    0.000 
#    0.000    0.000    0.000    0.000    0.000    0.000 
#
# Total GULP energy -178456.989392 kJ/mol
# GULP energy per Si atom -5576.780919 kJ/mol
# Density = 2.107759 g / cm^3
# Si number density = 21.125676 Si / 1000 Ang^3
#
#
#
# Elastic Constant Matrix: (Units=GPa)
#
#
# Indices 1 2 3 4 5 6 
#
# 1 104.2849 12.3526 38.7979 0.0000 0.0000 0.0000
# 2 12.3526 74.4761 23.6619 0.0000 0.0000 0.0000
# 3 38.7979 23.6619 113.8356 0.0000 0.0000 0.0000
# 4 0.0000 0.0000 0.0000 34.6777 0.0000 0.0000
# 5 0.0000 0.0000 0.0000 0.0000 9.7506 0.0000
# 6 0.0000 0.0000 0.0000 0.0000 0.0000 22.1273
#
#
#
# Elastic Compliance Matrix: (Units=1/GPa)
#
#
# Indices 1 2 3 4 5 6 
#
# 1 0.011014 -0.000679 -0.003613 0.000000 0.000000 0.000000
# 2 -0.000679 0.014418 -0.002766 0.000000 0.000000 0.000000
# 3 -0.003613 -0.002766 0.010591 0.000000 0.000000 0.000000
# 4 0.000000 0.000000 0.000000 0.028837 0.000000 0.000000
# 5 0.000000 0.000000 0.000000 0.000000 0.102558 0.000000
# 6 0.000000 0.000000 0.000000 0.000000 0.000000 0.045193
#
#
# Mechanical properties :
#
#
# Convention : Reuss Voigt Hill
#
# Bulk Modulus (GPa) = 45.64457 49.13572 47.39015
# Shear Modulus (GPa) = 21.36497 27.83006 24.59751
#
# Velocity S-wave (km/s) = 3.18359 3.63348 3.41595
# Velocity P-wave (km/s) = 5.93016 6.39626 6.16761
#
# Compressibility (1/GPa) = 0.02190841
#
# Stress axis : x y z
#
# Youngs Moduli (GPa) = 90.79729 69.35582 94.42241
#
# Poissons Ratio (x) = 0.04709 0.34111
# Poissons Ratio (y) = 0.06165 0.26114
# Poissons Ratio (z) = 0.32801 0.19181
#
# Static dielectric constant tensor:
#      x y z
#    x 1.796390 0.000000 0.000000 
#    y 0.000000 1.796670 0.000000 
#    z 0.000000 0.000000 1.749240 
# 
# From -- ./inp_files/12226.got.cif
#   From: 2010.05.17/outbox.cif.g08.bks.cpg/sg54_7_cif.got.tgz:12226.got - 2010.06.03 13:09:01.
