data_PCOD9421606
_publ_section_title
;
Structure prediction by ZEFSAII (Michael W. Deem and Ramdas Pophale) SiO2 
 PCOD9421606
Probable space group: P C C A
;
_chemical_formula_sum "Si O2"
_cell_formula_units_Z 36
_cell_length_a 15.349931
_cell_length_b 5.364566
_cell_length_c 19.469465
_cell_angle_alpha 90.000000
_cell_angle_beta 90.000000
_cell_angle_gamma 90.000000
_cell_volume 1603.227073
_symmetry_space_group_name_H-M "P C C A"
_symmetry_group_IT_number 54
_symmetry_cell_setting 'orthorhombic'
loop_
_space_group_symop_operation_xyz
x,y,z
1/2-x,-y,z
1/2+x,-y,1/2-z
-x,y,1/2-z
-x,-y,-z
1/2+x,y,-z
1/2-x,y,1/2+z
x,-y,1/2+z
loop_
_atom_site_type_symbol
_atom_site_label
_atom_site_fract_x
_atom_site_fract_y
_atom_site_fract_z
Si Si1 0.960229 0.850402 0.103773
Si Si2 0.075113 0.747335 0.538235
Si Si3 0.750000 0.000000 0.433135
Si Si4 0.699547 0.260098 0.199626
Si Si5 0.632799 0.358639 0.347168
O O1 0.875145 0.834728 0.148735
O O2 0.043394 0.796022 0.151062
O O3 0.948547 0.662868 0.038914
O O4 0.991562 0.102387 0.066596
O O5 0.163967 0.913090 0.525928
O O6 0.107395 0.579947 0.601377
O O7 0.710930 0.213301 0.384300
O O8 0.750000 0.500000 0.167781
O O9 0.659598 0.385356 0.268640
O O10 0.750000 0.000000 0.217284
#
# Coordination Sequence:
#
# PCOD9421606 Si02
#       5
#     8   8   4   8   8
#     4  10  25  44  68 107 138 193 243 312 368 440
#     4  10  22  42  73  99 145 187 248 298 373 434
#     4  10  20  36  64 102 132 184 236 292 354 440
#     4  12  28  47  73 107 151 192 248 305 376 441
#     4  11  22  44  69  99 141 191 246 294 370 446
#
# _framework density 22.454711
#
# number of rings (size 3 to 8) (size 9 to 14) (size 15 to 20)
#    0.000    1.333    1.111    3.333    7.778    1.778 
#    0.000    0.000    0.000    0.000    0.000    0.000 
#    0.000    0.000    0.000    0.000    0.000    0.000 
#
# Total GULP energy -200610.453289 kJ/mol
# GULP energy per Si atom -5572.512591 kJ/mol
# Density = 2.240360 g / cm^3
# Si number density = 22.454711 Si / 1000 Ang^3
#
#
#
# Elastic Constant Matrix: (Units=GPa)
#
#
# Indices 1 2 3 4 5 6 
#
# 1 122.0512 36.1747 62.0663 0.0000 0.0000 0.0000
# 2 36.1747 84.2722 23.4002 0.0000 0.0000 0.0000
# 3 62.0663 23.4002 107.6924 0.0000 0.0000 0.0000
# 4 0.0000 0.0000 0.0000 23.9122 0.0000 0.0000
# 5 0.0000 0.0000 0.0000 0.0000 29.5880 0.0000
# 6 0.0000 0.0000 0.0000 0.0000 0.0000 32.3948
#
#
#
# Elastic Compliance Matrix: (Units=1/GPa)
#
#
# Indices 1 2 3 4 5 6 
#
# 1 0.012534 -0.003591 -0.006444 0.000000 0.000000 0.000000
# 2 -0.003591 0.013657 -0.000898 0.000000 0.000000 0.000000
# 3 -0.006444 -0.000898 0.013194 0.000000 0.000000 0.000000
# 4 0.000000 0.000000 0.000000 0.041820 0.000000 0.000000
# 5 0.000000 0.000000 0.000000 0.000000 0.033797 0.000000
# 6 0.000000 0.000000 0.000000 0.000000 0.000000 0.030869
#
#
# Mechanical properties :
#
#
# Convention : Reuss Voigt Hill
#
# Bulk Modulus (GPa) = 57.07540 61.92204 59.49872
# Shear Modulus (GPa) = 28.80548 30.00398 29.40473
#
# Velocity S-wave (km/s) = 3.58554 3.65937 3.62264
# Velocity P-wave (km/s) = 6.52799 6.74470 6.63723
#
# Compressibility (1/GPa) = 0.01752068
#
# Stress axis : x y z
#
# Youngs Moduli (GPa) = 79.77994 73.22138 75.78956
#
# Poissons Ratio (x) = 0.26296 0.48836
# Poissons Ratio (y) = 0.28652 0.06804
# Poissons Ratio (z) = 0.51407 0.06573
#
# Static dielectric constant tensor:
#      x y z
#    x 1.976830 0.000000 0.000000 
#    y 0.000000 2.005750 0.000000 
#    z 0.000000 0.000000 1.796040 
# 
# From -- ./inp_files/21321.got.cif
#   From: 2010.05.17/outbox.cif.g08.bks.cpg/sg54_11_cif.got.tgz:21321.got - 2010.06.03 13:09:01.
