data_PCOD9421190
_publ_section_title
;
Structure prediction by ZEFSAII (Michael W. Deem and Ramdas Pophale) SiO2 
 PCOD9421190
Probable space group: P C C A
;
_chemical_formula_sum "Si O2"
_cell_formula_units_Z 40
_cell_length_a 9.080636
_cell_length_b 13.890125
_cell_length_c 13.343750
_cell_angle_alpha 90.000000
_cell_angle_beta 90.000000
_cell_angle_gamma 90.000000
_cell_volume 1683.062788
_symmetry_space_group_name_H-M "P C C A"
_symmetry_group_IT_number 54
_symmetry_cell_setting 'orthorhombic'
loop_
_space_group_symop_operation_xyz
x,y,z
1/2-x,-y,z
1/2+x,-y,1/2-z
-x,y,1/2-z
-x,-y,-z
1/2+x,y,-z
1/2-x,y,1/2+z
x,-y,1/2+z
loop_
_atom_site_type_symbol
_atom_site_label
_atom_site_fract_x
_atom_site_fract_y
_atom_site_fract_z
Si Si1 0.668909 0.096099 0.784234
Si Si2 0.774844 0.387867 0.877025
Si Si3 0.486577 0.284043 0.495294
Si Si4 0.659700 0.712631 0.196638
Si Si5 0.129418 0.924011 0.486220
O O1 0.500000 0.087446 0.750000
O O2 0.733132 0.187519 0.728625
O O3 0.682536 0.108337 0.903080
O O4 0.750000 0.000000 0.760472
O O5 0.750000 0.500000 0.896586
O O6 0.649567 0.332931 0.944312
O O7 0.747958 0.367533 0.758245
O O8 0.934803 0.349586 0.911561
O O9 0.614806 0.279151 0.581173
O O10 0.439458 0.179003 0.452272
O O11 0.500000 0.709898 0.250000
O O12 0.250000 0.000000 0.443404
O O13 0.000000 0.000000 0.500000
#
# Coordination Sequence:
#
# PCOD9421190 Si02
#       5
#     8   8   8   8   8
#     4  10  19  37  57  84 118 159 207 248 315 384
#     4  11  23  41  68  98 125 172 228 278 338 404
#     4  11  22  44  68  94 138 173 216 281 338 391
#     4   9  19  42  64  85 126 174 207 266 331 384
#     4  11  22  36  61  93 127 169 211 252 318 395
#
# _framework density 23.766197999999999
#
# number of rings (size 3 to 8) (size 9 to 14) (size 15 to 20)
#    0.000    1.600    6.000    1.800    2.800    1.600 
#    3.600    3.000    0.000    0.000    0.000    0.000 
#    0.000    0.000    0.000    0.000    0.000    0.000 
#
# Total GULP energy -223063.561548 kJ/mol
# GULP energy per Si atom -5576.589039 kJ/mol
# Density = 2.371210 g / cm^3
# Si number density = 23.766198 Si / 1000 Ang^3
#
#
#
# Elastic Constant Matrix: (Units=GPa)
#
#
# Indices 1 2 3 4 5 6 
#
# 1 69.4474 45.1068 21.7142 0.0000 0.0000 0.0000
# 2 45.1068 190.3364 16.7973 0.0000 0.0000 0.0000
# 3 21.7142 16.7973 89.2011 0.0000 0.0000 0.0000
# 4 0.0000 0.0000 0.0000 19.8098 0.0000 0.0000
# 5 0.0000 0.0000 0.0000 0.0000 29.2837 0.0000
# 6 0.0000 0.0000 0.0000 0.0000 0.0000 38.0134
#
#
#
# Elastic Compliance Matrix: (Units=1/GPa)
#
#
# Indices 1 2 3 4 5 6 
#
# 1 0.018125 -0.003972 -0.003664 0.000000 0.000000 0.000000
# 2 -0.003972 0.006213 -0.000203 0.000000 0.000000 0.000000
# 3 -0.003664 -0.000203 0.012141 0.000000 0.000000 0.000000
# 4 0.000000 0.000000 0.000000 0.050480 0.000000 0.000000
# 5 0.000000 0.000000 0.000000 0.000000 0.034149 0.000000
# 6 0.000000 0.000000 0.000000 0.000000 0.000000 0.026307
#
#
# Mechanical properties :
#
#
# Convention : Reuss Voigt Hill
#
# Bulk Modulus (GPa) = 48.07609 57.35793 52.71701
# Shear Modulus (GPa) = 29.40729 35.11250 32.25989
#
# Velocity S-wave (km/s) = 3.52143 3.84788 3.68827
# Velocity P-wave (km/s) = 6.06684 6.62784 6.35354
#
# Compressibility (1/GPa) = 0.02080036
#
# Stress axis : x y z
#
# Youngs Moduli (GPa) = 55.17276 160.95106 82.36666
#
# Poissons Ratio (x) = 0.63929 0.30181
# Poissons Ratio (y) = 0.21914 0.01673
# Poissons Ratio (z) = 0.20216 0.03269
#
# Static dielectric constant tensor:
#      x y z
#    x 1.723500 0.000000 0.000000 
#    y 0.000000 1.902880 0.000000 
#    z 0.000000 0.000000 1.921430 
# 
# From -- ./inp_files/11521.got.cif
#   From: 2010.05.17/outbox.cif.g08.bks.cpg/sg54_6_cif.got.tgz:11521.got - 2010.06.03 13:09:01.
