data_PCOD9421702
_publ_section_title
;
Structure prediction by ZEFSAII (Michael W. Deem and Ramdas Pophale) SiO2 
 PCOD9421702
Probable space group: P C C A
;
_chemical_formula_sum "Si O2"
_cell_formula_units_Z 48
_cell_length_a 7.821313
_cell_length_b 18.919952
_cell_length_c 14.109103
_cell_angle_alpha 90.000000
_cell_angle_beta 90.000000
_cell_angle_gamma 90.000000
_cell_volume 2087.849070
_symmetry_space_group_name_H-M "P C C A"
_symmetry_group_IT_number 54
_symmetry_cell_setting 'orthorhombic'
loop_
_space_group_symop_operation_xyz
x,y,z
1/2-x,-y,z
1/2+x,-y,1/2-z
-x,y,1/2-z
-x,-y,-z
1/2+x,y,-z
1/2-x,y,1/2+z
x,-y,1/2+z
loop_
_atom_site_type_symbol
_atom_site_label
_atom_site_fract_x
_atom_site_fract_y
_atom_site_fract_z
Si Si1 0.537885 0.177594 0.956285
Si Si2 0.115660 0.444756 0.941438
Si Si3 0.826840 0.178770 0.649082
Si Si4 0.397168 0.664317 0.104921
Si Si5 0.276114 0.338857 0.305771
Si Si6 0.317219 0.078429 0.696354
O O1 0.351687 0.176204 0.909258
O O2 0.613486 0.255638 0.933885
O O3 0.646822 0.119452 0.900655
O O4 0.535407 0.164056 0.068108
O O5 0.250000 0.500000 0.900062
O O6 0.088125 0.392350 0.852733
O O7 0.162610 0.389547 0.024478
O O8 0.000000 0.500000 0.000000
O O9 0.840759 0.258923 0.684042
O O10 0.804403 0.124888 0.735202
O O11 0.286067 0.652144 0.198533
O O12 0.596916 0.653767 0.134290
O O13 0.500000 0.074941 0.750000
O O14 0.250000 0.000000 0.682105
#
# Coordination Sequence:
#
# PCOD9421702 Si02
#       6
#     8   8   8   8   8   8
#     4  10  20  37  64  91 118 162 208 254 306 375
#     4  12  24  40  62  92 129 163 204 260 320 372
#     4  10  20  37  64  90 119 162 212 250 307 371
#     4  10  20  39  65  87 120 163 213 256 308 372
#     4  10  20  39  65  88 118 167 212 255 307 373
#     4  10  22  40  62  90 125 163 207 260 313 369
#
# _framework density 22.990167
#
# number of rings (size 3 to 8) (size 9 to 14) (size 15 to 20)
#    0.000    1.667    5.000    0.000    0.000    2.667 
#    0.000    3.333    0.000    0.000    0.000    0.000 
#    0.000    0.000    0.000    0.000    0.000    0.000 
#
# Total GULP energy -268263.945033 kJ/mol
# GULP energy per Si atom -5588.832188 kJ/mol
# Density = 2.293784 g / cm^3
# Si number density = 22.990167 Si / 1000 Ang^3
#
#
#
# Elastic Constant Matrix: (Units=GPa)
#
#
# Indices 1 2 3 4 5 6 
#
# 1 74.4137 30.7192 25.1193 0.0000 0.0000 0.0000
# 2 30.7192 151.8504 26.6072 0.0000 0.0000 0.0000
# 3 25.1193 26.6072 105.8713 0.0000 0.0000 0.0000
# 4 0.0000 0.0000 0.0000 39.1354 0.0000 0.0000
# 5 0.0000 0.0000 0.0000 0.0000 35.3785 0.0000
# 6 0.0000 0.0000 0.0000 0.0000 0.0000 27.0898
#
#
#
# Elastic Compliance Matrix: (Units=1/GPa)
#
#
# Indices 1 2 3 4 5 6 
#
# 1 0.015540 -0.002613 -0.003030 0.000000 0.000000 0.000000
# 2 -0.002613 0.007328 -0.001222 0.000000 0.000000 0.000000
# 3 -0.003030 -0.001222 0.010471 0.000000 0.000000 0.000000
# 4 0.000000 0.000000 0.000000 0.025552 0.000000 0.000000
# 5 0.000000 0.000000 0.000000 0.000000 0.028266 0.000000
# 6 0.000000 0.000000 0.000000 0.000000 0.000000 0.036914
#
#
# Mechanical properties :
#
#
# Convention : Reuss Voigt Hill
#
# Bulk Modulus (GPa) = 50.99527 55.22517 53.11022
# Shear Modulus (GPa) = 34.64087 36.96671 35.80379
#
# Velocity S-wave (km/s) = 3.88592 4.01426 3.95061
# Velocity P-wave (km/s) = 6.50871 6.74974 6.63032
#
# Compressibility (1/GPa) = 0.01960966
#
# Stress axis : x y z
#
# Youngs Moduli (GPa) = 64.35039 136.46182 95.49742
#
# Poissons Ratio (x) = 0.35654 0.28940
# Poissons Ratio (y) = 0.16813 0.11667
# Poissons Ratio (z) = 0.19501 0.16672
#
# Static dielectric constant tensor:
#      x y z
#    x 2.106410 0.000000 0.000000 
#    y 0.000000 1.797460 0.000000 
#    z 0.000000 0.000000 2.045240 
# 
# From -- ./inp_files/11725.got.cif
#   From: 2010.05.17/outbox.cif.g08.bks.cpg/sg54_6_cif.got.tgz:11725.got - 2010.06.03 13:09:01.
