data_PCOD9421666
_publ_section_title
;
Structure prediction by ZEFSAII (Michael W. Deem and Ramdas Pophale) SiO2 
 PCOD9421666
Probable space group: P C C A
;
_chemical_formula_sum "Si O2"
_cell_formula_units_Z 48
_cell_length_a 8.206451
_cell_length_b 10.575945
_cell_length_c 27.126084
_cell_angle_alpha 90.000000
_cell_angle_beta 90.000000
_cell_angle_gamma 90.000000
_cell_volume 2354.299263
_symmetry_space_group_name_H-M "P C C A"
_symmetry_group_IT_number 54
_symmetry_cell_setting 'orthorhombic'
loop_
_space_group_symop_operation_xyz
x,y,z
1/2-x,-y,z
1/2+x,-y,1/2-z
-x,y,1/2-z
-x,-y,-z
1/2+x,y,-z
1/2-x,y,1/2+z
x,-y,1/2+z
loop_
_atom_site_type_symbol
_atom_site_label
_atom_site_fract_x
_atom_site_fract_y
_atom_site_fract_z
Si Si1 0.943815 0.513383 0.057157
Si Si2 0.951721 0.754415 0.932417
Si Si3 0.138698 0.112203 0.359229
Si Si4 0.042473 0.780232 0.390833
Si Si5 0.428731 0.061151 0.200353
Si Si6 0.649842 0.868507 0.978332
O O1 0.750000 0.500000 0.056788
O O2 0.017543 0.388767 0.081782
O O3 0.987201 0.641502 0.086111
O O4 0.000000 0.500000 0.000000
O O5 0.976709 0.846060 0.886812
O O6 0.779423 0.770049 0.957393
O O7 0.081689 0.810720 0.971508
O O8 0.273599 0.220582 0.367782
O O9 0.065122 0.048735 0.310515
O O10 0.250000 0.000000 0.381299
O O11 0.996453 0.869178 0.438298
O O12 0.939513 0.841426 0.345832
O O13 0.500000 0.123243 0.250000
O O14 0.250000 0.000000 0.204278
O O15 0.750000 0.000000 0.982129
#
# Coordination Sequence:
#
# PCOD9421666 Si02
#       6
#     8   8   8   8   8   8
#     4  12  24  41  59  87 131 184 232 269 312 378
#     4  12  22  36  56  84 127 175 221 262 323 384
#     4  10  20  37  60  90 126 161 211 261 330 390
#     4  11  22  39  61  93 127 173 219 269 323 390
#     4  11  23  44  72 103 132 163 207 273 343 404
#     4  12  23  36  56  87 129 170 215 276 325 392
#
# _framework density 20.388231999999999
#
# number of rings (size 3 to 8) (size 9 to 14) (size 15 to 20)
#    0.000    0.667    3.333    8.000    0.000    0.000 
#    0.000    0.000    0.000    1.000    4.333    0.000 
#    0.000    0.000    0.000    0.000    0.000    0.000 
#
# Total GULP energy -267563.864684 kJ/mol
# GULP energy per Si atom -5574.247181 kJ/mol
# Density = 2.034183 g / cm^3
# Si number density = 20.388232 Si / 1000 Ang^3
#
#
#
# Elastic Constant Matrix: (Units=GPa)
#
#
# Indices 1 2 3 4 5 6 
#
# 1 106.6933 28.9307 7.3015 0.0000 0.0000 0.0000
# 2 28.9307 109.5049 35.3580 0.0000 0.0000 0.0000
# 3 7.3015 35.3580 80.8481 0.0000 0.0000 0.0000
# 4 0.0000 0.0000 0.0000 17.6865 0.0000 0.0000
# 5 0.0000 0.0000 0.0000 0.0000 27.5189 0.0000
# 6 0.0000 0.0000 0.0000 0.0000 0.0000 29.4152
#
#
#
# Elastic Compliance Matrix: (Units=1/GPa)
#
#
# Indices 1 2 3 4 5 6 
#
# 1 0.010102 -0.002765 0.000297 0.000000 0.000000 0.000000
# 2 -0.002765 0.011390 -0.004732 0.000000 0.000000 0.000000
# 3 0.000297 -0.004732 0.014411 0.000000 0.000000 0.000000
# 4 0.000000 0.000000 0.000000 0.056540 0.000000 0.000000
# 5 0.000000 0.000000 0.000000 0.000000 0.036339 0.000000
# 6 0.000000 0.000000 0.000000 0.000000 0.000000 0.033996
#
#
# Mechanical properties :
#
#
# Convention : Reuss Voigt Hill
#
# Bulk Modulus (GPa) = 46.50207 48.91406 47.70807
# Shear Modulus (GPa) = 27.12286 29.95451 28.53868
#
# Velocity S-wave (km/s) = 3.65131 3.83718 3.74540
# Velocity P-wave (km/s) = 6.37447 6.60873 6.49266
#
# Compressibility (1/GPa) = 0.02150442
#
# Stress axis : x y z
#
# Youngs Moduli (GPa) = 98.98994 87.79420 69.38934
#
# Poissons Ratio (x) = 0.24273 -0.02060
# Poissons Ratio (y) = 0.27368 0.32833
# Poissons Ratio (z) = -0.02938 0.41542
#
# Static dielectric constant tensor:
#      x y z
#    x 1.839700 0.000000 0.000000 
#    y 0.000000 1.817160 0.000000 
#    z 0.000000 0.000000 1.732350 
# 
# From -- ./inp_files/27689.got.cif
#   From: 2010.05.17/outbox.cif.g08.bks.cpg/sg54_14_cif.got.tgz:27689.got - 2010.06.03 13:09:01.
