data_PCOD9421181
_publ_section_title
;
Structure prediction by ZEFSAII (Michael W. Deem and Ramdas Pophale) SiO2 
 PCOD9421181
Probable space group: P C C A
;
_chemical_formula_sum "Si O2"
_cell_formula_units_Z 40
_cell_length_a 14.077181
_cell_length_b 11.967683
_cell_length_c 8.866887
_cell_angle_alpha 90.000000
_cell_angle_beta 90.000000
_cell_angle_gamma 90.000000
_cell_volume 1493.815446
_symmetry_space_group_name_H-M "P C C A"
_symmetry_group_IT_number 54
_symmetry_cell_setting 'orthorhombic'
loop_
_space_group_symop_operation_xyz
x,y,z
1/2-x,-y,z
1/2+x,-y,1/2-z
-x,y,1/2-z
-x,-y,-z
1/2+x,y,-z
1/2-x,y,1/2+z
x,-y,1/2+z
loop_
_atom_site_type_symbol
_atom_site_label
_atom_site_fract_x
_atom_site_fract_y
_atom_site_fract_z
Si Si1 0.406880 0.160551 0.994046
Si Si2 0.541707 0.606412 0.916834
Si Si3 0.276324 0.381114 0.254321
Si Si4 0.136150 0.027350 0.201408
Si Si5 0.312551 0.765405 0.028613
O O1 0.467224 0.274326 0.999371
O O2 0.296569 0.197039 0.005271
O O3 0.414944 0.082507 0.140426
O O4 0.409718 0.084884 0.846146
O O5 0.500000 0.611110 0.750000
O O6 0.653230 0.591283 0.883149
O O7 0.500000 0.500000 0.000000
O O8 0.250000 0.500000 0.321931
O O9 0.189967 0.313187 0.177529
O O10 0.329021 0.304233 0.377278
O O11 0.134205 0.120732 0.068460
O O12 0.250000 0.000000 0.229715
#
# Coordination Sequence:
#
# PCOD9421181 Si02
#       5
#     8   8   8   8   8
#     4  10  22  40  69 107 145 194 237 303 376 453
#     4  11  29  52  70 100 154 207 252 306 383 449
#     4  11  24  40  72 107 141 190 255 312 364 453
#     4  10  19  36  70 112 156 182 235 314 388 446
#     4  10  20  36  65 109 149 177 238 309 380 433
#
# _framework density 26.777069000000001
#
# number of rings (size 3 to 8) (size 9 to 14) (size 15 to 20)
#    0.000    1.600    2.000    2.400   14.000    0.000 
#    0.000    1.000    0.000    0.000    0.000    0.000 
#    0.000    0.000    0.000    0.000    0.000    0.000 
#
# Total GULP energy -224202.290468 kJ/mol
# GULP energy per Si atom -5605.057262 kJ/mol
# Density = 2.671612 g / cm^3
# Si number density = 26.777069 Si / 1000 Ang^3
#
#
#
# Elastic Constant Matrix: (Units=GPa)
#
#
# Indices 1 2 3 4 5 6 
#
# 1 58.5522 55.6665 27.0822 0.0000 0.0000 0.0000
# 2 55.6665 222.9459 105.1679 0.0000 0.0000 0.0000
# 3 27.0822 105.1679 151.6457 0.0000 0.0000 0.0000
# 4 0.0000 0.0000 0.0000 72.8362 0.0000 0.0000
# 5 0.0000 0.0000 0.0000 0.0000 41.5335 0.0000
# 6 0.0000 0.0000 0.0000 0.0000 0.0000 48.8885
#
#
#
# Elastic Compliance Matrix: (Units=1/GPa)
#
#
# Indices 1 2 3 4 5 6 
#
# 1 0.022398 -0.005507 -0.000181 0.000000 0.000000 0.000000
# 2 -0.005507 0.008020 -0.004579 0.000000 0.000000 0.000000
# 3 -0.000181 -0.004579 0.009802 0.000000 0.000000 0.000000
# 4 0.000000 0.000000 0.000000 0.013729 0.000000 0.000000
# 5 0.000000 0.000000 0.000000 0.000000 0.024077 0.000000
# 6 0.000000 0.000000 0.000000 0.000000 0.000000 0.020455
#
#
# Mechanical properties :
#
#
# Convention : Reuss Voigt Hill
#
# Bulk Modulus (GPa) = 50.79442 89.88632 70.34037
# Shear Modulus (GPa) = 39.81615 49.00012 44.40813
#
# Velocity S-wave (km/s) = 3.86028 4.28241 4.07681
# Velocity P-wave (km/s) = 6.23535 7.62189 6.96322
#
# Compressibility (1/GPa) = 0.01968720
#
# Stress axis : x y z
#
# Youngs Moduli (GPa) = 44.64642 124.68340 102.02081
#
# Poissons Ratio (x) = 0.68667 0.01844
# Poissons Ratio (y) = 0.24588 0.46712
# Poissons Ratio (z) = 0.00807 0.57088
#
# Static dielectric constant tensor:
#      x y z
#    x 2.251450 0.000000 0.000000 
#    y 0.000000 2.106400 0.000000 
#    z 0.000000 0.000000 2.075160 
# 
# From -- ./inp_files/3983.got.cif
#   From: 2010.05.17/outbox.cif.g08.bks.cpg/sg54_2_cif.got.tgz:3983.got - 2010.06.03 13:09:01.
