data_PCOD9421627
_publ_section_title
;
Structure prediction by ZEFSAII (Michael W. Deem and Ramdas Pophale) SiO2 
 PCOD9421627
Probable space group: P C C A
;
_chemical_formula_sum "Si O2"
_cell_formula_units_Z 40
_cell_length_a 9.059820
_cell_length_b 8.996497
_cell_length_c 26.599329
_cell_angle_alpha 90.000000
_cell_angle_beta 90.000000
_cell_angle_gamma 90.000000
_cell_volume 2168.022025
_symmetry_space_group_name_H-M "P C C A"
_symmetry_group_IT_number 54
_symmetry_cell_setting 'orthorhombic'
loop_
_space_group_symop_operation_xyz
x,y,z
1/2-x,-y,z
1/2+x,-y,1/2-z
-x,y,1/2-z
-x,-y,-z
1/2+x,y,-z
1/2-x,y,1/2+z
x,-y,1/2+z
loop_
_atom_site_type_symbol
_atom_site_label
_atom_site_fract_x
_atom_site_fract_y
_atom_site_fract_z
Si Si1 0.250000 0.000000 0.849554
Si Si2 0.250000 0.500000 0.852936
Si Si3 0.776176 0.325698 0.383715
Si Si4 0.558506 0.243756 0.095267
Si Si5 0.039717 0.252072 0.308269
Si Si6 0.626926 0.381756 0.996620
O O1 0.143059 0.103749 0.882337
O O2 0.358077 0.108776 0.818929
O O3 0.356814 0.609648 0.884056
O O4 0.358787 0.394013 0.821739
O O5 0.750000 0.500000 0.370666
O O6 0.613224 0.252579 0.388567
O O7 0.842806 0.325909 0.440308
O O8 0.894370 0.258307 0.344431
O O9 0.586156 0.253174 0.035551
O O10 0.000000 0.256100 0.250000
O O11 0.750000 0.500000 0.012518
O O12 0.500000 0.500000 0.000000
#
# Coordination Sequence:
#
# PCOD9421627 Si02
#       6
#     4   4   8   8   8   8
#     4  10  28  44  62  92 130 186 206 256 322 408
#     4  10  20  36  66  94 122 154 220 268 304 376
#     4  11  22  38  65 101 125 160 215 274 321 367
#     4  11  21  40  63  95 133 168 209 256 321 389
#     4  11  25  44  66  92 128 166 218 268 328 372
#     4  11  19  33  64  99 128 163 207 262 330 368
#
# _framework density 18.449995999999999
#
# number of rings (size 3 to 8) (size 9 to 14) (size 15 to 20)
#    0.000    1.200    7.000    0.000    4.200    2.400 
#    0.000    8.000    0.000    0.000    0.000    0.000 
#    0.000    0.000    0.000    0.000    0.000    0.000 
#
# Total GULP energy -222937.359130 kJ/mol
# GULP energy per Si atom -5573.433978 kJ/mol
# Density = 1.840800 g / cm^3
# Si number density = 18.449996 Si / 1000 Ang^3
#
#
#
# Elastic Constant Matrix: (Units=GPa)
#
#
# Indices 1 2 3 4 5 6 
#
# 1 186.2566 49.5265 81.9139 0.0000 0.0000 0.0000
# 2 49.5265 82.6470 57.0543 0.0000 0.0000 0.0000
# 3 81.9139 57.0543 143.4235 0.0000 0.0000 0.0000
# 4 0.0000 0.0000 0.0000 3.6793 0.0000 0.0000
# 5 0.0000 0.0000 0.0000 0.0000 28.4554 0.0000
# 6 0.0000 0.0000 0.0000 0.0000 0.0000 28.4848
#
#
#
# Elastic Compliance Matrix: (Units=1/GPa)
#
#
# Indices 1 2 3 4 5 6 
#
# 1 0.007425 -0.002098 -0.003406 0.000000 0.000000 0.000000
# 2 -0.002098 0.017273 -0.005673 0.000000 0.000000 0.000000
# 3 -0.003406 -0.005673 0.011174 0.000000 0.000000 0.000000
# 4 0.000000 0.000000 0.000000 0.271788 0.000000 0.000000
# 5 0.000000 0.000000 0.000000 0.000000 0.035143 0.000000
# 6 0.000000 0.000000 0.000000 0.000000 0.000000 0.035106
#
#
# Mechanical properties :
#
#
# Convention : Reuss Voigt Hill
#
# Bulk Modulus (GPa) = 73.97410 87.70183 80.83796
# Shear Modulus (GPa) = 12.35271 27.04608 19.69940
#
# Velocity S-wave (km/s) = 2.59032 3.83288 3.27114
# Velocity P-wave (km/s) = 7.00912 8.19915 7.62738
#
# Compressibility (1/GPa) = 0.01351825
#
# Stress axis : x y z
#
# Youngs Moduli (GPa) = 134.68566 57.89298 89.49093
#
# Poissons Ratio (x) = 0.12146 0.30479
# Poissons Ratio (y) = 0.28258 0.50769
# Poissons Ratio (z) = 0.45872 0.32843
#
# Static dielectric constant tensor:
#      x y z
#    x 1.623510 0.000000 0.000000 
#    y 0.000000 1.602900 0.000000 
#    z 0.000000 0.000000 1.647950 
# 
# From -- ./inp_files/23339.got.cif
#   From: 2010.05.17/outbox.cif.g08.bks.cpg/sg54_12_cif.got.tgz:23339.got - 2010.06.03 13:09:01.
