data_PCOD9421548
_publ_section_title
;
Structure prediction by ZEFSAII (Michael W. Deem and Ramdas Pophale) SiO2 
 PCOD9421548
Probable space group: P C C A
;
_chemical_formula_sum "Si O2"
_cell_formula_units_Z 60
_cell_length_a 13.619246
_cell_length_b 24.670326
_cell_length_c 8.392105
_cell_angle_alpha 90.000000
_cell_angle_beta 90.000000
_cell_angle_gamma 90.000000
_cell_volume 2819.673754
_symmetry_space_group_name_H-M "P C C A"
_symmetry_group_IT_number 54
_symmetry_cell_setting 'orthorhombic'
loop_
_space_group_symop_operation_xyz
x,y,z
1/2-x,-y,z
1/2+x,-y,1/2-z
-x,y,1/2-z
-x,-y,-z
1/2+x,y,-z
1/2-x,y,1/2+z
x,-y,1/2+z
loop_
_atom_site_type_symbol
_atom_site_label
_atom_site_fract_x
_atom_site_fract_y
_atom_site_fract_z
Si Si1 0.362681 0.096765 0.758247
Si Si2 0.392893 0.534470 0.672631
Si Si3 0.677428 0.051226 0.094459
Si Si4 0.256707 0.279615 0.035061
Si Si5 0.391508 0.424635 0.808126
Si Si6 0.611800 0.223344 0.731966
Si Si7 0.203549 0.359019 0.794381
Si Si8 0.000000 0.992067 0.750000
O O1 0.359506 0.072089 0.577604
O O2 0.252296 0.092751 0.824513
O O3 0.393078 0.158399 0.774204
O O4 0.438463 0.055928 0.848109
O O5 0.500000 0.528343 0.750000
O O6 0.351200 0.474002 0.697577
O O7 0.393476 0.552280 0.488731
O O8 0.346718 0.583581 0.772030
O O9 0.750000 0.000000 0.065305
O O10 0.589467 0.034755 0.214778
O O11 0.183710 0.239160 0.123316
O O12 0.318553 0.316953 0.155093
O O13 0.330171 0.248849 0.917643
O O14 0.187304 0.324268 0.950486
O O15 0.500000 0.410359 0.750000
O O16 0.318794 0.374349 0.797784
O O17 0.500000 0.243842 0.750000
#
# Coordination Sequence:
#
# PCOD9421548 Si02
#       8
#     8   8   8   8   8   8   8   4
#     4  11  21  39  64  92 130 181 217 264 335 399
#     4  11  24  38  61  97 134 170 216 258 325 417
#     4  10  21  36  60  96 139 173 208 275 316 396
#     4  10  25  44  67  97 125 160 240 290 331 405
#     4  11  24  39  63  95 133 176 210 263 328 416
#     4  11  24  48  72  94 131 180 224 288 347 393
#     4  11  23  42  66  91 125 168 212 277 341 382
#     4  10  20  36  60 102 132 170 226 254 328 408
#
# _framework density 21.279057999999999
#
# number of rings (size 3 to 8) (size 9 to 14) (size 15 to 20)
#    0.000    1.333    2.000    4.400    3.733    5.333 
#    2.400    2.000    0.000    0.000    0.000    0.000 
#    0.000    0.000    0.000    0.000    0.000    0.000 
#
# Total GULP energy -334110.369760 kJ/mol
# GULP energy per Si atom -5568.506163 kJ/mol
# Density = 2.123063 g / cm^3
# Si number density = 21.279058 Si / 1000 Ang^3
#
#
#
# Elastic Constant Matrix: (Units=GPa)
#
#
# Indices 1 2 3 4 5 6 
#
# 1 116.1553 23.5422 20.2873 0.0000 0.0000 0.0000
# 2 23.5422 59.7204 1.5677 0.0000 0.0000 0.0000
# 3 20.2873 1.5677 70.1464 0.0000 0.0000 0.0000
# 4 0.0000 0.0000 0.0000 -42.0998 0.0000 0.0000
# 5 0.0000 0.0000 0.0000 0.0000 20.9453 0.0000
# 6 0.0000 0.0000 0.0000 0.0000 0.0000 20.5166
#
#
#
# Elastic Compliance Matrix: (Units=1/GPa)
#
#
# Indices 1 2 3 4 5 6 
#
# 1 0.009866 -0.003817 -0.002768 0.000000 0.000000 0.000000
# 2 -0.003817 0.018231 0.000696 0.000000 0.000000 0.000000
# 3 -0.002768 0.000696 0.015041 0.000000 0.000000 0.000000
# 4 0.000000 0.000000 0.000000 -0.023753 0.000000 0.000000
# 5 0.000000 0.000000 0.000000 0.000000 0.047743 0.000000
# 6 0.000000 0.000000 0.000000 0.000000 0.000000 0.048741
#
#
# Mechanical properties :
#
#
# Convention : Reuss Voigt Hill
#
# Bulk Modulus (GPa) = 31.88648 37.42405 34.65527
# Shear Modulus (GPa) = 36.20567 13.24743 24.72655
#
# Velocity S-wave (km/s) = 4.12936 2.49782 3.41253
# Velocity P-wave (km/s) = 6.14434 5.09355 5.64346
#
# Compressibility (1/GPa) = 0.03136126
#
# Stress axis : x y z
#
# Youngs Moduli (GPa) = 101.35626 54.85176 66.48533
#
# Poissons Ratio (x) = 0.20935 0.18404
# Poissons Ratio (y) = 0.38684 -0.04630
# Poissons Ratio (z) = 0.28057 -0.03820
#
# Static dielectric constant tensor:
#      x y z
#    x 1.847240 0.000000 0.000000 
#    y 0.000000 1.743370 0.000000 
#    z 0.000000 0.000000 1.869140 
# 
# From -- ./inp_files/3733.got.cif
#   From: 2010.05.17/outbox.cif.g08.bks.cpg/sg54_2_cif.got.tgz:3733.got - 2010.06.03 13:09:01.
