data_PCOD9421332
_publ_section_title
;
Structure prediction by ZEFSAII (Michael W. Deem and Ramdas Pophale) SiO2 
 PCOD9421332
Probable space group: P C C A
;
_chemical_formula_sum "Si O2"
_cell_formula_units_Z 56
_cell_length_a 22.333877
_cell_length_b 12.135089
_cell_length_c 10.047259
_cell_angle_alpha 90.000000
_cell_angle_beta 90.000000
_cell_angle_gamma 90.000000
_cell_volume 2723.044155
_symmetry_space_group_name_H-M "P C C A"
_symmetry_group_IT_number 54
_symmetry_cell_setting 'orthorhombic'
loop_
_space_group_symop_operation_xyz
x,y,z
1/2-x,-y,z
1/2+x,-y,1/2-z
-x,y,1/2-z
-x,-y,-z
1/2+x,y,-z
1/2-x,y,1/2+z
x,-y,1/2+z
loop_
_atom_site_type_symbol
_atom_site_label
_atom_site_fract_x
_atom_site_fract_y
_atom_site_fract_z
Si Si1 0.872661 0.247152 0.481213
Si Si2 0.230067 0.376997 0.874381
Si Si3 0.435980 0.547014 0.968112
Si Si4 0.542658 0.108216 0.131990
Si Si5 0.631669 0.526987 0.794794
Si Si6 0.150008 0.274473 0.299723
Si Si7 0.460503 0.146410 0.873476
O O1 0.817767 0.322287 0.528519
O O2 0.928241 0.332070 0.470712
O O3 0.894522 0.164820 0.594977
O O4 0.856119 0.202723 0.336148
O O5 0.250000 0.500000 0.920193
O O6 0.191513 0.405039 0.740277
O O7 0.283958 0.290778 0.858156
O O8 0.389700 0.471482 0.053434
O O9 0.500000 0.500000 0.000000
O O10 0.418880 0.560237 0.813550
O O11 0.500000 0.151205 0.250000
O O12 0.556509 0.980156 0.161032
O O13 0.502092 0.127944 0.001338
O O14 0.640505 0.399849 0.751634
O O15 0.097108 0.225111 0.390228
O O16 0.500000 0.189476 0.750000
#
# Coordination Sequence:
#
# PCOD9421332 Si02
#       7
#     8   8   8   8   8   8   8
#     4  10  21  37  57  85 121 154 199 246 295 358
#     4   9  20  38  56  84 119 160 203 243 289 344
#     4  10  20  32  51  82 118 154 189 242 292 351
#     4  10  22  39  61  91 122 149 187 252 313 361
#     4   9  20  34  53  80 115 155 193 238 288 350
#     4  10  20  36  62  83 108 161 201 240 289 366
#     4  10  20  39  66  88 115 152 195 243 308 373
#
# _framework density 20.565218999999999
#
# number of rings (size 3 to 8) (size 9 to 14) (size 15 to 20)
#    0.000    2.286    1.429    0.429    2.000    7.429 
#    2.571    0.714    0.000    1.714    0.000    0.000 
#    0.000    0.000    0.000    0.000    0.000    0.000 
#
# Total GULP energy -311958.577963 kJ/mol
# GULP energy per Si atom -5570.688892 kJ/mol
# Density = 2.051841 g / cm^3
# Si number density = 20.565219 Si / 1000 Ang^3
#
#
#
# Elastic Constant Matrix: (Units=GPa)
#
#
# Indices 1 2 3 4 5 6 
#
# 1 117.9334 48.1397 11.0931 0.0000 0.0000 0.0000
# 2 48.1397 49.1984 11.4117 0.0000 0.0000 0.0000
# 3 11.0931 11.4117 61.9010 0.0000 0.0000 0.0000
# 4 0.0000 0.0000 0.0000 20.3211 0.0000 0.0000
# 5 0.0000 0.0000 0.0000 0.0000 23.2385 0.0000
# 6 0.0000 0.0000 0.0000 0.0000 0.0000 31.9615
#
#
#
# Elastic Compliance Matrix: (Units=1/GPa)
#
#
# Indices 1 2 3 4 5 6 
#
# 1 0.014118 -0.013819 0.000017 0.000000 0.000000 0.000000
# 2 -0.013819 0.034759 -0.003932 0.000000 0.000000 0.000000
# 3 0.000017 -0.003932 0.016877 0.000000 0.000000 0.000000
# 4 0.000000 0.000000 0.000000 0.049210 0.000000 0.000000
# 5 0.000000 0.000000 0.000000 0.000000 0.043032 0.000000
# 6 0.000000 0.000000 0.000000 0.000000 0.000000 0.031288
#
#
# Mechanical properties :
#
#
# Convention : Reuss Voigt Hill
#
# Bulk Modulus (GPa) = 33.01595 41.14686 37.08140
# Shear Modulus (GPa) = 21.29062 25.66344 23.47703
#
# Velocity S-wave (km/s) = 3.22106 3.53640 3.38241
# Velocity P-wave (km/s) = 5.47017 6.06022 5.77274
#
# Compressibility (1/GPa) = 0.03028839
#
# Stress axis : x y z
#
# Youngs Moduli (GPa) = 70.82960 28.76950 59.25397
#
# Poissons Ratio (x) = 0.39755 -0.00103
# Poissons Ratio (y) = 0.97877 0.23296
# Poissons Ratio (z) = -0.00123 0.11311
#
# Static dielectric constant tensor:
#      x y z
#    x 1.799990 0.000000 0.000000 
#    y 0.000000 1.770490 0.000000 
#    z 0.000000 0.000000 1.817860 
# 
# From -- ./inp_files/9556.got.cif
#   From: 2010.05.17/outbox.cif.g08.bks.cpg/sg54_5_cif.got.tgz:9556.got - 2010.06.03 13:09:01.
