data_PCOD9421214
_publ_section_title
;
Structure prediction by ZEFSAII (Michael W. Deem and Ramdas Pophale) SiO2 
 PCOD9421214
Probable space group: P C C A
;
_chemical_formula_sum "Si O2"
_cell_formula_units_Z 60
_cell_length_a 9.667897
_cell_length_b 11.227828
_cell_length_c 24.769506
_cell_angle_alpha 90.000000
_cell_angle_beta 90.000000
_cell_angle_gamma 90.000000
_cell_volume 2688.717111
_symmetry_space_group_name_H-M "P C C A"
_symmetry_group_IT_number 54
_symmetry_cell_setting 'orthorhombic'
loop_
_space_group_symop_operation_xyz
x,y,z
1/2-x,-y,z
1/2+x,-y,1/2-z
-x,y,1/2-z
-x,-y,-z
1/2+x,y,-z
1/2-x,y,1/2+z
x,-y,1/2+z
loop_
_atom_site_type_symbol
_atom_site_label
_atom_site_fract_x
_atom_site_fract_y
_atom_site_fract_z
Si Si1 0.830610 0.886600 0.431809
Si Si2 0.303862 0.330114 0.820151
Si Si3 0.471856 0.622344 0.087734
Si Si4 0.250000 0.500000 0.228509
Si Si5 0.868013 0.594207 0.086504
Si Si6 0.579019 0.202705 0.005867
Si Si7 0.664054 0.120674 0.755040
Si Si8 0.217651 0.294935 0.654151
O O1 0.708692 0.848508 0.473191
O O2 0.868376 0.792380 0.384457
O O3 0.970312 0.888849 0.467408
O O4 0.750000 0.000000 0.406109
O O5 0.421621 0.341912 0.864982
O O6 0.334374 0.415363 0.769238
O O7 0.167310 0.374894 0.851548
O O8 0.291611 0.198407 0.797017
O O9 0.494742 0.482654 0.077445
O O10 0.323090 0.646537 0.112101
O O11 0.494793 0.706961 0.036439
O O12 0.332494 0.404984 0.191360
O O13 0.750000 0.500000 0.068382
O O14 0.863720 0.712450 0.052547
O O15 0.500000 0.099672 0.750000
O O16 0.700721 0.205201 0.805790
O O17 0.750000 0.000000 0.758412
#
# Coordination Sequence:
#
# PCOD9421214 Si02
#       8
#     8   8   8   4   8   8   8   8
#     4  11  24  46  66  94 133 180 229 279 332 394
#     4  10  19  40  62  92 130 171 222 260 327 404
#     4  10  19  37  63  93 130 173 207 267 337 403
#     4  10  20  36  62  94 124 170 214 268 328 406
#     4  10  20  38  63 101 138 169 212 271 335 409
#     4  11  24  41  69  99 133 176 226 274 337 406
#     4  11  23  44  68  94 130 177 227 281 334 390
#     4  10  23  39  65  93 133 167 222 269 343 393
#
# _framework density 22.315473999999998
#
# number of rings (size 3 to 8) (size 9 to 14) (size 15 to 20)
#    0.000    1.600    3.333    2.800    1.867    0.000 
#    7.200    2.667    0.000    0.000    0.000    0.000 
#    0.000    0.000    0.000    0.000    0.000    0.000 
#
# Total GULP energy -334784.744128 kJ/mol
# GULP energy per Si atom -5579.745735 kJ/mol
# Density = 2.226468 g / cm^3
# Si number density = 22.315474 Si / 1000 Ang^3
#
#
#
# Elastic Constant Matrix: (Units=GPa)
#
#
# Indices 1 2 3 4 5 6 
#
# 1 52.5828 14.5342 11.9916 0.0000 0.0000 0.0000
# 2 14.5342 99.3749 21.6624 0.0000 0.0000 0.0000
# 3 11.9916 21.6624 85.9149 0.0000 0.0000 0.0000
# 4 0.0000 0.0000 0.0000 22.9504 0.0000 0.0000
# 5 0.0000 0.0000 0.0000 0.0000 26.0661 0.0000
# 6 0.0000 0.0000 0.0000 0.0000 0.0000 21.4626
#
#
#
# Elastic Compliance Matrix: (Units=1/GPa)
#
#
# Indices 1 2 3 4 5 6 
#
# 1 0.020203 -0.002476 -0.002195 0.000000 0.000000 0.000000
# 2 -0.002476 0.010952 -0.002416 0.000000 0.000000 0.000000
# 3 -0.002195 -0.002416 0.012555 0.000000 0.000000 0.000000
# 4 0.000000 0.000000 0.000000 0.043572 0.000000 0.000000
# 5 0.000000 0.000000 0.000000 0.000000 0.038364 0.000000
# 6 0.000000 0.000000 0.000000 0.000000 0.000000 0.046593
#
#
# Mechanical properties :
#
#
# Convention : Reuss Voigt Hill
#
# Bulk Modulus (GPa) = 33.85860 37.13879 35.49870
# Shear Modulus (GPa) = 25.47669 26.74145 26.10907
#
# Velocity S-wave (km/s) = 3.38251 3.46546 3.42423
# Velocity P-wave (km/s) = 5.51913 5.71763 5.61926
#
# Compressibility (1/GPa) = 0.02953459
#
# Stress axis : x y z
#
# Youngs Moduli (GPa) = 49.49826 91.31038 79.64989
#
# Poissons Ratio (x) = 0.22610 0.17487
# Poissons Ratio (y) = 0.12257 0.19241
# Poissons Ratio (z) = 0.10867 0.22058
#
# Static dielectric constant tensor:
#      x y z
#    x 1.882150 0.000000 0.000000 
#    y 0.000000 1.883470 0.000000 
#    z 0.000000 0.000000 1.822730 
# 
# From -- ./inp_files/26297.got.cif
#   From: 2010.05.17/outbox.cif.g08.bks.cpg/sg54_14_cif.got.tgz:26297.got - 2010.06.03 13:09:01.
