data_PCOD9421526
_publ_section_title
;
Structure prediction by ZEFSAII (Michael W. Deem and Ramdas Pophale) SiO2 
 PCOD9421526
Probable space group: P C C A
;
_chemical_formula_sum "Si O2"
_cell_formula_units_Z 56
_cell_length_a 14.951275
_cell_length_b 20.997722
_cell_length_c 9.266590
_cell_angle_alpha 90.000000
_cell_angle_beta 90.000000
_cell_angle_gamma 90.000000
_cell_volume 2909.178433
_symmetry_space_group_name_H-M "P C C A"
_symmetry_group_IT_number 54
_symmetry_cell_setting 'orthorhombic'
loop_
_space_group_symop_operation_xyz
x,y,z
1/2-x,-y,z
1/2+x,-y,1/2-z
-x,y,1/2-z
-x,-y,-z
1/2+x,y,-z
1/2-x,y,1/2+z
x,-y,1/2+z
loop_
_atom_site_type_symbol
_atom_site_label
_atom_site_fract_x
_atom_site_fract_y
_atom_site_fract_z
Si Si1 0.165582 0.640266 0.980607
Si Si2 0.568494 0.520632 0.879670
Si Si3 0.999212 0.839846 0.417830
Si Si4 0.846672 0.384170 0.360541
Si Si5 0.150941 0.942188 0.402732
Si Si6 0.333215 0.925018 0.557402
Si Si7 0.002454 0.284759 0.080390
O O1 0.169289 0.629477 0.808450
O O2 0.093452 0.697162 0.989195
O O3 0.122542 0.581075 0.066000
O O4 0.264019 0.642790 0.047536
O O5 0.500000 0.534147 0.750000
O O6 0.633953 0.459845 0.862261
O O7 0.500000 0.500000 0.000000
O O8 0.901498 0.866478 0.461027
O O9 0.033593 0.778940 0.503403
O O10 0.000000 0.822247 0.250000
O O11 0.065283 0.899368 0.432020
O O12 0.933773 0.346919 0.421164
O O13 0.235268 0.913658 0.490631
O O14 0.168941 0.941388 0.229413
O O15 0.136360 0.012750 0.466652
O O16 0.000000 0.270068 0.250000
#
# Coordination Sequence:
#
# PCOD9421526 Si02
#       7
#     8   8   8   8   8   8   8
#     4  11  25  41  63  91 121 157 201 245 303 358
#     4  12  22  40  66  90 124 155 191 246 300 353
#     4  10  23  39  59  85 116 154 200 241 291 352
#     4  11  24  42  61  90 122 155 201 248 298 362
#     4  10  20  36  58  87 120 151 190 240 290 348
#     4  10  20  36  58  87 120 151 191 239 292 348
#     4  10  23  44  60  81 118 159 199 250 293 349
#
# _framework density 19.249419
#
# number of rings (size 3 to 8) (size 9 to 14) (size 15 to 20)
#    0.000    1.429    2.857    3.000    2.000    6.286 
#    0.000    5.714    0.000    0.000    0.000    0.000 
#    0.000    0.000    0.000    0.000    0.000    0.000 
#
# Total GULP energy -312305.568021 kJ/mol
# GULP energy per Si atom -5576.885143 kJ/mol
# Density = 1.920561 g / cm^3
# Si number density = 19.249419 Si / 1000 Ang^3
#
#
#
# Elastic Constant Matrix: (Units=GPa)
#
#
# Indices 1 2 3 4 5 6 
#
# 1 54.6910 9.4610 29.3728 0.0000 0.0000 0.0000
# 2 9.4610 36.1989 22.6860 0.0000 0.0000 0.0000
# 3 29.3728 22.6860 70.9595 0.0000 0.0000 0.0000
# 4 0.0000 0.0000 0.0000 21.7629 0.0000 0.0000
# 5 0.0000 0.0000 0.0000 0.0000 32.6368 0.0000
# 6 0.0000 0.0000 0.0000 0.0000 0.0000 11.9486
#
#
#
# Elastic Compliance Matrix: (Units=1/GPa)
#
#
# Indices 1 2 3 4 5 6 
#
# 1 0.023512 -0.000057 -0.009714 0.000000 0.000000 0.000000
# 2 -0.000057 0.034547 -0.011021 0.000000 0.000000 0.000000
# 3 -0.009714 -0.011021 0.021637 0.000000 0.000000 0.000000
# 4 0.000000 0.000000 0.000000 0.045950 0.000000 0.000000
# 5 0.000000 0.000000 0.000000 0.000000 0.030640 0.000000
# 6 0.000000 0.000000 0.000000 0.000000 0.000000 0.083691
#
#
# Mechanical properties :
#
#
# Convention : Reuss Voigt Hill
#
# Bulk Modulus (GPa) = 26.23920 31.65435 28.94677
# Shear Modulus (GPa) = 16.99145 19.95831 18.47488
#
# Velocity S-wave (km/s) = 2.97425 3.22347 3.10136
# Velocity P-wave (km/s) = 5.04536 5.50767 5.28157
#
# Compressibility (1/GPa) = 0.03811092
#
# Stress axis : x y z
#
# Youngs Moduli (GPa) = 42.53229 28.94598 46.21699
#
# Poissons Ratio (x) = 0.00166 0.44895
# Poissons Ratio (y) = 0.00243 0.50937
# Poissons Ratio (z) = 0.41316 0.31902
#
# Static dielectric constant tensor:
#      x y z
#    x 1.703470 0.000000 0.000000 
#    y 0.000000 1.652290 0.000000 
#    z 0.000000 0.000000 1.648240 
# 
# From -- ./inp_files/3680.got.cif
#   From: 2010.05.17/outbox.cif.g08.bks.cpg/sg54_2_cif.got.tgz:3680.got - 2010.06.03 13:09:01.
