data_PCOD9421145
_publ_section_title
;
Structure prediction by ZEFSAII (Michael W. Deem and Ramdas Pophale) SiO2 
 PCOD9421145
Probable space group: P C C A
;
_chemical_formula_sum "Si O2"
_cell_formula_units_Z 40
_cell_length_a 18.803636
_cell_length_b 6.399529
_cell_length_c 16.726234
_cell_angle_alpha 90.000000
_cell_angle_beta 90.000000
_cell_angle_gamma 90.000000
_cell_volume 2012.741565
_symmetry_space_group_name_H-M "P C C A"
_symmetry_group_IT_number 54
_symmetry_cell_setting 'orthorhombic'
loop_
_space_group_symop_operation_xyz
x,y,z
1/2-x,-y,z
1/2+x,-y,1/2-z
-x,y,1/2-z
-x,-y,-z
1/2+x,y,-z
1/2-x,y,1/2+z
x,-y,1/2+z
loop_
_atom_site_type_symbol
_atom_site_label
_atom_site_fract_x
_atom_site_fract_y
_atom_site_fract_z
Si Si1 0.084886 0.740346 0.135590
Si Si2 0.049025 0.867670 0.439511
Si Si3 0.677162 0.925231 0.459332
Si Si4 0.681570 0.368094 0.809463
Si Si5 0.075107 0.912915 0.774567
O O1 0.123670 0.530396 0.158302
O O2 0.133557 0.875817 0.074894
O O3 0.078481 0.889390 0.213676
O O4 0.006772 0.704249 0.098133
O O5 0.071436 0.011538 0.365001
O O6 0.120394 0.803782 0.485519
O O7 0.000000 0.000000 0.500000
O O8 0.699409 0.784850 0.383380
O O9 0.750000 0.000000 0.499950
O O10 0.750000 0.500000 0.783684
O O11 0.642689 0.230282 0.742939
O O12 0.000000 0.806285 0.750000
#
# Coordination Sequence:
#
# PCOD9421145 Si02
#       5
#     8   8   8   8   8
#     4   9  19  37  60  83 115 151 204 245 290 352
#     4   9  19  38  61  83 116 158 189 242 303 353
#     4  10  19  36  58  84 118 159 196 238 298 362
#     4  11  21  36  64  88 117 158 200 245 299 358
#     4   9  20  38  60  86 113 153 204 248 291 354
#
# _framework density 19.873390000000001
#
# number of rings (size 3 to 8) (size 9 to 14) (size 15 to 20)
#    0.000    2.400    2.000    1.200    0.000    3.200 
#    3.600    4.000    0.000    0.000    0.000    0.000 
#    0.000    0.000    0.000    0.000    0.000    0.000 
#
# Total GULP energy -223063.362433 kJ/mol
# GULP energy per Si atom -5576.584061 kJ/mol
# Density = 1.982816 g / cm^3
# Si number density = 19.873390 Si / 1000 Ang^3
#
#
#
# Elastic Constant Matrix: (Units=GPa)
#
#
# Indices 1 2 3 4 5 6 
#
# 1 127.7041 12.1875 27.8871 0.0000 0.0000 0.0000
# 2 12.1875 23.7243 -12.9706 0.0000 0.0000 0.0000
# 3 27.8871 -12.9706 58.1098 0.0000 0.0000 0.0000
# 4 0.0000 0.0000 0.0000 3.5135 0.0000 0.0000
# 5 0.0000 0.0000 0.0000 0.0000 29.9220 0.0000
# 6 0.0000 0.0000 0.0000 0.0000 0.0000 38.0573
#
#
#
# Elastic Compliance Matrix: (Units=1/GPa)
#
#
# Indices 1 2 3 4 5 6 
#
# 1 0.010199 -0.009016 -0.006907 0.000000 0.000000 0.000000
# 2 -0.009016 0.055979 0.016822 0.000000 0.000000 0.000000
# 3 -0.006907 0.016822 0.024278 0.000000 0.000000 0.000000
# 4 0.000000 0.000000 0.000000 0.284620 0.000000 0.000000
# 5 0.000000 0.000000 0.000000 0.000000 0.033420 0.000000
# 6 0.000000 0.000000 0.000000 0.000000 0.000000 0.026276
#
#
# Mechanical properties :
#
#
# Convention : Reuss Voigt Hill
#
# Bulk Modulus (GPa) = 10.83958 29.30514 20.07236
# Shear Modulus (GPa) = 10.78221 26.46083 18.62152
#
# Velocity S-wave (km/s) = 2.33179 3.65289 3.06438
# Velocity P-wave (km/s) = 3.56592 5.70696 4.75842
#
# Compressibility (1/GPa) = 0.09225453
#
# Stress axis : x y z
#
# Youngs Moduli (GPa) = 98.04531 17.86377 41.18902
#
# Poissons Ratio (x) = 0.16106 0.28450
# Poissons Ratio (y) = 0.88396 -0.69287
# Poissons Ratio (z) = 0.67721 -0.30050
#
# Static dielectric constant tensor:
#      x y z
#    x 1.748090 0.000000 0.000000 
#    y 0.000000 1.645930 0.000000 
#    z 0.000000 0.000000 1.701910 
# 
# From -- ./inp_files/18357.got.cif
#   From: 2010.05.17/outbox.cif.g08.bks.cpg/sg54_10_cif.got.tgz:18357.got - 2010.06.03 13:09:01.
