data_PCOD9421759
_publ_section_title
;
Structure prediction by ZEFSAII (Michael W. Deem and Ramdas Pophale) SiO2 
 PCOD9421759
Probable space group: P C C A
;
_chemical_formula_sum "Si O2"
_cell_formula_units_Z 48
_cell_length_a 13.965038
_cell_length_b 11.951288
_cell_length_c 14.254846
_cell_angle_alpha 90.000000
_cell_angle_beta 90.000000
_cell_angle_gamma 90.000000
_cell_volume 2379.136521
_symmetry_space_group_name_H-M "P C C A"
_symmetry_group_IT_number 54
_symmetry_cell_setting 'orthorhombic'
loop_
_space_group_symop_operation_xyz
x,y,z
1/2-x,-y,z
1/2+x,-y,1/2-z
-x,y,1/2-z
-x,-y,-z
1/2+x,y,-z
1/2-x,y,1/2+z
x,-y,1/2+z
loop_
_atom_site_type_symbol
_atom_site_label
_atom_site_fract_x
_atom_site_fract_y
_atom_site_fract_z
Si Si1 0.872264 0.267203 0.080772
Si Si2 0.095985 0.660335 0.112805
Si Si3 0.735927 0.629157 0.251938
Si Si4 0.498741 0.107788 0.361141
Si Si5 0.139019 0.018923 0.486037
Si Si6 0.454064 0.413062 0.647549
O O1 0.802817 0.301845 0.164529
O O2 0.877476 0.134832 0.069828
O O3 0.975988 0.324829 0.098409
O O4 0.841996 0.315085 0.979952
O O5 0.164916 0.665947 0.202689
O O6 0.022005 0.761580 0.122935
O O7 0.052235 0.536696 0.104183
O O8 0.750000 0.500000 0.222773
O O9 0.652997 0.629721 0.331590
O O10 0.500000 0.083965 0.250000
O O11 0.579460 0.036012 0.417700
O O12 0.403300 0.075865 0.417968
O O13 0.250000 0.000000 0.505415
O O14 0.500000 0.430448 0.750000
#
# Coordination Sequence:
#
# PCOD9421759 Si02
#       6
#     8   8   8   8   8   8
#     4  10  21  39  60  88 122 168 204 255 324 364
#     4  10  20  38  60  97 123 161 213 255 314 375
#     4   9  20  36  59  92 131 162 208 255 306 382
#     4  10  23  43  66  94 122 166 216 260 326 372
#     4  10  24  46  63  92 130 161 220 268 309 387
#     4   9  18  36  60  89 128 161 201 256 311 378
#
# _framework density 20.175386
#
# number of rings (size 3 to 8) (size 9 to 14) (size 15 to 20)
#    0.000    2.333    0.000    1.000    2.333    4.667 
#   21.000    0.000    0.000    0.000    0.000    0.000 
#    0.000    0.000    0.000    0.000    0.000    0.000 
#
# Total GULP energy -267905.055567 kJ/mol
# GULP energy per Si atom -5581.355324 kJ/mol
# Density = 2.012947 g / cm^3
# Si number density = 20.175386 Si / 1000 Ang^3
#
#
#
# Elastic Constant Matrix: (Units=GPa)
#
#
# Indices 1 2 3 4 5 6 
#
# 1 74.9292 24.0790 18.5101 0.0000 0.0000 0.0000
# 2 24.0790 86.6251 38.5789 0.0000 0.0000 0.0000
# 3 18.5101 38.5789 108.7210 0.0000 0.0000 0.0000
# 4 0.0000 0.0000 0.0000 17.3044 0.0000 0.0000
# 5 0.0000 0.0000 0.0000 0.0000 21.7381 0.0000
# 6 0.0000 0.0000 0.0000 0.0000 0.0000 15.2480
#
#
#
# Elastic Compliance Matrix: (Units=1/GPa)
#
#
# Indices 1 2 3 4 5 6 
#
# 1 0.014799 -0.003553 -0.001259 0.000000 0.000000 0.000000
# 2 -0.003553 0.014564 -0.004563 0.000000 0.000000 0.000000
# 3 -0.001259 -0.004563 0.011031 0.000000 0.000000 0.000000
# 4 0.000000 0.000000 0.000000 0.057789 0.000000 0.000000
# 5 0.000000 0.000000 0.000000 0.000000 0.046002 0.000000
# 6 0.000000 0.000000 0.000000 0.000000 0.000000 0.065582
#
#
# Mechanical properties :
#
#
# Convention : Reuss Voigt Hill
#
# Bulk Modulus (GPa) = 46.20144 48.06792 47.13468
# Shear Modulus (GPa) = 21.21061 23.46525 22.33793
#
# Velocity S-wave (km/s) = 3.24591 3.41407 3.33105
# Velocity P-wave (km/s) = 6.08256 6.27837 6.18124
#
# Compressibility (1/GPa) = 0.02164435
#
# Stress axis : x y z
#
# Youngs Moduli (GPa) = 67.57368 68.66369 90.65121
#
# Poissons Ratio (x) = 0.24396 0.11411
# Poissons Ratio (y) = 0.24009 0.41364
# Poissons Ratio (z) = 0.08506 0.31331
#
# Static dielectric constant tensor:
#      x y z
#    x 1.741610 0.000000 0.000000 
#    y 0.000000 1.707600 0.000000 
#    z 0.000000 0.000000 1.714360 
# 
# From -- ./inp_files/13414.got.cif
#   From: 2010.05.17/outbox.cif.g08.bks.cpg/sg54_7_cif.got.tgz:13414.got - 2010.06.03 13:09:01.
