data_PCOD9421782
_publ_section_title
;
Structure prediction by ZEFSAII (Michael W. Deem and Ramdas Pophale) SiO2 
 PCOD9421782
Probable space group: P C C A
;
_chemical_formula_sum "Si O2"
_cell_formula_units_Z 40
_cell_length_a 24.588480
_cell_length_b 8.085513
_cell_length_c 8.840814
_cell_angle_alpha 90.000000
_cell_angle_beta 90.000000
_cell_angle_gamma 90.000000
_cell_volume 1757.646428
_symmetry_space_group_name_H-M "P C C A"
_symmetry_group_IT_number 54
_symmetry_cell_setting 'orthorhombic'
loop_
_space_group_symop_operation_xyz
x,y,z
1/2-x,-y,z
1/2+x,-y,1/2-z
-x,y,1/2-z
-x,-y,-z
1/2+x,y,-z
1/2-x,y,1/2+z
x,-y,1/2+z
loop_
_atom_site_type_symbol
_atom_site_label
_atom_site_fract_x
_atom_site_fract_y
_atom_site_fract_z
Si Si1 0.191701 0.499949 0.060750
Si Si2 0.167868 0.841604 0.612904
Si Si3 0.416675 0.590320 0.866304
Si Si4 0.831604 0.185790 0.738877
Si Si5 0.450695 0.282901 0.659774
O O1 0.250000 0.500000 0.978942
O O2 0.189370 0.336205 0.167984
O O3 0.190215 0.664757 0.159622
O O4 0.136979 0.478255 0.959459
O O5 0.184316 0.835831 0.436522
O O6 0.102883 0.828187 0.640414
O O7 0.183135 0.013775 0.684708
O O8 0.500000 0.201123 0.750000
O O9 0.394418 0.751016 0.777292
O O10 0.436243 0.444680 0.759751
O O11 0.459972 0.650965 0.989949
#
# Coordination Sequence:
#
# PCOD9421782 Si02
#       5
#     8   8   8   8   8
#     4  10  22  41  65  92 122 168 210 258 320 380
#     4  10  24  39  63  91 127 164 209 260 312 376
#     4  10  20  40  62  95 126 166 207 265 320 371
#     4  10  21  40  62  88 128 162 204 256 317 359
#     4  10  20  38  63  93 124 165 214 258 317 380
#
# _framework density 22.757705000000001
#
# number of rings (size 3 to 8) (size 9 to 14) (size 15 to 20)
#    0.000    2.400    4.000    0.600    2.800    4.000 
#    0.000    9.000    0.000    0.000    0.000    0.000 
#    0.000    0.000    0.000    0.000    0.000    0.000 
#
# Total GULP energy -222884.473211 kJ/mol
# GULP energy per Si atom -5572.111830 kJ/mol
# Density = 2.270591 g / cm^3
# Si number density = 22.757705 Si / 1000 Ang^3
#
#
#
# Elastic Constant Matrix: (Units=GPa)
#
#
# Indices 1 2 3 4 5 6 
#
# 1 47.5138 7.1882 -14.3537 0.0000 0.0000 0.0000
# 2 7.1882 94.6407 20.3570 0.0000 0.0000 0.0000
# 3 -14.3537 20.3570 45.7825 0.0000 0.0000 0.0000
# 4 0.0000 0.0000 0.0000 29.2848 0.0000 0.0000
# 5 0.0000 0.0000 0.0000 0.0000 18.7443 0.0000
# 6 0.0000 0.0000 0.0000 0.0000 0.0000 -6.3504
#
#
#
# Elastic Compliance Matrix: (Units=1/GPa)
#
#
# Indices 1 2 3 4 5 6 
#
# 1 0.024473 -0.003880 0.009398 0.000000 0.000000 0.000000
# 2 -0.003880 0.012299 -0.006685 0.000000 0.000000 0.000000
# 3 0.009398 -0.006685 0.027761 0.000000 0.000000 0.000000
# 4 0.000000 0.000000 0.000000 0.034147 0.000000 0.000000
# 5 0.000000 0.000000 0.000000 0.000000 0.053350 0.000000
# 6 0.000000 0.000000 0.000000 0.000000 0.000000 -0.157470
#
#
# Mechanical properties :
#
#
# Convention : Reuss Voigt Hill
#
# Bulk Modulus (GPa) = 16.07767 23.81335 19.94551
# Shear Modulus (GPa) = 283.65417 19.98545 151.81981
#
# Velocity S-wave (km/s) = 11.17638 2.96663 8.17656
# Velocity P-wave (km/s) = 13.17683 4.71393 9.89570
#
# Compressibility (1/GPa) = 0.06219805
#
# Stress axis : x y z
#
# Youngs Moduli (GPa) = 40.86195 81.30765 36.02123
#
# Poissons Ratio (x) = 0.31549 -0.33853
# Poissons Ratio (y) = 0.15855 0.24081
# Poissons Ratio (z) = -0.38402 0.54356
#
# Static dielectric constant tensor:
#      x y z
#    x 1.944910 0.000000 0.000000 
#    y 0.000000 1.861520 0.000000 
#    z 0.000000 0.000000 1.893620 
# 
# From -- ./inp_files/5431.got.cif
#   From: 2010.05.17/outbox.cif.g08.bks.cpg/sg54_3_cif.got.tgz:5431.got - 2010.06.03 13:09:01.
