data_PCOD9421812
_publ_section_title
;
Structure prediction by ZEFSAII (Michael W. Deem and Ramdas Pophale) SiO2 
 PCOD9421812
Probable space group: P C C A
;
_chemical_formula_sum "Si O2"
_cell_formula_units_Z 36
_cell_length_a 9.090079
_cell_length_b 7.215987
_cell_length_c 19.628371
_cell_angle_alpha 90.000000
_cell_angle_beta 90.000000
_cell_angle_gamma 90.000000
_cell_volume 1287.501245
_symmetry_space_group_name_H-M "P C C A"
_symmetry_group_IT_number 54
_symmetry_cell_setting 'orthorhombic'
loop_
_space_group_symop_operation_xyz
x,y,z
1/2-x,-y,z
1/2+x,-y,1/2-z
-x,y,1/2-z
-x,-y,-z
1/2+x,y,-z
1/2-x,y,1/2+z
x,-y,1/2+z
loop_
_atom_site_type_symbol
_atom_site_label
_atom_site_fract_x
_atom_site_fract_y
_atom_site_fract_z
Si Si1 0.292414 0.279616 0.996507
Si Si2 0.047443 0.206726 0.093904
Si Si3 0.250000 0.500000 0.316960
Si Si4 0.455802 0.365975 0.128869
Si Si5 0.712270 0.187073 0.776666
O O1 0.250000 0.500000 0.986117
O O2 0.154651 0.174330 0.029611
O O3 0.411225 0.272543 0.058179
O O4 0.380787 0.203068 0.931696
O O5 0.083154 0.420052 0.114463
O O6 0.103014 0.115044 0.163287
O O7 0.372745 0.377323 0.354501
O O8 0.339566 0.648814 0.271944
O O9 0.355514 0.278821 0.187337
O O10 0.750000 0.000000 0.736999
#
# Coordination Sequence:
#
# PCOD9421812 Si02
#       5
#     8   8   4   8   8
#     4   9  18  34  64 102 131 166 221 275 338 411
#     4  10  20  38  66 100 133 174 220 280 339 408
#     4  12  24  44  66  96 134 182 234 284 332 406
#     4  10  21  39  65  95 130 171 228 273 340 401
#     4  11  24  46  67  95 139 180 227 285 338 399
#
# _framework density 27.961137000000001
#
# number of rings (size 3 to 8) (size 9 to 14) (size 15 to 20)
#    0.000    1.778    2.222    4.667    4.667    0.000 
#    8.000    4.444    0.000    1.333    0.000    0.000 
#    0.000    0.000    0.000    0.000    0.000    0.000 
#
# Total GULP energy -201575.184191 kJ/mol
# GULP energy per Si atom -5599.310672 kJ/mol
# Density = 2.789750 g / cm^3
# Si number density = 27.961137 Si / 1000 Ang^3
#
#
#
# Elastic Constant Matrix: (Units=GPa)
#
#
# Indices 1 2 3 4 5 6 
#
# 1 188.0110 15.3554 67.3685 0.0000 0.0000 0.0000
# 2 15.3554 99.4773 13.5518 0.0000 0.0000 0.0000
# 3 67.3685 13.5518 79.5525 0.0000 0.0000 0.0000
# 4 0.0000 0.0000 0.0000 10.6690 0.0000 0.0000
# 5 0.0000 0.0000 0.0000 0.0000 49.8347 0.0000
# 6 0.0000 0.0000 0.0000 0.0000 0.0000 13.5343
#
#
#
# Elastic Compliance Matrix: (Units=1/GPa)
#
#
# Indices 1 2 3 4 5 6 
#
# 1 0.007645 -0.000305 -0.006422 0.000000 0.000000 0.000000
# 2 -0.000305 0.010304 -0.001497 0.000000 0.000000 0.000000
# 3 -0.006422 -0.001497 0.018264 0.000000 0.000000 0.000000
# 4 0.000000 0.000000 0.000000 0.093729 0.000000 0.000000
# 5 0.000000 0.000000 0.000000 0.000000 0.020066 0.000000
# 6 0.000000 0.000000 0.000000 0.000000 0.000000 0.073887
#
#
# Mechanical properties :
#
#
# Convention : Reuss Voigt Hill
#
# Bulk Modulus (GPa) = 50.59647 62.17690 56.38668
# Shear Modulus (GPa) = 20.24860 32.85860 26.55360
#
# Velocity S-wave (km/s) = 2.69396 3.43177 3.08500
# Velocity P-wave (km/s) = 5.27362 6.16343 5.73581
#
# Compressibility (1/GPa) = 0.01976422
#
# Stress axis : x y z
#
# Youngs Moduli (GPa) = 130.80561 97.05382 54.75319
#
# Poissons Ratio (x) = 0.02962 0.35163
# Poissons Ratio (y) = 0.03992 0.08195
# Poissons Ratio (z) = 0.84004 0.14527
#
# Static dielectric constant tensor:
#      x y z
#    x 2.241450 0.000000 0.000000 
#    y 0.000000 2.150280 0.000000 
#    z 0.000000 0.000000 2.278630 
# 
# From -- ./inp_files/20133.got.cif
#   From: 2010.05.17/outbox.cif.g08.bks.cpg/sg54_11_cif.got.tgz:20133.got - 2010.06.03 13:09:01.
