data_PCOD9421907
_publ_section_title
;
Structure prediction by ZEFSAII (Michael W. Deem and Ramdas Pophale) SiO2 
 PCOD9421907
Probable space group: P C C A
;
_chemical_formula_sum "Si O2"
_cell_formula_units_Z 56
_cell_length_a 13.843879
_cell_length_b 19.631943
_cell_length_c 9.220669
_cell_angle_alpha 90.000000
_cell_angle_beta 90.000000
_cell_angle_gamma 90.000000
_cell_volume 2506.014107
_symmetry_space_group_name_H-M "P C C A"
_symmetry_group_IT_number 54
_symmetry_cell_setting 'orthorhombic'
loop_
_space_group_symop_operation_xyz
x,y,z
1/2-x,-y,z
1/2+x,-y,1/2-z
-x,y,1/2-z
-x,-y,-z
1/2+x,y,-z
1/2-x,y,1/2+z
x,-y,1/2+z
loop_
_atom_site_type_symbol
_atom_site_label
_atom_site_fract_x
_atom_site_fract_y
_atom_site_fract_z
Si Si1 0.750000 0.500000 0.946306
Si Si2 0.883545 0.033803 0.504317
Si Si3 0.094596 0.715985 0.671172
Si Si4 0.799659 0.890459 0.536855
Si Si5 0.286736 0.200467 0.209690
Si Si6 0.596082 0.325711 0.158011
Si Si7 0.297010 0.405281 0.807660
Si Si8 0.000000 0.029573 0.750000
O O1 0.686744 0.547469 0.052599
O O2 0.805669 0.549595 0.836936
O O3 0.791992 0.075673 0.457887
O O4 0.934044 0.071365 0.638898
O O5 0.858721 0.958736 0.568942
O O6 0.942907 0.016574 0.363249
O O7 0.189689 0.762725 0.648410
O O8 0.072521 0.685447 0.512170
O O9 0.132913 0.658204 0.783148
O O10 0.000000 0.747610 0.750000
O O11 0.841608 0.838814 0.419626
O O12 0.758291 0.849874 0.671348
O O13 0.357158 0.255884 0.279840
O O14 0.500000 0.342992 0.250000
O O15 0.685748 0.378687 0.176845
#
# Coordination Sequence:
#
# PCOD9421907 Si02
#       8
#     4   8   8   8   8   8   8   4
#     4  10  20  40  70 104 128 180 208 264 310 374
#     4  10  22  40  64  84 126 158 202 250 342 394
#     4  11  25  44  66  95 129 179 216 266 322 374
#     4  11  22  43  62  87 118 171 202 264 324 401
#     4  11  24  44  64  92 128 165 224 272 320 377
#     4  11  25  44  66  95 129 179 216 266 322 374
#     4  10  22  43  70  93 142 168 218 258 318 370
#     4  10  20  40  56  94 112 156 196 254 304 406
#
# _framework density 22.346243000000001
#
# number of rings (size 3 to 8) (size 9 to 14) (size 15 to 20)
#    0.000    1.429    2.857    1.714    4.000    2.286 
#   15.429    4.286    0.000    0.000    0.000    0.000 
#    0.000    0.000    0.000    0.000    0.000    0.000 
#
# Total GULP energy -312512.325256 kJ/mol
# GULP energy per Si atom -5580.577237 kJ/mol
# Density = 2.229538 g / cm^3
# Si number density = 22.346243 Si / 1000 Ang^3
#
#
#
# Elastic Constant Matrix: (Units=GPa)
#
#
# Indices 1 2 3 4 5 6 
#
# 1 72.9122 -6.5759 14.8435 0.0000 0.0000 0.0000
# 2 -6.5759 58.9112 6.9681 0.0000 0.0000 0.0000
# 3 14.8435 6.9681 111.2534 0.0000 0.0000 0.0000
# 4 0.0000 0.0000 0.0000 34.1512 0.0000 0.0000
# 5 0.0000 0.0000 0.0000 0.0000 26.9229 0.0000
# 6 0.0000 0.0000 0.0000 0.0000 0.0000 5.8676
#
#
#
# Elastic Compliance Matrix: (Units=1/GPa)
#
#
# Indices 1 2 3 4 5 6 
#
# 1 0.014292 0.001834 -0.002022 0.000000 0.000000 0.000000
# 2 0.001834 0.017337 -0.001331 0.000000 0.000000 0.000000
# 3 -0.002022 -0.001331 0.009342 0.000000 0.000000 0.000000
# 4 0.000000 0.000000 0.000000 0.029282 0.000000 0.000000
# 5 0.000000 0.000000 0.000000 0.000000 0.037143 0.000000
# 6 0.000000 0.000000 0.000000 0.000000 0.000000 0.170428
#
#
# Mechanical properties :
#
#
# Convention : Reuss Voigt Hill
#
# Bulk Modulus (GPa) = 26.36100 30.39424 28.37762
# Shear Modulus (GPa) = 17.03553 28.57776 22.80665
#
# Velocity S-wave (km/s) = 2.76405 3.58000 3.19815
# Velocity P-wave (km/s) = 4.69136 5.54252 5.13461
#
# Compressibility (1/GPa) = 0.03793482
#
# Stress axis : x y z
#
# Youngs Moduli (GPa) = 69.96841 57.68057 107.04838
#
# Poissons Ratio (x) = -0.10581 0.21643
# Poissons Ratio (y) = -0.12836 0.14244
# Poissons Ratio (z) = 0.14146 0.07675
#
# Static dielectric constant tensor:
#      x y z
#    x 1.881310 0.000000 0.000000 
#    y 0.000000 1.845400 0.000000 
#    z 0.000000 0.000000 1.818260 
# 
# From -- ./inp_files/3726.got.cif
#   From: 2010.05.17/outbox.cif.g08.bks.cpg/sg54_2_cif.got.tgz:3726.got - 2010.06.03 13:09:01.
