data_PCOD9421776
_publ_section_title
;
Structure prediction by ZEFSAII (Michael W. Deem and Ramdas Pophale) SiO2 
 PCOD9421776
Probable space group: P C C A
;
_chemical_formula_sum "Si O2"
_cell_formula_units_Z 28
_cell_length_a 9.487109
_cell_length_b 8.972710
_cell_length_c 13.208834
_cell_angle_alpha 90.000000
_cell_angle_beta 90.000000
_cell_angle_gamma 90.000000
_cell_volume 1124.403022
_symmetry_space_group_name_H-M "P C C A"
_symmetry_group_IT_number 54
_symmetry_cell_setting 'orthorhombic'
loop_
_space_group_symop_operation_xyz
x,y,z
1/2-x,-y,z
1/2+x,-y,1/2-z
-x,y,1/2-z
-x,-y,-z
1/2+x,y,-z
1/2-x,y,1/2+z
x,-y,1/2+z
loop_
_atom_site_type_symbol
_atom_site_label
_atom_site_fract_x
_atom_site_fract_y
_atom_site_fract_z
Si Si1 0.656551 0.130137 0.554251
Si Si2 0.422305 0.321682 0.431806
Si Si3 0.000000 0.150101 0.250000
Si Si4 0.609459 0.561984 0.350583
O O1 0.547383 0.211788 0.477309
O O2 0.778061 0.239414 0.596864
O O3 0.576015 0.070417 0.655677
O O4 0.750000 0.000000 0.503488
O O5 0.484693 0.439987 0.352616
O O6 0.375693 0.412700 0.530166
O O7 0.905961 0.272483 0.307876
O O8 0.750000 0.500000 0.304874
#
# Coordination Sequence:
#
# PCOD9421776 Si02
#       4
#     8   8   4   8
#     4  11  23  45  63  92 129 170 214 253 307 384
#     4  10  21  39  69  91 119 164 214 265 306 361
#     4  10  26  38  60  94 132 162 202 260 326 378
#     4  10  20  38  62  95 126 154 211 265 320 364
#
# _framework density 24.902103
#
# number of rings (size 3 to 8) (size 9 to 14) (size 15 to 20)
#    0.000    1.714    2.857    0.857    4.000    0.000 
#    5.143    2.857    0.000    0.000    0.000    0.000 
#    0.000    0.000    0.000    0.000    0.000    0.000 
#
# Total GULP energy -156029.087462 kJ/mol
# GULP energy per Si atom -5572.467409 kJ/mol
# Density = 2.484542 g / cm^3
# Si number density = 24.902103 Si / 1000 Ang^3
#
#
#
# Elastic Constant Matrix: (Units=GPa)
#
#
# Indices 1 2 3 4 5 6 
#
# 1 121.7653 29.2373 23.1444 0.0000 0.0000 0.0000
# 2 29.2373 49.4484 11.4974 0.0000 0.0000 0.0000
# 3 23.1444 11.4974 88.4723 0.0000 0.0000 0.0000
# 4 0.0000 0.0000 0.0000 40.5839 0.0000 0.0000
# 5 0.0000 0.0000 0.0000 0.0000 19.0793 0.0000
# 6 0.0000 0.0000 0.0000 0.0000 0.0000 59.9327
#
#
#
# Elastic Compliance Matrix: (Units=1/GPa)
#
#
# Indices 1 2 3 4 5 6 
#
# 1 0.009865 -0.005396 -0.001880 0.000000 0.000000 0.000000
# 2 -0.005396 0.023805 -0.001682 0.000000 0.000000 0.000000
# 3 -0.001880 -0.001682 0.012013 0.000000 0.000000 0.000000
# 4 0.000000 0.000000 0.000000 0.024640 0.000000 0.000000
# 5 0.000000 0.000000 0.000000 0.000000 0.052413 0.000000
# 6 0.000000 0.000000 0.000000 0.000000 0.000000 0.016685
#
#
# Mechanical properties :
#
#
# Convention : Reuss Voigt Hill
#
# Bulk Modulus (GPa) = 36.01234 43.04935 39.53084
# Shear Modulus (GPa) = 30.01323 36.97297 33.49310
#
# Velocity S-wave (km/s) = 3.47544 3.85740 3.67139
# Velocity P-wave (km/s) = 5.53153 6.09626 5.82075
#
# Compressibility (1/GPa) = 0.02776826
#
# Stress axis : x y z
#
# Youngs Moduli (GPa) = 101.36388 42.00843 83.24150
#
# Poissons Ratio (x) = 0.22668 0.15646
# Poissons Ratio (y) = 0.54697 0.14001
# Poissons Ratio (z) = 0.19052 0.07065
#
# Static dielectric constant tensor:
#      x y z
#    x 2.048800 0.000000 0.000000 
#    y 0.000000 2.019500 0.000000 
#    z 0.000000 0.000000 1.719830 
# 
# From -- ./inp_files/11170.got.cif
#   From: 2010.05.17/outbox.cif.g08.bks.cpg/sg54_6_cif.got.tgz:11170.got - 2010.06.03 13:09:01.
