data_PCOD9421106
_publ_section_title
;
Structure prediction by ZEFSAII (Michael W. Deem and Ramdas Pophale) SiO2 
 PCOD9421106
Probable space group: P C C A
;
_chemical_formula_sum "Si O2"
_cell_formula_units_Z 32
_cell_length_a 5.408023
_cell_length_b 17.451127
_cell_length_c 14.976237
_cell_angle_alpha 90.000000
_cell_angle_beta 90.000000
_cell_angle_gamma 90.000000
_cell_volume 1413.398784
_symmetry_space_group_name_H-M "P C C A"
_symmetry_group_IT_number 54
_symmetry_cell_setting 'orthorhombic'
loop_
_space_group_symop_operation_xyz
x,y,z
1/2-x,-y,z
1/2+x,-y,1/2-z
-x,y,1/2-z
-x,-y,-z
1/2+x,y,-z
1/2-x,y,1/2+z
x,-y,1/2+z
loop_
_atom_site_type_symbol
_atom_site_label
_atom_site_fract_x
_atom_site_fract_y
_atom_site_fract_z
Si Si1 0.250040 0.332501 0.694357
Si Si2 0.750000 0.500000 0.309390
Si Si3 0.145942 0.723039 0.520755
Si Si4 0.000000 0.048833 0.750000
Si Si5 0.597300 0.105858 0.049398
O O1 0.500000 0.332185 0.750000
O O2 0.239204 0.416279 0.646208
O O3 0.281301 0.266140 0.622929
O O4 0.000000 0.323545 0.750000
O O5 0.500000 0.501138 0.250000
O O6 0.382179 0.681974 0.478824
O O7 0.114387 0.802719 0.469653
O O8 0.053593 0.090982 0.845341
O O9 0.250000 0.000000 0.734403
O O10 0.363291 0.078080 0.989415
#
# Coordination Sequence:
#
# PCOD9421106 Si02
#       5
#     8   4   8   4   8
#     4  10  19  35  59  89 120 171 222 266 323 388
#     4   8  16  30  52  82 122 160 214 274 318 370
#     4  10  21  40  57  87 130 164 207 265 324 369
#     4  12  26  44  74 104 126 176 222 252 330 400
#     4  10  23  45  65  97 136 170 210 271 316 379
#
# _framework density 22.640460999999998
#
# number of rings (size 3 to 8) (size 9 to 14) (size 15 to 20)
#    0.000    2.000    0.000    3.000    0.000    3.000 
#   27.000    1.250    0.000    0.000    0.000    0.000 
#    0.000    0.000    0.000    0.000    0.000    0.000 
#
# Total GULP energy -178221.923797 kJ/mol
# GULP energy per Si atom -5569.435119 kJ/mol
# Density = 2.258893 g / cm^3
# Si number density = 22.640461 Si / 1000 Ang^3
#
#
#
# Elastic Constant Matrix: (Units=GPa)
#
#
# Indices 1 2 3 4 5 6 
#
# 1 235.7532 36.4704 66.4883 0.0000 0.0000 0.0000
# 2 36.4704 43.6946 61.1257 0.0000 0.0000 0.0000
# 3 66.4883 61.1257 165.2571 0.0000 0.0000 0.0000
# 4 0.0000 0.0000 0.0000 13.9886 0.0000 0.0000
# 5 0.0000 0.0000 0.0000 0.0000 41.5378 0.0000
# 6 0.0000 0.0000 0.0000 0.0000 0.0000 18.1417
#
#
#
# Elastic Compliance Matrix: (Units=1/GPa)
#
#
# Indices 1 2 3 4 5 6 
#
# 1 0.004943 -0.002784 -0.000959 0.000000 0.000000 0.000000
# 2 -0.002784 0.048995 -0.017002 0.000000 0.000000 0.000000
# 3 -0.000959 -0.017002 0.012726 0.000000 0.000000 0.000000
# 4 0.000000 0.000000 0.000000 0.071487 0.000000 0.000000
# 5 0.000000 0.000000 0.000000 0.000000 0.024074 0.000000
# 6 0.000000 0.000000 0.000000 0.000000 0.000000 0.055122
#
#
# Mechanical properties :
#
#
# Convention : Reuss Voigt Hill
#
# Bulk Modulus (GPa) = 39.72512 85.87488 62.80000
# Shear Modulus (GPa) = 18.71061 33.44164 26.07612
#
# Velocity S-wave (km/s) = 2.87788 3.84744 3.39742
# Velocity P-wave (km/s) = 5.35043 7.59929 6.57177
#
# Compressibility (1/GPa) = 0.02517299
#
# Stress axis : x y z
#
# Youngs Moduli (GPa) = 202.31210 20.41023 78.58091
#
# Poissons Ratio (x) = 0.05683 0.07534
# Poissons Ratio (y) = 0.56331 1.33605
# Poissons Ratio (z) = 0.19397 0.34702
#
# Static dielectric constant tensor:
#      x y z
#    x 2.006970 0.000000 0.000000 
#    y 0.000000 1.952010 0.000000 
#    z 0.000000 0.000000 1.866120 
# 
# From -- ./inp_files/6290.got.cif
#   From: 2010.05.17/outbox.cif.g08.bks.cpg/sg54_4_cif.got.tgz:6290.got - 2010.06.03 13:09:01.
