data_PCOD9421256
_publ_section_title
;
Structure prediction by ZEFSAII (Michael W. Deem and Ramdas Pophale) SiO2 
 PCOD9421256
Probable space group: P C C A
;
_chemical_formula_sum "Si O2"
_cell_formula_units_Z 40
_cell_length_a 9.885866
_cell_length_b 7.269397
_cell_length_c 22.837443
_cell_angle_alpha 90.000000
_cell_angle_beta 90.000000
_cell_angle_gamma 90.000000
_cell_volume 1641.196504
_symmetry_space_group_name_H-M "P C C A"
_symmetry_group_IT_number 54
_symmetry_cell_setting 'orthorhombic'
loop_
_space_group_symop_operation_xyz
x,y,z
1/2-x,-y,z
1/2+x,-y,1/2-z
-x,y,1/2-z
-x,-y,-z
1/2+x,y,-z
1/2-x,y,1/2+z
x,-y,1/2+z
loop_
_atom_site_type_symbol
_atom_site_label
_atom_site_fract_x
_atom_site_fract_y
_atom_site_fract_z
Si Si1 0.000000 0.763850 0.250000
Si Si2 0.990555 0.714098 0.122527
Si Si3 0.583022 0.145225 0.876823
Si Si4 0.699440 0.798760 0.095668
Si Si5 0.706891 0.693698 0.969766
Si Si6 0.750000 0.000000 0.274864
O O1 0.979962 0.659460 0.310722
O O2 0.132344 0.892857 0.258809
O O3 0.834401 0.685036 0.108068
O O4 0.086951 0.633857 0.073490
O O5 0.035920 0.931479 0.117131
O O6 0.441451 0.252487 0.873999
O O7 0.677261 0.209342 0.930559
O O8 0.673046 0.142354 0.818344
O O9 0.750000 0.000000 0.114893
O O10 0.666879 0.810959 0.026220
O O11 0.750000 0.500000 0.996091
#
# Coordination Sequence:
#
# PCOD9421256 Si02
#       6
#     4   8   8   8   8   4
#     4  10  20  34  64  92 122 144 194 246 304 354
#     4  10  21  39  60  93 120 154 196 251 302 359
#     4  10  19  39  56  89 118 150 193 246 306 349
#     4  10  22  35  61  87 122 155 197 246 306 357
#     4  12  23  38  59  85 123 166 204 244 296 354
#     4  10  20  34  62  92 118 146 192 250 300 360
#
# _framework density 24.372461999999999
#
# number of rings (size 3 to 8) (size 9 to 14) (size 15 to 20)
#    0.000    1.600    4.000    2.400    7.000    6.400 
#    0.000    0.000    0.000    8.400    0.000    0.000 
#    0.000    0.000    0.000    0.000    0.000    0.000 
#
# Total GULP energy -223539.930280 kJ/mol
# GULP energy per Si atom -5588.498257 kJ/mol
# Density = 2.431699 g / cm^3
# Si number density = 24.372462 Si / 1000 Ang^3
#
#
#
# Elastic Constant Matrix: (Units=GPa)
#
#
# Indices 1 2 3 4 5 6 
#
# 1 182.8846 6.7244 41.3647 0.0000 0.0000 0.0000
# 2 6.7244 39.7574 6.2623 0.0000 0.0000 0.0000
# 3 41.3647 6.2623 120.8059 0.0000 0.0000 0.0000
# 4 0.0000 0.0000 0.0000 35.9823 0.0000 0.0000
# 5 0.0000 0.0000 0.0000 0.0000 37.3449 0.0000
# 6 0.0000 0.0000 0.0000 0.0000 0.0000 15.4502
#
#
#
# Elastic Compliance Matrix: (Units=1/GPa)
#
#
# Indices 1 2 3 4 5 6 
#
# 1 0.005946 -0.000691 -0.002000 0.000000 0.000000 0.000000
# 2 -0.000691 0.025440 -0.001082 0.000000 0.000000 0.000000
# 3 -0.002000 -0.001082 0.009019 0.000000 0.000000 0.000000
# 4 0.000000 0.000000 0.000000 0.027791 0.000000 0.000000
# 5 0.000000 0.000000 0.000000 0.000000 0.026777 0.000000
# 6 0.000000 0.000000 0.000000 0.000000 0.000000 0.064724
#
#
# Mechanical properties :
#
#
# Convention : Reuss Voigt Hill
#
# Bulk Modulus (GPa) = 30.43367 50.23897 40.33632
# Shear Modulus (GPa) = 28.05902 37.02857 32.54379
#
# Velocity S-wave (km/s) = 3.39670 3.90202 3.65810
# Velocity P-wave (km/s) = 5.28180 6.39990 5.86755
#
# Compressibility (1/GPa) = 0.03285834
#
# Stress axis : x y z
#
# Youngs Moduli (GPa) = 168.18904 39.30844 110.88107
#
# Poissons Ratio (x) = 0.02715 0.22177
# Poissons Ratio (y) = 0.11615 0.12000
# Poissons Ratio (z) = 0.33639 0.04254
#
# Static dielectric constant tensor:
#      x y z
#    x 1.968840 0.000000 0.000000 
#    y 0.000000 1.983020 0.000000 
#    z 0.000000 0.000000 1.889710 
# 
# From -- ./inp_files/23295.got.cif
#   From: 2010.05.17/outbox.cif.g08.bks.cpg/sg54_12_cif.got.tgz:23295.got - 2010.06.03 13:09:01.
