data_PCOD9421108
_publ_section_title
;
Structure prediction by ZEFSAII (Michael W. Deem and Ramdas Pophale) SiO2 
 PCOD9421108
Probable space group: P C C A
;
_chemical_formula_sum "Si O2"
_cell_formula_units_Z 44
_cell_length_a 13.971461
_cell_length_b 5.242217
_cell_length_c 28.476422
_cell_angle_alpha 90.000000
_cell_angle_beta 90.000000
_cell_angle_gamma 90.000000
_cell_volume 2085.653879
_symmetry_space_group_name_H-M "P C C A"
_symmetry_group_IT_number 54
_symmetry_cell_setting 'orthorhombic'
loop_
_space_group_symop_operation_xyz
x,y,z
1/2-x,-y,z
1/2+x,-y,1/2-z
-x,y,1/2-z
-x,-y,-z
1/2+x,y,-z
1/2-x,y,1/2+z
x,-y,1/2+z
loop_
_atom_site_type_symbol
_atom_site_label
_atom_site_fract_x
_atom_site_fract_y
_atom_site_fract_z
Si Si1 0.349287 0.947772 0.115879
Si Si2 0.460316 0.954871 0.447843
Si Si3 0.901551 0.554815 0.098695
Si Si4 0.000000 0.348499 0.750000
Si Si5 0.310515 0.737692 0.804361
Si Si6 0.594359 0.452673 0.341245
O O1 0.442671 0.949740 0.083512
O O2 0.340089 0.678537 0.141284
O O3 0.250000 0.000000 0.089449
O O4 0.364301 0.169601 0.154385
O O5 0.399125 0.705707 0.431749
O O6 0.500000 0.000000 0.500000
O O7 0.399404 0.203391 0.435044
O O8 0.837217 0.629427 0.143693
O O9 0.005585 0.543765 0.122929
O O10 0.911625 0.211792 0.722700
O O11 0.947458 0.507106 0.790238
O O12 0.250000 0.500000 0.782376
O O13 0.250000 0.000000 0.806552
#
# Coordination Sequence:
#
# PCOD9421108 Si02
#       6
#     8   8   8   4   8   8
#     4  10  20  35  54  81 114 148 189 237 292 359
#     4  10  19  35  60  85 112 154 197 243 308 370
#     4   9  19  37  56  80 115 152 194 243 301 373
#     4  10  24  42  62  92 126 156 210 274 306 360
#     4  11  24  41  63  90 125 172 218 263 323 385
#     4   9  20  35  56  77 109 153 184 231 303 351
#
# _framework density 21.096502999999998
#
# number of rings (size 3 to 8) (size 9 to 14) (size 15 to 20)
#    0.000    2.182    0.000    2.182    0.000    9.455 
#    0.000    2.727    0.000    2.182    0.000    0.000 
#    0.000    0.000    0.000    0.000    0.000    0.000 
#
# Total GULP energy -244998.235373 kJ/mol
# GULP energy per Si atom -5568.141713 kJ/mol
# Density = 2.104849 g / cm^3
# Si number density = 21.096503 Si / 1000 Ang^3
#
#
#
# Elastic Constant Matrix: (Units=GPa)
#
#
# Indices 1 2 3 4 5 6 
#
# 1 94.9592 52.7414 12.8840 0.0000 0.0000 0.0000
# 2 52.7414 174.5746 51.8514 0.0000 0.0000 0.0000
# 3 12.8840 51.8514 90.1643 0.0000 0.0000 0.0000
# 4 0.0000 0.0000 0.0000 12.3135 0.0000 0.0000
# 5 0.0000 0.0000 0.0000 0.0000 21.9751 0.0000
# 6 0.0000 0.0000 0.0000 0.0000 0.0000 13.6144
#
#
#
# Elastic Compliance Matrix: (Units=1/GPa)
#
#
# Indices 1 2 3 4 5 6 
#
# 1 0.012671 -0.003968 0.000471 0.000000 0.000000 0.000000
# 2 -0.003968 0.008151 -0.004120 0.000000 0.000000 0.000000
# 3 0.000471 -0.004120 0.013393 0.000000 0.000000 0.000000
# 4 0.000000 0.000000 0.000000 0.081212 0.000000 0.000000
# 5 0.000000 0.000000 0.000000 0.000000 0.045506 0.000000
# 6 0.000000 0.000000 0.000000 0.000000 0.000000 0.073452
#
#
# Mechanical properties :
#
#
# Convention : Reuss Voigt Hill
#
# Bulk Modulus (GPa) = 52.68551 66.07243 59.37897
# Shear Modulus (GPa) = 19.53544 25.72868 22.63206
#
# Velocity S-wave (km/s) = 3.04633 3.49602 3.27890
# Velocity P-wave (km/s) = 6.11566 6.90531 6.52245
#
# Compressibility (1/GPa) = 0.01898055
#
# Stress axis : x y z
#
# Youngs Moduli (GPa) = 78.92189 122.68737 74.66578
#
# Poissons Ratio (x) = 0.48682 -0.03519
# Poissons Ratio (y) = 0.31316 0.30765
# Poissons Ratio (z) = -0.03720 0.50551
#
# Static dielectric constant tensor:
#      x y z
#    x 1.845790 0.000000 0.000000 
#    y 0.000000 1.797740 0.000000 
#    z 0.000000 0.000000 1.812340 
# 
# From -- ./inp_files/26399.got.cif
#   From: 2010.05.17/outbox.cif.g08.bks.cpg/sg54_14_cif.got.tgz:26399.got - 2010.06.03 13:09:01.
