data_PCOD9421630
_publ_section_title
;
Structure prediction by ZEFSAII (Michael W. Deem and Ramdas Pophale) SiO2 
 PCOD9421630
Probable space group: P C C A
;
_chemical_formula_sum "Si O2"
_cell_formula_units_Z 60
_cell_length_a 29.105786
_cell_length_b 5.608985
_cell_length_c 18.130635
_cell_angle_alpha 90.000000
_cell_angle_beta 90.000000
_cell_angle_gamma 90.000000
_cell_volume 2959.897183
_symmetry_space_group_name_H-M "P C C A"
_symmetry_group_IT_number 54
_symmetry_cell_setting 'orthorhombic'
loop_
_space_group_symop_operation_xyz
x,y,z
1/2-x,-y,z
1/2+x,-y,1/2-z
-x,y,1/2-z
-x,-y,-z
1/2+x,y,-z
1/2-x,y,1/2+z
x,-y,1/2+z
loop_
_atom_site_type_symbol
_atom_site_label
_atom_site_fract_x
_atom_site_fract_y
_atom_site_fract_z
Si Si1 0.405037 0.525809 0.988241
Si Si2 0.750000 0.500000 0.038617
Si Si3 0.555150 0.283638 0.149746
Si Si4 0.799640 0.884395 0.962625
Si Si5 0.906247 0.792153 0.710944
Si Si6 0.111635 0.865538 0.618683
Si Si7 0.830551 0.201875 0.090129
Si Si8 0.971382 0.824308 0.446531
O O1 0.393178 0.638485 0.065694
O O2 0.451423 0.378525 0.000550
O O3 0.414572 0.720086 0.925304
O O4 0.366445 0.352975 0.958156
O O5 0.780962 0.330546 0.089872
O O6 0.786320 0.616330 0.982246
O O7 0.569341 0.538603 0.187503
O O8 0.503270 0.273795 0.119337
O O9 0.565570 0.035110 0.191423
O O10 0.836460 0.945465 0.900269
O O11 0.750000 0.000000 0.948891
O O12 0.820375 0.971618 0.040867
O O13 0.896861 0.798434 0.797497
O O14 0.857946 0.818391 0.666449
O O15 0.072636 0.045958 0.589645
O O16 0.000000 0.000000 0.500000
#
# Coordination Sequence:
#
# PCOD9421630 Si02
#       8
#     8   4   8   8   8   8   8   8
#     4  11  22  40  73  93 133 181 236 290 331 405
#     4  10  20  36  68 102 122 172 228 296 336 424
#     4  11  25  47  66  99 139 188 236 278 341 414
#     4  10  21  41  69 101 129 168 237 291 354 415
#     4  11  28  45  68  98 148 188 220 285 351 424
#     4  12  25  43  68 103 138 184 233 291 361 410
#     4  10  20  40  68  96 131 176 227 280 350 419
#     4  12  24  42  69 104 132 185 245 297 337 407
#
# _framework density 20.270976000000001
#
# number of rings (size 3 to 8) (size 9 to 14) (size 15 to 20)
#    0.000    1.067    4.000    2.800    5.600    0.533 
#    0.000    2.667    0.000    0.000    0.000    0.000 
#    0.000    0.000    0.000    0.000    0.000    0.000 
#
# Total GULP energy -334708.762144 kJ/mol
# GULP energy per Si atom -5578.479369 kJ/mol
# Density = 2.022484 g / cm^3
# Si number density = 20.270976 Si / 1000 Ang^3
#
#
#
# Elastic Constant Matrix: (Units=GPa)
#
#
# Indices 1 2 3 4 5 6 
#
# 1 122.5768 26.2797 31.7311 0.0000 0.0000 0.0000
# 2 26.2797 67.0705 36.8777 0.0000 0.0000 0.0000
# 3 31.7311 36.8777 126.3554 0.0000 0.0000 0.0000
# 4 0.0000 0.0000 0.0000 22.9877 0.0000 0.0000
# 5 0.0000 0.0000 0.0000 0.0000 10.4911 0.0000
# 6 0.0000 0.0000 0.0000 0.0000 0.0000 38.1989
#
#
#
# Elastic Compliance Matrix: (Units=1/GPa)
#
#
# Indices 1 2 3 4 5 6 
#
# 1 0.009135 -0.002761 -0.001488 0.000000 0.000000 0.000000
# 2 -0.002761 0.018594 -0.004733 0.000000 0.000000 0.000000
# 3 -0.001488 -0.004733 0.009669 0.000000 0.000000 0.000000
# 4 0.000000 0.000000 0.000000 0.043501 0.000000 0.000000
# 5 0.000000 0.000000 0.000000 0.000000 0.095319 0.000000
# 6 0.000000 0.000000 0.000000 0.000000 0.000000 0.026179
#
#
# Mechanical properties :
#
#
# Convention : Reuss Voigt Hill
#
# Bulk Modulus (GPa) = 51.45815 56.19774 53.82795
# Shear Modulus (GPa) = 22.04185 29.07650 25.55917
#
# Velocity S-wave (km/s) = 3.30109 3.79144 3.55473
# Velocity P-wave (km/s) = 6.32217 6.85202 6.59242
#
# Compressibility (1/GPa) = 0.01943327
#
# Stress axis : x y z
#
# Youngs Moduli (GPa) = 109.46443 53.78028 103.41890
#
# Poissons Ratio (x) = 0.14850 0.15392
# Poissons Ratio (y) = 0.30225 0.48953
# Poissons Ratio (z) = 0.16291 0.25457
#
# Static dielectric constant tensor:
#      x y z
#    x 1.747070 0.000000 0.000000 
#    y 0.000000 1.478810 0.000000 
#    z 0.000000 0.000000 1.684900 
# 
# From -- ./inp_files/19316.got.cif
#   From: 2010.05.17/outbox.cif.g08.bks.cpg/sg54_10_cif.got.tgz:19316.got - 2010.06.03 13:09:01.
