data_PCOD9421125
_publ_section_title
;
Structure prediction by ZEFSAII (Michael W. Deem and Ramdas Pophale) SiO2 
 PCOD9421125
Probable space group: P C C A
;
_chemical_formula_sum "Si O2"
_cell_formula_units_Z 60
_cell_length_a 19.280364
_cell_length_b 7.936098
_cell_length_c 16.904783
_cell_angle_alpha 90.000000
_cell_angle_beta 90.000000
_cell_angle_gamma 90.000000
_cell_volume 2586.615354
_symmetry_space_group_name_H-M "P C C A"
_symmetry_group_IT_number 54
_symmetry_cell_setting 'orthorhombic'
loop_
_space_group_symop_operation_xyz
x,y,z
1/2-x,-y,z
1/2+x,-y,1/2-z
-x,y,1/2-z
-x,-y,-z
1/2+x,y,-z
1/2-x,y,1/2+z
x,-y,1/2+z
loop_
_atom_site_type_symbol
_atom_site_label
_atom_site_fract_x
_atom_site_fract_y
_atom_site_fract_z
Si Si1 0.673283 0.503497 0.966886
Si Si2 0.663880 0.656654 0.134356
Si Si3 0.604917 0.993954 0.616606
Si Si4 0.557262 0.736992 0.497328
Si Si5 0.018998 0.451408 0.372205
Si Si6 0.785398 0.817576 0.222386
Si Si7 0.500000 0.943460 0.750000
Si Si8 0.402687 0.680328 0.664800
O O1 0.750000 0.500000 0.931588
O O2 0.680070 0.544140 0.059060
O O3 0.630631 0.329659 0.962883
O O4 0.626237 0.643206 0.922979
O O5 0.591982 0.585135 0.168337
O O6 0.724722 0.693260 0.194999
O O7 0.646671 0.839444 0.098130
O O8 0.566885 0.911379 0.542202
O O9 0.661905 0.861277 0.650349
O O10 0.554662 0.030844 0.691813
O O11 0.503970 0.708175 0.425764
O O12 0.534686 0.602935 0.565234
O O13 0.953398 0.518774 0.323882
O O14 0.834341 0.724262 0.285118
O O15 0.750000 0.000000 0.245397
O O16 0.454276 0.830712 0.689666
#
# Coordination Sequence:
#
# PCOD9421125 Si02
#       8
#     8   8   8   8   8   8   4   8
#     4  10  21  39  61  88 126 160 210 273 313 374
#     4  10  21  37  63  95 126 160 214 270 319 380
#     4  10  19  35  63  90 123 170 209 258 319 381
#     4   9  17  33  59  86 122 158 204 252 316 366
#     4   9  18  34  58  92 121 157 204 264 305 380
#     4   9  20  39  61  91 127 169 212 258 317 392
#     4  10  20  36  62  86 124 170 210 254 316 392
#     4  10  20  40  63  87 121 170 211 255 320 378
#
# _framework density 23.196335999999999
#
# number of rings (size 3 to 8) (size 9 to 14) (size 15 to 20)
#    0.000    2.400    1.333    1.600    0.000    0.533 
#    2.400    4.000   11.733    0.000    0.000    0.000 
#    0.000    0.000    0.000    0.000    0.000    0.000 
#
# Total GULP energy -334794.003324 kJ/mol
# GULP energy per Si atom -5579.900055 kJ/mol
# Density = 2.314354 g / cm^3
# Si number density = 23.196336 Si / 1000 Ang^3
#
#
#
# Elastic Constant Matrix: (Units=GPa)
#
#
# Indices 1 2 3 4 5 6 
#
# 1 168.4739 19.1759 47.5222 0.0000 0.0000 0.0000
# 2 19.1759 41.6746 11.8851 0.0000 0.0000 0.0000
# 3 47.5222 11.8851 44.3679 0.0000 0.0000 0.0000
# 4 0.0000 0.0000 0.0000 19.6724 0.0000 0.0000
# 5 0.0000 0.0000 0.0000 0.0000 33.3603 0.0000
# 6 0.0000 0.0000 0.0000 0.0000 0.0000 32.4010
#
#
#
# Elastic Compliance Matrix: (Units=1/GPa)
#
#
# Indices 1 2 3 4 5 6 
#
# 1 0.008584 -0.001438 -0.008809 0.000000 0.000000 0.000000
# 2 -0.001438 0.026221 -0.005484 0.000000 0.000000 0.000000
# 3 -0.008809 -0.005484 0.033444 0.000000 0.000000 0.000000
# 4 0.000000 0.000000 0.000000 0.050833 0.000000 0.000000
# 5 0.000000 0.000000 0.000000 0.000000 0.029976 0.000000
# 6 0.000000 0.000000 0.000000 0.000000 0.000000 0.030863
#
#
# Mechanical properties :
#
#
# Convention : Reuss Voigt Hill
#
# Bulk Modulus (GPa) = 27.18398 45.74254 36.46326
# Shear Modulus (GPa) = 22.35689 28.81561 25.58625
#
# Velocity S-wave (km/s) = 3.10790 3.52838 3.32479
# Velocity P-wave (km/s) = 4.96218 6.03007 5.52200
#
# Compressibility (1/GPa) = 0.03678637
#
# Stress axis : x y z
#
# Youngs Moduli (GPa) = 116.49375 38.13750 29.90113
#
# Poissons Ratio (x) = 0.05482 0.26341
# Poissons Ratio (y) = 0.16746 0.16399
# Poissons Ratio (z) = 1.02623 0.20916
#
# Static dielectric constant tensor:
#      x y z
#    x 1.914560 0.000000 0.000000 
#    y 0.000000 1.880160 0.000000 
#    z 0.000000 0.000000 1.860170 
# 
# From -- ./inp_files/18660.got.cif
#   From: 2010.05.17/outbox.cif.g08.bks.cpg/sg54_10_cif.got.tgz:18660.got - 2010.06.03 13:09:01.
