data_PCOD9421474
_publ_section_title
;
Structure prediction by ZEFSAII (Michael W. Deem and Ramdas Pophale) SiO2 
 PCOD9421474
Probable space group: P C C A
;
_chemical_formula_sum "Si O2"
_cell_formula_units_Z 56
_cell_length_a 17.150282
_cell_length_b 9.322718
_cell_length_c 16.784424
_cell_angle_alpha 90.000000
_cell_angle_beta 90.000000
_cell_angle_gamma 90.000000
_cell_volume 2683.615274
_symmetry_space_group_name_H-M "P C C A"
_symmetry_group_IT_number 54
_symmetry_cell_setting 'orthorhombic'
loop_
_space_group_symop_operation_xyz
x,y,z
1/2-x,-y,z
1/2+x,-y,1/2-z
-x,y,1/2-z
-x,-y,-z
1/2+x,y,-z
1/2-x,y,1/2+z
x,-y,1/2+z
loop_
_atom_site_type_symbol
_atom_site_label
_atom_site_fract_x
_atom_site_fract_y
_atom_site_fract_z
Si Si1 0.446241 0.288498 0.901017
Si Si2 0.446473 0.482808 0.180669
Si Si3 0.900267 0.770231 0.428565
Si Si4 0.044092 0.969231 0.674836
Si Si5 0.235520 0.674305 0.520895
Si Si6 0.766134 0.332403 0.151322
Si Si7 0.669048 0.735136 0.306636
O O1 0.495699 0.425814 0.874962
O O2 0.355722 0.305687 0.876687
O O3 0.485403 0.150814 0.859863
O O4 0.451725 0.268342 0.995173
O O5 0.500000 0.421560 0.250000
O O6 0.404522 0.358648 0.133801
O O7 0.385607 0.598834 0.214532
O O8 0.929325 0.914926 0.388840
O O9 0.812269 0.767334 0.459977
O O10 0.000000 0.036923 0.750000
O O11 0.119725 0.879405 0.701659
O O12 0.250000 0.500000 0.522101
O O13 0.215325 0.709276 0.427948
O O14 0.184614 0.709831 0.599047
O O15 0.750000 0.500000 0.162356
O O16 0.762167 0.264799 0.240409
#
# Coordination Sequence:
#
# PCOD9421474 Si02
#       7
#     8   8   8   8   8   8   8
#     4  10  20  40  61  90 122 165 203 259 323 369
#     4  11  20  35  61  96 118 159 207 258 317 376
#     4  11  23  36  61  91 127 157 210 264 304 380
#     4  11  22  41  63  89 125 169 208 255 325 389
#     4  10  21  38  61  92 122 158 207 261 319 369
#     4  10  20  35  63  93 119 158 211 256 310 379
#     4  11  20  39  64  87 127 166 205 256 320 373
#
# _framework density 20.867370999999999
#
# number of rings (size 3 to 8) (size 9 to 14) (size 15 to 20)
#    0.000    1.429    4.286    2.571    0.000    0.571 
#    0.000    0.000    3.143    1.714    0.000    0.000 
#    0.000    0.000    0.000    0.000    0.000    0.000 
#
# Total GULP energy -312331.290851 kJ/mol
# GULP energy per Si atom -5577.344479 kJ/mol
# Density = 2.081988 g / cm^3
# Si number density = 20.867371 Si / 1000 Ang^3
#
#
#
# Elastic Constant Matrix: (Units=GPa)
#
#
# Indices 1 2 3 4 5 6 
#
# 1 23.3764 4.8122 11.4420 0.0000 0.0000 0.0000
# 2 4.8122 63.2006 17.1240 0.0000 0.0000 0.0000
# 3 11.4420 17.1240 136.8394 0.0000 0.0000 0.0000
# 4 0.0000 0.0000 0.0000 1493.2717 0.0000 0.0000
# 5 0.0000 0.0000 0.0000 0.0000 33.7157 0.0000
# 6 0.0000 0.0000 0.0000 0.0000 0.0000 -69.0643
#
#
#
# Elastic Compliance Matrix: (Units=1/GPa)
#
#
# Indices 1 2 3 4 5 6 
#
# 1 0.044979 -0.002490 -0.003449 0.000000 0.000000 0.000000
# 2 -0.002490 0.016516 -0.001859 0.000000 0.000000 0.000000
# 3 -0.003449 -0.001859 0.007829 0.000000 0.000000 0.000000
# 4 0.000000 0.000000 0.000000 0.000670 0.000000 0.000000
# 5 0.000000 0.000000 0.000000 0.000000 0.029660 0.000000
# 6 0.000000 0.000000 0.000000 0.000000 0.000000 -0.014479
#
#
# Mechanical properties :
#
#
# Convention : Reuss Voigt Hill
#
# Bulk Modulus (GPa) = 18.61241 32.24143 25.42692
# Shear Modulus (GPa) = 42.13029 304.25384 173.19207
#
# Velocity S-wave (km/s) = 4.49815 12.08802 9.12013
# Velocity P-wave (km/s) = 5.99305 14.50211 11.09567
#
# Compressibility (1/GPa) = 0.05372758
#
# Stress axis : x y z
#
# Youngs Moduli (GPa) = 22.23250 60.54806 127.73286
#
# Poissons Ratio (x) = 0.15078 0.44060
# Poissons Ratio (y) = 0.05536 0.23740
# Poissons Ratio (z) = 0.07669 0.11253
#
# Static dielectric constant tensor:
#      x y z
#    x 1.809130 0.000000 0.000000 
#    y 0.000000 1.686950 0.000000 
#    z 0.000000 0.000000 1.855930 
# 
# From -- ./inp_files/14683.got.cif
#   From: 2010.05.17/outbox.cif.g08.bks.cpg/sg54_8_cif.got.tgz:14683.got - 2010.06.03 13:09:01.
