data_PCOD9421619
_publ_section_title
;
Structure prediction by ZEFSAII (Michael W. Deem and Ramdas Pophale) SiO2 
 PCOD9421619
Probable space group: P C C A
;
_chemical_formula_sum "Si O2"
_cell_formula_units_Z 40
_cell_length_a 11.292007
_cell_length_b 7.865715
_cell_length_c 17.122089
_cell_angle_alpha 90.000000
_cell_angle_beta 90.000000
_cell_angle_gamma 90.000000
_cell_volume 1520.778960
_symmetry_space_group_name_H-M "P C C A"
_symmetry_group_IT_number 54
_symmetry_cell_setting 'orthorhombic'
loop_
_space_group_symop_operation_xyz
x,y,z
1/2-x,-y,z
1/2+x,-y,1/2-z
-x,y,1/2-z
-x,-y,-z
1/2+x,y,-z
1/2-x,y,1/2+z
x,-y,1/2+z
loop_
_atom_site_type_symbol
_atom_site_label
_atom_site_fract_x
_atom_site_fract_y
_atom_site_fract_z
Si Si1 0.882506 0.584284 0.714731
Si Si2 0.607055 0.849672 0.087120
Si Si3 0.463557 0.825961 0.594909
Si Si4 0.323818 0.674940 0.962539
Si Si5 0.718551 0.299127 0.862398
O O1 0.750000 0.500000 0.702148
O O2 0.922608 0.685009 0.638450
O O3 0.852557 0.721669 0.783050
O O4 0.000000 0.488997 0.750000
O O5 0.537429 0.010502 0.120267
O O6 0.575770 0.845557 0.995383
O O7 0.748301 0.819879 0.080730
O O8 0.554654 0.668425 0.585520
O O9 0.343721 0.796311 0.640924
O O10 0.250000 0.500000 0.966326
O O11 0.339461 0.734345 0.052794
O O12 0.750000 0.500000 0.864381
#
# Coordination Sequence:
#
# PCOD9421619 Si02
#       5
#     8   8   8   8   8
#     4  11  24  44  70 102 140 182 231 287 350 417
#     4  10  22  39  65  95 131 178 224 281 344 411
#     4  10  21  41  64  94 133 174 227 282 341 409
#     4  10  20  36  64  98 130 171 226 283 337 402
#     4   9  21  38  65  98 130 174 223 281 343 405
#
# _framework density 26.302311
#
# number of rings (size 3 to 8) (size 9 to 14) (size 15 to 20)
#    0.000    2.000    0.000    2.400    0.000   14.400 
#    0.000    7.000    0.000    0.000    0.000    0.000 
#    0.000    0.000    0.000    0.000    0.000    0.000 
#
# Total GULP energy -223298.124292 kJ/mol
# GULP energy per Si atom -5582.453107 kJ/mol
# Density = 2.624245 g / cm^3
# Si number density = 26.302311 Si / 1000 Ang^3
#
#
#
# Elastic Constant Matrix: (Units=GPa)
#
#
# Indices 1 2 3 4 5 6 
#
# 1 143.8232 35.4473 14.8403 0.0000 0.0000 0.0000
# 2 35.4473 95.1746 22.2249 0.0000 0.0000 0.0000
# 3 14.8403 22.2249 63.7014 0.0000 0.0000 0.0000
# 4 0.0000 0.0000 0.0000 -75.2927 0.0000 0.0000
# 5 0.0000 0.0000 0.0000 0.0000 13.7383 0.0000
# 6 0.0000 0.0000 0.0000 0.0000 0.0000 38.3348
#
#
#
# Elastic Compliance Matrix: (Units=1/GPa)
#
#
# Indices 1 2 3 4 5 6 
#
# 1 0.007699 -0.002666 -0.000864 0.000000 0.000000 0.000000
# 2 -0.002666 0.012362 -0.003692 0.000000 0.000000 0.000000
# 3 -0.000864 -0.003692 0.017188 0.000000 0.000000 0.000000
# 4 0.000000 0.000000 0.000000 -0.013282 0.000000 0.000000
# 5 0.000000 0.000000 0.000000 0.000000 0.072789 0.000000
# 6 0.000000 0.000000 0.000000 0.000000 0.000000 0.026086
#
#
# Mechanical properties :
#
#
# Convention : Reuss Voigt Hill
#
# Bulk Modulus (GPa) = 43.84819 49.74715 46.79767
# Shear Modulus (GPa) = 34.50967 10.70187 22.60577
#
# Velocity S-wave (km/s) = 3.62614 2.01931 2.93483
# Velocity P-wave (km/s) = 5.85140 4.93877 5.41435
#
# Compressibility (1/GPa) = 0.02280596
#
# Stress axis : x y z
#
# Youngs Moduli (GPa) = 129.88492 80.89289 58.18174
#
# Poissons Ratio (x) = 0.21565 0.05024
# Poissons Ratio (y) = 0.34625 0.21480
# Poissons Ratio (z) = 0.11216 0.29865
#
# Static dielectric constant tensor:
#      x y z
#    x 2.249430 0.000000 0.000000 
#    y 0.000000 2.146410 0.000000 
#    z 0.000000 0.000000 2.104610 
# 
# From -- ./inp_files/17070.got.cif
#   From: 2010.05.17/outbox.cif.g08.bks.cpg/sg54_9_cif.got.tgz:17070.got - 2010.06.03 13:09:01.
