data_PCOD9421610
_publ_section_title
;
Structure prediction by ZEFSAII (Michael W. Deem and Ramdas Pophale) SiO2 
 PCOD9421610
Probable space group: P C C A
;
_chemical_formula_sum "Si O2"
_cell_formula_units_Z 44
_cell_length_a 13.005725
_cell_length_b 16.816801
_cell_length_c 9.741106
_cell_angle_alpha 90.000000
_cell_angle_beta 90.000000
_cell_angle_gamma 90.000000
_cell_volume 2130.522971
_symmetry_space_group_name_H-M "P C C A"
_symmetry_group_IT_number 54
_symmetry_cell_setting 'orthorhombic'
loop_
_space_group_symop_operation_xyz
x,y,z
1/2-x,-y,z
1/2+x,-y,1/2-z
-x,y,1/2-z
-x,-y,-z
1/2+x,y,-z
1/2-x,y,1/2+z
x,-y,1/2+z
loop_
_atom_site_type_symbol
_atom_site_label
_atom_site_fract_x
_atom_site_fract_y
_atom_site_fract_z
Si Si1 0.597819 0.867048 0.452373
Si Si2 0.732076 0.624002 0.350947
Si Si3 0.373599 0.854929 0.360777
Si Si4 0.750000 0.000000 0.545845
Si Si5 0.789261 0.734730 0.096232
Si Si6 0.425214 0.485833 0.129846
O O1 0.476432 0.877779 0.441040
O O2 0.618116 0.831991 0.299440
O O3 0.628694 0.805995 0.573776
O O4 0.664525 0.947475 0.466151
O O5 0.770790 0.684534 0.233707
O O6 0.688799 0.672416 0.478339
O O7 0.832940 0.575449 0.399435
O O8 0.639814 0.562709 0.314864
O O9 0.306097 0.933843 0.365168
O O10 0.316478 0.782271 0.433451
O O11 0.500000 0.456590 0.250000
O O12 0.500000 0.500000 0.000000
#
# Coordination Sequence:
#
# PCOD9421610 Si02
#       6
#     8   8   8   4   8   8
#     4  10  21  38  60  90 123 167 211 258 319 384
#     4  11  24  42  65  94 130 165 214 267 316 384
#     4  10  21  38  60  90 124 164 214 256 320 385
#     4  10  20  36  64  86 126 162 212 268 314 372
#     4  11  22  40  63  90 129 165 206 265 321 373
#     4  11  24  43  66  95 126 168 214 261 320 380
#
# _framework density 20.652206
#
# number of rings (size 3 to 8) (size 9 to 14) (size 15 to 20)
#    0.000    1.455    1.818    3.273    0.000    7.273 
#    0.000    0.000    0.000    0.000    0.000    0.000 
#    0.000    0.000    0.000    0.000    0.000    0.000 
#
# Total GULP energy -245122.177186 kJ/mol
# GULP energy per Si atom -5570.958572 kJ/mol
# Density = 2.060520 g / cm^3
# Si number density = 20.652206 Si / 1000 Ang^3
#
#
#
# Elastic Constant Matrix: (Units=GPa)
#
#
# Indices 1 2 3 4 5 6 
#
# 1 98.7768 25.6781 0.1885 0.0000 0.0000 0.0000
# 2 25.6781 79.2470 -0.7455 0.0000 0.0000 0.0000
# 3 0.1885 -0.7455 45.9284 0.0000 0.0000 0.0000
# 4 0.0000 0.0000 0.0000 34.1747 0.0000 0.0000
# 5 0.0000 0.0000 0.0000 0.0000 26.8137 0.0000
# 6 0.0000 0.0000 0.0000 0.0000 0.0000 20.3407
#
#
#
# Elastic Compliance Matrix: (Units=1/GPa)
#
#
# Indices 1 2 3 4 5 6 
#
# 1 0.011056 -0.003583 -0.000104 0.000000 0.000000 0.000000
# 2 -0.003583 0.013782 0.000238 0.000000 0.000000 0.000000
# 3 -0.000104 0.000238 0.021777 0.000000 0.000000 0.000000
# 4 0.000000 0.000000 0.000000 0.029261 0.000000 0.000000
# 5 0.000000 0.000000 0.000000 0.000000 0.037294 0.000000
# 6 0.000000 0.000000 0.000000 0.000000 0.000000 0.049162
#
#
# Mechanical properties :
#
#
# Convention : Reuss Voigt Hill
#
# Bulk Modulus (GPa) = 25.17740 30.46607 27.82173
# Shear Modulus (GPa) = 27.40186 29.52122 28.46154
#
# Velocity S-wave (km/s) = 3.64651 3.78490 3.71635
# Velocity P-wave (km/s) = 5.47239 5.82105 5.64941
#
# Compressibility (1/GPa) = 0.03971816
#
# Stress axis : x y z
#
# Youngs Moduli (GPa) = 90.45240 72.55791 45.91932
#
# Poissons Ratio (x) = 0.25999 0.00475
# Poissons Ratio (y) = 0.32411 -0.01095
# Poissons Ratio (z) = 0.00937 -0.01730
#
# Static dielectric constant tensor:
#      x y z
#    x 1.750220 0.000000 0.000000 
#    y 0.000000 1.768170 0.000000 
#    z 0.000000 0.000000 1.738060 
# 
# From -- ./inp_files/3534.got.cif
#   From: 2010.05.17/outbox.cif.g08.bks.cpg/sg54_2_cif.got.tgz:3534.got - 2010.06.03 13:09:01.
