data_PCOD9421111
_publ_section_title
;
Structure prediction by ZEFSAII (Michael W. Deem and Ramdas Pophale) SiO2 
 PCOD9421111
Probable space group: P C C A
;
_chemical_formula_sum "Si O2"
_cell_formula_units_Z 64
_cell_length_a 9.053897
_cell_length_b 16.612228
_cell_length_c 21.967927
_cell_angle_alpha 90.000000
_cell_angle_beta 90.000000
_cell_angle_gamma 90.000000
_cell_volume 3304.094875
_symmetry_space_group_name_H-M "P C C A"
_symmetry_group_IT_number 54
_symmetry_cell_setting 'orthorhombic'
loop_
_space_group_symop_operation_xyz
x,y,z
1/2-x,-y,z
1/2+x,-y,1/2-z
-x,y,1/2-z
-x,-y,-z
1/2+x,y,-z
1/2-x,y,1/2+z
x,-y,1/2+z
loop_
_atom_site_type_symbol
_atom_site_label
_atom_site_fract_x
_atom_site_fract_y
_atom_site_fract_z
Si Si1 0.840259 0.749058 0.637804
Si Si2 0.108388 0.947365 0.043867
Si Si3 0.722139 0.775754 0.994732
Si Si4 0.072574 0.139446 0.183319
Si Si5 0.340925 0.151812 0.261808
Si Si6 0.476101 0.335735 0.496171
Si Si7 0.409155 0.980141 0.855984
Si Si8 0.286459 0.590823 0.415537
O O1 0.794415 0.768974 0.568360
O O2 0.743564 0.796343 0.687303
O O3 0.813678 0.653536 0.639287
O O4 0.004443 0.782391 0.651048
O O5 0.003853 0.924567 0.100189
O O6 0.250000 0.000000 0.061641
O O7 0.179347 0.866199 0.018788
O O8 0.000000 0.000000 0.000000
O O9 0.880116 0.739064 0.976897
O O10 0.606548 0.713909 0.963901
O O11 0.244347 0.141807 0.200630
O O12 0.000000 0.135427 0.250000
O O13 0.005876 0.060743 0.151025
O O14 0.500000 0.188519 0.250000
O O15 0.371028 0.065164 0.293466
O O16 0.357193 0.381780 0.455189
O O17 0.566679 0.393673 0.542312
O O18 0.250000 0.000000 0.884518
O O19 0.250000 0.500000 0.398107
#
# Coordination Sequence:
#
# PCOD9421111 Si02
#       8
#     8   8   8   8   8   8   8   8
#     4   9  20  38  60  84 113 152 188 234 306 355
#     4  12  27  37  54  83 122 168 210 242 294 362
#     4  10  20  38  55  79 122 162 196 235 281 354
#     4  10  20  39  60  80 110 148 201 256 307 354
#     4  11  25  39  63  81 110 145 203 266 302 347
#     4   8  18  33  58  80 115 156 194 230 276 341
#     4  12  24  39  59  81 115 157 205 260 308 339
#     4  10  19  35  60  90 120 151 190 232 290 359
#
# _framework density 19.369903999999998
#
# number of rings (size 3 to 8) (size 9 to 14) (size 15 to 20)
#    0.000    2.000    2.500    2.625    7.000    1.000 
#    0.000    0.000    0.000    2.250    0.000    0.000 
#    0.000    0.000    0.000    0.000    0.000    0.000 
#
# Total GULP energy -356669.167227 kJ/mol
# GULP energy per Si atom -5572.955738 kJ/mol
# Density = 1.932582 g / cm^3
# Si number density = 19.369904 Si / 1000 Ang^3
#
#
#
# Elastic Constant Matrix: (Units=GPa)
#
#
# Indices 1 2 3 4 5 6 
#
# 1 122.1679 29.7359 30.5685 0.0000 0.0000 0.0000
# 2 29.7359 129.9313 20.4866 0.0000 0.0000 0.0000
# 3 30.5685 20.4866 37.3478 0.0000 0.0000 0.0000
# 4 0.0000 0.0000 0.0000 15.4407 0.0000 0.0000
# 5 0.0000 0.0000 0.0000 0.0000 31.7212 0.0000
# 6 0.0000 0.0000 0.0000 0.0000 0.0000 23.4886
#
#
#
# Elastic Compliance Matrix: (Units=1/GPa)
#
#
# Indices 1 2 3 4 5 6 
#
# 1 0.010446 -0.001141 -0.007924 0.000000 0.000000 0.000000
# 2 -0.001141 0.008550 -0.003756 0.000000 0.000000 0.000000
# 3 -0.007924 -0.003756 0.035321 0.000000 0.000000 0.000000
# 4 0.000000 0.000000 0.000000 0.064764 0.000000 0.000000
# 5 0.000000 0.000000 0.000000 0.000000 0.031525 0.000000
# 6 0.000000 0.000000 0.000000 0.000000 0.000000 0.042574
#
#
# Mechanical properties :
#
#
# Convention : Reuss Voigt Hill
#
# Bulk Modulus (GPa) = 34.87351 50.11435 42.49393
# Shear Modulus (GPa) = 21.89346 28.04051 24.96699
#
# Velocity S-wave (km/s) = 3.36561 3.80890 3.59410
# Velocity P-wave (km/s) = 5.75727 6.72846 6.26172
#
# Compressibility (1/GPa) = 0.02867506
#
# Stress axis : x y z
#
# Youngs Moduli (GPa) = 95.73131 116.96260 28.31183
#
# Poissons Ratio (x) = 0.13349 0.22434
# Poissons Ratio (y) = 0.10926 0.10633
# Poissons Ratio (z) = 0.75855 0.43928
#
# Static dielectric constant tensor:
#      x y z
#    x 1.776590 0.000000 0.000000 
#    y 0.000000 1.727750 0.000000 
#    z 0.000000 0.000000 1.718750 
# 
# From -- ./inp_files/23658.got.cif
#   From: 2010.05.17/outbox.cif.g08.bks.cpg/sg54_12_cif.got.tgz:23658.got - 2010.06.03 13:09:01.
