data_PCOD9421053
_publ_section_title
;
Structure prediction by ZEFSAII (Michael W. Deem and Ramdas Pophale) SiO2 
 PCOD9421053
Probable space group: P C C A
;
_chemical_formula_sum "Si O2"
_cell_formula_units_Z 32
_cell_length_a 5.276203
_cell_length_b 8.802293
_cell_length_c 34.470360
_cell_angle_alpha 90.000000
_cell_angle_beta 90.000000
_cell_angle_gamma 90.000000
_cell_volume 1600.896062
_symmetry_space_group_name_H-M "P C C A"
_symmetry_group_IT_number 54
_symmetry_cell_setting 'orthorhombic'
loop_
_space_group_symop_operation_xyz
x,y,z
1/2-x,-y,z
1/2+x,-y,1/2-z
-x,y,1/2-z
-x,-y,-z
1/2+x,y,-z
1/2-x,y,1/2+z
x,-y,1/2+z
loop_
_atom_site_type_symbol
_atom_site_label
_atom_site_fract_x
_atom_site_fract_y
_atom_site_fract_z
Si Si1 0.715345 0.679098 0.640111
Si Si2 0.440280 0.172970 0.514760
Si Si3 0.248407 0.819308 0.275329
Si Si4 0.214208 0.174886 0.103962
O O1 0.750000 0.500000 0.636011
O O2 0.723799 0.726648 0.685148
O O3 0.456517 0.733981 0.619614
O O4 0.955437 0.761634 0.621203
O O5 0.721037 0.243222 0.512257
O O6 0.324470 0.177261 0.557560
O O7 0.500000 0.000000 0.500000
O O8 0.500000 0.786053 0.250000
O O9 0.000000 0.789185 0.250000
O O10 0.250000 0.000000 0.284664
O O11 0.250000 0.000000 0.115870
#
# Coordination Sequence:
#
# PCOD9421053 Si02
#       4
#     8   8   8   8
#     4  12  27  43  62  97 143 177 212 261 332 406
#     4  10  19  34  61  99 122 150 212 292 320 369
#     4  10  21  40  67  95 126 164 218 276 317 368
#     4  12  23  40  70  97 126 170 224 279 323 377
#
# _framework density 19.988804999999999
#
# number of rings (size 3 to 8) (size 9 to 14) (size 15 to 20)
#    0.000    1.000    2.500    6.000    3.500    3.000 
#    0.000    0.000    0.000   15.000    0.000    0.000 
#    0.000    0.000    0.000    0.000    0.000    0.000 
#
# Total GULP energy -178776.328952 kJ/mol
# GULP energy per Si atom -5586.760280 kJ/mol
# Density = 1.994331 g / cm^3
# Si number density = 19.988805 Si / 1000 Ang^3
#
#
#
# Elastic Constant Matrix: (Units=GPa)
#
#
# Indices 1 2 3 4 5 6 
#
# 1 -215.0136 -383.7098 -174.6331 0.0000 0.0000 0.0000
# 2 -383.7098 -361.5991 -188.3732 0.0000 0.0000 0.0000
# 3 -174.6331 -188.3732 -18.0821 0.0000 0.0000 0.0000
# 4 0.0000 0.0000 0.0000 -64.7986 0.0000 0.0000
# 5 0.0000 0.0000 0.0000 0.0000 28.3954 0.0000
# 6 0.0000 0.0000 0.0000 0.0000 0.0000 16.8017
#
#
#
# Elastic Compliance Matrix: (Units=1/GPa)
#
#
# Indices 1 2 3 4 5 6 
#
# 1 0.005429 -0.004869 -0.001713 0.000000 0.000000 0.000000
# 2 -0.004869 0.004991 -0.004971 0.000000 0.000000 0.000000
# 3 -0.001713 -0.004971 0.013033 0.000000 0.000000 0.000000
# 4 0.000000 0.000000 0.000000 -0.015432 0.000000 0.000000
# 5 0.000000 0.000000 0.000000 0.000000 0.035217 0.000000
# 6 0.000000 0.000000 0.000000 0.000000 0.000000 0.059518
#
#
# Mechanical properties :
#
#
# Convention : Reuss Voigt Hill
#
# Bulk Modulus (GPa) = 2889.34020 -232.01411 1328.66305
# Shear Modulus (GPa) = 39.68978 6.21447 22.95213
#
# Velocity S-wave (km/s) = 4.46084 1.76514 3.39226
# Velocity P-wave (km/s) = 38.40767 10.59102 26.10536
#
# Compressibility (1/GPa) = 0.00034610
#
# Stress axis : x y z
#
# Youngs Moduli (GPa) = 184.18898 200.36733 76.72986
#
# Poissons Ratio (x) = 0.97554 0.13145
# Poissons Ratio (y) = 0.89677 0.38146
# Poissons Ratio (z) = 0.31554 0.99612
#
# Static dielectric constant tensor:
#      x y z
#    x 1.767770 0.000000 0.000000 
#    y 0.000000 1.752080 0.000000 
#    z 0.000000 0.000000 1.756230 
# 
# From -- ./inp_files/26858.got.cif
#   From: 2010.05.17/outbox.cif.g08.bks.cpg/sg54_14_cif.got.tgz:26858.got - 2010.06.03 13:09:01.
