data_PCOD9421041
_publ_section_title
;
Structure prediction by ZEFSAII (Michael W. Deem and Ramdas Pophale) SiO2 
 PCOD9421041
Probable space group: P C C A
;
_chemical_formula_sum "Si O2"
_cell_formula_units_Z 44
_cell_length_a 4.991424
_cell_length_b 15.190414
_cell_length_c 27.969529
_cell_angle_alpha 90.000000
_cell_angle_beta 90.000000
_cell_angle_gamma 90.000000
_cell_volume 2120.699950
_symmetry_space_group_name_H-M "P C C A"
_symmetry_group_IT_number 54
_symmetry_cell_setting 'orthorhombic'
loop_
_space_group_symop_operation_xyz
x,y,z
1/2-x,-y,z
1/2+x,-y,1/2-z
-x,y,1/2-z
-x,-y,-z
1/2+x,y,-z
1/2-x,y,1/2+z
x,-y,1/2+z
loop_
_atom_site_type_symbol
_atom_site_label
_atom_site_fract_x
_atom_site_fract_y
_atom_site_fract_z
Si Si1 0.350607 0.225121 0.881535
Si Si2 0.349158 0.217699 0.185247
Si Si3 0.500000 0.059145 0.250000
Si Si4 0.700602 0.592774 0.625796
Si Si5 0.699766 0.595281 0.307794
Si Si6 0.714624 0.895946 0.530893
O O1 0.641721 0.214840 0.858719
O O2 0.291490 0.321889 0.902769
O O3 0.287080 0.153876 0.921020
O O4 0.144135 0.222677 0.837188
O O5 0.352041 0.127300 0.214251
O O6 0.267590 0.308135 0.213425
O O7 0.750000 0.000000 0.230852
O O8 0.750000 0.500000 0.601027
O O9 0.400917 0.595078 0.646391
O O10 0.898750 0.594010 0.672237
O O11 0.750000 0.500000 0.283327
O O12 0.420098 0.874434 0.511912
O O13 0.750000 0.000000 0.539172
#
# Coordination Sequence:
#
# PCOD9421041 Si02
#       6
#     8   8   4   8   8   8
#     4  10  19  34  58  81 103 139 182 219 260 325
#     4  10  21  36  56  81 107 141 186 224 263 323
#     4  12  26  42  56  76 114 154 186 232 282 310
#     4   8  14  25  45  75 104 131 166 208 255 310
#     4   8  14  27  49  75 102 130 167 217 268 313
#     4  10  21  36  53  76 106 135 168 221 278 315
#
# _framework density 20.747865999999998
#
# number of rings (size 3 to 8) (size 9 to 14) (size 15 to 20)
#    0.000    2.545    0.000    2.182    0.000    2.182 
#    0.000    0.000    0.000   13.091    0.000    0.000 
#    0.000    0.000    0.000    0.000    0.000    0.000 
#
# Total GULP energy -245280.562691 kJ/mol
# GULP energy per Si atom -5574.558243 kJ/mol
# Density = 2.070064 g / cm^3
# Si number density = 20.747866 Si / 1000 Ang^3
#
#
#
# Elastic Constant Matrix: (Units=GPa)
#
#
# Indices 1 2 3 4 5 6 
#
# 1 78.9333 23.5479 3.9837 0.0000 0.0000 0.0000
# 2 23.5479 131.1645 35.3814 0.0000 0.0000 0.0000
# 3 3.9837 35.3814 33.0179 0.0000 0.0000 0.0000
# 4 0.0000 0.0000 0.0000 5.5211 0.0000 0.0000
# 5 0.0000 0.0000 0.0000 0.0000 1.4812 0.0000
# 6 0.0000 0.0000 0.0000 0.0000 0.0000 31.3354
#
#
#
# Elastic Compliance Matrix: (Units=1/GPa)
#
#
# Indices 1 2 3 4 5 6 
#
# 1 0.013429 -0.002776 0.001355 0.000000 0.000000 0.000000
# 2 -0.002776 0.011298 -0.011772 0.000000 0.000000 0.000000
# 3 0.001355 -0.011772 0.042737 0.000000 0.000000 0.000000
# 4 0.000000 0.000000 0.000000 0.181123 0.000000 0.000000
# 5 0.000000 0.000000 0.000000 0.000000 0.675133 0.000000
# 6 0.000000 0.000000 0.000000 0.000000 0.000000 0.031913
#
#
# Mechanical properties :
#
#
# Convention : Reuss Voigt Hill
#
# Bulk Modulus (GPa) = 24.34401 40.99353 32.66877
# Shear Modulus (GPa) = 5.02153 19.68105 12.35129
#
# Velocity S-wave (km/s) = 1.55741 3.08325 2.44253
# Velocity P-wave (km/s) = 3.87205 5.69878 4.87180
#
# Compressibility (1/GPa) = 0.04107786
#
# Stress axis : x y z
#
# Youngs Moduli (GPa) = 74.46677 88.51265 23.39872
#
# Poissons Ratio (x) = 0.24574 -0.03170
# Poissons Ratio (y) = 0.20675 0.27544
# Poissons Ratio (z) = -0.10089 1.04193
#
# Static dielectric constant tensor:
#      x y z
#    x 1.713550 0.000000 0.000000 
#    y 0.000000 1.860460 0.000000 
#    z 0.000000 0.000000 1.692860 
# 
# From -- ./inp_files/25316.got.cif
#   From: 2010.05.17/outbox.cif.g08.bks.cpg/sg54_13_cif.got.tgz:25316.got - 2010.06.03 13:09:01.
