data_PCOD9421004
_publ_section_title
;
Structure prediction by ZEFSAII (Michael W. Deem and Ramdas Pophale) SiO2 
 PCOD9421004
Probable space group: P C C A
;
_chemical_formula_sum "Si O2"
_cell_formula_units_Z 64
_cell_length_a 18.553575
_cell_length_b 12.296819
_cell_length_c 14.507627
_cell_angle_alpha 90.000000
_cell_angle_beta 90.000000
_cell_angle_gamma 90.000000
_cell_volume 3309.914427
_symmetry_space_group_name_H-M "P C C A"
_symmetry_group_IT_number 54
_symmetry_cell_setting 'orthorhombic'
loop_
_space_group_symop_operation_xyz
x,y,z
1/2-x,-y,z
1/2+x,-y,1/2-z
-x,y,1/2-z
-x,-y,-z
1/2+x,y,-z
1/2-x,y,1/2+z
x,-y,1/2+z
loop_
_atom_site_type_symbol
_atom_site_label
_atom_site_fract_x
_atom_site_fract_y
_atom_site_fract_z
Si Si1 0.664965 0.789031 0.265940
Si Si2 0.687268 0.185525 0.370654
Si Si3 0.558962 0.062705 0.105072
Si Si4 0.908877 0.003918 0.814385
Si Si5 0.135201 0.153172 0.434192
Si Si6 0.012745 0.734009 0.510976
Si Si7 0.558805 0.649963 0.829646
Si Si8 0.931138 0.397372 0.316426
O O1 0.736239 0.795519 0.326004
O O2 0.675628 0.822898 0.160472
O O3 0.633364 0.669272 0.271606
O O4 0.605172 0.876521 0.300891
O O5 0.661454 0.063155 0.350841
O O6 0.681717 0.194364 0.480469
O O7 0.625483 0.266211 0.330440
O O8 0.475174 0.025548 0.116546
O O9 0.578242 0.060752 0.214454
O O10 0.556893 0.170623 0.042655
O O11 0.612593 0.973293 0.063566
O O12 0.057139 0.212750 0.439155
O O13 0.053481 0.660020 0.585135
O O14 0.981218 0.663489 0.427116
O O15 0.500000 0.674616 0.750000
O O16 0.583192 0.525452 0.821866
O O17 0.000000 0.383150 0.250000
#
# Coordination Sequence:
#
# PCOD9421004 Si02
#       8
#     8   8   8   8   8   8   8   8
#     4  11  24  41  59  88 127 164 200 252 305 371
#     4  11  23  41  62  84 127 164 204 246 310 366
#     4  10  19  33  64  94 122 157 198 246 310 361
#     4  10  20  36  60  93 126 157 197 249 301 368
#     4  10  21  37  61  89 123 160 199 246 300 370
#     4  11  19  35  64  94 120 152 199 255 303 363
#     4  10  22  41  64  91 120 156 206 264 306 358
#     4  11  23  39  64  92 120 158 208 257 309 357
#
# _framework density 19.335846
#
# number of rings (size 3 to 8) (size 9 to 14) (size 15 to 20)
#    0.000    1.500    3.750    2.625    3.500    0.500 
#    4.500    1.250    0.000    1.500    0.000    0.000 
#    0.000    0.000    0.000    0.000    0.000    0.000 
#
# Total GULP energy -357301.537958 kJ/mol
# GULP energy per Si atom -5582.836531 kJ/mol
# Density = 1.929184 g / cm^3
# Si number density = 19.335846 Si / 1000 Ang^3
#
#
#
# Elastic Constant Matrix: (Units=GPa)
#
#
# Indices 1 2 3 4 5 6 
#
# 1 48.6086 18.4130 23.9210 0.0000 0.0000 0.0000
# 2 18.4130 100.1800 30.7544 0.0000 0.0000 0.0000
# 3 23.9210 30.7544 68.2825 0.0000 0.0000 0.0000
# 4 0.0000 0.0000 0.0000 27.3650 0.0000 0.0000
# 5 0.0000 0.0000 0.0000 0.0000 30.3219 0.0000
# 6 0.0000 0.0000 0.0000 0.0000 0.0000 8.2484
#
#
#
# Elastic Compliance Matrix: (Units=1/GPa)
#
#
# Indices 1 2 3 4 5 6 
#
# 1 0.025283 -0.002237 -0.007850 0.000000 0.000000 0.000000
# 2 -0.002237 0.011782 -0.004523 0.000000 0.000000 0.000000
# 3 -0.007850 -0.004523 0.019432 0.000000 0.000000 0.000000
# 4 0.000000 0.000000 0.000000 0.036543 0.000000 0.000000
# 5 0.000000 0.000000 0.000000 0.000000 0.032979 0.000000
# 6 0.000000 0.000000 0.000000 0.000000 0.000000 0.121235
#
#
# Mechanical properties :
#
#
# Convention : Reuss Voigt Hill
#
# Bulk Modulus (GPa) = 36.66025 40.36089 38.51057
# Shear Modulus (GPa) = 17.50911 22.78592 20.14752
#
# Velocity S-wave (km/s) = 3.01246 3.43655 3.23147
# Velocity P-wave (km/s) = 5.57681 6.05520 5.82092
#
# Compressibility (1/GPa) = 0.02727750
#
# Stress axis : x y z
#
# Youngs Moduli (GPa) = 39.55256 84.87768 51.46169
#
# Poissons Ratio (x) = 0.18989 0.40395
# Poissons Ratio (y) = 0.08849 0.23275
# Poissons Ratio (z) = 0.31047 0.38388
#
# Static dielectric constant tensor:
#      x y z
#    x 1.669730 0.000000 0.000000 
#    y 0.000000 1.675150 0.000000 
#    z 0.000000 0.000000 1.710920 
# 
# From -- ./inp_files/14344.got.cif
#   From: 2010.05.17/outbox.cif.g08.bks.cpg/sg54_8_cif.got.tgz:14344.got - 2010.06.03 13:09:01.
