data_PCOD9421244
_publ_section_title
;
Structure prediction by ZEFSAII (Michael W. Deem and Ramdas Pophale) SiO2 
 PCOD9421244
Probable space group: P C C A
;
_chemical_formula_sum "Si O2"
_cell_formula_units_Z 40
_cell_length_a 10.246794
_cell_length_b 10.419215
_cell_length_c 19.371508
_cell_angle_alpha 90.000000
_cell_angle_beta 90.000000
_cell_angle_gamma 90.000000
_cell_volume 2068.170958
_symmetry_space_group_name_H-M "P C C A"
_symmetry_group_IT_number 54
_symmetry_cell_setting 'orthorhombic'
loop_
_space_group_symop_operation_xyz
x,y,z
1/2-x,-y,z
1/2+x,-y,1/2-z
-x,y,1/2-z
-x,-y,-z
1/2+x,y,-z
1/2-x,y,1/2+z
x,-y,1/2+z
loop_
_atom_site_type_symbol
_atom_site_label
_atom_site_fract_x
_atom_site_fract_y
_atom_site_fract_z
Si Si1 0.918243 0.790097 0.354327
Si Si2 0.806292 0.857450 0.211636
Si Si3 0.679080 0.306920 0.597382
Si Si4 0.871932 0.085094 0.995214
Si Si5 0.050526 0.442040 0.927617
O O1 0.831441 0.793798 0.285975
O O2 0.855932 0.869946 0.416508
O O3 0.055433 0.853874 0.329508
O O4 0.952953 0.650698 0.386269
O O5 0.711329 0.772389 0.165336
O O6 0.750000 0.000000 0.219041
O O7 0.615919 0.210815 0.542387
O O8 0.592721 0.430811 0.613374
O O9 0.816055 0.358983 0.564970
O O10 0.750000 0.000000 0.019169
O O11 0.000000 0.000000 0.000000
O O12 0.000000 0.500000 0.000000
#
# Coordination Sequence:
#
# PCOD9421244 Si02
#       5
#     8   8   8   8   8
#     4  10  21  37  63  87 124 167 212 262 321 383
#     4  10  20  39  62  88 127 169 206 263 330 383
#     4  10  21  36  64  88 124 168 210 265 332 381
#     4  12  23  37  62  98 127 163 218 268 320 385
#     4  10  19  38  64  88 122 165 215 270 319 385
#
# _framework density 19.34076
#
# number of rings (size 3 to 8) (size 9 to 14) (size 15 to 20)
#    0.000    1.600    2.000    4.800    0.000    0.000 
#    0.000    0.000   30.800    2.400    0.000    0.000 
#    0.000    0.000    0.000    0.000    0.000    0.000 
#
# Total GULP energy -223342.498992 kJ/mol
# GULP energy per Si atom -5583.562475 kJ/mol
# Density = 1.929674 g / cm^3
# Si number density = 19.340760 Si / 1000 Ang^3
#
#
#
# Elastic Constant Matrix: (Units=GPa)
#
#
# Indices 1 2 3 4 5 6 
#
# 1 43.0385 47.7762 23.4500 0.0000 0.0000 0.0000
# 2 47.7762 144.6792 59.8025 0.0000 0.0000 0.0000
# 3 23.4500 59.8025 114.9880 0.0000 0.0000 0.0000
# 4 0.0000 0.0000 0.0000 33.5239 0.0000 0.0000
# 5 0.0000 0.0000 0.0000 0.0000 25.1448 0.0000
# 6 0.0000 0.0000 0.0000 0.0000 0.0000 26.4349
#
#
#
# Elastic Compliance Matrix: (Units=1/GPa)
#
#
# Indices 1 2 3 4 5 6 
#
# 1 0.036887 -0.011556 -0.001513 0.000000 0.000000 0.000000
# 2 -0.011556 0.012425 -0.004105 0.000000 0.000000 0.000000
# 3 -0.001513 -0.004105 0.011140 0.000000 0.000000 0.000000
# 4 0.000000 0.000000 0.000000 0.029829 0.000000 0.000000
# 5 0.000000 0.000000 0.000000 0.000000 0.039770 0.000000
# 6 0.000000 0.000000 0.000000 0.000000 0.000000 0.037829
#
#
# Mechanical properties :
#
#
# Convention : Reuss Voigt Hill
#
# Bulk Modulus (GPa) = 38.30742 62.75148 50.52945
# Shear Modulus (GPa) = 23.70478 28.46584 26.08531
#
# Velocity S-wave (km/s) = 3.50471 3.84057 3.67648
# Velocity P-wave (km/s) = 6.01888 7.22373 6.64865
#
# Compressibility (1/GPa) = 0.02610461
#
# Stress axis : x y z
#
# Youngs Moduli (GPa) = 27.10991 80.48557 89.76622
#
# Poissons Ratio (x) = 0.93006 0.13579
# Poissons Ratio (y) = 0.31327 0.36850
# Poissons Ratio (z) = 0.04101 0.33041
#
# Static dielectric constant tensor:
#      x y z
#    x 1.706250 0.000000 0.000000 
#    y 0.000000 1.658750 0.000000 
#    z 0.000000 0.000000 1.671570 
# 
# From -- ./inp_files/17069.got.cif
#   From: 2010.05.17/outbox.cif.g08.bks.cpg/sg54_9_cif.got.tgz:17069.got - 2010.06.03 13:09:01.
