data_PCOD9421716
_publ_section_title
;
Structure prediction by ZEFSAII (Michael W. Deem and Ramdas Pophale) SiO2 
 PCOD9421716
Probable space group: P C C A
;
_chemical_formula_sum "Si O2"
_cell_formula_units_Z 52
_cell_length_a 28.197989
_cell_length_b 10.538046
_cell_length_c 9.101664
_cell_angle_alpha 90.000000
_cell_angle_beta 90.000000
_cell_angle_gamma 90.000000
_cell_volume 2704.574978
_symmetry_space_group_name_H-M "P C C A"
_symmetry_group_IT_number 54
_symmetry_cell_setting 'orthorhombic'
loop_
_space_group_symop_operation_xyz
x,y,z
1/2-x,-y,z
1/2+x,-y,1/2-z
-x,y,1/2-z
-x,-y,-z
1/2+x,y,-z
1/2-x,y,1/2+z
x,-y,1/2+z
loop_
_atom_site_type_symbol
_atom_site_label
_atom_site_fract_x
_atom_site_fract_y
_atom_site_fract_z
Si Si1 0.970298 0.789767 0.480102
Si Si2 0.891323 0.594429 0.996785
Si Si3 0.186326 0.397217 0.612555
Si Si4 0.250000 0.500000 0.372076
Si Si5 0.452085 0.421573 0.787256
Si Si6 0.454946 0.963933 0.852721
Si Si7 0.889682 0.776707 0.260645
O O1 0.970091 0.694179 0.613611
O O2 0.936860 0.733447 0.352124
O O3 0.021734 0.838352 0.427982
O O4 0.946964 0.921068 0.537685
O O5 0.917776 0.501612 0.110292
O O6 0.880400 0.712491 0.102217
O O7 0.847714 0.515356 0.929921
O O8 0.924907 0.621009 0.858342
O O9 0.223992 0.399455 0.479587
O O10 0.213002 0.432109 0.763260
O O11 0.153876 0.273015 0.639622
O O12 0.500000 0.497142 0.750000
O O13 0.500000 0.003280 0.750000
O O14 0.406872 0.920030 0.773973
#
# Coordination Sequence:
#
# PCOD9421716 Si02
#       7
#     8   8   8   4   8   8   8
#     4  10  20  38  56  79 113 161 213 248 270 318
#     4  12  22  36  52  82 124 150 189 238 286 358
#     4  11  20  39  57  88 116 142 182 233 294 375
#     4  10  22  36  66  82 116 148 178 230 308 380
#     4  12  22  32  50  77 119 164 198 224 284 332
#     4   9  20  36  58  79 113 160 216 250 273 312
#     4  11  21  36  59  83 120 150 193 247 292 340
#
# _framework density 19.226682
#
# number of rings (size 3 to 8) (size 9 to 14) (size 15 to 20)
#    0.000    1.231    4.615    1.846    0.000    4.308 
#    0.000    0.000    0.000    0.000    0.000    3.231 
#    0.000    0.000    0.000    0.000    0.000    0.000 
#
# Total GULP energy -289862.526841 kJ/mol
# GULP energy per Si atom -5574.279362 kJ/mol
# Density = 1.918292 g / cm^3
# Si number density = 19.226682 Si / 1000 Ang^3
#
#
#
# Elastic Constant Matrix: (Units=GPa)
#
#
# Indices 1 2 3 4 5 6 
#
# 1 85.8000 25.1912 32.0396 0.0000 0.0000 0.0000
# 2 25.1912 32.2002 17.0101 0.0000 0.0000 0.0000
# 3 32.0396 17.0101 113.0916 0.0000 0.0000 0.0000
# 4 0.0000 0.0000 0.0000 28.9257 0.0000 0.0000
# 5 0.0000 0.0000 0.0000 0.0000 41.1516 0.0000
# 6 0.0000 0.0000 0.0000 0.0000 0.0000 23.6255
#
#
#
# Elastic Compliance Matrix: (Units=1/GPa)
#
#
# Indices 1 2 3 4 5 6 
#
# 1 0.015943 -0.010958 -0.002869 0.000000 0.000000 0.000000
# 2 -0.010958 0.041267 -0.003103 0.000000 0.000000 0.000000
# 3 -0.002869 -0.003103 0.010122 0.000000 0.000000 0.000000
# 4 0.000000 0.000000 0.000000 0.034571 0.000000 0.000000
# 5 0.000000 0.000000 0.000000 0.000000 0.024300 0.000000
# 6 0.000000 0.000000 0.000000 0.000000 0.000000 0.042327
#
#
# Mechanical properties :
#
#
# Convention : Reuss Voigt Hill
#
# Bulk Modulus (GPa) = 29.87354 42.17482 36.02418
# Shear Modulus (GPa) = 23.41402 29.19728 26.30565
#
# Velocity S-wave (km/s) = 3.49347 3.90113 3.70291
# Velocity P-wave (km/s) = 5.64302 6.50191 6.08763
#
# Compressibility (1/GPa) = 0.03347444
#
# Stress axis : x y z
#
# Youngs Moduli (GPa) = 62.72174 24.23238 98.79670
#
# Poissons Ratio (x) = 0.26553 0.28342
# Poissons Ratio (y) = 0.68728 0.30653
# Poissons Ratio (z) = 0.17993 0.07518
#
# Static dielectric constant tensor:
#      x y z
#    x 1.719050 0.000000 0.000000 
#    y 0.000000 1.692130 0.000000 
#    z 0.000000 0.000000 1.775990 
# 
# From -- ./inp_files/5922.got.cif
#   From: 2010.05.17/outbox.cif.g08.bks.cpg/sg54_3_cif.got.tgz:5922.got - 2010.06.03 13:09:01.
