data_PCOD9421462
_publ_section_title
;
Structure prediction by ZEFSAII (Michael W. Deem and Ramdas Pophale) SiO2 
 PCOD9421462
Probable space group: P C C A
;
_chemical_formula_sum "Si O2"
_cell_formula_units_Z 48
_cell_length_a 7.610804
_cell_length_b 17.459611
_cell_length_c 15.820200
_cell_angle_alpha 90.000000
_cell_angle_beta 90.000000
_cell_angle_gamma 90.000000
_cell_volume 2102.214710
_symmetry_space_group_name_H-M "P C C A"
_symmetry_group_IT_number 54
_symmetry_cell_setting 'orthorhombic'
loop_
_space_group_symop_operation_xyz
x,y,z
1/2-x,-y,z
1/2+x,-y,1/2-z
-x,y,1/2-z
-x,-y,-z
1/2+x,y,-z
1/2-x,y,1/2+z
x,-y,1/2+z
loop_
_atom_site_type_symbol
_atom_site_label
_atom_site_fract_x
_atom_site_fract_y
_atom_site_fract_z
Si Si1 0.375633 0.071834 0.566841
Si Si2 0.230739 0.884577 0.389162
Si Si3 0.507536 0.386519 0.557307
Si Si4 0.750000 0.500000 0.442789
Si Si5 0.323067 0.701648 0.908555
Si Si6 0.500000 0.293625 0.250000
Si Si7 0.703980 0.169565 0.780572
O O1 0.382048 0.081424 0.465537
O O2 0.577333 0.078935 0.595491
O O3 0.291580 0.139867 0.623602
O O4 0.250000 0.000000 0.585717
O O5 0.204665 0.792990 0.405557
O O6 0.210346 0.889904 0.287931
O O7 0.631195 0.444030 0.501909
O O8 0.375909 0.442309 0.605601
O O9 0.635629 0.334855 0.610251
O O10 0.400161 0.328640 0.496663
O O11 0.452064 0.668151 0.837494
O O12 0.328807 0.242404 0.228253
O O13 0.500000 0.180295 0.750000
#
# Coordination Sequence:
#
# PCOD9421462 Si02
#       7
#     8   8   8   4   8   4   8
#     4  11  23  39  59  86 115 160 209 253 322 391
#     4  10  22  39  58  86 124 153 200 273 309 372
#     4   9  17  32  59  90 123 165 208 245 301 366
#     4   8  16  32  54  90 132 158 196 252 286 358
#     4  10  20  35  59  91 120 164 213 258 316 377
#     4  10  22  40  58  86 126 158 202 260 326 364
#     4   9  22  42  58  81 119 165 198 263 327 374
#
# _framework density 22.833064
#
# number of rings (size 3 to 8) (size 9 to 14) (size 15 to 20)
#    0.000    2.333    0.000    1.500    7.000    0.667 
#   10.500    0.000    0.000    6.000    0.000    0.000 
#    0.000    0.000    0.000    0.000    0.000    0.167 
#
# Total GULP energy -267364.659255 kJ/mol
# GULP energy per Si atom -5570.097068 kJ/mol
# Density = 2.278109 g / cm^3
# Si number density = 22.833064 Si / 1000 Ang^3
#
#
#
# Elastic Constant Matrix: (Units=GPa)
#
#
# Indices 1 2 3 4 5 6 
#
# 1 79.2149 17.3875 12.3984 0.0000 0.0000 0.0000
# 2 17.3875 73.0472 -5.1802 0.0000 0.0000 0.0000
# 3 12.3984 -5.1802 64.8530 0.0000 0.0000 0.0000
# 4 0.0000 0.0000 0.0000 -12.4134 0.0000 0.0000
# 5 0.0000 0.0000 0.0000 0.0000 35.1216 0.0000
# 6 0.0000 0.0000 0.0000 0.0000 0.0000 41.4050
#
#
#
# Elastic Compliance Matrix: (Units=1/GPa)
#
#
# Indices 1 2 3 4 5 6 
#
# 1 0.013851 -0.003505 -0.002928 0.000000 0.000000 0.000000
# 2 -0.003505 0.014655 0.001841 0.000000 0.000000 0.000000
# 3 -0.002928 0.001841 0.016126 0.000000 0.000000 0.000000
# 4 0.000000 0.000000 0.000000 -0.080558 0.000000 0.000000
# 5 0.000000 0.000000 0.000000 0.000000 0.028473 0.000000
# 6 0.000000 0.000000 0.000000 0.000000 0.000000 0.024152
#
#
# Mechanical properties :
#
#
# Convention : Reuss Voigt Hill
#
# Bulk Modulus (GPa) = 28.21041 29.59185 28.90113
# Shear Modulus (GPa) = 132.62947 25.65657 79.14302
#
# Velocity S-wave (km/s) = 7.62972 3.35574 5.89380
# Velocity P-wave (km/s) = 9.48677 5.29177 7.68120
#
# Compressibility (1/GPa) = 0.03544790
#
# Stress axis : x y z
#
# Youngs Moduli (GPa) = 72.19460 68.23827 62.01060
#
# Poissons Ratio (x) = 0.23916 0.18157
# Poissons Ratio (y) = 0.25302 -0.11413
# Poissons Ratio (z) = 0.21139 -0.12560
#
# Static dielectric constant tensor:
#      x y z
#    x 1.943230 0.000000 0.000000 
#    y 0.000000 1.874880 0.000000 
#    z 0.000000 0.000000 1.912350 
# 
# From -- ./inp_files/11766.got.cif
#   From: 2010.05.17/outbox.cif.g08.bks.cpg/sg54_6_cif.got.tgz:11766.got - 2010.06.03 13:09:01.
