data_PCOD9421855
_publ_section_title
;
Structure prediction by ZEFSAII (Michael W. Deem and Ramdas Pophale) SiO2 
 PCOD9421855
Probable space group: P C C A
;
_chemical_formula_sum "Si O2"
_cell_formula_units_Z 40
_cell_length_a 15.509816
_cell_length_b 8.076469
_cell_length_c 15.551994
_cell_angle_alpha 90.000000
_cell_angle_beta 90.000000
_cell_angle_gamma 90.000000
_cell_volume 1948.113501
_symmetry_space_group_name_H-M "P C C A"
_symmetry_group_IT_number 54
_symmetry_cell_setting 'orthorhombic'
loop_
_space_group_symop_operation_xyz
x,y,z
1/2-x,-y,z
1/2+x,-y,1/2-z
-x,y,1/2-z
-x,-y,-z
1/2+x,y,-z
1/2-x,y,1/2+z
x,-y,1/2+z
loop_
_atom_site_type_symbol
_atom_site_label
_atom_site_fract_x
_atom_site_fract_y
_atom_site_fract_z
Si Si1 0.040933 0.749934 0.935484
Si Si2 0.373285 0.712568 0.758477
Si Si3 0.523756 0.388857 0.380641
Si Si4 0.078991 0.934877 0.683674
Si Si5 0.203092 0.822487 0.816015
O O1 0.012726 0.567938 0.903746
O O2 0.130838 0.794594 0.888558
O O3 0.964779 0.876222 0.905089
O O4 0.048766 0.719986 0.037030
O O5 0.399126 0.580758 0.686707
O O6 0.447868 0.706895 0.829979
O O7 0.282907 0.699285 0.805624
O O8 0.383820 0.881791 0.702492
O O9 0.154559 0.823900 0.723985
O O10 0.000000 0.916055 0.750000
O O11 0.250000 0.000000 0.831041
#
# Coordination Sequence:
#
# PCOD9421855 Si02
#       5
#     8   8   8   8   8
#     4  10  22  40  62  87 123 166 205 255 310 377
#     4  10  20  39  60  87 121 156 202 257 301 371
#     4  10  22  39  60  89 125 160 207 247 321 378
#     4   9  17  36  61  83 113 160 201 242 303 364
#     4   9  20  38  61  90 119 153 210 255 302 359
#
# _framework density 20.532682999999999
#
# number of rings (size 3 to 8) (size 9 to 14) (size 15 to 20)
#    0.000    2.400    2.000    0.000    8.400    1.600 
#    3.600    1.000    0.000    0.000    0.000    0.000 
#    0.000    0.000    0.000    0.000    0.000    0.000 
#
# Total GULP energy -222760.821264 kJ/mol
# GULP energy per Si atom -5569.020532 kJ/mol
# Density = 2.048595 g / cm^3
# Si number density = 20.532683 Si / 1000 Ang^3
#
#
#
# Elastic Constant Matrix: (Units=GPa)
#
#
# Indices 1 2 3 4 5 6 
#
# 1 97.3918 32.7677 38.2075 0.0000 0.0000 0.0000
# 2 32.7677 65.4943 30.3846 0.0000 0.0000 0.0000
# 3 38.2075 30.3846 106.2101 0.0000 0.0000 0.0000
# 4 0.0000 0.0000 0.0000 17.8185 0.0000 0.0000
# 5 0.0000 0.0000 0.0000 0.0000 -1.5295 0.0000
# 6 0.0000 0.0000 0.0000 0.0000 0.0000 18.1642
#
#
#
# Elastic Compliance Matrix: (Units=1/GPa)
#
#
# Indices 1 2 3 4 5 6 
#
# 1 0.013289 -0.005109 -0.003319 0.000000 0.000000 0.000000
# 2 -0.005109 0.019569 -0.003761 0.000000 0.000000 0.000000
# 3 -0.003319 -0.003761 0.011685 0.000000 0.000000 0.000000
# 4 0.000000 0.000000 0.000000 0.056121 0.000000 0.000000
# 5 0.000000 0.000000 0.000000 0.000000 -0.653811 0.000000
# 6 0.000000 0.000000 0.000000 0.000000 0.000000 0.055053
#
#
# Mechanical properties :
#
#
# Convention : Reuss Voigt Hill
#
# Bulk Modulus (GPa) = 49.58735 52.42399 51.00567
# Shear Modulus (GPa) = -10.70676 18.07306 3.68315
#
# Velocity S-wave (km/s) = -2.28600 2.97005 1.34078
# Velocity P-wave (km/s) = 4.15152 6.11138 5.22418
#
# Compressibility (1/GPa) = 0.02016643
#
# Stress axis : x y z
#
# Youngs Moduli (GPa) = 75.25193 51.10094 85.57963
#
# Poissons Ratio (x) = 0.26106 0.28403
# Poissons Ratio (y) = 0.38445 0.32182
# Poissons Ratio (z) = 0.24975 0.19217
#
# Static dielectric constant tensor:
#      x y z
#    x 1.742500 0.000000 0.000000 
#    y 0.000000 1.844340 0.000000 
#    z 0.000000 0.000000 1.745110 
# 
# From -- ./inp_files/13236.got.cif
#   From: 2010.05.17/outbox.cif.g08.bks.cpg/sg54_7_cif.got.tgz:13236.got - 2010.06.03 13:09:01.
