data_PCOD9421165
_publ_section_title
;
Structure prediction by ZEFSAII (Michael W. Deem and Ramdas Pophale) SiO2 
 PCOD9421165
Probable space group: P C C A
;
_chemical_formula_sum "Si O2"
_cell_formula_units_Z 44
_cell_length_a 13.731042
_cell_length_b 9.370184
_cell_length_c 13.864225
_cell_angle_alpha 90.000000
_cell_angle_beta 90.000000
_cell_angle_gamma 90.000000
_cell_volume 1783.804325
_symmetry_space_group_name_H-M "P C C A"
_symmetry_group_IT_number 54
_symmetry_cell_setting 'orthorhombic'
loop_
_space_group_symop_operation_xyz
x,y,z
1/2-x,-y,z
1/2+x,-y,1/2-z
-x,y,1/2-z
-x,-y,-z
1/2+x,y,-z
1/2-x,y,1/2+z
x,-y,1/2+z
loop_
_atom_site_type_symbol
_atom_site_label
_atom_site_fract_x
_atom_site_fract_y
_atom_site_fract_z
Si Si1 0.298480 0.300382 0.972413
Si Si2 0.614600 0.273483 0.916671
Si Si3 0.460416 0.480214 0.888779
Si Si4 0.404359 0.034652 0.713777
Si Si5 0.750000 0.000000 0.128246
Si Si6 0.019545 0.228440 0.593335
O O1 0.198100 0.350293 0.021108
O O2 0.538054 0.357148 0.146498
O O3 0.375980 0.284283 0.057761
O O4 0.358184 0.396174 0.894672
O O5 0.550063 0.382766 0.853899
O O6 0.655423 0.146107 0.851161
O O7 0.542366 0.199940 0.995557
O O8 0.500000 0.500000 0.000000
O O9 0.500000 0.117412 0.750000
O O10 0.340964 0.976562 0.800999
O O11 0.452781 0.909221 0.652685
O O12 0.726170 0.857006 0.069110
#
# Coordination Sequence:
#
# PCOD9421165 Si02
#       6
#     8   8   8   8   4   8
#     4  10  19  37  60  84 114 149 199 244 288 348
#     4  10  19  36  62  84 110 155 195 242 294 345
#     4   8  19  35  59  88 110 142 197 248 290 342
#     4  12  23  37  56  86 123 155 195 243 293 352
#     4  12  24  36  56  90 122 160 198 246 296 350
#     4  10  21  38  59  87 114 151 196 244 293 348
#
# _framework density 24.666381999999999
#
# number of rings (size 3 to 8) (size 9 to 14) (size 15 to 20)
#    0.000    2.182    0.000    6.000    0.000    6.545 
#    0.000    2.727    0.000    2.182    0.000    0.000 
#    0.000    0.000    0.000    0.000    0.000    0.000 
#
# Total GULP energy -245685.177868 kJ/mol
# GULP energy per Si atom -5583.754042 kJ/mol
# Density = 2.461024 g / cm^3
# Si number density = 24.666382 Si / 1000 Ang^3
#
#
#
# Elastic Constant Matrix: (Units=GPa)
#
#
# Indices 1 2 3 4 5 6 
#
# 1 137.7861 26.0346 4.2436 0.0000 0.0000 0.0000
# 2 26.0346 155.0079 21.0264 0.0000 0.0000 0.0000
# 3 4.2436 21.0264 24.7567 0.0000 0.0000 0.0000
# 4 0.0000 0.0000 0.0000 4.3323 0.0000 0.0000
# 5 0.0000 0.0000 0.0000 0.0000 27.6518 0.0000
# 6 0.0000 0.0000 0.0000 0.0000 0.0000 36.5898
#
#
#
# Elastic Compliance Matrix: (Units=1/GPa)
#
#
# Indices 1 2 3 4 5 6 
#
# 1 0.007497 -0.001226 -0.000244 0.000000 0.000000 0.000000
# 2 -0.001226 0.007492 -0.006153 0.000000 0.000000 0.000000
# 3 -0.000244 -0.006153 0.045661 0.000000 0.000000 0.000000
# 4 0.000000 0.000000 0.000000 0.230822 0.000000 0.000000
# 5 0.000000 0.000000 0.000000 0.000000 0.036164 0.000000
# 6 0.000000 0.000000 0.000000 0.000000 0.000000 0.027330
#
#
# Mechanical properties :
#
#
# Convention : Reuss Voigt Hill
#
# Bulk Modulus (GPa) = 22.02450 46.68444 34.35447
# Shear Modulus (GPa) = 12.97538 31.46454 22.21996
#
# Velocity S-wave (km/s) = 2.29603 3.57543 3.00462
# Velocity P-wave (km/s) = 3.99717 6.00103 5.09852
#
# Compressibility (1/GPa) = 0.04540398
#
# Stress axis : x y z
#
# Youngs Moduli (GPa) = 133.39030 133.47880 21.90075
#
# Poissons Ratio (x) = 0.16366 0.00534
# Poissons Ratio (y) = 0.16355 0.13475
# Poissons Ratio (z) = 0.03251 0.82127
#
# Static dielectric constant tensor:
#      x y z
#    x 1.991550 0.000000 0.000000 
#    y 0.000000 2.087310 0.000000 
#    z 0.000000 0.000000 2.048680 
# 
# From -- ./inp_files/17239.got.cif
#   From: 2010.05.17/outbox.cif.g08.bks.cpg/sg54_9_cif.got.tgz:17239.got - 2010.06.03 13:09:01.
