data_PCOD9421063
_publ_section_title
;
Structure prediction by ZEFSAII (Michael W. Deem and Ramdas Pophale) SiO2 
 PCOD9421063
Probable space group: P C C A
;
_chemical_formula_sum "Si O2"
_cell_formula_units_Z 60
_cell_length_a 5.561723
_cell_length_b 19.316507
_cell_length_c 27.126931
_cell_angle_alpha 90.000000
_cell_angle_beta 90.000000
_cell_angle_gamma 90.000000
_cell_volume 2914.329240
_symmetry_space_group_name_H-M "P C C A"
_symmetry_group_IT_number 54
_symmetry_cell_setting 'orthorhombic'
loop_
_space_group_symop_operation_xyz
x,y,z
1/2-x,-y,z
1/2+x,-y,1/2-z
-x,y,1/2-z
-x,-y,-z
1/2+x,y,-z
1/2-x,y,1/2+z
x,-y,1/2+z
loop_
_atom_site_type_symbol
_atom_site_label
_atom_site_fract_x
_atom_site_fract_y
_atom_site_fract_z
Si Si1 0.144935 0.272324 0.125003
Si Si2 0.829364 0.900317 0.512257
Si Si3 0.141691 0.649916 0.802626
Si Si4 0.371282 0.741288 0.524015
Si Si5 0.250000 0.500000 0.780243
Si Si6 0.997014 0.042676 0.305290
Si Si7 0.509670 0.784261 0.695614
Si Si8 0.830783 0.855197 0.619158
O O1 0.338980 0.277517 0.081627
O O2 0.256450 0.237927 0.173843
O O3 0.021707 0.338821 0.148792
O O4 0.951836 0.217674 0.104404
O O5 0.594844 0.932257 0.487651
O O6 0.864709 0.824631 0.485828
O O7 0.758883 0.891609 0.569268
O O8 0.258130 0.574272 0.806838
O O9 0.327893 0.714278 0.802107
O O10 0.000000 0.652743 0.750000
O O11 0.626299 0.715791 0.502825
O O12 0.500000 0.498141 0.750000
O O13 0.000000 0.074066 0.250000
O O14 0.993100 0.097765 0.348971
O O15 0.750000 0.000000 0.308017
O O16 0.250000 0.000000 0.310520
O O17 0.500000 0.814343 0.750000
O O18 0.620399 0.836754 0.656660
#
# Coordination Sequence:
#
# PCOD9421063 Si02
#       8
#     8   8   8   8   4   8   8   8
#     4  11  22  34  57  89 123 154 192 245 308 356
#     4  10  19  35  56  85 114 145 189 238 293 355
#     4  10  21  37  52  86 124 165 200 246 289 353
#     4  10  19  35  53  81 117 151 191 235 294 354
#     4  10  22  38  62  78 114 178 218 238 284 346
#     4  10  25  45  62  82 114 155 204 245 282 355
#     4  11  22  33  54  87 128 152 188 250 304 367
#     4  11  24  35  62  87 112 158 196 243 306 358
#
# _framework density 20.58793
#
# number of rings (size 3 to 8) (size 9 to 14) (size 15 to 20)
#    0.000    1.600    4.000    2.000    7.467    0.533 
#    0.000    0.000    0.000    2.400    0.000    0.933 
#    0.000    0.000    0.000    0.000    0.000    0.000 
#
# Total GULP energy -334842.527489 kJ/mol
# GULP energy per Si atom -5580.708791 kJ/mol
# Density = 2.054107 g / cm^3
# Si number density = 20.587930 Si / 1000 Ang^3
#
#
#
# Elastic Constant Matrix: (Units=GPa)
#
#
# Indices 1 2 3 4 5 6 
#
# 1 107.1240 10.1059 18.4198 0.0000 0.0000 0.0000
# 2 10.1059 47.4740 19.3275 0.0000 0.0000 0.0000
# 3 18.4198 19.3275 97.9139 0.0000 0.0000 0.0000
# 4 0.0000 0.0000 0.0000 9.4733 0.0000 0.0000
# 5 0.0000 0.0000 0.0000 0.0000 28.3746 0.0000
# 6 0.0000 0.0000 0.0000 0.0000 0.0000 25.1686
#
#
#
# Elastic Compliance Matrix: (Units=1/GPa)
#
#
# Indices 1 2 3 4 5 6 
#
# 1 0.009737 -0.001443 -0.001547 0.000000 0.000000 0.000000
# 2 -0.001443 0.023119 -0.004292 0.000000 0.000000 0.000000
# 3 -0.001547 -0.004292 0.011351 0.000000 0.000000 0.000000
# 4 0.000000 0.000000 0.000000 0.105560 0.000000 0.000000
# 5 0.000000 0.000000 0.000000 0.000000 0.035243 0.000000
# 6 0.000000 0.000000 0.000000 0.000000 0.000000 0.039732
#
#
# Mechanical properties :
#
#
# Convention : Reuss Voigt Hill
#
# Bulk Modulus (GPa) = 33.73451 38.69092 36.21272
# Shear Modulus (GPa) = 20.06527 26.24722 23.15625
#
# Velocity S-wave (km/s) = 3.12527 3.57443 3.35737
# Velocity P-wave (km/s) = 5.42625 5.98909 5.71460
#
# Compressibility (1/GPa) = 0.02964324
#
# Stress axis : x y z
#
# Youngs Moduli (GPa) = 102.70002 43.25503 88.09581
#
# Poissons Ratio (x) = 0.06242 0.13628
# Poissons Ratio (y) = 0.14819 0.37811
# Poissons Ratio (z) = 0.15887 0.18565
#
# Static dielectric constant tensor:
#      x y z
#    x 9.874180 0.000000 0.000000 
#    y 0.000000 1.759920 0.000000 
#    z 0.000000 0.000000 1.745710 
# 
# From -- ./inp_files/23025.got.cif
#   From: 2010.05.17/outbox.cif.g08.bks.cpg/sg54_12_cif.got.tgz:23025.got - 2010.06.03 13:09:01.
