data_PCOD9421876
_publ_section_title
;
Structure prediction by ZEFSAII (Michael W. Deem and Ramdas Pophale) SiO2 
 PCOD9421876
Probable space group: P C C A
;
_chemical_formula_sum "Si O2"
_cell_formula_units_Z 40
_cell_length_a 14.895599
_cell_length_b 9.299034
_cell_length_c 13.321110
_cell_angle_alpha 90.000000
_cell_angle_beta 90.000000
_cell_angle_gamma 90.000000
_cell_volume 1845.169310
_symmetry_space_group_name_H-M "P C C A"
_symmetry_group_IT_number 54
_symmetry_cell_setting 'orthorhombic'
loop_
_space_group_symop_operation_xyz
x,y,z
1/2-x,-y,z
1/2+x,-y,1/2-z
-x,y,1/2-z
-x,-y,-z
1/2+x,y,-z
1/2-x,y,1/2+z
x,-y,1/2+z
loop_
_atom_site_type_symbol
_atom_site_label
_atom_site_fract_x
_atom_site_fract_y
_atom_site_fract_z
Si Si1 0.980165 0.399817 0.403136
Si Si2 0.317057 0.368723 0.911164
Si Si3 0.539337 0.853258 0.543618
Si Si4 0.796695 0.143137 0.695027
Si Si5 0.120271 0.337328 0.634311
O O1 0.081733 0.374697 0.367640
O O2 0.000000 0.500000 0.500000
O O3 0.937949 0.254934 0.450223
O O4 0.917932 0.504612 0.338227
O O5 0.250000 0.500000 0.885131
O O6 0.275592 0.222541 0.872997
O O7 0.324772 0.360964 0.031866
O O8 0.619608 0.883543 0.620515
O O9 0.462953 0.766637 0.605013
O O10 0.500000 0.000000 0.500000
O O11 0.826369 0.255101 0.780251
O O12 0.750000 0.000000 0.736537
#
# Coordination Sequence:
#
# PCOD9421876 Si02
#       5
#     8   8   8   8   8
#     4   8  17  38  64  86 113 162 207 248 314 383
#     4  10  20  39  64  91 122 159 210 269 321 373
#     4  10  20  39  66  89 124 173 212 259 325 395
#     4  12  24  38  61  96 129 166 213 269 327 384
#     4  10  22  40  61  88 124 166 208 253 316 395
#
# _framework density 21.678227
#
# number of rings (size 3 to 8) (size 9 to 14) (size 15 to 20)
#    0.000    2.400    0.000    6.600    0.000    3.200 
#    0.000    4.000    0.000    9.600    0.000    0.000 
#    0.000    0.000    0.000    0.000    0.000    0.000 
#
# Total GULP energy -223286.439333 kJ/mol
# GULP energy per Si atom -5582.160983 kJ/mol
# Density = 2.162889 g / cm^3
# Si number density = 21.678227 Si / 1000 Ang^3
#
#
#
# Elastic Constant Matrix: (Units=GPa)
#
#
# Indices 1 2 3 4 5 6 
#
# 1 59.0525 28.4086 29.8433 0.0000 0.0000 0.0000
# 2 28.4086 126.9064 44.9317 0.0000 0.0000 0.0000
# 3 29.8433 44.9317 85.3859 0.0000 0.0000 0.0000
# 4 0.0000 0.0000 0.0000 71.2905 0.0000 0.0000
# 5 0.0000 0.0000 0.0000 0.0000 -242.1928 0.0000
# 6 0.0000 0.0000 0.0000 0.0000 0.0000 37.7633
#
#
#
# Elastic Compliance Matrix: (Units=1/GPa)
#
#
# Indices 1 2 3 4 5 6 
#
# 1 0.021250 -0.002614 -0.006051 0.000000 0.000000 0.000000
# 2 -0.002614 0.010006 -0.004351 0.000000 0.000000 0.000000
# 3 -0.006051 -0.004351 0.016116 0.000000 0.000000 0.000000
# 4 0.000000 0.000000 0.000000 0.014027 0.000000 0.000000
# 5 0.000000 0.000000 0.000000 0.000000 -0.004129 0.000000
# 6 0.000000 0.000000 0.000000 0.000000 0.000000 0.026481
#
#
# Mechanical properties :
#
#
# Convention : Reuss Voigt Hill
#
# Bulk Modulus (GPa) = 46.86547 53.07910 49.97229
# Shear Modulus (GPa) = 42.77241 -15.41705 13.67768
#
# Velocity S-wave (km/s) = 4.44673 -2.66968 2.51458
# Velocity P-wave (km/s) = 6.93038 3.87752 5.61540
#
# Compressibility (1/GPa) = 0.02133767
#
# Stress axis : x y z
#
# Youngs Moduli (GPa) = 47.05895 99.94296 62.04875
#
# Poissons Ratio (x) = 0.26129 0.37548
# Poissons Ratio (y) = 0.12303 0.27000
# Poissons Ratio (z) = 0.28477 0.43490
#
# Static dielectric constant tensor:
#      x y z
#    x 1.881670 0.000000 0.000000 
#    y 0.000000 1.819720 0.000000 
#    z 0.000000 0.000000 1.829670 
# 
# From -- ./inp_files/13220.got.cif
#   From: 2010.05.17/outbox.cif.g08.bks.cpg/sg54_7_cif.got.tgz:13220.got - 2010.06.03 13:09:01.
