data_PCOD9421917
_publ_section_title
;
Structure prediction by ZEFSAII (Michael W. Deem and Ramdas Pophale) SiO2 
 PCOD9421917
Probable space group: P C C A
;
_chemical_formula_sum "Si O2"
_cell_formula_units_Z 36
_cell_length_a 10.925352
_cell_length_b 11.391335
_cell_length_c 13.157979
_cell_angle_alpha 90.000000
_cell_angle_beta 90.000000
_cell_angle_gamma 90.000000
_cell_volume 1637.567653
_symmetry_space_group_name_H-M "P C C A"
_symmetry_group_IT_number 54
_symmetry_cell_setting 'orthorhombic'
loop_
_space_group_symop_operation_xyz
x,y,z
1/2-x,-y,z
1/2+x,-y,1/2-z
-x,y,1/2-z
-x,-y,-z
1/2+x,y,-z
1/2-x,y,1/2+z
x,-y,1/2+z
loop_
_atom_site_type_symbol
_atom_site_label
_atom_site_fract_x
_atom_site_fract_y
_atom_site_fract_z
Si Si1 0.916088 0.910825 0.437408
Si Si2 0.320247 0.797545 0.386814
Si Si3 0.500000 0.046156 0.750000
Si Si4 0.936590 0.294152 0.641670
Si Si5 0.614410 0.540899 0.171527
O O1 0.803546 0.870327 0.507718
O O2 0.983875 0.786365 0.429717
O O3 0.916963 0.966807 0.325617
O O4 0.000000 0.000000 0.500000
O O5 0.410404 0.873025 0.316678
O O6 0.187198 0.777801 0.341014
O O7 0.369014 0.663106 0.387138
O O8 0.914675 0.426187 0.603814
O O9 0.000000 0.307256 0.750000
O O10 0.750000 0.500000 0.216827
O O11 0.500000 0.556370 0.250000
#
# Coordination Sequence:
#
# PCOD9421917 Si02
#       5
#     8   8   4   8   8
#     4  10  22  40  57  92 125 169 216 258 320 384
#     4  10  21  40  65  92 127 167 219 268 323 400
#     4  10  20  40  60  92 126 172 218 264 322 382
#     4  10  21  42  62  93 132 166 210 272 333 384
#     4   9  18  36  66  94 129 167 213 272 338 398
#
# _framework density 21.983823999999998
#
# number of rings (size 3 to 8) (size 9 to 14) (size 15 to 20)
#    0.000    2.222    2.222    0.000    0.000    4.444 
#   12.000    0.000    0.000    4.000    0.000    0.000 
#    0.000    0.000    0.000    0.000    0.000    0.000 
#
# Total GULP energy -200476.878240 kJ/mol
# GULP energy per Si atom -5568.802173 kJ/mol
# Density = 2.193379 g / cm^3
# Si number density = 21.983824 Si / 1000 Ang^3
#
#
#
# Elastic Constant Matrix: (Units=GPa)
#
#
# Indices 1 2 3 4 5 6 
#
# 1 74.0816 32.1652 19.0909 0.0000 0.0000 0.0000
# 2 32.1652 143.6033 61.1001 0.0000 0.0000 0.0000
# 3 19.0909 61.1001 68.7527 0.0000 0.0000 0.0000
# 4 0.0000 0.0000 0.0000 34.4204 0.0000 0.0000
# 5 0.0000 0.0000 0.0000 0.0000 20.8420 0.0000
# 6 0.0000 0.0000 0.0000 0.0000 0.0000 28.6814
#
#
#
# Elastic Compliance Matrix: (Units=1/GPa)
#
#
# Indices 1 2 3 4 5 6 
#
# 1 0.015107 -0.002571 -0.001910 0.000000 0.000000 0.000000
# 2 -0.002571 0.011635 -0.009626 0.000000 0.000000 0.000000
# 3 -0.001910 -0.009626 0.023630 0.000000 0.000000 0.000000
# 4 0.000000 0.000000 0.000000 0.029053 0.000000 0.000000
# 5 0.000000 0.000000 0.000000 0.000000 0.047980 0.000000
# 6 0.000000 0.000000 0.000000 0.000000 0.000000 0.034866
#
#
# Mechanical properties :
#
#
# Convention : Reuss Voigt Hill
#
# Bulk Modulus (GPa) = 45.13084 56.79446 50.96265
# Shear Modulus (GPa) = 25.26891 28.39417 26.83154
#
# Velocity S-wave (km/s) = 3.39401 3.59777 3.49737
# Velocity P-wave (km/s) = 5.99439 6.56882 6.28817
#
# Compressibility (1/GPa) = 0.02215779
#
# Stress axis : x y z
#
# Youngs Moduli (GPa) = 66.19369 85.94527 42.31907
#
# Poissons Ratio (x) = 0.22098 0.08083
# Poissons Ratio (y) = 0.17020 0.40737
# Poissons Ratio (z) = 0.12642 0.82733
#
# Static dielectric constant tensor:
#      x y z
#    x 1.886290 0.000000 0.000000 
#    y 0.000000 1.827920 0.000000 
#    z 0.000000 0.000000 1.829590 
# 
# From -- ./inp_files/7427.got.cif
#   From: 2010.05.17/outbox.cif.g08.bks.cpg/sg54_4_cif.got.tgz:7427.got - 2010.06.03 13:09:01.
