data_PCOD9421366
_publ_section_title
;
Structure prediction by ZEFSAII (Michael W. Deem and Ramdas Pophale) SiO2 
 PCOD9421366
Probable space group: P C C A
;
_chemical_formula_sum "Si O2"
_cell_formula_units_Z 40
_cell_length_a 10.007214
_cell_length_b 12.025409
_cell_length_c 14.987386
_cell_angle_alpha 90.000000
_cell_angle_beta 90.000000
_cell_angle_gamma 90.000000
_cell_volume 1803.594640
_symmetry_space_group_name_H-M "P C C A"
_symmetry_group_IT_number 54
_symmetry_cell_setting 'orthorhombic'
loop_
_space_group_symop_operation_xyz
x,y,z
1/2-x,-y,z
1/2+x,-y,1/2-z
-x,y,1/2-z
-x,-y,-z
1/2+x,y,-z
1/2-x,y,1/2+z
x,-y,1/2+z
loop_
_atom_site_type_symbol
_atom_site_label
_atom_site_fract_x
_atom_site_fract_y
_atom_site_fract_z
Si Si1 0.613031 0.557505 0.877162
Si Si2 0.610965 0.015523 0.692778
Si Si3 0.713668 0.188096 0.551281
Si Si4 0.632027 0.579991 0.094225
Si Si5 0.509484 0.795939 0.896253
O O1 0.750000 0.500000 0.845466
O O2 0.500642 0.465911 0.863012
O O3 0.554808 0.679417 0.850101
O O4 0.624384 0.570971 0.985582
O O5 0.500000 0.077718 0.750000
O O6 0.662608 0.083918 0.607943
O O7 0.750000 0.000000 0.746017
O O8 0.538524 0.900973 0.662321
O O9 0.662100 0.292544 0.608576
O O10 0.872732 0.214200 0.544033
O O11 0.636715 0.178121 0.458086
O O12 0.750000 0.500000 0.123516
#
# Coordination Sequence:
#
# PCOD9421366 Si02
#       5
#     8   8   8   8   8
#     4   9  17  27  46  78 115 142 175 214 274 331
#     4  10  23  42  57  77 107 150 193 234 282 339
#     4  10  20  33  56  85 113 142 182 231 281 333
#     4   9  15  27  46  76 113 141 168 215 272 330
#     4  10  20  34  55  84 115 142 182 234 280 331
#
# _framework density 22.177932999999999
#
# number of rings (size 3 to 8) (size 9 to 14) (size 15 to 20)
#    0.000    2.400    2.000    0.600    8.400    1.600 
#    0.000    0.000    0.000    1.200    0.000    0.000 
#    0.000    0.000    0.000    0.000    0.000    0.000 
#
# Total GULP energy -222732.779162 kJ/mol
# GULP energy per Si atom -5568.319479 kJ/mol
# Density = 2.212745 g / cm^3
# Si number density = 22.177933 Si / 1000 Ang^3
#
#
#
# Elastic Constant Matrix: (Units=GPa)
#
#
# Indices 1 2 3 4 5 6 
#
# 1 143.8779 30.8405 27.2500 0.0000 0.0000 0.0000
# 2 30.8405 130.8627 16.5155 0.0000 0.0000 0.0000
# 3 27.2500 16.5155 35.8372 0.0000 0.0000 0.0000
# 4 0.0000 0.0000 0.0000 95.6140 0.0000 0.0000
# 5 0.0000 0.0000 0.0000 0.0000 11.4306 0.0000
# 6 0.0000 0.0000 0.0000 0.0000 0.0000 41.4053
#
#
#
# Elastic Compliance Matrix: (Units=1/GPa)
#
#
# Indices 1 2 3 4 5 6 
#
# 1 0.008303 -0.001232 -0.005746 0.000000 0.000000 0.000000
# 2 -0.001232 0.008296 -0.002887 0.000000 0.000000 0.000000
# 3 -0.005746 -0.002887 0.033603 0.000000 0.000000 0.000000
# 4 0.000000 0.000000 0.000000 0.010459 0.000000 0.000000
# 5 0.000000 0.000000 0.000000 0.000000 0.087484 0.000000
# 6 0.000000 0.000000 0.000000 0.000000 0.000000 0.024151
#
#
# Mechanical properties :
#
#
# Convention : Reuss Voigt Hill
#
# Bulk Modulus (GPa) = 32.81483 51.08775 41.95129
# Shear Modulus (GPa) = 24.73018 45.42144 35.07581
#
# Velocity S-wave (km/s) = 3.34290 4.53044 3.98120
# Velocity P-wave (km/s) = 5.45237 7.10296 6.33168
#
# Compressibility (1/GPa) = 0.03047403
#
# Stress axis : x y z
#
# Youngs Moduli (GPa) = 120.44563 120.53758 29.75915
#
# Poissons Ratio (x) = 0.14845 0.17098
# Poissons Ratio (y) = 0.14833 0.08591
# Poissons Ratio (z) = 0.69202 0.34797
#
# Static dielectric constant tensor:
#      x y z
#    x 1.812140 0.000000 0.000000 
#    y 0.000000 1.864350 0.000000 
#    z 0.000000 0.000000 1.851560 
# 
# From -- ./inp_files/16310.got.cif
#   From: 2010.05.17/outbox.cif.g08.bks.cpg/sg54_9_cif.got.tgz:16310.got - 2010.06.03 13:09:01.
