data_PCOD9421575
_publ_section_title
;
Structure prediction by ZEFSAII (Michael W. Deem and Ramdas Pophale) SiO2 
 PCOD9421575
Probable space group: P C C A
;
_chemical_formula_sum "Si O2"
_cell_formula_units_Z 40
_cell_length_a 5.456042
_cell_length_b 18.970639
_cell_length_c 16.613339
_cell_angle_alpha 90.000000
_cell_angle_beta 90.000000
_cell_angle_gamma 90.000000
_cell_volume 1719.557060
_symmetry_space_group_name_H-M "P C C A"
_symmetry_group_IT_number 54
_symmetry_cell_setting 'orthorhombic'
loop_
_space_group_symop_operation_xyz
x,y,z
1/2-x,-y,z
1/2+x,-y,1/2-z
-x,y,1/2-z
-x,-y,-z
1/2+x,y,-z
1/2-x,y,1/2+z
x,-y,1/2+z
loop_
_atom_site_type_symbol
_atom_site_label
_atom_site_fract_x
_atom_site_fract_y
_atom_site_fract_z
Si Si1 0.795128 0.214056 0.407151
Si Si2 0.295918 0.157891 0.405998
Si Si3 0.750000 0.000000 0.551407
Si Si4 0.556639 0.649799 0.841818
Si Si5 0.732068 0.418935 0.549030
Si Si6 0.750000 0.500000 0.798930
O O1 0.563616 0.172160 0.370876
O O2 0.813943 0.188121 0.500952
O O3 0.709269 0.293632 0.392119
O O4 0.059664 0.197006 0.370709
O O5 0.247753 0.074776 0.404412
O O6 0.500000 0.000000 0.500000
O O7 0.500000 0.670029 0.750000
O O8 0.291391 0.635850 0.881367
O O9 0.690967 0.573494 0.842852
O O10 0.750000 0.500000 0.577912
O O11 0.472843 0.410130 0.506936
O O12 0.500000 0.487263 0.750000
#
# Coordination Sequence:
#
# PCOD9421575 Si02
#       6
#     8   8   4   8   8   4
#     4  10  21  36  56  88 130 166 206 260 334 382
#     4  10  20  36  60  95 132 171 206 267 316 390
#     4  12  16  32  60  98 136 164 218 262 318 374
#     4  11  27  44  70  93 130 178 230 283 342 410
#     4  10  25  44  64  92 121 158 212 281 346 398
#     4  10  26  46  66  90 122 166 234 290 330 388
#
# _framework density 23.261803
#
# number of rings (size 3 to 8) (size 9 to 14) (size 15 to 20)
#    0.000    1.600    4.000    0.000   15.400    3.200 
#    0.000    0.000    0.000    0.000    0.000    4.200 
#    0.000    0.000    0.000    0.000    0.000    0.000 
#
# Total GULP energy -223542.818546 kJ/mol
# GULP energy per Si atom -5588.570464 kJ/mol
# Density = 2.320886 g / cm^3
# Si number density = 23.261803 Si / 1000 Ang^3
#
#
#
# Elastic Constant Matrix: (Units=GPa)
#
#
# Indices 1 2 3 4 5 6 
#
# 1 152.5145 0.3601 14.5944 0.0000 0.0000 0.0000
# 2 0.3601 137.6996 11.4946 0.0000 0.0000 0.0000
# 3 14.5944 11.4946 49.3483 0.0000 0.0000 0.0000
# 4 0.0000 0.0000 0.0000 28.1500 0.0000 0.0000
# 5 0.0000 0.0000 0.0000 0.0000 19.6048 0.0000
# 6 0.0000 0.0000 0.0000 0.0000 0.0000 46.5492
#
#
#
# Elastic Compliance Matrix: (Units=1/GPa)
#
#
# Indices 1 2 3 4 5 6 
#
# 1 0.006751 0.000152 -0.002032 0.000000 0.000000 0.000000
# 2 0.000152 0.007410 -0.001771 0.000000 0.000000 0.000000
# 3 -0.002032 -0.001771 0.021278 0.000000 0.000000 0.000000
# 4 0.000000 0.000000 0.000000 0.035524 0.000000 0.000000
# 5 0.000000 0.000000 0.000000 0.000000 0.051008 0.000000
# 6 0.000000 0.000000 0.000000 0.000000 0.000000 0.021483
#
#
# Mechanical properties :
#
#
# Convention : Reuss Voigt Hill
#
# Bulk Modulus (GPa) = 35.54118 43.60674 39.57396
# Shear Modulus (GPa) = 31.22406 39.73502 35.47954
#
# Velocity S-wave (km/s) = 3.66770 4.13748 3.90965
# Velocity P-wave (km/s) = 5.76611 6.45072 6.11800
#
# Compressibility (1/GPa) = 0.02813638
#
# Stress axis : x y z
#
# Youngs Moduli (GPa) = 148.12993 134.95988 46.99797
#
# Poissons Ratio (x) = -0.02051 0.09550
# Poissons Ratio (y) = -0.02251 0.08323
# Poissons Ratio (z) = 0.30098 0.23899
#
# Static dielectric constant tensor:
#      x y z
#    x 1.908360 0.000000 0.000000 
#    y 0.000000 1.972420 0.000000 
#    z 0.000000 0.000000 2.054760 
# 
# From -- ./inp_files/15815.got.cif
#   From: 2010.05.17/outbox.cif.g08.bks.cpg/sg54_8_cif.got.tgz:15815.got - 2010.06.03 13:09:01.
