data_PCOD9421659
_publ_section_title
;
Structure prediction by ZEFSAII (Michael W. Deem and Ramdas Pophale) SiO2 
 PCOD9421659
Probable space group: P C C A
;
_chemical_formula_sum "Si O2"
_cell_formula_units_Z 32
_cell_length_a 9.640517
_cell_length_b 10.390081
_cell_length_c 12.279817
_cell_angle_alpha 90.000000
_cell_angle_beta 90.000000
_cell_angle_gamma 90.000000
_cell_volume 1230.017111
_symmetry_space_group_name_H-M "P C C A"
_symmetry_group_IT_number 54
_symmetry_cell_setting 'orthorhombic'
loop_
_space_group_symop_operation_xyz
x,y,z
1/2-x,-y,z
1/2+x,-y,1/2-z
-x,y,1/2-z
-x,-y,-z
1/2+x,y,-z
1/2-x,y,1/2+z
x,-y,1/2+z
loop_
_atom_site_type_symbol
_atom_site_label
_atom_site_fract_x
_atom_site_fract_y
_atom_site_fract_z
Si Si1 0.597191 0.474888 0.649288
Si Si2 0.393444 0.750835 0.914477
Si Si3 0.884683 0.181736 0.159417
Si Si4 0.323152 0.120081 0.062324
O O1 0.750000 0.500000 0.694445
O O2 0.500000 0.494580 0.750000
O O3 0.584829 0.597808 0.572625
O O4 0.582488 0.326748 0.614577
O O5 0.280803 0.795420 0.820827
O O6 0.542482 0.811831 0.890456
O O7 0.307816 0.793508 0.023075
O O8 0.000000 0.154074 0.250000
O O9 0.884155 0.082223 0.059281
O O10 0.250000 0.000000 0.119379
#
# Coordination Sequence:
#
# PCOD9421659 Si02
#       4
#     8   8   8   8
#     4   9  17  37  56  82 119 157 205 261 316 371
#     4   9  20  36  58  87 118 162 208 256 315 370
#     4   8  18  36  60  81 122 163 204 257 313 368
#     4  10  20  37  60  86 126 163 207 256 311 372
#
# _framework density 26.015898
#
# number of rings (size 3 to 8) (size 9 to 14) (size 15 to 20)
#    1.500    1.500    0.000    0.750    0.000    1.000 
#   13.500    1.250    0.000    1.500    0.000    0.000 
#    0.000    0.000    0.000    0.000    0.000    0.000 
#
# Total GULP energy -178148.225168 kJ/mol
# GULP energy per Si atom -5567.132036 kJ/mol
# Density = 2.595668 g / cm^3
# Si number density = 26.015898 Si / 1000 Ang^3
#
#
#
# Elastic Constant Matrix: (Units=GPa)
#
#
# Indices 1 2 3 4 5 6 
#
# 1 224.3351 71.9645 53.4658 0.0000 0.0000 0.0000
# 2 71.9645 108.4095 1.9036 0.0000 0.0000 0.0000
# 3 53.4658 1.9036 27.7039 0.0000 0.0000 0.0000
# 4 0.0000 0.0000 0.0000 21.9049 0.0000 0.0000
# 5 0.0000 0.0000 0.0000 0.0000 56.6104 0.0000
# 6 0.0000 0.0000 0.0000 0.0000 0.0000 -5.3449
#
#
#
# Elastic Compliance Matrix: (Units=1/GPa)
#
#
# Indices 1 2 3 4 5 6 
#
# 1 0.012807 -0.008077 -0.024162 0.000000 0.000000 0.000000
# 2 -0.008077 0.014330 0.014604 0.000000 0.000000 0.000000
# 3 -0.024162 0.014604 0.081722 0.000000 0.000000 0.000000
# 4 0.000000 0.000000 0.000000 0.045652 0.000000 0.000000
# 5 0.000000 0.000000 0.000000 0.000000 0.017665 0.000000
# 6 0.000000 0.000000 0.000000 0.000000 0.000000 -0.187095
#
#
# Mechanical properties :
#
#
# Convention : Reuss Voigt Hill
#
# Bulk Modulus (GPa) = 13.58898 68.34624 40.96761
# Shear Modulus (GPa) = 111.40782 30.17506 70.79144
#
# Velocity S-wave (km/s) = 6.55103 3.40938 5.22206
# Velocity P-wave (km/s) = 7.90291 6.46734 7.22089
#
# Compressibility (1/GPa) = 0.07358904
#
# Stress axis : x y z
#
# Youngs Moduli (GPa) = 78.08093 69.78456 12.23659
#
# Poissons Ratio (x) = 0.56368 0.29566
# Poissons Ratio (y) = 0.63069 -0.17870
# Poissons Ratio (z) = 1.88656 -1.01914
#
# Static dielectric constant tensor:
#      x y z
#    x 2.059780 0.000000 0.000000 
#    y 0.000000 2.131610 0.000000 
#    z 0.000000 0.000000 2.052660 
# 
# From -- ./inp_files/16233.got.cif
#   From: 2010.05.17/outbox.cif.g08.bks.cpg/sg54_9_cif.got.tgz:16233.got - 2010.06.03 13:09:01.
