data_PCOD9421097
_publ_section_title
;
Structure prediction by ZEFSAII (Michael W. Deem and Ramdas Pophale) SiO2 
 PCOD9421097
Probable space group: P C C A
;
_chemical_formula_sum "Si O2"
_cell_formula_units_Z 32
_cell_length_a 13.083884
_cell_length_b 8.645411
_cell_length_c 12.988313
_cell_angle_alpha 90.000000
_cell_angle_beta 90.000000
_cell_angle_gamma 90.000000
_cell_volume 1469.180229
_symmetry_space_group_name_H-M "P C C A"
_symmetry_group_IT_number 54
_symmetry_cell_setting 'orthorhombic'
loop_
_space_group_symop_operation_xyz
x,y,z
1/2-x,-y,z
1/2+x,-y,1/2-z
-x,y,1/2-z
-x,-y,-z
1/2+x,y,-z
1/2-x,y,1/2+z
x,-y,1/2+z
loop_
_atom_site_type_symbol
_atom_site_label
_atom_site_fract_x
_atom_site_fract_y
_atom_site_fract_z
Si Si1 0.148710 0.083943 0.677703
Si Si2 0.540375 0.193244 0.036297
Si Si3 0.789286 0.329711 0.653458
Si Si4 0.396564 0.115013 0.876548
O O1 0.057976 0.152151 0.607602
O O2 0.181780 0.232029 0.745548
O O3 0.250000 0.000000 0.633116
O O4 0.109575 0.956900 0.762165
O O5 0.611272 0.328282 0.079324
O O6 0.608786 0.040352 0.054693
O O7 0.498172 0.198479 0.920607
O O8 0.750000 0.500000 0.675654
O O9 0.696070 0.231233 0.606142
#
# Coordination Sequence:
#
# PCOD9421097 Si02
#       4
#     8   8   8   8
#     4   9  19  36  56  80 106 139 184 233 275 319
#     4  10  19  35  59  80 104 144 185 224 275 326
#     4  10  20  35  51  75 114 147 174 220 274 324
#     4   9  19  34  55  79 102 136 183 229 269 315
#
# _framework density 21.780856
#
# number of rings (size 3 to 8) (size 9 to 14) (size 15 to 20)
#    0.000    2.500    0.000    5.250    0.000    8.000 
#    0.000   11.250    0.000    0.000    0.000    0.000 
#    0.000    0.000    0.000    0.000    0.000    0.000 
#
# Total GULP energy -178308.124921 kJ/mol
# GULP energy per Si atom -5572.128904 kJ/mol
# Density = 2.173128 g / cm^3
# Si number density = 21.780856 Si / 1000 Ang^3
#
#
#
# Elastic Constant Matrix: (Units=GPa)
#
#
# Indices 1 2 3 4 5 6 
#
# 1 128.6004 69.9528 60.0121 0.0000 0.0000 0.0000
# 2 69.9528 99.0148 32.3606 0.0000 0.0000 0.0000
# 3 60.0121 32.3606 76.5380 0.0000 0.0000 0.0000
# 4 0.0000 0.0000 0.0000 9.2531 0.0000 0.0000
# 5 0.0000 0.0000 0.0000 0.0000 54.7593 0.0000
# 6 0.0000 0.0000 0.0000 0.0000 0.0000 28.2783
#
#
#
# Elastic Compliance Matrix: (Units=1/GPa)
#
#
# Indices 1 2 3 4 5 6 
#
# 1 0.017165 -0.008968 -0.009668 0.000000 0.000000 0.000000
# 2 -0.008968 0.016404 0.000096 0.000000 0.000000 0.000000
# 3 -0.009668 0.000096 0.020605 0.000000 0.000000 0.000000
# 4 0.000000 0.000000 0.000000 0.108072 0.000000 0.000000
# 5 0.000000 0.000000 0.000000 0.000000 0.018262 0.000000
# 6 0.000000 0.000000 0.000000 0.000000 0.000000 0.035363
#
#
# Mechanical properties :
#
#
# Convention : Reuss Voigt Hill
#
# Bulk Modulus (GPa) = 58.49514 69.86713 64.18114
# Shear Modulus (GPa) = 19.33132 27.91332 23.62232
#
# Velocity S-wave (km/s) = 2.98239 3.58376 3.29682
# Velocity P-wave (km/s) = 6.22688 7.01936 6.63496
#
# Compressibility (1/GPa) = 0.01709544
#
# Stress axis : x y z
#
# Youngs Moduli (GPa) = 58.25673 60.96196 48.53168
#
# Poissons Ratio (x) = 0.54668 0.46918
# Poissons Ratio (y) = 0.52242 -0.00465
# Poissons Ratio (z) = 0.56320 -0.00584
#
# Static dielectric constant tensor:
#      x y z
#    x 1.893730 0.000000 0.000000 
#    y 0.000000 1.771580 0.000000 
#    z 0.000000 0.000000 1.940310 
# 
# From -- ./inp_files/17017.got.cif
#   From: 2010.05.17/outbox.cif.g08.bks.cpg/sg54_9_cif.got.tgz:17017.got - 2010.06.03 13:09:01.
