data_PCOD9421836
_publ_section_title
;
Structure prediction by ZEFSAII (Michael W. Deem and Ramdas Pophale) SiO2 
 PCOD9421836
Probable space group: P C C A
;
_chemical_formula_sum "Si O2"
_cell_formula_units_Z 56
_cell_length_a 13.970984
_cell_length_b 14.324333
_cell_length_c 11.556341
_cell_angle_alpha 90.000000
_cell_angle_beta 90.000000
_cell_angle_gamma 90.000000
_cell_volume 2312.713056
_symmetry_space_group_name_H-M "P C C A"
_symmetry_group_IT_number 54
_symmetry_cell_setting 'orthorhombic'
loop_
_space_group_symop_operation_xyz
x,y,z
1/2-x,-y,z
1/2+x,-y,1/2-z
-x,y,1/2-z
-x,-y,-z
1/2+x,y,-z
1/2-x,y,1/2+z
x,-y,1/2+z
loop_
_atom_site_type_symbol
_atom_site_label
_atom_site_fract_x
_atom_site_fract_y
_atom_site_fract_z
Si Si1 0.144071 0.956687 0.929469
Si Si2 0.340658 0.380732 0.804636
Si Si3 0.316359 0.241494 0.004004
Si Si4 0.012272 0.316920 0.589603
Si Si5 0.608098 0.236552 0.881114
Si Si6 0.374158 0.416049 0.248339
Si Si7 0.867126 0.978170 0.823145
O O1 0.161679 0.845997 0.921779
O O2 0.101236 0.997393 0.809996
O O3 0.250000 0.000000 0.937425
O O4 0.099979 0.973471 0.056885
O O5 0.324463 0.335308 0.928974
O O6 0.392595 0.304790 0.727328
O O7 0.237521 0.396063 0.744157
O O8 0.386924 0.482595 0.804922
O O9 0.399349 0.244492 0.101299
O O10 0.212354 0.236293 0.058116
O O11 0.071934 0.410492 0.625388
O O12 0.966630 0.281931 0.470683
O O13 0.922581 0.334951 0.673645
O O14 0.599987 0.128788 0.845479
O O15 0.750000 0.000000 0.819067
#
# Coordination Sequence:
#
# PCOD9421836 Si02
#       7
#     8   8   8   8   8   8   8
#     4  10  20  38  68 104 145 199 250 314 383 458
#     4  11  24  44  73  94 142 195 248 311 377 465
#     4  12  23  43  71 107 143 197 252 309 387 460
#     4  11  26  44  71 103 147 185 245 316 382 451
#     4  12  23  43  71 107 143 197 252 309 387 460
#     4  10  24  46  64 104 140 187 249 311 378 452
#     4  10  20  38  68 104 145 199 250 314 383 458
#
# _framework density 24.213986999999999
#
# number of rings (size 3 to 8) (size 9 to 14) (size 15 to 20)
#    0.000    1.143    7.143    0.000    0.000    5.143 
#    5.143    0.714    0.000    0.000    0.000    0.000 
#    0.000    0.000    0.000    0.000    0.000    0.000 
#
# Total GULP energy -312147.291026 kJ/mol
# GULP energy per Si atom -5574.058768 kJ/mol
# Density = 2.415887 g / cm^3
# Si number density = 24.213987 Si / 1000 Ang^3
#
#
#
# Elastic Constant Matrix: (Units=GPa)
#
#
# Indices 1 2 3 4 5 6 
#
# 1 102.4734 8.6053 26.7481 0.0000 0.0000 0.0000
# 2 8.6053 98.4897 28.7084 0.0000 0.0000 0.0000
# 3 26.7481 28.7084 149.2224 0.0000 0.0000 0.0000
# 4 0.0000 0.0000 0.0000 40.6632 0.0000 0.0000
# 5 0.0000 0.0000 0.0000 0.0000 34.9078 0.0000
# 6 0.0000 0.0000 0.0000 0.0000 0.0000 17.9525
#
#
#
# Elastic Compliance Matrix: (Units=1/GPa)
#
#
# Indices 1 2 3 4 5 6 
#
# 1 0.010251 -0.000381 -0.001764 0.000000 0.000000 0.000000
# 2 -0.000381 0.010771 -0.002004 0.000000 0.000000 0.000000
# 3 -0.001764 -0.002004 0.007403 0.000000 0.000000 0.000000
# 4 0.000000 0.000000 0.000000 0.024592 0.000000 0.000000
# 5 0.000000 0.000000 0.000000 0.000000 0.028647 0.000000
# 6 0.000000 0.000000 0.000000 0.000000 0.000000 0.055703
#
#
# Mechanical properties :
#
#
# Convention : Reuss Voigt Hill
#
# Bulk Modulus (GPa) = 49.68619 53.14544 51.41582
# Shear Modulus (GPa) = 32.81397 37.77963 35.29680
#
# Velocity S-wave (km/s) = 3.68525 3.95427 3.82213
# Velocity P-wave (km/s) = 6.21870 6.54555 6.38422
#
# Compressibility (1/GPa) = 0.02012631
#
# Stress axis : x y z
#
# Youngs Moduli (GPa) = 97.55007 92.84409 135.07805
#
# Poissons Ratio (x) = 0.03542 0.23830
# Poissons Ratio (y) = 0.03721 0.27067
# Poissons Ratio (z) = 0.17209 0.18604
#
# Static dielectric constant tensor:
#      x y z
#    x 2.005050 0.000000 0.000000 
#    y 0.000000 1.923620 0.000000 
#    z 0.000000 0.000000 1.996940 
# 
# From -- ./inp_files/8431.got.cif
#   From: 2010.05.17/outbox.cif.g08.bks.cpg/sg54_5_cif.got.tgz:8431.got - 2010.06.03 13:09:01.
