data_PCOD9421028
_publ_section_title
;
Structure prediction by ZEFSAII (Michael W. Deem and Ramdas Pophale) SiO2 
 PCOD9421028
Probable space group: P C C A
;
_chemical_formula_sum "Si O2"
_cell_formula_units_Z 36
_cell_length_a 13.941626
_cell_length_b 8.353251
_cell_length_c 13.321699
_cell_angle_alpha 90.000000
_cell_angle_beta 90.000000
_cell_angle_gamma 90.000000
_cell_volume 1551.417108
_symmetry_space_group_name_H-M "P C C A"
_symmetry_group_IT_number 54
_symmetry_cell_setting 'orthorhombic'
loop_
_space_group_symop_operation_xyz
x,y,z
1/2-x,-y,z
1/2+x,-y,1/2-z
-x,y,1/2-z
-x,-y,-z
1/2+x,y,-z
1/2-x,y,1/2+z
x,-y,1/2+z
loop_
_atom_site_type_symbol
_atom_site_label
_atom_site_fract_x
_atom_site_fract_y
_atom_site_fract_z
Si Si1 0.179505 0.638162 0.133283
Si Si2 0.225846 0.184963 0.318305
Si Si3 0.500000 0.655384 0.750000
Si Si4 0.566801 0.303958 0.559807
Si Si5 0.603436 0.314298 0.065755
O O1 0.250000 0.500000 0.095014
O O2 0.240115 0.739922 0.213150
O O3 0.127524 0.729204 0.042597
O O4 0.089891 0.566919 0.198232
O O5 0.116260 0.216522 0.348206
O O6 0.288874 0.269909 0.407253
O O7 0.250000 0.000000 0.319535
O O8 0.452539 0.757742 0.838086
O O9 0.455950 0.267318 0.533081
O O10 0.583662 0.494964 0.574457
#
# Coordination Sequence:
#
# PCOD9421028 Si02
#       5
#     8   8   4   8   8
#     4  10  19  34  56  77 103 139 183 227 271 323
#     4  11  22  34  52  80 115 148 178 220 278 341
#     4   8  16  30  52  78 106 134 168 222 272 318
#     4  10  20  36  60  82 105 142 188 237 277 322
#     4   9  18  35  58  82 107 141 188 231 278 324
#
# _framework density 23.204592999999999
#
# number of rings (size 3 to 8) (size 9 to 14) (size 15 to 20)
#    0.000    2.222    0.000    4.667    0.000    1.778 
#    0.000    0.000    0.000   56.000    0.000    0.000 
#    0.000    0.000    0.000    0.000    0.000    0.000 
#
# Total GULP energy -200684.754079 kJ/mol
# GULP energy per Si atom -5574.576502 kJ/mol
# Density = 2.315178 g / cm^3
# Si number density = 23.204593 Si / 1000 Ang^3
#
#
#
# Elastic Constant Matrix: (Units=GPa)
#
#
# Indices 1 2 3 4 5 6 
#
# 1 28.6181 -19.9353 -1.2744 0.0000 0.0000 0.0000
# 2 -19.9353 47.0513 3.1708 0.0000 0.0000 0.0000
# 3 -1.2744 3.1708 66.5468 0.0000 0.0000 0.0000
# 4 0.0000 0.0000 0.0000 1.2977 0.0000 0.0000
# 5 0.0000 0.0000 0.0000 0.0000 44.7535 0.0000
# 6 0.0000 0.0000 0.0000 0.0000 0.0000 15.7926
#
#
#
# Elastic Compliance Matrix: (Units=1/GPa)
#
#
# Indices 1 2 3 4 5 6 
#
# 1 0.049575 0.021008 -0.000052 0.000000 0.000000 0.000000
# 2 0.021008 0.030224 -0.001038 0.000000 0.000000 0.000000
# 3 -0.000052 -0.001038 0.015075 0.000000 0.000000 0.000000
# 4 0.000000 0.000000 0.000000 0.770577 0.000000 0.000000
# 5 0.000000 0.000000 0.000000 0.000000 0.022345 0.000000
# 6 0.000000 0.000000 0.000000 0.000000 0.000000 0.063321
#
#
# Mechanical properties :
#
#
# Convention : Reuss Voigt Hill
#
# Bulk Modulus (GPa) = 7.42329 11.79317 9.60823
# Shear Modulus (GPa) = 5.22912 23.05242 14.14077
#
# Velocity S-wave (km/s) = 1.50279 3.15531 2.47127
# Velocity P-wave (km/s) = 2.49343 4.28578 3.50607
#
# Compressibility (1/GPa) = 0.13471124
#
# Stress axis : x y z
#
# Youngs Moduli (GPa) = 20.17159 33.08605 66.33286
#
# Poissons Ratio (x) = -0.69507 0.00342
# Poissons Ratio (y) = -0.42376 0.06884
# Poissons Ratio (z) = 0.00104 0.03434
#
# Static dielectric constant tensor:
#      x y z
#    x 1.966940 0.000000 0.000000 
#    y 0.000000 1.840750 0.000000 
#    z 0.000000 0.000000 1.951260 
# 
# From -- ./inp_files/13085.got.cif
#   From: 2010.05.17/outbox.cif.g08.bks.cpg/sg54_7_cif.got.tgz:13085.got - 2010.06.03 13:09:01.
