data_PCOD9421592
_publ_section_title
;
Structure prediction by ZEFSAII (Michael W. Deem and Ramdas Pophale) SiO2 
 PCOD9421592
Probable space group: P C C A
;
_chemical_formula_sum "Si O2"
_cell_formula_units_Z 48
_cell_length_a 13.250882
_cell_length_b 7.292665
_cell_length_c 25.263743
_cell_angle_alpha 90.000000
_cell_angle_beta 90.000000
_cell_angle_gamma 90.000000
_cell_volume 2441.342690
_symmetry_space_group_name_H-M "P C C A"
_symmetry_group_IT_number 54
_symmetry_cell_setting 'orthorhombic'
loop_
_space_group_symop_operation_xyz
x,y,z
1/2-x,-y,z
1/2+x,-y,1/2-z
-x,y,1/2-z
-x,-y,-z
1/2+x,y,-z
1/2-x,y,1/2+z
x,-y,1/2+z
loop_
_atom_site_type_symbol
_atom_site_label
_atom_site_fract_x
_atom_site_fract_y
_atom_site_fract_z
Si Si1 0.336001 0.626210 0.002086
Si Si2 0.589324 0.911220 0.138190
Si Si3 0.003470 0.705432 0.336511
Si Si4 0.750000 0.000000 0.224143
Si Si5 0.750000 0.000000 0.547398
Si Si6 0.659825 0.358560 0.249843
Si Si7 0.520525 0.568225 0.077682
O O1 0.250000 0.500000 0.028212
O O2 0.379635 0.501909 0.953314
O O3 0.285849 0.819545 0.984990
O O4 0.435384 0.646102 0.038382
O O5 0.655407 0.961485 0.086292
O O6 0.540828 0.719427 0.122509
O O7 0.514079 0.076134 0.154409
O O8 0.668410 0.901957 0.186285
O O9 0.923767 0.625738 0.294938
O O10 0.984078 0.613120 0.392450
O O11 0.109685 0.647539 0.308749
O O12 0.699755 0.154311 0.258417
O O13 0.750000 0.500000 0.253115
#
# Coordination Sequence:
#
# PCOD9421592 Si02
#       7
#     8   8   8   4   4   8   8
#     4  11  24  39  60  89 120 158 204 256 300 368
#     4  10  20  36  62  89 118 154 200 255 301 355
#     4  10  22  39  59  91 123 155 204 253 301 361
#     4   9  20  36  60  93 116 156 201 246 297 358
#     4  11  20  38  62  87 116 156 203 254 301 348
#     4  10  21  38  62  88 122 161 200 247 301 366
#     4  11  23  39  61  87 122 160 201 249 312 362
#
# _framework density 19.661311999999999
#
# number of rings (size 3 to 8) (size 9 to 14) (size 15 to 20)
#    0.000    1.667    3.333    1.000    0.000    4.667 
#    0.000    3.333    0.000    0.000    0.000    0.000 
#    0.000    0.000    0.000    0.000    0.000    0.000 
#
# Total GULP energy -267552.241585 kJ/mol
# GULP energy per Si atom -5574.005033 kJ/mol
# Density = 1.961656 g / cm^3
# Si number density = 19.661312 Si / 1000 Ang^3
#
#
#
# Elastic Constant Matrix: (Units=GPa)
#
#
# Indices 1 2 3 4 5 6 
#
# 1 65.3978 38.2209 4.5234 0.0000 0.0000 0.0000
# 2 38.2209 69.1295 5.8937 0.0000 0.0000 0.0000
# 3 4.5234 5.8937 18.9875 0.0000 0.0000 0.0000
# 4 0.0000 0.0000 0.0000 -199.3170 0.0000 0.0000
# 5 0.0000 0.0000 0.0000 0.0000 -27.5891 0.0000
# 6 0.0000 0.0000 0.0000 0.0000 0.0000 24.6192
#
#
#
# Elastic Compliance Matrix: (Units=1/GPa)
#
#
# Indices 1 2 3 4 5 6 
#
# 1 0.022635 -0.012383 -0.001549 0.000000 0.000000 0.000000
# 2 -0.012383 0.021633 -0.003765 0.000000 0.000000 0.000000
# 3 -0.001549 -0.003765 0.054204 0.000000 0.000000 0.000000
# 4 0.000000 0.000000 0.000000 -0.005017 0.000000 0.000000
# 5 0.000000 0.000000 0.000000 0.000000 -0.036246 0.000000
# 6 0.000000 0.000000 0.000000 0.000000 0.000000 0.040619
#
#
# Mechanical properties :
#
#
# Convention : Reuss Voigt Hill
#
# Bulk Modulus (GPa) = 15.85314 27.86567 21.85941
# Shear Modulus (GPa) = 32.41575 -33.46560 -0.52493
#
# Velocity S-wave (km/s) = 4.06483 -4.13013 -0.51727
# Velocity P-wave (km/s) = 5.48736 2.92239 3.28411
#
# Compressibility (1/GPa) = 0.06307897
#
# Stress axis : x y z
#
# Youngs Moduli (GPa) = 44.17928 46.22613 18.44889
#
# Poissons Ratio (x) = 0.57240 0.02857
# Poissons Ratio (y) = 0.54706 0.06946
# Poissons Ratio (z) = 0.06843 0.17404
#
# Static dielectric constant tensor:
#      x y z
#    x 1.737770 0.000000 0.000000 
#    y 0.000000 1.701370 0.000000 
#    z 0.000000 0.000000 1.674870 
# 
# From -- ./inp_files/26504.got.cif
#   From: 2010.05.17/outbox.cif.g08.bks.cpg/sg54_14_cif.got.tgz:26504.got - 2010.06.03 13:09:01.
