data_PCOD9421392
_publ_section_title
;
Structure prediction by ZEFSAII (Michael W. Deem and Ramdas Pophale) SiO2 
 PCOD9421392
Probable space group: P C C A
;
_chemical_formula_sum "Si O2"
_cell_formula_units_Z 32
_cell_length_a 5.069509
_cell_length_b 12.551756
_cell_length_c 28.976552
_cell_angle_alpha 90.000000
_cell_angle_beta 90.000000
_cell_angle_gamma 90.000000
_cell_volume 1843.813935
_symmetry_space_group_name_H-M "P C C A"
_symmetry_group_IT_number 54
_symmetry_cell_setting 'orthorhombic'
loop_
_space_group_symop_operation_xyz
x,y,z
1/2-x,-y,z
1/2+x,-y,1/2-z
-x,y,1/2-z
-x,-y,-z
1/2+x,y,-z
1/2-x,y,1/2+z
x,-y,1/2+z
loop_
_atom_site_type_symbol
_atom_site_label
_atom_site_fract_x
_atom_site_fract_y
_atom_site_fract_z
Si Si1 0.742060 0.873397 0.969247
Si Si2 0.248347 0.303910 0.103597
Si Si3 0.500000 0.428417 0.250000
Si Si4 0.750000 0.500000 0.966852
Si Si5 0.749251 0.372300 0.156313
O O1 0.791163 0.805678 0.923521
O O2 0.750000 0.000000 0.960342
O O3 0.462373 0.847230 0.992446
O O4 0.226280 0.397624 0.065895
O O5 0.539243 0.314266 0.124130
O O6 0.034807 0.326976 0.143574
O O7 0.250000 0.500000 0.231908
O O8 0.637449 0.365256 0.208377
O O9 0.500000 0.500000 0.000000
O O10 0.750000 0.500000 0.146671
#
# Coordination Sequence:
#
# PCOD9421392 Si02
#       5
#     8   8   4   4   8
#     4  10  21  38  56  75 103 142 189 231 262 301
#     4  12  21  34  53  77 108 142 178 221 264 314
#     4  10  20  34  54  76 108 148 178 210 270 324
#     4  12  22  32  46  70 108 144 172 204 262 320
#     4  11  20  35  51  79 110 140 173 218 263 328
#
# _framework density 17.355329999999999
#
# number of rings (size 3 to 8) (size 9 to 14) (size 15 to 20)
#    0.000    1.000    2.500    7.500    0.000    0.000 
#    0.000    0.000    0.000    0.000    0.000    3.500 
#    0.000    2.000    0.000    0.000    0.000    0.000 
#
# Total GULP energy -178713.946799 kJ/mol
# GULP energy per Si atom -5584.810837 kJ/mol
# Density = 1.731583 g / cm^3
# Si number density = 17.355330 Si / 1000 Ang^3
#
#
#
# Elastic Constant Matrix: (Units=GPa)
#
#
# Indices 1 2 3 4 5 6 
#
# 1 88.3394 7.0241 11.2388 0.0000 0.0000 0.0000
# 2 7.0241 43.5228 24.8841 0.0000 0.0000 0.0000
# 3 11.2388 24.8841 78.2574 0.0000 0.0000 0.0000
# 4 0.0000 0.0000 0.0000 13.7075 0.0000 0.0000
# 5 0.0000 0.0000 0.0000 0.0000 38.8546 0.0000
# 6 0.0000 0.0000 0.0000 0.0000 0.0000 13.5467
#
#
#
# Elastic Compliance Matrix: (Units=1/GPa)
#
#
# Indices 1 2 3 4 5 6 
#
# 1 0.011575 -0.001122 -0.001306 0.000000 0.000000 0.000000
# 2 -0.001122 0.028191 -0.008803 0.000000 0.000000 0.000000
# 3 -0.001306 -0.008803 0.015765 0.000000 0.000000 0.000000
# 4 0.000000 0.000000 0.000000 0.072953 0.000000 0.000000
# 5 0.000000 0.000000 0.000000 0.000000 0.025737 0.000000
# 6 0.000000 0.000000 0.000000 0.000000 0.000000 0.073819
#
#
# Mechanical properties :
#
#
# Convention : Reuss Voigt Hill
#
# Bulk Modulus (GPa) = 30.23850 32.93484 31.58667
# Shear Modulus (GPa) = 19.11876 24.35325 21.73601
#
# Velocity S-wave (km/s) = 3.32265 3.75001 3.54278
# Velocity P-wave (km/s) = 5.67283 6.14558 5.91393
#
# Compressibility (1/GPa) = 0.03307042
#
# Stress axis : x y z
#
# Youngs Moduli (GPa) = 86.39102 35.47292 63.43178
#
# Poissons Ratio (x) = 0.03979 0.08282
# Poissons Ratio (y) = 0.09689 0.55838
# Poissons Ratio (z) = 0.11280 0.31226
#
# Static dielectric constant tensor:
#      x y z
#    x 1.596280 0.000000 0.000000 
#    y 0.000000 1.573360 0.000000 
#    z 0.000000 0.000000 1.589340 
# 
# From -- ./inp_files/22657.got.cif
#   From: 2010.05.17/outbox.cif.g08.bks.cpg/sg54_12_cif.got.tgz:22657.got - 2010.06.03 13:09:01.
