data_PCOD9421811
_publ_section_title
;
Structure prediction by ZEFSAII (Michael W. Deem and Ramdas Pophale) SiO2 
 PCOD9421811
Probable space group: P C C A
;
_chemical_formula_sum "Si O2"
_cell_formula_units_Z 40
_cell_length_a 13.640634
_cell_length_b 8.566297
_cell_length_c 16.233885
_cell_angle_alpha 90.000000
_cell_angle_beta 90.000000
_cell_angle_gamma 90.000000
_cell_volume 1896.924951
_symmetry_space_group_name_H-M "P C C A"
_symmetry_group_IT_number 54
_symmetry_cell_setting 'orthorhombic'
loop_
_space_group_symop_operation_xyz
x,y,z
1/2-x,-y,z
1/2+x,-y,1/2-z
-x,y,1/2-z
-x,-y,-z
1/2+x,y,-z
1/2-x,y,1/2+z
x,-y,1/2+z
loop_
_atom_site_type_symbol
_atom_site_label
_atom_site_fract_x
_atom_site_fract_y
_atom_site_fract_z
Si Si1 0.893464 0.774753 0.998351
Si Si2 0.991524 0.706028 0.652467
Si Si3 0.250000 0.500000 0.525947
Si Si4 0.559563 0.366098 0.388847
Si Si5 0.141320 0.968370 0.874536
Si Si6 0.500000 0.148201 0.250000
O O1 0.993578 0.717585 0.042197
O O2 0.867494 0.939401 0.039114
O O3 0.810983 0.642392 0.016013
O O4 0.920354 0.782022 0.901754
O O5 0.892445 0.789755 0.622191
O O6 0.000000 0.726345 0.750000
O O7 0.000622 0.523801 0.633159
O O8 0.334598 0.584380 0.578855
O O9 0.564501 0.258211 0.308865
O O10 0.250000 0.000000 0.844157
O O11 0.066112 0.047522 0.810995
#
# Coordination Sequence:
#
# PCOD9421811 Si02
#       6
#     8   8   4   8   8   4
#     4  10  24  41  65  94 134 173 216 283 320 402
#     4  11  21  41  66  93 128 170 216 274 335 381
#     4  10  20  38  66 100 112 170 230 258 334 390
#     4  10  22  41  69  90 134 166 216 281 324 393
#     4  11  25  41  66  95 134 179 222 262 336 404
#     4  10  22  48  58  96 138 164 214 278 334 378
#
# _framework density 21.086760999999999
#
# number of rings (size 3 to 8) (size 9 to 14) (size 15 to 20)
#    0.000    1.600    2.000    3.000    5.600    3.200 
#    0.000    1.000    0.000    0.000    0.000    0.000 
#    0.000    0.000    0.000    0.000    0.000    0.000 
#
# Total GULP energy -223386.163389 kJ/mol
# GULP energy per Si atom -5584.654085 kJ/mol
# Density = 2.103877 g / cm^3
# Si number density = 21.086761 Si / 1000 Ang^3
#
#
#
# Elastic Constant Matrix: (Units=GPa)
#
#
# Indices 1 2 3 4 5 6 
#
# 1 99.3719 16.6280 8.1986 0.0000 0.0000 0.0000
# 2 16.6280 38.1153 11.1567 0.0000 0.0000 0.0000
# 3 8.1986 11.1567 95.5102 0.0000 0.0000 0.0000
# 4 0.0000 0.0000 0.0000 -1.6323 0.0000 0.0000
# 5 0.0000 0.0000 0.0000 0.0000 14.2329 0.0000
# 6 0.0000 0.0000 0.0000 0.0000 0.0000 30.5338
#
#
#
# Elastic Compliance Matrix: (Units=1/GPa)
#
#
# Indices 1 2 3 4 5 6 
#
# 1 0.010870 -0.004627 -0.000393 0.000000 0.000000 0.000000
# 2 -0.004627 0.029135 -0.003006 0.000000 0.000000 0.000000
# 3 -0.000393 -0.003006 0.010855 0.000000 0.000000 0.000000
# 4 0.000000 0.000000 0.000000 -0.612642 0.000000 0.000000
# 5 0.000000 0.000000 0.000000 0.000000 0.070260 0.000000
# 6 0.000000 0.000000 0.000000 0.000000 0.000000 0.032751
#
#
# Mechanical properties :
#
#
# Convention : Reuss Voigt Hill
#
# Bulk Modulus (GPa) = 28.72907 33.88490 31.30698
# Shear Modulus (GPa) = -11.59776 21.76115 5.08170
#
# Velocity S-wave (km/s) = -2.34776 3.21593 1.55407
# Velocity P-wave (km/s) = 2.51088 5.46752 4.25431
#
# Compressibility (1/GPa) = 0.03480795
#
# Stress axis : x y z
#
# Youngs Moduli (GPa) = 91.99748 34.32329 92.12405
#
# Poissons Ratio (x) = 0.15882 0.03617
# Poissons Ratio (y) = 0.42569 0.27693
# Poissons Ratio (z) = 0.03612 0.10318
#
# Static dielectric constant tensor:
#      x y z
#    x 1.733720 0.000000 0.000000 
#    y 0.000000 1.792800 0.000000 
#    z 0.000000 0.000000 1.771820 
# 
# From -- ./inp_files/17874.got.cif
#   From: 2010.05.17/outbox.cif.g08.bks.cpg/sg54_9_cif.got.tgz:17874.got - 2010.06.03 13:09:01.
