data_PCOD9421087
_publ_section_title
;
Structure prediction by ZEFSAII (Michael W. Deem and Ramdas Pophale) SiO2 
 PCOD9421087
Probable space group: P C C A
;
_chemical_formula_sum "Si O2"
_cell_formula_units_Z 64
_cell_length_a 15.853042
_cell_length_b 9.808006
_cell_length_c 22.565338
_cell_angle_alpha 90.000000
_cell_angle_beta 90.000000
_cell_angle_gamma 90.000000
_cell_volume 3508.610641
_symmetry_space_group_name_H-M "P C C A"
_symmetry_group_IT_number 54
_symmetry_cell_setting 'orthorhombic'
loop_
_space_group_symop_operation_xyz
x,y,z
1/2-x,-y,z
1/2+x,-y,1/2-z
-x,y,1/2-z
-x,-y,-z
1/2+x,y,-z
1/2-x,y,1/2+z
x,-y,1/2+z
loop_
_atom_site_type_symbol
_atom_site_label
_atom_site_fract_x
_atom_site_fract_y
_atom_site_fract_z
Si Si1 0.465683 0.649907 0.012096
Si Si2 0.906272 0.842433 0.725884
Si Si3 0.597293 0.165578 0.230355
Si Si4 0.073803 0.138666 0.413304
Si Si5 0.243824 0.666355 0.717760
Si Si6 0.913295 0.833943 0.089431
Si Si7 0.757589 0.854120 0.513731
Si Si8 0.713469 0.350876 0.920115
O O1 0.520569 0.749436 0.052820
O O2 0.377893 0.646896 0.048572
O O3 0.500000 0.500000 0.000000
O O4 0.461167 0.719276 0.947250
O O5 0.915242 0.832613 0.655499
O O6 0.833079 0.740559 0.747623
O O7 0.000000 0.810866 0.750000
O O8 0.886528 0.002606 0.740897
O O9 0.500000 0.192995 0.250000
O O10 0.668538 0.258910 0.262248
O O11 0.600219 0.188445 0.159162
O O12 0.164553 0.142433 0.442978
O O13 0.042812 0.981878 0.418760
O O14 0.250000 0.500000 0.726815
O O15 0.221168 0.691396 0.648430
O O16 0.824122 0.836449 0.055014
O O17 0.767106 0.743894 0.463298
O O18 0.750000 0.000000 0.482785
O O19 0.750000 0.500000 0.922708
#
# Coordination Sequence:
#
# PCOD9421087 Si02
#       8
#     8   8   8   8   8   8   8   8
#     4  11  22  35  57  85 113 150 190 234 285 346
#     4  10  21  39  62  86 114 151 197 244 291 354
#     4  10  22  39  61  86 113 153 200 245 292 350
#     4  10  19  35  58  82 109 141 180 232 286 331
#     4  11  24  39  58  84 119 157 190 240 300 356
#     4   9  20  37  55  80 113 141 181 233 281 336
#     4   9  18  33  55  78 102 139 179 223 277 330
#     4  10  22  39  53  77 115 148 185 229 282 343
#
# _framework density 18.240839000000001
#
# number of rings (size 3 to 8) (size 9 to 14) (size 15 to 20)
#    0.000    2.000    0.000    3.000    0.000    7.500 
#    0.000    5.625    0.000    0.000    0.000    0.000 
#    0.000    0.000    0.000    0.000    0.000    0.000 
#
# Total GULP energy -356699.418549 kJ/mol
# GULP energy per Si atom -5573.428415 kJ/mol
# Density = 1.819932 g / cm^3
# Si number density = 18.240839 Si / 1000 Ang^3
#
#
#
# Elastic Constant Matrix: (Units=GPa)
#
#
# Indices 1 2 3 4 5 6 
#
# 1 68.9357 51.1855 35.6721 0.0000 0.0000 0.0000
# 2 51.1855 100.6345 71.7397 0.0000 0.0000 0.0000
# 3 35.6721 71.7397 113.7842 0.0000 0.0000 0.0000
# 4 0.0000 0.0000 0.0000 32.9268 0.0000 0.0000
# 5 0.0000 0.0000 0.0000 0.0000 20.2048 0.0000
# 6 0.0000 0.0000 0.0000 0.0000 0.0000 32.8709
#
#
#
# Elastic Compliance Matrix: (Units=1/GPa)
#
#
# Indices 1 2 3 4 5 6 
#
# 1 0.023315 -0.012075 0.000304 0.000000 0.000000 0.000000
# 2 -0.012075 0.024303 -0.011537 0.000000 0.000000 0.000000
# 3 0.000304 -0.011537 0.015967 0.000000 0.000000 0.000000
# 4 0.000000 0.000000 0.000000 0.030370 0.000000 0.000000
# 5 0.000000 0.000000 0.000000 0.000000 0.049493 0.000000
# 6 0.000000 0.000000 0.000000 0.000000 0.000000 0.030422
#
#
# Mechanical properties :
#
#
# Convention : Reuss Voigt Hill
#
# Bulk Modulus (GPa) = 58.93290 66.72765 62.83027
# Shear Modulus (GPa) = 22.10968 25.51765 23.81366
#
# Velocity S-wave (km/s) = 3.48530 3.74428 3.61711
# Velocity P-wave (km/s) = 6.96956 7.44001 7.20862
#
# Compressibility (1/GPa) = 0.01696845
#
# Stress axis : x y z
#
# Youngs Moduli (GPa) = 42.89074 41.14635 62.62739
#
# Poissons Ratio (x) = 0.49686 -0.01904
# Poissons Ratio (y) = 0.51792 0.72256
# Poissons Ratio (z) = -0.01304 0.47472
#
# Static dielectric constant tensor:
#      x y z
#    x 1.587220 0.000000 0.000000 
#    y 0.000000 1.666210 0.000000 
#    z 0.000000 0.000000 1.573500 
# 
# From -- ./inp_files/21945.got.cif
#   From: 2010.05.17/outbox.cif.g08.bks.cpg/sg54_11_cif.got.tgz:21945.got - 2010.06.03 13:09:01.
