data_PCOD9421654
_publ_section_title
;
Structure prediction by ZEFSAII (Michael W. Deem and Ramdas Pophale) SiO2 
 PCOD9421654
Probable space group: P C C A
;
_chemical_formula_sum "Si O2"
_cell_formula_units_Z 48
_cell_length_a 15.048448
_cell_length_b 8.287539
_cell_length_c 19.356662
_cell_angle_alpha 90.000000
_cell_angle_beta 90.000000
_cell_angle_gamma 90.000000
_cell_volume 2414.058353
_symmetry_space_group_name_H-M "P C C A"
_symmetry_group_IT_number 54
_symmetry_cell_setting 'orthorhombic'
loop_
_space_group_symop_operation_xyz
x,y,z
1/2-x,-y,z
1/2+x,-y,1/2-z
-x,y,1/2-z
-x,-y,-z
1/2+x,y,-z
1/2-x,y,1/2+z
x,-y,1/2+z
loop_
_atom_site_type_symbol
_atom_site_label
_atom_site_fract_x
_atom_site_fract_y
_atom_site_fract_z
Si Si1 0.602559 0.348015 0.769808
Si Si2 0.220306 0.685511 0.449608
Si Si3 0.780713 0.310566 0.392422
Si Si4 0.427823 0.821748 0.848400
Si Si5 0.382698 0.723013 0.697969
Si Si6 0.668180 0.121647 0.650236
O O1 0.500000 0.331872 0.750000
O O2 0.632667 0.287826 0.845101
O O3 0.624778 0.538308 0.774825
O O4 0.655117 0.249182 0.711534
O O5 0.250000 0.500000 0.446820
O O6 0.204753 0.736273 0.528650
O O7 0.135975 0.723418 0.400286
O O8 0.301213 0.785687 0.417724
O O9 0.750000 0.500000 0.394437
O O10 0.699703 0.231168 0.350035
O O11 0.392730 0.817529 0.769286
O O12 0.526110 0.748772 0.844299
O O13 0.417250 0.010768 0.864854
O O14 0.750000 0.000000 0.665435
#
# Coordination Sequence:
#
# PCOD9421654 Si02
#       6
#     8   8   8   8   8   8
#     4  11  21  38  63  94 117 153 210 257 296 366
#     4  10  20  38  60  84 118 165 201 248 303 364
#     4   9  20  38  59  89 121 153 203 255 305 358
#     4  10  20  37  59  87 121 158 200 250 305 365
#     4  10  20  39  64  90 119 158 204 257 305 358
#     4  10  22  38  60  87 122 162 202 244 303 368
#
# _framework density 19.88353
#
# number of rings (size 3 to 8) (size 9 to 14) (size 15 to 20)
#    0.000    2.000    1.667    3.000    2.333    1.333 
#    3.000   10.833    0.000    0.000    0.000    0.000 
#    0.000    0.000    0.000    0.000    0.000    0.000 
#
# Total GULP energy -267701.395521 kJ/mol
# GULP energy per Si atom -5577.112407 kJ/mol
# Density = 1.983827 g / cm^3
# Si number density = 19.883530 Si / 1000 Ang^3
#
#
#
# Elastic Constant Matrix: (Units=GPa)
#
#
# Indices 1 2 3 4 5 6 
#
# 1 57.0554 24.8991 50.8027 0.0000 0.0000 0.0000
# 2 24.8991 62.1487 17.3692 0.0000 0.0000 0.0000
# 3 50.8027 17.3692 145.0448 0.0000 0.0000 0.0000
# 4 0.0000 0.0000 0.0000 -19.3040 0.0000 0.0000
# 5 0.0000 0.0000 0.0000 0.0000 8.8870 0.0000
# 6 0.0000 0.0000 0.0000 0.0000 0.0000 25.5652
#
#
#
# Elastic Compliance Matrix: (Units=1/GPa)
#
#
# Indices 1 2 3 4 5 6 
#
# 1 0.029969 -0.009387 -0.009373 0.000000 0.000000 0.000000
# 2 -0.009387 0.019588 0.000942 0.000000 0.000000 0.000000
# 3 -0.009373 0.000942 0.010064 0.000000 0.000000 0.000000
# 4 0.000000 0.000000 0.000000 -0.051803 0.000000 0.000000
# 5 0.000000 0.000000 0.000000 0.000000 0.112524 0.000000
# 6 0.000000 0.000000 0.000000 0.000000 0.000000 0.039116
#
#
# Mechanical properties :
#
#
# Convention : Reuss Voigt Hill
#
# Bulk Modulus (GPa) = 41.69087 50.04343 45.86715
# Shear Modulus (GPa) = 24.61977 14.44150 19.53064
#
# Velocity S-wave (km/s) = 3.52262 2.69793 3.13749
# Velocity P-wave (km/s) = 6.12848 5.90999 6.02023
#
# Compressibility (1/GPa) = 0.02398607
#
# Stress axis : x y z
#
# Youngs Moduli (GPa) = 33.36788 51.05171 99.36004
#
# Poissons Ratio (x) = 0.47923 0.93127
# Poissons Ratio (y) = 0.31323 -0.09362
# Poissons Ratio (z) = 0.31275 -0.04810
#
# Static dielectric constant tensor:
#      x y z
#    x 1.739160 0.000000 0.000000 
#    y 0.000000 1.767600 0.000000 
#    z 0.000000 0.000000 1.684370 
# 
# From -- ./inp_files/18488.got.cif
#   From: 2010.05.17/outbox.cif.g08.bks.cpg/sg54_10_cif.got.tgz:18488.got - 2010.06.03 13:09:01.
