data_PCOD9421116
_publ_section_title
;
Structure prediction by ZEFSAII (Michael W. Deem and Ramdas Pophale) SiO2 
 PCOD9421116
Probable space group: P C C A
;
_chemical_formula_sum "Si O2"
_cell_formula_units_Z 24
_cell_length_a 4.843256
_cell_length_b 6.950348
_cell_length_c 25.333151
_cell_angle_alpha 90.000000
_cell_angle_beta 90.000000
_cell_angle_gamma 90.000000
_cell_volume 852.772500
_symmetry_space_group_name_H-M "P C C A"
_symmetry_group_IT_number 54
_symmetry_cell_setting 'orthorhombic'
loop_
_space_group_symop_operation_xyz
x,y,z
1/2-x,-y,z
1/2+x,-y,1/2-z
-x,y,1/2-z
-x,-y,-z
1/2+x,y,-z
1/2-x,y,1/2+z
x,-y,1/2+z
loop_
_atom_site_type_symbol
_atom_site_label
_atom_site_fract_x
_atom_site_fract_y
_atom_site_fract_z
Si Si1 0.365933 0.793628 0.370973
Si Si2 0.277639 0.767280 0.031363
Si Si3 0.142483 0.286547 0.697868
O O1 0.555514 0.705619 0.417031
O O2 0.589310 0.820759 0.324374
O O3 0.096093 0.695558 0.346572
O O4 0.250000 0.000000 0.389563
O O5 0.250000 0.000000 0.034404
O O6 0.468263 0.708155 0.981731
O O7 0.250000 0.500000 0.710777
O O8 0.000000 0.204626 0.750000
#
# Coordination Sequence:
#
# PCOD9421116 Si02
#       3
#     8   8   8
#     4  12  24  41  69 103 130 161 216 278 320 362
#     4  10  19  35  61  95 134 170 206 255 319 387
#     4  12  26  47  68  89 128 179 218 256 325 404
#
# _framework density 28.143491999999998
#
# number of rings (size 3 to 8) (size 9 to 14) (size 15 to 20)
#    0.000    0.667    0.000   12.000    0.000    2.667 
#    0.000    3.333    0.000   20.000    0.000    0.000 
#    0.000    0.000    0.000    0.000    0.000    0.000 
#
# Total GULP energy -134604.016315 kJ/mol
# GULP energy per Si atom -5608.500680 kJ/mol
# Density = 2.807944 g / cm^3
# Si number density = 28.143492 Si / 1000 Ang^3
#
#
#
# Elastic Constant Matrix: (Units=GPa)
#
#
# Indices 1 2 3 4 5 6 
#
# 1 243.3140 11.5005 76.3938 0.0000 0.0000 0.0000
# 2 11.5005 73.8602 6.3262 0.0000 0.0000 0.0000
# 3 76.3938 6.3262 139.7198 0.0000 0.0000 0.0000
# 4 0.0000 0.0000 0.0000 20.1847 0.0000 0.0000
# 5 0.0000 0.0000 0.0000 0.0000 80.4608 0.0000
# 6 0.0000 0.0000 0.0000 0.0000 0.0000 30.8267
#
#
#
# Elastic Compliance Matrix: (Units=1/GPa)
#
#
# Indices 1 2 3 4 5 6 
#
# 1 0.004983 -0.000545 -0.002700 0.000000 0.000000 0.000000
# 2 -0.000545 0.013651 -0.000320 0.000000 0.000000 0.000000
# 3 -0.002700 -0.000320 0.008648 0.000000 0.000000 0.000000
# 4 0.000000 0.000000 0.000000 0.049542 0.000000 0.000000
# 5 0.000000 0.000000 0.000000 0.000000 0.012428 0.000000
# 6 0.000000 0.000000 0.000000 0.000000 0.000000 0.032439
#
#
# Mechanical properties :
#
#
# Convention : Reuss Voigt Hill
#
# Bulk Modulus (GPa) = 49.62131 71.70387 60.66259
# Shear Modulus (GPa) = 36.88931 50.47269 43.68100
#
# Velocity S-wave (km/s) = 3.62437 4.23946 3.94392
# Velocity P-wave (km/s) = 5.93166 7.03543 6.50699
#
# Compressibility (1/GPa) = 0.02015263
#
# Stress axis : x y z
#
# Youngs Moduli (GPa) = 200.66571 73.25289 115.63377
#
# Poissons Ratio (x) = 0.03990 0.31222
# Poissons Ratio (y) = 0.10930 0.03704
# Poissons Ratio (z) = 0.54182 0.02346
#
# Static dielectric constant tensor:
#      x y z
#    x 2.037650 0.000000 0.000000 
#    y 0.000000 2.294940 0.000000 
#    z 0.000000 0.000000 2.206490 
# 
# From -- ./inp_files/24985.got.cif
#   From: 2010.05.17/outbox.cif.g08.bks.cpg/sg54_13_cif.got.tgz:24985.got - 2010.06.03 13:09:01.
