data_PCOD9421416
_publ_section_title
;
Structure prediction by ZEFSAII (Michael W. Deem and Ramdas Pophale) SiO2 
 PCOD9421416
Probable space group: P C C A
;
_chemical_formula_sum "Si O2"
_cell_formula_units_Z 48
_cell_length_a 8.309576
_cell_length_b 22.649265
_cell_length_c 12.211193
_cell_angle_alpha 90.000000
_cell_angle_beta 90.000000
_cell_angle_gamma 90.000000
_cell_volume 2298.217212
_symmetry_space_group_name_H-M "P C C A"
_symmetry_group_IT_number 54
_symmetry_cell_setting 'orthorhombic'
loop_
_space_group_symop_operation_xyz
x,y,z
1/2-x,-y,z
1/2+x,-y,1/2-z
-x,y,1/2-z
-x,-y,-z
1/2+x,y,-z
1/2-x,y,1/2+z
x,-y,1/2+z
loop_
_atom_site_type_symbol
_atom_site_label
_atom_site_fract_x
_atom_site_fract_y
_atom_site_fract_z
Si Si1 0.710222 0.653393 0.603922
Si Si2 0.000000 0.376793 0.250000
Si Si3 0.999661 0.070831 0.373933
Si Si4 0.250000 0.000000 0.485299
Si Si5 0.876649 0.546245 0.952614
Si Si6 0.410494 0.207851 0.635106
Si Si7 0.906645 0.729041 0.433378
O O1 0.673793 0.588206 0.555069
O O2 0.797802 0.683085 0.500196
O O3 0.547751 0.691169 0.625366
O O4 0.837440 0.654351 0.703946
O O5 0.944459 0.413564 0.355829
O O6 0.175951 0.054739 0.418087
O O7 0.000000 0.051776 0.250000
O O8 0.936465 0.137688 0.378054
O O9 0.882222 0.029194 0.439532
O O10 0.750000 0.500000 0.903542
O O11 0.000000 0.500000 0.000000
O O12 0.500000 0.223568 0.750000
O O13 0.501469 0.235089 0.529751
O O14 0.223912 0.230186 0.630832
#
# Coordination Sequence:
#
# PCOD9421416 Si02
#       7
#     8   4   8   4   8   8   8
#     4  11  23  45  68  99 130 168 223 275 329 415
#     4  12  26  42  76  94 134 182 206 274 342 406
#     4  10  20  36  58  94 130 177 224 273 324 400
#     4  10  20  34  60  88 136 180 220 272 336 376
#     4  12  25  45  65  98 135 166 218 266 329 407
#     4  10  22  40  67  95 134 176 226 283 340 398
#     4  10  22  43  68  96 131 168 221 288 328 402
#
# _framework density 20.885755
#
# number of rings (size 3 to 8) (size 9 to 14) (size 15 to 20)
#    0.000    1.333    3.333    1.500    3.500    0.000 
#    0.000    8.333    0.000   14.000    0.000    0.000 
#    0.000    0.000    0.000    0.000    0.000    0.000 
#
# Total GULP energy -267688.589620 kJ/mol
# GULP energy per Si atom -5576.845617 kJ/mol
# Density = 2.083822 g / cm^3
# Si number density = 20.885755 Si / 1000 Ang^3
#
#
#
# Elastic Constant Matrix: (Units=GPa)
#
#
# Indices 1 2 3 4 5 6 
#
# 1 154.6307 64.3526 61.6208 0.0000 0.0000 0.0000
# 2 64.3526 80.9697 51.0186 0.0000 0.0000 0.0000
# 3 61.6208 51.0186 108.6050 0.0000 0.0000 0.0000
# 4 0.0000 0.0000 0.0000 26.8238 0.0000 0.0000
# 5 0.0000 0.0000 0.0000 0.0000 43.4498 0.0000
# 6 0.0000 0.0000 0.0000 0.0000 0.0000 43.1561
#
#
#
# Elastic Compliance Matrix: (Units=1/GPa)
#
#
# Indices 1 2 3 4 5 6 
#
# 1 0.010238 -0.006359 -0.002822 0.000000 0.000000 0.000000
# 2 -0.006359 0.021492 -0.006488 0.000000 0.000000 0.000000
# 3 -0.002822 -0.006488 0.013857 0.000000 0.000000 0.000000
# 4 0.000000 0.000000 0.000000 0.037280 0.000000 0.000000
# 5 0.000000 0.000000 0.000000 0.000000 0.023015 0.000000
# 6 0.000000 0.000000 0.000000 0.000000 0.000000 0.023172
#
#
# Mechanical properties :
#
#
# Convention : Reuss Voigt Hill
#
# Bulk Modulus (GPa) = 70.17989 77.57659 73.87824
# Shear Modulus (GPa) = 30.27705 33.83351 32.05528
#
# Velocity S-wave (km/s) = 3.81156 4.02920 3.92189
# Velocity P-wave (km/s) = 7.28323 7.67267 7.48048
#
# Compressibility (1/GPa) = 0.01424910
#
# Stress axis : x y z
#
# Youngs Moduli (GPa) = 97.67719 46.52787 72.16754
#
# Poissons Ratio (x) = 0.29586 0.20363
# Poissons Ratio (y) = 0.62112 0.46826
# Poissons Ratio (z) = 0.27561 0.30189
#
# Static dielectric constant tensor:
#      x y z
#    x 1.781930 0.000000 0.000000 
#    y 0.000000 1.762430 0.000000 
#    z 0.000000 0.000000 1.749480 
# 
# From -- ./inp_files/6983.got.cif
#   From: 2010.05.17/outbox.cif.g08.bks.cpg/sg54_4_cif.got.tgz:6983.got - 2010.06.03 13:09:01.
