data_PCOD9421894
_publ_section_title
;
Structure prediction by ZEFSAII (Michael W. Deem and Ramdas Pophale) SiO2 
 PCOD9421894
Probable space group: P C C A
;
_chemical_formula_sum "Si O2"
_cell_formula_units_Z 64
_cell_length_a 11.551199
_cell_length_b 14.607667
_cell_length_c 19.189122
_cell_angle_alpha 90.000000
_cell_angle_beta 90.000000
_cell_angle_gamma 90.000000
_cell_volume 3237.897003
_symmetry_space_group_name_H-M "P C C A"
_symmetry_group_IT_number 54
_symmetry_cell_setting 'orthorhombic'
loop_
_space_group_symop_operation_xyz
x,y,z
1/2-x,-y,z
1/2+x,-y,1/2-z
-x,y,1/2-z
-x,-y,-z
1/2+x,y,-z
1/2-x,y,1/2+z
x,-y,1/2+z
loop_
_atom_site_type_symbol
_atom_site_label
_atom_site_fract_x
_atom_site_fract_y
_atom_site_fract_z
Si Si1 0.280384 0.901665 0.337743
Si Si2 0.907913 0.271496 0.192195
Si Si3 0.571200 0.245283 0.938140
Si Si4 0.769300 0.608446 0.460435
Si Si5 0.492545 0.699929 0.591891
Si Si6 0.015529 0.876014 0.332173
Si Si7 0.498807 0.047255 0.924992
Si Si8 0.729609 0.393502 0.123680
O O1 0.353329 0.828899 0.293711
O O2 0.152239 0.863659 0.353499
O O3 0.250000 0.000000 0.304664
O O4 0.367225 0.921241 0.402900
O O5 0.801844 0.338527 0.180467
O O6 0.000000 0.296913 0.250000
O O7 0.975344 0.270878 0.118876
O O8 0.675097 0.318453 0.932034
O O9 0.528709 0.256828 0.017410
O O10 0.582489 0.135772 0.925405
O O11 0.750000 0.500000 0.450374
O O12 0.772370 0.624233 0.544074
O O13 0.888861 0.632842 0.424819
O O14 0.456262 0.784261 0.640303
O O15 0.598624 0.642396 0.623115
O O16 0.972560 0.968330 0.369284
O O17 0.000000 0.884228 0.250000
O O18 0.500000 0.000000 0.000000
O O19 0.750000 0.500000 0.135928
#
# Coordination Sequence:
#
# PCOD9421894 Si02
#       8
#     8   8   8   8   8   8   8   8
#     4   9  21  38  63  87 127 173 214 261 335 390
#     4  11  22  40  65  94 130 171 222 277 331 405
#     4  10  22  38  65  96 131 167 230 270 343 392
#     4  10  23  39  66 103 134 170 219 290 340 400
#     4  11  21  41  68  93 136 173 224 277 340 411
#     4  11  23  41  65  94 135 181 223 268 340 415
#     4  10  20  39  66  98 129 175 224 277 331 399
#     4  10  22  39  68  95 129 177 225 272 348 404
#
# _framework density 19.765917000000002
#
# number of rings (size 3 to 8) (size 9 to 14) (size 15 to 20)
#    0.000    1.750    3.750    0.000    1.750    7.000 
#    2.250    3.125    0.000    0.000    0.000    0.000 
#    0.000    0.000    0.000    0.000    0.000    0.000 
#
# Total GULP energy -356877.094907 kJ/mol
# GULP energy per Si atom -5576.204608 kJ/mol
# Density = 1.972093 g / cm^3
# Si number density = 19.765917 Si / 1000 Ang^3
#
#
#
# Elastic Constant Matrix: (Units=GPa)
#
#
# Indices 1 2 3 4 5 6 
#
# 1 84.7737 73.8433 29.5727 0.0000 0.0000 0.0000
# 2 73.8433 151.6111 52.1773 0.0000 0.0000 0.0000
# 3 29.5727 52.1773 72.7651 0.0000 0.0000 0.0000
# 4 0.0000 0.0000 0.0000 12.4164 0.0000 0.0000
# 5 0.0000 0.0000 0.0000 0.0000 24.3806 0.0000
# 6 0.0000 0.0000 0.0000 0.0000 0.0000 33.0432
#
#
#
# Elastic Compliance Matrix: (Units=1/GPa)
#
#
# Indices 1 2 3 4 5 6 
#
# 1 0.020622 -0.009505 -0.001565 0.000000 0.000000 0.000000
# 2 -0.009505 0.013138 -0.005558 0.000000 0.000000 0.000000
# 3 -0.001565 -0.005558 0.018364 0.000000 0.000000 0.000000
# 4 0.000000 0.000000 0.000000 0.080539 0.000000 0.000000
# 5 0.000000 0.000000 0.000000 0.000000 0.041016 0.000000
# 6 0.000000 0.000000 0.000000 0.000000 0.000000 0.030263
#
#
# Mechanical properties :
#
#
# Convention : Reuss Voigt Hill
#
# Bulk Modulus (GPa) = 53.00032 68.92628 60.96330
# Shear Modulus (GPa) = 20.53485 24.20514 22.36999
#
# Velocity S-wave (km/s) = 3.22670 3.50321 3.36779
# Velocity P-wave (km/s) = 6.38391 7.16312 6.78471
#
# Compressibility (1/GPa) = 0.01886781
#
# Stress axis : x y z
#
# Youngs Moduli (GPa) = 48.49207 76.11351 54.45377
#
# Poissons Ratio (x) = 0.72349 0.08522
# Poissons Ratio (y) = 0.46094 0.30265
# Poissons Ratio (z) = 0.07589 0.42303
#
# Static dielectric constant tensor:
#      x y z
#    x 1.727960 0.000000 0.000000 
#    y 0.000000 1.725050 0.000000 
#    z 0.000000 0.000000 1.670070 
# 
# From -- ./inp_files/17453.got.cif
#   From: 2010.05.17/outbox.cif.g08.bks.cpg/sg54_9_cif.got.tgz:17453.got - 2010.06.03 13:09:01.
