data_PCOD9421555
_publ_section_title
;
Structure prediction by ZEFSAII (Michael W. Deem and Ramdas Pophale) SiO2 
 PCOD9421555
Probable space group: P C C A
;
_chemical_formula_sum "Si O2"
_cell_formula_units_Z 32
_cell_length_a 5.201752
_cell_length_b 13.236281
_cell_length_c 24.952510
_cell_angle_alpha 90.000000
_cell_angle_beta 90.000000
_cell_angle_gamma 90.000000
_cell_volume 1718.026505
_symmetry_space_group_name_H-M "P C C A"
_symmetry_group_IT_number 54
_symmetry_cell_setting 'orthorhombic'
loop_
_space_group_symop_operation_xyz
x,y,z
1/2-x,-y,z
1/2+x,-y,1/2-z
-x,y,1/2-z
-x,-y,-z
1/2+x,y,-z
1/2-x,y,1/2+z
x,-y,1/2+z
loop_
_atom_site_type_symbol
_atom_site_label
_atom_site_fract_x
_atom_site_fract_y
_atom_site_fract_z
Si Si1 0.991369 0.115831 0.523727
Si Si2 0.250000 0.500000 0.214155
Si Si3 0.547537 0.288956 0.814249
Si Si4 0.059035 0.819350 0.354743
Si Si5 0.250000 0.000000 0.281601
O O1 0.758980 0.164495 0.491840
O O2 0.947170 0.131023 0.586293
O O3 0.000000 0.000000 0.500000
O O4 0.500000 0.467873 0.250000
O O5 0.354043 0.595758 0.181597
O O6 0.500000 0.274760 0.750000
O O7 0.283742 0.263538 0.845434
O O8 0.780456 0.220874 0.836720
O O9 0.142613 0.908934 0.316031
O O10 0.500000 0.962831 0.250000
#
# Coordination Sequence:
#
# PCOD9421555 Si02
#       5
#     8   4   8   8   4
#     4  10  21  38  56  77 105 142 194 249 283 322
#     4  10  20  36  60  86 118 156 190 234 280 332
#     4  11  22  38  58  88 121 152 189 230 281 349
#     4  12  23  37  57  82 114 155 192 235 286 337
#     4  12  24  34  48  76 118 158 184 214 270 348
#
# _framework density 18.626021000000001
#
# number of rings (size 3 to 8) (size 9 to 14) (size 15 to 20)
#    0.000    1.000    0.000   10.500    0.000    4.000 
#    0.000    0.000    0.000    0.000    0.000   17.500 
#    0.000    0.000    0.000    0.000    0.000    0.000 
#
# Total GULP energy -178525.998823 kJ/mol
# GULP energy per Si atom -5578.937463 kJ/mol
# Density = 1.858363 g / cm^3
# Si number density = 18.626021 Si / 1000 Ang^3
#
#
#
# Elastic Constant Matrix: (Units=GPa)
#
#
# Indices 1 2 3 4 5 6 
#
# 1 146.9652 10.9398 43.6263 0.0000 0.0000 0.0000
# 2 10.9398 74.2592 31.5459 0.0000 0.0000 0.0000
# 3 43.6263 31.5459 119.6488 0.0000 0.0000 0.0000
# 4 0.0000 0.0000 0.0000 21.6796 0.0000 0.0000
# 5 0.0000 0.0000 0.0000 0.0000 42.8293 0.0000
# 6 0.0000 0.0000 0.0000 0.0000 0.0000 22.0525
#
#
#
# Elastic Compliance Matrix: (Units=1/GPa)
#
#
# Indices 1 2 3 4 5 6 
#
# 1 0.007630 0.000065 -0.002799 0.000000 0.000000 0.000000
# 2 0.000065 0.015165 -0.004022 0.000000 0.000000 0.000000
# 3 -0.002799 -0.004022 0.010439 0.000000 0.000000 0.000000
# 4 0.000000 0.000000 0.000000 0.046126 0.000000 0.000000
# 5 0.000000 0.000000 0.000000 0.000000 0.023349 0.000000
# 6 0.000000 0.000000 0.000000 0.000000 0.000000 0.045346
#
#
# Mechanical properties :
#
#
# Convention : Reuss Voigt Hill
#
# Bulk Modulus (GPa) = 50.70498 57.01082 53.85790
# Shear Modulus (GPa) = 29.73659 34.29633 32.01646
#
# Velocity S-wave (km/s) = 3.99997 4.29571 4.15047
# Velocity P-wave (km/s) = 6.97243 7.43497 7.20741
#
# Compressibility (1/GPa) = 0.01972193
#
# Stress axis : x y z
#
# Youngs Moduli (GPa) = 131.05339 65.93959 95.79492
#
# Poissons Ratio (x) = -0.00429 0.26817
# Poissons Ratio (y) = -0.00853 0.38530
# Poissons Ratio (z) = 0.36687 0.26522
#
# Static dielectric constant tensor:
#      x y z
#    x 1.708910 0.000000 0.000000 
#    y 0.000000 1.647590 0.000000 
#    z 0.000000 0.000000 1.705200 
# 
# From -- ./inp_files/19530.got.cif
#   From: 2010.05.17/outbox.cif.g08.bks.cpg/sg54_10_cif.got.tgz:19530.got - 2010.06.03 13:09:01.
