data_PCOD9421777
_publ_section_title
;
Structure prediction by ZEFSAII (Michael W. Deem and Ramdas Pophale) SiO2 
 PCOD9421777
Probable space group: P C C A
;
_chemical_formula_sum "Si O2"
_cell_formula_units_Z 40
_cell_length_a 7.699788
_cell_length_b 8.825960
_cell_length_c 24.080962
_cell_angle_alpha 90.000000
_cell_angle_beta 90.000000
_cell_angle_gamma 90.000000
_cell_volume 1636.494519
_symmetry_space_group_name_H-M "P C C A"
_symmetry_group_IT_number 54
_symmetry_cell_setting 'orthorhombic'
loop_
_space_group_symop_operation_xyz
x,y,z
1/2-x,-y,z
1/2+x,-y,1/2-z
-x,y,1/2-z
-x,-y,-z
1/2+x,y,-z
1/2-x,y,1/2+z
x,-y,1/2+z
loop_
_atom_site_type_symbol
_atom_site_label
_atom_site_fract_x
_atom_site_fract_y
_atom_site_fract_z
Si Si1 0.470745 0.156328 0.685185
Si Si2 0.614840 0.296059 0.579891
Si Si3 0.290055 0.176409 0.515503
Si Si4 0.924027 0.595712 0.408477
Si Si5 0.444258 0.190890 0.186750
O O1 0.500000 0.185972 0.750000
O O2 0.586875 0.256029 0.644161
O O3 0.264600 0.181976 0.677656
O O4 0.510593 0.978905 0.674039
O O5 0.467307 0.197232 0.548707
O O6 0.784038 0.240835 0.547164
O O7 0.556698 0.468572 0.569932
O O8 0.154330 0.282302 0.548831
O O9 0.250000 0.000000 0.515960
O O10 0.750000 0.500000 0.391740
O O11 0.001632 0.679599 0.355150
O O12 0.500000 0.222475 0.250000
#
# Coordination Sequence:
#
# PCOD9421777 Si02
#       5
#     8   8   8   8   8
#     4  10  21  41  64  91 126 159 204 260 320 370
#     4  11  23  41  63  90 128 166 203 265 315 381
#     4  11  22  40  64  90 122 166 211 256 314 376
#     4  10  20  38  63  88 126 168 203 259 325 377
#     4  10  20  39  67  88 120 165 207 254 312 381
#
# _framework density 24.442488999999998
#
# number of rings (size 3 to 8) (size 9 to 14) (size 15 to 20)
#    0.000    1.600    4.000    2.400    0.000    0.800 
#   10.800    0.000    0.000    0.000    0.000    0.000 
#    0.000    0.000    0.000    0.000    0.000    0.000 
#
# Total GULP energy -224045.017370 kJ/mol
# GULP energy per Si atom -5601.125434 kJ/mol
# Density = 2.438686 g / cm^3
# Si number density = 24.442489 Si / 1000 Ang^3
#
#
#
# Elastic Constant Matrix: (Units=GPa)
#
#
# Indices 1 2 3 4 5 6 
#
# 1 75.2380 3.0266 12.4960 0.0000 0.0000 0.0000
# 2 3.0266 160.5773 71.0338 0.0000 0.0000 0.0000
# 3 12.4960 71.0338 122.6628 0.0000 0.0000 0.0000
# 4 0.0000 0.0000 0.0000 26.5688 0.0000 0.0000
# 5 0.0000 0.0000 0.0000 0.0000 32.6597 0.0000
# 6 0.0000 0.0000 0.0000 0.0000 0.0000 13.2626
#
#
#
# Elastic Compliance Matrix: (Units=1/GPa)
#
#
# Indices 1 2 3 4 5 6 
#
# 1 0.013547 0.000477 -0.001657 0.000000 0.000000 0.000000
# 2 0.000477 0.008389 -0.004907 0.000000 0.000000 0.000000
# 3 -0.001657 -0.004907 0.011163 0.000000 0.000000 0.000000
# 4 0.000000 0.000000 0.000000 0.037638 0.000000 0.000000
# 5 0.000000 0.000000 0.000000 0.000000 0.030619 0.000000
# 6 0.000000 0.000000 0.000000 0.000000 0.000000 0.075400
#
#
# Mechanical properties :
#
#
# Convention : Reuss Voigt Hill
#
# Bulk Modulus (GPa) = 47.78482 59.06565 53.42523
# Shear Modulus (GPa) = 25.52281 32.62632 29.07457
#
# Velocity S-wave (km/s) = 3.23491 3.65748 3.45267
# Velocity P-wave (km/s) = 5.79182 6.48489 6.14813
#
# Compressibility (1/GPa) = 0.02092715
#
# Stress axis : x y z
#
# Youngs Moduli (GPa) = 73.81661 119.20209 89.58414
#
# Poissons Ratio (x) = -0.05692 0.14840
# Poissons Ratio (y) = -0.03525 0.43957
# Poissons Ratio (z) = 0.12228 0.58490
#
# Static dielectric constant tensor:
#      x y z
#    x 2.106470 0.000000 0.000000 
#    y 0.000000 1.890480 0.000000 
#    z 0.000000 0.000000 1.936630 
# 
# From -- ./inp_files/23227.got.cif
#   From: 2010.05.17/outbox.cif.g08.bks.cpg/sg54_12_cif.got.tgz:23227.got - 2010.06.03 13:09:01.
