data_PCOD9421377
_publ_section_title
;
Structure prediction by ZEFSAII (Michael W. Deem and Ramdas Pophale) SiO2 
 PCOD9421377
Probable space group: P C C A
;
_chemical_formula_sum "Si O2"
_cell_formula_units_Z 60
_cell_length_a 26.638304
_cell_length_b 13.985449
_cell_length_c 8.879673
_cell_angle_alpha 90.000000
_cell_angle_beta 90.000000
_cell_angle_gamma 90.000000
_cell_volume 3308.110118
_symmetry_space_group_name_H-M "P C C A"
_symmetry_group_IT_number 54
_symmetry_cell_setting 'orthorhombic'
loop_
_space_group_symop_operation_xyz
x,y,z
1/2-x,-y,z
1/2+x,-y,1/2-z
-x,y,1/2-z
-x,-y,-z
1/2+x,y,-z
1/2-x,y,1/2+z
x,-y,1/2+z
loop_
_atom_site_type_symbol
_atom_site_label
_atom_site_fract_x
_atom_site_fract_y
_atom_site_fract_z
Si Si1 0.250000 0.500000 0.015132
Si Si2 0.932411 0.856276 0.992318
Si Si3 0.177063 0.548135 0.760974
Si Si4 0.900745 0.605050 0.319593
Si Si5 0.058504 0.958116 0.204274
Si Si6 0.947423 0.548624 0.009615
Si Si7 0.409278 0.699079 0.204972
Si Si8 0.048424 0.783841 0.009623
O O1 0.210900 0.553655 0.908479
O O2 0.284800 0.562719 0.123036
O O3 0.896279 0.774483 0.926927
O O4 0.933559 0.936673 0.861682
O O5 0.917487 0.910566 0.146225
O O6 0.987577 0.804090 0.015383
O O7 0.152280 0.440544 0.742566
O O8 0.135696 0.630845 0.756277
O O9 0.935554 0.585778 0.174416
O O10 0.908653 0.532548 0.458658
O O11 0.923250 0.705438 0.382938
O O12 0.068303 0.885946 0.066438
O O13 0.000000 0.956812 0.250000
O O14 0.946272 0.626995 0.879861
O O15 0.000000 0.500000 0.000000
O O16 0.435561 0.752382 0.343139
#
# Coordination Sequence:
#
# PCOD9421377 Si02
#       8
#     4   8   8   8   8   8   8   8
#     4  10  20  38  58  74 102 132 168 206 282 334
#     4  11  21  35  52  74 107 149 186 223 258 295
#     4  10  21  36  56  79 102 134 166 220 265 328
#     4  11  21  35  50  72 104 135 180 220 257 300
#     4  10  20  34  50  71 102 146 193 224 251 288
#     4  11  22  33  45  67 103 146 179 210 248 300
#     4  11  21  34  51  75 104 132 175 218 261 305
#     4  11  21  33  50  73 105 148 183 218 255 295
#
# _framework density 18.137243000000002
#
# number of rings (size 3 to 8) (size 9 to 14) (size 15 to 20)
#    0.000    1.333    0.000    9.600    0.000    4.267 
#    0.000    0.000    0.000    0.000    0.000    0.000 
#    0.000   36.267    0.000    0.000    0.000    0.000 
#
# Total GULP energy -334074.342439 kJ/mol
# GULP energy per Si atom -5567.905707 kJ/mol
# Density = 1.809596 g / cm^3
# Si number density = 18.137243 Si / 1000 Ang^3
#
#
#
# Elastic Constant Matrix: (Units=GPa)
#
#
# Indices 1 2 3 4 5 6 
#
# 1 49.5037 28.2624 33.4755 0.0000 0.0000 0.0000
# 2 28.2624 97.3303 32.2695 0.0000 0.0000 0.0000
# 3 33.4755 32.2695 99.6852 0.0000 0.0000 0.0000
# 4 0.0000 0.0000 0.0000 38.4002 0.0000 0.0000
# 5 0.0000 0.0000 0.0000 0.0000 27.0818 0.0000
# 6 0.0000 0.0000 0.0000 0.0000 0.0000 11.1710
#
#
#
# Elastic Compliance Matrix: (Units=1/GPa)
#
#
# Indices 1 2 3 4 5 6 
#
# 1 0.028763 -0.005769 -0.007791 0.000000 0.000000 0.000000
# 2 -0.005769 0.012667 -0.002163 0.000000 0.000000 0.000000
# 3 -0.007791 -0.002163 0.013348 0.000000 0.000000 0.000000
# 4 0.000000 0.000000 0.000000 0.026042 0.000000 0.000000
# 5 0.000000 0.000000 0.000000 0.000000 0.036925 0.000000
# 6 0.000000 0.000000 0.000000 0.000000 0.000000 0.089518
#
#
# Mechanical properties :
#
#
# Convention : Reuss Voigt Hill
#
# Bulk Modulus (GPa) = 42.86164 48.28157 45.57161
# Shear Modulus (GPa) = 20.28517 25.49805 22.89161
#
# Velocity S-wave (km/s) = 3.34792 3.75352 3.55651
# Velocity P-wave (km/s) = 6.21513 6.74264 6.48425
#
# Compressibility (1/GPa) = 0.02333088
#
# Stress axis : x y z
#
# Youngs Moduli (GPa) = 34.76724 78.94785 74.91609
#
# Poissons Ratio (x) = 0.45543 0.58370
# Poissons Ratio (y) = 0.20057 0.16205
# Poissons Ratio (z) = 0.27089 0.17077
#
# Static dielectric constant tensor:
#      x y z
#    x 1.578330 0.000000 0.000000 
#    y 0.000000 1.679570 0.000000 
#    z 0.000000 0.000000 1.690400 
# 
# From -- ./inp_files/5621.got.cif
#   From: 2010.05.17/outbox.cif.g08.bks.cpg/sg54_3_cif.got.tgz:5621.got - 2010.06.03 13:09:01.
