data_PCOD9421697
_publ_section_title
;
Structure prediction by ZEFSAII (Michael W. Deem and Ramdas Pophale) SiO2 
 PCOD9421697
Probable space group: P C C A
;
_chemical_formula_sum "Si O2"
_cell_formula_units_Z 60
_cell_length_a 18.329972
_cell_length_b 8.917746
_cell_length_c 17.118021
_cell_angle_alpha 90.000000
_cell_angle_beta 90.000000
_cell_angle_gamma 90.000000
_cell_volume 2798.146539
_symmetry_space_group_name_H-M "P C C A"
_symmetry_group_IT_number 54
_symmetry_cell_setting 'orthorhombic'
loop_
_space_group_symop_operation_xyz
x,y,z
1/2-x,-y,z
1/2+x,-y,1/2-z
-x,y,1/2-z
-x,-y,-z
1/2+x,y,-z
1/2-x,y,1/2+z
x,-y,1/2+z
loop_
_atom_site_type_symbol
_atom_site_label
_atom_site_fract_x
_atom_site_fract_y
_atom_site_fract_z
Si Si1 0.464890 0.089141 0.071670
Si Si2 0.368396 0.660293 0.078270
Si Si3 0.113207 0.370269 0.775378
Si Si4 0.664089 0.035624 0.181001
Si Si5 0.750000 0.500000 0.816215
Si Si6 0.560251 0.122669 0.798868
Si Si7 0.333412 0.956100 0.997126
Si Si8 0.482465 0.586471 0.619210
O O1 0.487460 0.260263 0.070587
O O2 0.479193 0.014482 0.155902
O O3 0.500000 0.000000 0.000000
O O4 0.379482 0.057790 0.056884
O O5 0.295764 0.604056 0.123134
O O6 0.408308 0.770515 0.137357
O O7 0.429919 0.528984 0.071484
O O8 0.346602 0.777355 0.010003
O O9 0.138123 0.204795 0.801557
O O10 0.187183 0.444061 0.742893
O O11 0.063741 0.370780 0.697112
O O12 0.063330 0.445850 0.844242
O O13 0.644754 0.003661 0.091081
O O14 0.750000 0.000000 0.189142
O O15 0.622515 0.933268 0.242301
O O16 0.500000 0.209137 0.750000
O O17 0.250000 0.000000 0.007872
#
# Coordination Sequence:
#
# PCOD9421697 Si02
#       8
#     8   8   8   8   4   8   8   8
#     4  11  22  40  65  96 128 173 221 268 332 404
#     4  10  24  39  62  98 129 174 220 278 341 417
#     4  10  20  37  63  94 128 171 222 273 341 403
#     4  11  22  41  65  95 129 169 223 281 333 392
#     4  10  22  36  62  92 130 170 214 268 338 414
#     4  11  22  37  65  94 124 164 217 272 322 392
#     4  10  24  41  64  92 131 172 223 283 342 408
#     4  10  21  39  66  93 134 174 218 277 341 410
#
# _framework density 21.442765000000001
#
# number of rings (size 3 to 8) (size 9 to 14) (size 15 to 20)
#    0.000    1.600    1.333    3.200    7.467    2.133 
#    0.000    6.667    5.867    0.000    0.000    0.000 
#    0.000    0.000    0.000    0.000    0.000    0.000 
#
# Total GULP energy -334694.050070 kJ/mol
# GULP energy per Si atom -5578.234168 kJ/mol
# Density = 2.139396 g / cm^3
# Si number density = 21.442765 Si / 1000 Ang^3
#
#
#
# Elastic Constant Matrix: (Units=GPa)
#
#
# Indices 1 2 3 4 5 6 
#
# 1 105.5870 22.8176 13.8088 0.0000 0.0000 0.0000
# 2 22.8176 79.2958 15.3551 0.0000 0.0000 0.0000
# 3 13.8088 15.3551 43.6430 0.0000 0.0000 0.0000
# 4 0.0000 0.0000 0.0000 26.6001 0.0000 0.0000
# 5 0.0000 0.0000 0.0000 0.0000 34.4178 0.0000
# 6 0.0000 0.0000 0.0000 0.0000 0.0000 15.5316
#
#
#
# Elastic Compliance Matrix: (Units=1/GPa)
#
#
# Indices 1 2 3 4 5 6 
#
# 1 0.010325 -0.002509 -0.002384 0.000000 0.000000 0.000000
# 2 -0.002509 0.014143 -0.004182 0.000000 0.000000 0.000000
# 3 -0.002384 -0.004182 0.025139 0.000000 0.000000 0.000000
# 4 0.000000 0.000000 0.000000 0.037594 0.000000 0.000000
# 5 0.000000 0.000000 0.000000 0.000000 0.029055 0.000000
# 6 0.000000 0.000000 0.000000 0.000000 0.000000 0.064385
#
#
# Mechanical properties :
#
#
# Convention : Reuss Voigt Hill
#
# Bulk Modulus (GPa) = 31.79043 36.94320 34.36681
# Shear Modulus (GPa) = 23.89186 27.07951 25.48569
#
# Velocity S-wave (km/s) = 3.34161 3.55755 3.45127
# Velocity P-wave (km/s) = 5.45402 5.84303 5.65187
#
# Compressibility (1/GPa) = 0.03145601
#
# Stress axis : x y z
#
# Youngs Moduli (GPa) = 96.85300 70.70684 39.77910
#
# Poissons Ratio (x) = 0.17743 0.09483
# Poissons Ratio (y) = 0.24304 0.16636
# Poissons Ratio (z) = 0.23089 0.29569
#
# Static dielectric constant tensor:
#      x y z
#    x 2.143330 0.000000 0.000000 
#    y 0.000000 1.835510 0.000000 
#    z 0.000000 0.000000 1.834410 
# 
# From -- ./inp_files/18687.got.cif
#   From: 2010.05.17/outbox.cif.g08.bks.cpg/sg54_10_cif.got.tgz:18687.got - 2010.06.03 13:09:01.
