data_PCOD9421695
_publ_section_title
;
Structure prediction by ZEFSAII (Michael W. Deem and Ramdas Pophale) SiO2 
 PCOD9421695
Probable space group: P C C A
;
_chemical_formula_sum "Si O2"
_cell_formula_units_Z 64
_cell_length_a 16.929399
_cell_length_b 11.670718
_cell_length_c 16.253876
_cell_angle_alpha 90.000000
_cell_angle_beta 90.000000
_cell_angle_gamma 90.000000
_cell_volume 3211.412240
_symmetry_space_group_name_H-M "P C C A"
_symmetry_group_IT_number 54
_symmetry_cell_setting 'orthorhombic'
loop_
_space_group_symop_operation_xyz
x,y,z
1/2-x,-y,z
1/2+x,-y,1/2-z
-x,y,1/2-z
-x,-y,-z
1/2+x,y,-z
1/2-x,y,1/2+z
x,-y,1/2+z
loop_
_atom_site_type_symbol
_atom_site_label
_atom_site_fract_x
_atom_site_fract_y
_atom_site_fract_z
Si Si1 0.657123 0.494948 0.411996
Si Si2 0.949038 0.844564 0.356152
Si Si3 0.652471 0.738006 0.988013
Si Si4 0.623908 0.223361 0.127680
Si Si5 0.716796 0.880823 0.137028
Si Si6 0.338383 0.050380 0.689789
Si Si7 0.413394 0.388730 0.244252
Si Si8 0.332676 0.750663 0.061319
O O1 0.750000 0.500000 0.928240
O O2 0.626387 0.394468 0.473234
O O3 0.640952 0.458077 0.317867
O O4 0.630469 0.625345 0.423302
O O5 0.913491 0.815806 0.445501
O O6 0.925288 0.733773 0.301758
O O7 0.043497 0.845982 0.357515
O O8 0.904608 0.955162 0.324093
O O9 0.736399 0.746169 0.939433
O O10 0.674213 0.792562 0.075887
O O11 0.702412 0.175631 0.170279
O O12 0.613425 0.351140 0.164962
O O13 0.642215 0.218437 0.031180
O O14 0.664615 0.911571 0.215366
O O15 0.750000 0.000000 0.096846
O O16 0.354382 0.155893 0.628859
O O17 0.250000 0.000000 0.671561
O O18 0.500000 0.443637 0.250000
#
# Coordination Sequence:
#
# PCOD9421695 Si02
#       8
#     8   8   8   8   8   8   8   8
#     4   9  19  36  61  85 117 154 203 251 297 354
#     4  10  20  37  63  87 116 156 200 242 301 362
#     4   9  19  37  60  83 115 158 202 244 301 358
#     4  10  22  37  60  91 117 154 208 246 295 363
#     4  10  22  36  58  88 122 155 201 250 302 359
#     4  11  21  37  62  86 123 162 196 243 307 362
#     4   9  18  37  60  85 112 157 199 242 297 362
#     4  10  21  37  58  88 121 158 200 250 300 364
#
# _framework density 19.928927999999999
#
# number of rings (size 3 to 8) (size 9 to 14) (size 15 to 20)
#    0.000    2.250    1.250    1.500    7.000    0.500 
#    2.250    6.250    0.000    0.000    0.000    0.000 
#    0.000    0.000    0.000    0.000    0.000    0.000 
#
# Total GULP energy -356743.238946 kJ/mol
# GULP energy per Si atom -5574.113109 kJ/mol
# Density = 1.988357 g / cm^3
# Si number density = 19.928928 Si / 1000 Ang^3
#
#
#
# Elastic Constant Matrix: (Units=GPa)
#
#
# Indices 1 2 3 4 5 6 
#
# 1 40.8918 11.0619 6.3181 0.0000 0.0000 0.0000
# 2 11.0619 91.8302 39.9331 0.0000 0.0000 0.0000
# 3 6.3181 39.9331 71.8445 0.0000 0.0000 0.0000
# 4 0.0000 0.0000 0.0000 21.7558 0.0000 0.0000
# 5 0.0000 0.0000 0.0000 0.0000 23.7904 0.0000
# 6 0.0000 0.0000 0.0000 0.0000 0.0000 -6.4299
#
#
#
# Elastic Compliance Matrix: (Units=1/GPa)
#
#
# Indices 1 2 3 4 5 6 
#
# 1 0.025305 -0.002744 -0.000700 0.000000 0.000000 0.000000
# 2 -0.002744 0.014658 -0.007906 0.000000 0.000000 0.000000
# 3 -0.000700 -0.007906 0.018375 0.000000 0.000000 0.000000
# 4 0.000000 0.000000 0.000000 0.045965 0.000000 0.000000
# 5 0.000000 0.000000 0.000000 0.000000 0.042034 0.000000
# 6 0.000000 0.000000 0.000000 0.000000 0.000000 -0.155524
#
#
# Mechanical properties :
#
#
# Convention : Reuss Voigt Hill
#
# Bulk Modulus (GPa) = 28.05994 35.46587 31.76290
# Shear Modulus (GPa) = 196.90916 17.64015 107.27465
#
# Velocity S-wave (km/s) = 9.95089 2.97838 7.34476
# Velocity P-wave (km/s) = 12.08873 5.44633 9.37550
#
# Compressibility (1/GPa) = 0.03563799
#
# Stress axis : x y z
#
# Youngs Moduli (GPa) = 39.51752 68.22109 54.42176
#
# Poissons Ratio (x) = 0.18718 0.03811
# Poissons Ratio (y) = 0.10843 0.43027
# Poissons Ratio (z) = 0.02768 0.53937
#
# Static dielectric constant tensor:
#      x y z
#    x 1.703140 0.000000 0.000000 
#    y 0.000000 1.747400 0.000000 
#    z 0.000000 0.000000 1.745200 
# 
# From -- ./inp_files/14347.got.cif
#   From: 2010.05.17/outbox.cif.g08.bks.cpg/sg54_8_cif.got.tgz:14347.got - 2010.06.03 13:09:01.
