data_PCOD9421378
_publ_section_title
;
Structure prediction by ZEFSAII (Michael W. Deem and Ramdas Pophale) SiO2 
 PCOD9421378
Probable space group: P C C A
;
_chemical_formula_sum "Si O2"
_cell_formula_units_Z 64
_cell_length_a 14.588883
_cell_length_b 7.026255
_cell_length_c 24.720625
_cell_angle_alpha 90.000000
_cell_angle_beta 90.000000
_cell_angle_gamma 90.000000
_cell_volume 2533.992909
_symmetry_space_group_name_H-M "P C C A"
_symmetry_group_IT_number 54
_symmetry_cell_setting 'orthorhombic'
loop_
_space_group_symop_operation_xyz
x,y,z
1/2-x,-y,z
1/2+x,-y,1/2-z
-x,y,1/2-z
-x,-y,-z
1/2+x,y,-z
1/2-x,y,1/2+z
x,-y,1/2+z
loop_
_atom_site_type_symbol
_atom_site_label
_atom_site_fract_x
_atom_site_fract_y
_atom_site_fract_z
Si Si1 0.441367 0.831835 0.127047
Si Si2 0.125019 0.303644 0.848653
Si Si3 0.965473 0.785117 0.516471
Si Si4 0.232700 0.698400 0.242604
Si Si5 0.884582 0.855871 0.682778
Si Si6 0.054382 0.710842 0.099565
Si Si7 0.763525 0.794119 0.367447
Si Si8 0.780188 0.219902 0.077084
O O1 0.480747 0.742215 0.071630
O O2 0.509068 0.809179 0.178079
O O3 0.342742 0.746355 0.138470
O O4 0.443524 0.059576 0.113114
O O5 0.169702 0.370876 0.792759
O O6 0.185753 0.324552 0.903846
O O7 0.021637 0.367817 0.859505
O O8 0.125687 0.077213 0.833718
O O9 0.982077 0.677654 0.460660
O O10 0.856953 0.758160 0.530687
O O11 0.000000 0.000000 0.500000
O O12 0.250000 0.500000 0.213042
O O13 0.321019 0.802948 0.267338
O O14 0.194414 0.822428 0.193277
O O15 0.837676 0.751240 0.632093
O O16 0.161795 0.666399 0.103150
O O17 0.750000 0.000000 0.396029
O O18 0.750000 0.000000 0.071068
#
# Coordination Sequence:
#
# PCOD9421378 Si02
#       8
#     8   8   8   8   8   8   8   8
#     4   8  16  30  49  75 106 135 167 203 243 296
#     4   9  17  33  52  72 101 135 169 205 248 300
#     4   9  15  24  42  76 110 131 160 203 248 292
#     4  11  22  35  52  75  97 127 169 215 260 300
#     4   8  15  31  52  74  99 132 166 201 247 300
#     4   9  18  29  47  75 106 136 166 202 249 295
#     4  10  20  34  50  74 106 137 166 202 250 302
#     4   8  13  22  42  69  99 131 159 196 243 288
#
# _framework density 25.256584
#
# number of rings (size 3 to 8) (size 9 to 14) (size 15 to 20)
#    0.000    3.000    0.000    4.125    0.000    4.500 
#    0.000    6.250    0.000    0.000    0.000   22.750 
#    0.000    0.000    0.000    0.000    0.000    0.000 
#
# Total GULP energy -356545.090198 kJ/mol
# GULP energy per Si atom -5571.017034 kJ/mol
# Density = 2.519910 g / cm^3
# Si number density = 25.256584 Si / 1000 Ang^3
#
#
#
# Elastic Constant Matrix: (Units=GPa)
#
#
# Indices 1 2 3 4 5 6 
#
# 1 148.9283 -4.1790 34.4074 0.0000 0.0000 0.0000
# 2 -4.1790 71.9051 -2.0247 0.0000 0.0000 0.0000
# 3 34.4074 -2.0247 100.0961 0.0000 0.0000 0.0000
# 4 0.0000 0.0000 0.0000 18.6215 0.0000 0.0000
# 5 0.0000 0.0000 0.0000 0.0000 41.8855 0.0000
# 6 0.0000 0.0000 0.0000 0.0000 0.0000 5.7903
#
#
#
# Elastic Compliance Matrix: (Units=1/GPa)
#
#
# Indices 1 2 3 4 5 6 
#
# 1 0.007303 0.000354 -0.002503 0.000000 0.000000 0.000000
# 2 0.000354 0.013932 0.000160 0.000000 0.000000 0.000000
# 3 -0.002503 0.000160 0.010854 0.000000 0.000000 0.000000
# 4 0.000000 0.000000 0.000000 0.053701 0.000000 0.000000
# 5 0.000000 0.000000 0.000000 0.000000 0.023875 0.000000
# 6 0.000000 0.000000 0.000000 0.000000 0.000000 0.172701
#
#
# Mechanical properties :
#
#
# Convention : Reuss Voigt Hill
#
# Bulk Modulus (GPa) = 35.57310 41.92632 38.74971
# Shear Modulus (GPa) = 16.90817 32.77453 24.84135
#
# Velocity S-wave (km/s) = 2.59019 3.60622 3.13958
# Velocity P-wave (km/s) = 4.80216 5.82889 5.34025
#
# Compressibility (1/GPa) = 0.02811113
#
# Stress axis : x y z
#
# Youngs Moduli (GPa) = 136.93217 71.77570 92.13117
#
# Poissons Ratio (x) = -0.02541 0.23062
# Poissons Ratio (y) = -0.04847 -0.01475
# Poissons Ratio (z) = 0.34276 -0.01149
#
# Static dielectric constant tensor:
#      x y z
#    x 2.076380 0.000000 0.000000 
#    y 0.000000 2.125980 0.000000 
#    z 0.000000 0.000000 1.935670 
# 
# From -- ./inp_files/24517.got.cif
#   From: 2010.05.17/outbox.cif.g08.bks.cpg/sg54_13_cif.got.tgz:24517.got - 2010.06.03 13:09:01.
