data_PCOD9421813
_publ_section_title
;
Structure prediction by ZEFSAII (Michael W. Deem and Ramdas Pophale) SiO2 
 PCOD9421813
Probable space group: P C C A
;
_chemical_formula_sum "Si O2"
_cell_formula_units_Z 44
_cell_length_a 8.399830
_cell_length_b 13.649553
_cell_length_c 18.556418
_cell_angle_alpha 90.000000
_cell_angle_beta 90.000000
_cell_angle_gamma 90.000000
_cell_volume 2127.566153
_symmetry_space_group_name_H-M "P C C A"
_symmetry_group_IT_number 54
_symmetry_cell_setting 'orthorhombic'
loop_
_space_group_symop_operation_xyz
x,y,z
1/2-x,-y,z
1/2+x,-y,1/2-z
-x,y,1/2-z
-x,-y,-z
1/2+x,y,-z
1/2-x,y,1/2+z
x,-y,1/2+z
loop_
_atom_site_type_symbol
_atom_site_label
_atom_site_fract_x
_atom_site_fract_y
_atom_site_fract_z
Si Si1 0.981196 0.669867 0.543249
Si Si2 0.071860 0.271667 0.681360
Si Si3 0.847393 0.399811 0.591005
Si Si4 0.250000 0.000000 0.967621
Si Si5 0.510291 0.857480 0.953773
Si Si6 0.361485 0.404192 0.690197
O O1 0.794577 0.670388 0.563061
O O2 0.028162 0.779218 0.517546
O O3 0.025435 0.602655 0.474188
O O4 0.066567 0.622346 0.612035
O O5 0.080423 0.205949 0.610903
O O6 0.239855 0.315846 0.703842
O O7 0.000000 0.218034 0.750000
O O8 0.946911 0.358467 0.658208
O O9 0.750000 0.500000 0.604240
O O10 0.141039 0.079608 0.927701
O O11 0.364582 0.065230 0.016726
O O12 0.250000 0.500000 0.687760
O O13 0.500000 0.412149 0.750000
#
# Coordination Sequence:
#
# PCOD9421813 Si02
#       6
#     8   8   8   4   8   8
#     4  11  21  37  61  89 123 161 206 260 308 365
#     4  11  23  40  59  85 125 165 205 257 309 370
#     4  11  21  36  59  89 123 165 211 255 303 354
#     4  10  20  38  66  90 116 150 196 260 314 384
#     4  10  21  39  63  92 119 153 201 252 319 376
#     4  12  25  40  59  88 127 174 217 253 300 360
#
# _framework density 20.680907000000001
#
# number of rings (size 3 to 8) (size 9 to 14) (size 15 to 20)
#    0.000    1.091    0.000    9.273    0.000    1.455 
#    0.000    0.909    0.000    4.364    0.000    0.000 
#    0.000    0.000    0.000    0.000    0.000    0.000 
#
# Total GULP energy -245722.393607 kJ/mol
# GULP energy per Si atom -5584.599855 kJ/mol
# Density = 2.063384 g / cm^3
# Si number density = 20.680907 Si / 1000 Ang^3
#
#
#
# Elastic Constant Matrix: (Units=GPa)
#
#
# Indices 1 2 3 4 5 6 
#
# 1 104.6779 31.7379 24.8786 0.0000 0.0000 0.0000
# 2 31.7379 109.5013 19.1617 0.0000 0.0000 0.0000
# 3 24.8786 19.1617 108.1542 0.0000 0.0000 0.0000
# 4 0.0000 0.0000 0.0000 -34.8068 0.0000 0.0000
# 5 0.0000 0.0000 0.0000 0.0000 28.7096 0.0000
# 6 0.0000 0.0000 0.0000 0.0000 0.0000 41.1420
#
#
#
# Elastic Compliance Matrix: (Units=1/GPa)
#
#
# Indices 1 2 3 4 5 6 
#
# 1 0.010880 -0.002802 -0.002006 0.000000 0.000000 0.000000
# 2 -0.002802 0.010146 -0.001153 0.000000 0.000000 0.000000
# 3 -0.002006 -0.001153 0.009912 0.000000 0.000000 0.000000
# 4 0.000000 0.000000 0.000000 -0.028730 0.000000 0.000000
# 5 0.000000 0.000000 0.000000 0.000000 0.034832 0.000000
# 6 0.000000 0.000000 0.000000 0.000000 0.000000 0.024306
#
#
# Mechanical properties :
#
#
# Convention : Reuss Voigt Hill
#
# Bulk Modulus (GPa) = 52.59062 52.65442 52.62252
# Shear Modulus (GPa) = 62.80907 23.44598 43.12753
#
# Velocity S-wave (km/s) = 5.51693 3.37070 4.57155
# Velocity P-wave (km/s) = 8.12815 6.37687 7.30518
#
# Compressibility (1/GPa) = 0.01901480
#
# Stress axis : x y z
#
# Youngs Moduli (GPa) = 91.91564 98.55820 100.88979
#
# Poissons Ratio (x) = 0.27619 0.20240
# Poissons Ratio (y) = 0.25757 0.11633
# Poissons Ratio (z) = 0.18440 0.11364
#
# Static dielectric constant tensor:
#      x y z
#    x 1.797750 0.000000 0.000000 
#    y 0.000000 1.772920 0.000000 
#    z 0.000000 0.000000 1.727280 
# 
# From -- ./inp_files/16531.got.cif
#   From: 2010.05.17/outbox.cif.g08.bks.cpg/sg54_9_cif.got.tgz:16531.got - 2010.06.03 13:09:01.
