data_PCOD9421788
_publ_section_title
;
Structure prediction by ZEFSAII (Michael W. Deem and Ramdas Pophale) SiO2 
 PCOD9421788
Probable space group: P C C A
;
_chemical_formula_sum "Si O2"
_cell_formula_units_Z 32
_cell_length_a 11.343816
_cell_length_b 8.495768
_cell_length_c 15.714329
_cell_angle_alpha 90.000000
_cell_angle_beta 90.000000
_cell_angle_gamma 90.000000
_cell_volume 1514.459484
_symmetry_space_group_name_H-M "P C C A"
_symmetry_group_IT_number 54
_symmetry_cell_setting 'orthorhombic'
loop_
_space_group_symop_operation_xyz
x,y,z
1/2-x,-y,z
1/2+x,-y,1/2-z
-x,y,1/2-z
-x,-y,-z
1/2+x,y,-z
1/2-x,y,1/2+z
x,-y,1/2+z
loop_
_atom_site_type_symbol
_atom_site_label
_atom_site_fract_x
_atom_site_fract_y
_atom_site_fract_z
Si Si1 0.933597 0.762367 0.663151
Si Si2 0.497407 0.412890 0.158851
Si Si3 0.250000 0.500000 0.084747
Si Si4 0.250000 0.000000 0.901599
Si Si5 0.602858 0.765347 0.498689
O O1 0.000000 0.808838 0.750000
O O2 0.923688 0.571881 0.666089
O O3 0.018173 0.788978 0.581731
O O4 0.814544 0.862127 0.651451
O O5 0.500000 0.328195 0.250000
O O6 0.363388 0.462416 0.140920
O O7 0.536527 0.318973 0.076297
O O8 0.209601 0.350690 0.028960
O O9 0.346112 0.923406 0.963028
#
# Coordination Sequence:
#
# PCOD9421788 Si02
#       5
#     8   8   4   4   8
#     4  10  23  41  61  89 121 156 204 247 292 358
#     4  10  22  40  64  93 118 151 205 252 294 354
#     4  10  20  38  64  86 118 160 196 254 304 334
#     4  12  24  38  60  86 126 168 190 240 304 350
#     4  11  22  39  62  90 121 157 202 244 296 360
#
# _framework density 21.129650000000002
#
# number of rings (size 3 to 8) (size 9 to 14) (size 15 to 20)
#    0.000    1.500    0.000    6.750    0.000    9.000 
#    0.000    0.000    0.000    0.000    0.000    0.000 
#    0.000    0.000    0.000    0.000    0.000    0.000 
#
# Total GULP energy -178839.740999 kJ/mol
# GULP energy per Si atom -5588.741906 kJ/mol
# Density = 2.108156 g / cm^3
# Si number density = 21.129650 Si / 1000 Ang^3
#
#
#
# Elastic Constant Matrix: (Units=GPa)
#
#
# Indices 1 2 3 4 5 6 
#
# 1 60.2739 33.2567 38.6529 0.0000 0.0000 0.0000
# 2 33.2567 48.1379 34.2910 0.0000 0.0000 0.0000
# 3 38.6529 34.2910 169.8001 0.0000 0.0000 0.0000
# 4 0.0000 0.0000 0.0000 -663.6779 0.0000 0.0000
# 5 0.0000 0.0000 0.0000 0.0000 61.8224 0.0000
# 6 0.0000 0.0000 0.0000 0.0000 0.0000 13.1185
#
#
#
# Elastic Compliance Matrix: (Units=1/GPa)
#
#
# Indices 1 2 3 4 5 6 
#
# 1 0.027966 -0.017270 -0.002878 0.000000 0.000000 0.000000
# 2 -0.017270 0.034929 -0.003123 0.000000 0.000000 0.000000
# 3 -0.002878 -0.003123 0.007175 0.000000 0.000000 0.000000
# 4 0.000000 0.000000 0.000000 -0.001507 0.000000 0.000000
# 5 0.000000 0.000000 0.000000 0.000000 0.016175 0.000000
# 6 0.000000 0.000000 0.000000 0.000000 0.000000 0.076228
#
#
# Mechanical properties :
#
#
# Convention : Reuss Voigt Hill
#
# Bulk Modulus (GPa) = 42.50255 54.51257 48.50756
# Shear Modulus (GPa) = 23.21780 -106.27998 -41.53109
#
# Velocity S-wave (km/s) = 3.31845 -7.09987 -4.43825
# Velocity P-wave (km/s) = 5.90268 6.43085 1.80474
#
# Compressibility (1/GPa) = 0.02352800
#
# Stress axis : x y z
#
# Youngs Moduli (GPa) = 35.75805 28.62929 139.37057
#
# Poissons Ratio (x) = 0.49443 0.40116
# Poissons Ratio (y) = 0.61754 0.43520
# Poissons Ratio (z) = 0.10293 0.08940
#
# Static dielectric constant tensor:
#      x y z
#    x 1.756770 0.000000 0.000000 
#    y 0.000000 1.781640 0.000000 
#    z 0.000000 0.000000 1.753950 
# 
# From -- ./inp_files/12233.got.cif
#   From: 2010.05.17/outbox.cif.g08.bks.cpg/sg54_7_cif.got.tgz:12233.got - 2010.06.03 13:09:01.
