data_PCOD9421594
_publ_section_title
;
Structure prediction by ZEFSAII (Michael W. Deem and Ramdas Pophale) SiO2 
 PCOD9421594
Probable space group: P C C A
;
_chemical_formula_sum "Si O2"
_cell_formula_units_Z 40
_cell_length_a 15.647451
_cell_length_b 8.068971
_cell_length_c 13.440594
_cell_angle_alpha 90.000000
_cell_angle_beta 90.000000
_cell_angle_gamma 90.000000
_cell_volume 1696.993651
_symmetry_space_group_name_H-M "P C C A"
_symmetry_group_IT_number 54
_symmetry_cell_setting 'orthorhombic'
loop_
_space_group_symop_operation_xyz
x,y,z
1/2-x,-y,z
1/2+x,-y,1/2-z
-x,y,1/2-z
-x,-y,-z
1/2+x,y,-z
1/2-x,y,1/2+z
x,-y,1/2+z
loop_
_atom_site_type_symbol
_atom_site_label
_atom_site_fract_x
_atom_site_fract_y
_atom_site_fract_z
Si Si1 0.250000 0.500000 0.434092
Si Si2 0.954789 0.835579 0.958365
Si Si3 0.846113 0.031753 0.829680
Si Si4 0.350112 0.781298 0.859430
Si Si5 0.092545 0.625707 0.065082
Si Si6 0.500000 0.582470 0.750000
O O1 0.227985 0.654954 0.363549
O O2 0.331259 0.542673 0.503297
O O3 0.915447 0.889819 0.853353
O O4 0.871596 0.820570 0.027767
O O5 0.019577 0.687918 0.987299
O O6 0.000000 0.000000 0.000000
O O7 0.840982 0.064038 0.712025
O O8 0.875301 0.204229 0.881740
O O9 0.750000 0.000000 0.864834
O O10 0.433306 0.688355 0.815323
O O11 0.058846 0.514863 0.159151
#
# Coordination Sequence:
#
# PCOD9421594 Si02
#       6
#     4   8   8   8   8   4
#     4  12  24  38  60  94 138 174 216 264 338 422
#     4   9  19  38  63  88 116 158 213 267 329 386
#     4  10  20  36  62  90 120 159 215 278 328 383
#     4  10  22  39  59  89 127 167 206 267 330 392
#     4   9  20  38  61  89 125 171 211 269 338 404
#     4   8  18  38  58  80 116 164 212 254 314 388
#
# _framework density 23.571096000000001
#
# number of rings (size 3 to 8) (size 9 to 14) (size 15 to 20)
#    0.000    2.400    0.000    2.400    0.000   10.400 
#    0.000    2.000    0.000    4.800    0.000    0.000 
#    0.000    0.000    0.000    0.000    0.000    0.000 
#
# Total GULP energy -223016.656725 kJ/mol
# GULP energy per Si atom -5575.416418 kJ/mol
# Density = 2.351745 g / cm^3
# Si number density = 23.571096 Si / 1000 Ang^3
#
#
#
# Elastic Constant Matrix: (Units=GPa)
#
#
# Indices 1 2 3 4 5 6 
#
# 1 108.3565 25.7340 51.0629 0.0000 0.0000 0.0000
# 2 25.7340 72.9489 32.1382 0.0000 0.0000 0.0000
# 3 51.0629 32.1382 83.7521 0.0000 0.0000 0.0000
# 4 0.0000 0.0000 0.0000 415.8679 0.0000 0.0000
# 5 0.0000 0.0000 0.0000 0.0000 33.0811 0.0000
# 6 0.0000 0.0000 0.0000 0.0000 0.0000 49.7033
#
#
#
# Elastic Compliance Matrix: (Units=1/GPa)
#
#
# Indices 1 2 3 4 5 6 
#
# 1 0.013054 -0.001322 -0.007452 0.000000 0.000000 0.000000
# 2 -0.001322 0.016631 -0.005576 0.000000 0.000000 0.000000
# 3 -0.007452 -0.005576 0.018623 0.000000 0.000000 0.000000
# 4 0.000000 0.000000 0.000000 0.002405 0.000000 0.000000
# 5 0.000000 0.000000 0.000000 0.000000 0.030229 0.000000
# 6 0.000000 0.000000 0.000000 0.000000 0.000000 0.020119
#
#
# Mechanical properties :
#
#
# Convention : Reuss Voigt Hill
#
# Bulk Modulus (GPa) = 50.99717 53.65864 52.32790
# Shear Modulus (GPa) = 36.68460 110.13863 73.41162
#
# Velocity S-wave (km/s) = 3.94933 6.84307 5.58680
# Velocity P-wave (km/s) = 6.51757 9.23313 7.99154
#
# Compressibility (1/GPa) = 0.01960893
#
# Stress axis : x y z
#
# Youngs Moduli (GPa) = 76.60209 60.12839 53.69744
#
# Poissons Ratio (x) = 0.07950 0.40014
# Poissons Ratio (y) = 0.10129 0.29940
# Poissons Ratio (z) = 0.57082 0.33526
#
# Static dielectric constant tensor:
#      x y z
#    x 1.863990 0.000000 0.000000 
#    y 0.000000 1.874770 0.000000 
#    z 0.000000 0.000000 1.937490 
# 
# From -- ./inp_files/8808.got.cif
#   From: 2010.05.17/outbox.cif.g08.bks.cpg/sg54_5_cif.got.tgz:8808.got - 2010.06.03 13:09:01.
