data_PCOD9421236
_publ_section_title
;
Structure prediction by ZEFSAII (Michael W. Deem and Ramdas Pophale) SiO2 
 PCOD9421236
Probable space group: P C C A
;
_chemical_formula_sum "Si O2"
_cell_formula_units_Z 56
_cell_length_a 14.266662
_cell_length_b 12.081829
_cell_length_c 16.024586
_cell_angle_alpha 90.000000
_cell_angle_beta 90.000000
_cell_angle_gamma 90.000000
_cell_volume 2762.115755
_symmetry_space_group_name_H-M "P C C A"
_symmetry_group_IT_number 54
_symmetry_cell_setting 'orthorhombic'
loop_
_space_group_symop_operation_xyz
x,y,z
1/2-x,-y,z
1/2+x,-y,1/2-z
-x,y,1/2-z
-x,-y,-z
1/2+x,y,-z
1/2-x,y,1/2+z
x,-y,1/2+z
loop_
_atom_site_type_symbol
_atom_site_label
_atom_site_fract_x
_atom_site_fract_y
_atom_site_fract_z
Si Si1 0.996584 0.150894 0.159605
Si Si2 0.356566 0.965829 0.891437
Si Si3 0.527722 0.649525 0.035450
Si Si4 0.638111 0.995397 0.918069
Si Si5 0.371604 0.724890 0.814280
Si Si6 0.848868 0.548928 0.051932
Si Si7 0.913173 0.744408 0.366827
O O1 0.975590 0.240287 0.089314
O O2 0.000000 0.204642 0.250000
O O3 0.092528 0.087363 0.140192
O O4 0.919366 0.053572 0.157653
O O5 0.353075 0.847109 0.848804
O O6 0.250000 0.000000 0.895283
O O7 0.391082 0.971327 0.987437
O O8 0.583216 0.551165 0.080648
O O9 0.421249 0.613438 0.010437
O O10 0.588938 0.674381 0.951862
O O11 0.602017 0.873096 0.892257
O O12 0.750000 0.000000 0.912589
O O13 0.325296 0.631898 0.872123
O O14 0.352074 0.717791 0.715367
O O15 0.482298 0.718696 0.834668
O O16 0.750000 0.500000 0.019614
#
# Coordination Sequence:
#
# PCOD9421236 Si02
#       7
#     8   8   8   8   8   8   8
#     4  12  24  41  64  96 135 165 211 274 324 377
#     4  11  23  38  65  95 133 172 206 261 326 390
#     4  10  23  44  65  91 125 173 211 265 324 383
#     4  11  22  37  61  94 133 169 208 249 318 398
#     4  10  21  37  63  92 120 167 211 256 313 378
#     4  10  23  44  67  89 123 164 219 265 316 379
#     4  10  19  38  62  87 125 163 209 252 309 387
#
# _framework density 20.274314
#
# number of rings (size 3 to 8) (size 9 to 14) (size 15 to 20)
#    0.000    1.429    2.857    3.000    2.000    3.429 
#    7.714    0.714    0.000    0.000    0.000    0.000 
#    0.000    0.000    0.000    0.000    0.000    0.000 
#
# Total GULP energy -312371.113890 kJ/mol
# GULP energy per Si atom -5578.055605 kJ/mol
# Density = 2.022817 g / cm^3
# Si number density = 20.274314 Si / 1000 Ang^3
#
#
#
# Elastic Constant Matrix: (Units=GPa)
#
#
# Indices 1 2 3 4 5 6 
#
# 1 60.5662 19.6298 29.7030 0.0000 0.0000 0.0000
# 2 19.6298 106.1238 37.4063 0.0000 0.0000 0.0000
# 3 29.7030 37.4063 99.2481 0.0000 0.0000 0.0000
# 4 0.0000 0.0000 0.0000 -4.6856 0.0000 0.0000
# 5 0.0000 0.0000 0.0000 0.0000 -11.0527 0.0000
# 6 0.0000 0.0000 0.0000 0.0000 0.0000 10.5500
#
#
#
# Elastic Compliance Matrix: (Units=1/GPa)
#
#
# Indices 1 2 3 4 5 6 
#
# 1 0.019645 -0.001801 -0.005201 0.000000 0.000000 0.000000
# 2 -0.001801 0.011032 -0.003619 0.000000 0.000000 0.000000
# 3 -0.005201 -0.003619 0.012996 0.000000 0.000000 0.000000
# 4 0.000000 0.000000 0.000000 -0.213421 0.000000 0.000000
# 5 0.000000 0.000000 0.000000 0.000000 -0.090476 0.000000
# 6 0.000000 0.000000 0.000000 0.000000 0.000000 0.094787
#
#
# Mechanical properties :
#
#
# Convention : Reuss Voigt Hill
#
# Bulk Modulus (GPa) = 44.57850 48.82403 46.70126
# Shear Modulus (GPa) = -36.57104 10.90896 -12.83104
#
# Velocity S-wave (km/s) = -4.25174 2.32215 -2.51842
# Velocity P-wave (km/s) = 1.43792 5.59677 3.82467
#
# Compressibility (1/GPa) = 0.02243234
#
# Stress axis : x y z
#
# Youngs Moduli (GPa) = 50.90358 90.64873 76.94565
#
# Poissons Ratio (x) = 0.16322 0.40017
# Poissons Ratio (y) = 0.09166 0.27846
# Poissons Ratio (z) = 0.26474 0.32805
#
# Static dielectric constant tensor:
#      x y z
#    x 1.729230 0.000000 0.000000 
#    y 0.000000 1.676450 0.000000 
#    z 0.000000 0.000000 1.800520 
# 
# From -- ./inp_files/13479.got.cif
#   From: 2010.05.17/outbox.cif.g08.bks.cpg/sg54_7_cif.got.tgz:13479.got - 2010.06.03 13:09:01.
