data_PCOD9421406
_publ_section_title
;
Structure prediction by ZEFSAII (Michael W. Deem and Ramdas Pophale) SiO2 
 PCOD9421406
Probable space group: P C C A
;
_chemical_formula_sum "Si O2"
_cell_formula_units_Z 56
_cell_length_a 8.147233
_cell_length_b 15.226084
_cell_length_c 21.907093
_cell_angle_alpha 90.000000
_cell_angle_beta 90.000000
_cell_angle_gamma 90.000000
_cell_volume 2717.584833
_symmetry_space_group_name_H-M "P C C A"
_symmetry_group_IT_number 54
_symmetry_cell_setting 'orthorhombic'
loop_
_space_group_symop_operation_xyz
x,y,z
1/2-x,-y,z
1/2+x,-y,1/2-z
-x,y,1/2-z
-x,-y,-z
1/2+x,y,-z
1/2-x,y,1/2+z
x,-y,1/2+z
loop_
_atom_site_type_symbol
_atom_site_label
_atom_site_fract_x
_atom_site_fract_y
_atom_site_fract_z
Si Si1 0.334023 0.215967 0.931124
Si Si2 0.717711 0.590006 0.405727
Si Si3 0.835780 0.220080 0.365430
Si Si4 0.630485 0.080161 0.129934
Si Si5 0.198326 0.091763 0.240060
Si Si6 0.854872 0.413037 0.034853
Si Si7 0.336778 0.090144 0.043379
O O1 0.469061 0.219804 0.877294
O O2 0.176691 0.169238 0.904029
O O3 0.291600 0.315154 0.949716
O O4 0.394009 0.150183 0.985645
O O5 0.750000 0.500000 0.369710
O O6 0.727076 0.680993 0.370793
O O7 0.537295 0.586566 0.437300
O O8 0.847179 0.587724 0.461403
O O9 0.780563 0.173895 0.303745
O O10 0.772938 0.160171 0.420588
O O11 0.680725 0.095186 0.200966
O O12 0.461960 0.057991 0.096254
O O13 0.750000 0.000000 0.114541
O O14 0.000000 0.086241 0.250000
O O15 0.250000 0.000000 0.209342
O O16 0.750000 0.500000 0.053713
O O17 0.250000 0.000000 0.022151
#
# Coordination Sequence:
#
# PCOD9421406 Si02
#       7
#     8   8   8   8   8   8   8
#     4  11  22  40  60  94 128 172 204 255 323 383
#     4  10  20  36  60  91 123 163 205 252 316 376
#     4  11  23  39  63  92 123 166 209 267 315 366
#     4  11  25  41  63  89 121 169 219 257 310 370
#     4  11  25  45  67  89 118 164 225 266 304 362
#     4  10  20  34  58  87 126 162 202 251 303 378
#     4  12  25  38  61  91 137 166 206 256 319 384
#
# _framework density 20.606532000000001
#
# number of rings (size 3 to 8) (size 9 to 14) (size 15 to 20)
#    0.000    1.143    2.857    4.286    8.000    2.857 
#    0.000    0.714    0.000    0.857    3.714    0.000 
#    0.000    0.000    0.000    0.000    0.000    0.000 
#
# Total GULP energy -312209.234103 kJ/mol
# GULP energy per Si atom -5575.164895 kJ/mol
# Density = 2.055963 g / cm^3
# Si number density = 20.606532 Si / 1000 Ang^3
#
#
#
# Elastic Constant Matrix: (Units=GPa)
#
#
# Indices 1 2 3 4 5 6 
#
# 1 33.5376 31.1446 30.7677 0.0000 0.0000 0.0000
# 2 31.1446 212.4485 60.4644 0.0000 0.0000 0.0000
# 3 30.7677 60.4644 95.9508 0.0000 0.0000 0.0000
# 4 0.0000 0.0000 0.0000 29.7499 0.0000 0.0000
# 5 0.0000 0.0000 0.0000 0.0000 26.6768 0.0000
# 6 0.0000 0.0000 0.0000 0.0000 0.0000 30.0084
#
#
#
# Elastic Compliance Matrix: (Units=1/GPa)
#
#
# Indices 1 2 3 4 5 6 
#
# 1 0.043708 -0.002947 -0.012158 0.000000 0.000000 0.000000
# 2 -0.002947 0.005934 -0.002795 0.000000 0.000000 0.000000
# 3 -0.012158 -0.002795 0.016082 0.000000 0.000000 0.000000
# 4 0.000000 0.000000 0.000000 0.033614 0.000000 0.000000
# 5 0.000000 0.000000 0.000000 0.000000 0.037486 0.000000
# 6 0.000000 0.000000 0.000000 0.000000 0.000000 0.033324
#
#
# Mechanical properties :
#
#
# Convention : Reuss Voigt Hill
#
# Bulk Modulus (GPa) = 33.41771 65.18779 49.30275
# Shear Modulus (GPa) = 23.15642 31.92438 27.54040
#
# Velocity S-wave (km/s) = 3.35586 3.94030 3.65977
# Velocity P-wave (km/s) = 5.59178 7.23910 6.46810
#
# Compressibility (1/GPa) = 0.02992425
#
# Stress axis : x y z
#
# Youngs Moduli (GPa) = 22.87893 168.50791 62.18229
#
# Poissons Ratio (x) = 0.49663 0.75603
# Poissons Ratio (y) = 0.06743 0.17377
# Poissons Ratio (z) = 0.27817 0.47091
#
# Static dielectric constant tensor:
#      x y z
#    x 1.870410 0.000000 0.000000 
#    y 0.000000 1.789980 0.000000 
#    z 0.000000 0.000000 1.759480 
# 
# From -- ./inp_files/20570.got.cif
#   From: 2010.05.17/outbox.cif.g08.bks.cpg/sg54_11_cif.got.tgz:20570.got - 2010.06.03 13:09:01.
