data_PCOD9421323
_publ_section_title
;
Structure prediction by ZEFSAII (Michael W. Deem and Ramdas Pophale) SiO2 
 PCOD9421323
Probable space group: P C C A
;
_chemical_formula_sum "Si O2"
_cell_formula_units_Z 40
_cell_length_a 5.151507
_cell_length_b 15.960763
_cell_length_c 29.537083
_cell_angle_alpha 90.000000
_cell_angle_beta 90.000000
_cell_angle_gamma 90.000000
_cell_volume 2428.597516
_symmetry_space_group_name_H-M "P C C A"
_symmetry_group_IT_number 54
_symmetry_cell_setting 'orthorhombic'
loop_
_space_group_symop_operation_xyz
x,y,z
1/2-x,-y,z
1/2+x,-y,1/2-z
-x,y,1/2-z
-x,-y,-z
1/2+x,y,-z
1/2-x,y,1/2+z
x,-y,1/2+z
loop_
_atom_site_type_symbol
_atom_site_label
_atom_site_fract_x
_atom_site_fract_y
_atom_site_fract_z
Si Si1 0.248611 0.905352 0.717847
Si Si2 0.350159 0.264507 0.671881
Si Si3 0.770430 0.599798 0.529316
Si Si4 0.365596 0.660077 0.872951
Si Si5 0.750000 0.500000 0.678728
Si Si6 0.500000 0.374450 0.750000
O O1 0.500000 0.892826 0.750000
O O2 0.207476 0.832161 0.681774
O O3 0.000000 0.900301 0.750000
O O4 0.250000 0.000000 0.698813
O O5 0.636732 0.289823 0.653848
O O6 0.316999 0.313006 0.720457
O O7 0.138309 0.296852 0.636671
O O8 0.750000 0.500000 0.539223
O O9 0.551233 0.617328 0.491734
O O10 0.713724 0.649589 0.575131
O O11 0.398063 0.565780 0.852835
O O12 0.600652 0.437940 0.712054
#
# Coordination Sequence:
#
# PCOD9421323 Si02
#       6
#     8   8   8   8   4   4
#     4  10  20  35  54  75 102 138 178 212 259 308
#     4  11  22  33  53  73 106 134 179 219 250 295
#     4  10  20  36  55  73 100 134 173 214 269 320
#     4  11  22  35  51  76 102 134 176 223 253 299
#     4  10  20  32  44  68  98 142 180 210 242 282
#     4  10  20  32  48  66 102 146 184 208 244 284
#
# _framework density 16.470410999999999
#
# number of rings (size 3 to 8) (size 9 to 14) (size 15 to 20)
#    0.000    1.600    2.000    3.600    2.800    2.400 
#    0.000    0.000    0.000    0.000    0.000    0.000 
#    0.000   16.000    0.000    0.000    0.000    0.000 
#
# Total GULP energy -223002.166667 kJ/mol
# GULP energy per Si atom -5575.054167 kJ/mol
# Density = 1.643292 g / cm^3
# Si number density = 16.470411 Si / 1000 Ang^3
#
#
#
# Elastic Constant Matrix: (Units=GPa)
#
#
# Indices 1 2 3 4 5 6 
#
# 1 62.9523 3.3416 -4.7142 0.0000 0.0000 0.0000
# 2 3.3416 87.1994 21.7529 0.0000 0.0000 0.0000
# 3 -4.7142 21.7529 59.8885 0.0000 0.0000 0.0000
# 4 0.0000 0.0000 0.0000 11.0877 0.0000 0.0000
# 5 0.0000 0.0000 0.0000 0.0000 14.4929 0.0000
# 6 0.0000 0.0000 0.0000 0.0000 0.0000 19.7353
#
#
#
# Elastic Compliance Matrix: (Units=1/GPa)
#
#
# Indices 1 2 3 4 5 6 
#
# 1 0.016062 -0.001024 0.001636 0.000000 0.000000 0.000000
# 2 -0.001024 0.012676 -0.004685 0.000000 0.000000 0.000000
# 3 0.001636 -0.004685 0.018528 0.000000 0.000000 0.000000
# 4 0.000000 0.000000 0.000000 0.090190 0.000000 0.000000
# 5 0.000000 0.000000 0.000000 0.000000 0.068999 0.000000
# 6 0.000000 0.000000 0.000000 0.000000 0.000000 0.050671
#
#
# Mechanical properties :
#
#
# Convention : Reuss Voigt Hill
#
# Bulk Modulus (GPa) = 25.56149 27.86675 26.71412
# Shear Modulus (GPa) = 17.96551 21.70716 19.83634
#
# Velocity S-wave (km/s) = 3.30627 3.63430 3.47416
# Velocity P-wave (km/s) = 5.48895 5.87936 5.68750
#
# Compressibility (1/GPa) = 0.03912134
#
# Stress axis : x y z
#
# Youngs Moduli (GPa) = 62.25910 78.89008 53.97202
#
# Poissons Ratio (x) = 0.08076 -0.08831
# Poissons Ratio (y) = 0.06373 0.25285
# Poissons Ratio (z) = -0.10187 0.36958
#
# Static dielectric constant tensor:
#      x y z
#    x 1.575870 0.000000 0.000000 
#    y 0.000000 1.603260 0.000000 
#    z 0.000000 0.000000 1.549880 
# 
# From -- ./inp_files/25288.got.cif
#   From: 2010.05.17/outbox.cif.g08.bks.cpg/sg54_13_cif.got.tgz:25288.got - 2010.06.03 13:09:01.
