data_PCOD9421269
_publ_section_title
;
Structure prediction by ZEFSAII (Michael W. Deem and Ramdas Pophale) SiO2 
 PCOD9421269
Probable space group: P C C A
;
_chemical_formula_sum "Si O2"
_cell_formula_units_Z 64
_cell_length_a 14.490620
_cell_length_b 19.314718
_cell_length_c 10.876306
_cell_angle_alpha 90.000000
_cell_angle_beta 90.000000
_cell_angle_gamma 90.000000
_cell_volume 3044.084875
_symmetry_space_group_name_H-M "P C C A"
_symmetry_group_IT_number 54
_symmetry_cell_setting 'orthorhombic'
loop_
_space_group_symop_operation_xyz
x,y,z
1/2-x,-y,z
1/2+x,-y,1/2-z
-x,y,1/2-z
-x,-y,-z
1/2+x,y,-z
1/2-x,y,1/2+z
x,-y,1/2+z
loop_
_atom_site_type_symbol
_atom_site_label
_atom_site_fract_x
_atom_site_fract_y
_atom_site_fract_z
Si Si1 0.808502 0.083473 0.760341
Si Si2 0.572287 0.812734 0.638544
Si Si3 0.100800 0.556632 0.097452
Si Si4 0.813848 0.311837 0.628736
Si Si5 0.381961 0.465180 0.368647
Si Si6 0.089921 0.854676 0.019111
Si Si7 0.609603 0.059099 0.718274
Si Si8 0.182626 0.710114 0.097114
O O1 0.833941 0.149261 0.676248
O O2 0.868267 0.091372 0.883668
O O3 0.701076 0.079381 0.798682
O O4 0.853787 0.018482 0.688203
O O5 0.500000 0.822907 0.750000
O O6 0.591799 0.732125 0.622444
O O7 0.520769 0.848328 0.526077
O O8 0.132670 0.518276 0.223887
O O9 0.126660 0.637646 0.096405
O O10 0.990212 0.550496 0.107151
O O11 0.139219 0.521139 0.973695
O O12 0.829681 0.393098 0.617041
O O13 0.755429 0.290951 0.511766
O O14 0.776317 0.291484 0.764368
O O15 0.125289 0.779310 0.064793
O O16 0.116411 0.883877 0.888264
O O17 0.500000 0.055198 0.750000
#
# Coordination Sequence:
#
# PCOD9421269 Si02
#       8
#     8   8   8   8   8   8   8   8
#     4  10  23  42  65  91 130 169 214 265 327 398
#     4  10  19  39  66  89 117 166 227 259 318 398
#     4   9  19  37  60  89 121 160 220 265 321 389
#     4  11  22  38  63  95 125 171 215 268 329 392
#     4   9  19  35  62  86 120 168 211 269 319 386
#     4  11  23  41  68  92 125 176 217 277 327 397
#     4  11  25  41  63 100 132 164 215 274 333 387
#     4  11  23  39  63  92 129 168 218 266 328 398
#
# _framework density 21.024380000000001
#
# number of rings (size 3 to 8) (size 9 to 14) (size 15 to 20)
#    0.000    1.750    2.500    2.625    1.750    7.500 
#    0.000    2.500    5.500    0.000    0.000    0.000 
#    0.000    0.000    0.000    0.000    0.000    0.000 
#
# Total GULP energy -356300.069751 kJ/mol
# GULP energy per Si atom -5567.188590 kJ/mol
# Density = 2.097653 g / cm^3
# Si number density = 21.024380 Si / 1000 Ang^3
#
#
#
# Elastic Constant Matrix: (Units=GPa)
#
#
# Indices 1 2 3 4 5 6 
#
# 1 96.5777 12.3468 35.5099 0.0000 0.0000 0.0000
# 2 12.3468 82.9664 42.3698 0.0000 0.0000 0.0000
# 3 35.5099 42.3698 96.7323 0.0000 0.0000 0.0000
# 4 0.0000 0.0000 0.0000 25.5942 0.0000 0.0000
# 5 0.0000 0.0000 0.0000 0.0000 22.9104 0.0000
# 6 0.0000 0.0000 0.0000 0.0000 0.0000 29.1194
#
#
#
# Elastic Compliance Matrix: (Units=1/GPa)
#
#
# Indices 1 2 3 4 5 6 
#
# 1 0.011993 0.000597 -0.004664 0.000000 0.000000 0.000000
# 2 0.000597 0.015556 -0.007033 0.000000 0.000000 0.000000
# 3 -0.004664 -0.007033 0.015130 0.000000 0.000000 0.000000
# 4 0.000000 0.000000 0.000000 0.039071 0.000000 0.000000
# 5 0.000000 0.000000 0.000000 0.000000 0.043648 0.000000
# 6 0.000000 0.000000 0.000000 0.000000 0.000000 0.034341
#
#
# Mechanical properties :
#
#
# Convention : Reuss Voigt Hill
#
# Bulk Modulus (GPa) = 48.82909 50.74772 49.78840
# Shear Modulus (GPa) = 26.48780 27.92813 27.20797
#
# Velocity S-wave (km/s) = 3.55330 3.64863 3.60128
# Velocity P-wave (km/s) = 6.33325 6.47611 6.40508
#
# Compressibility (1/GPa) = 0.02047959
#
# Stress axis : x y z
#
# Youngs Moduli (GPa) = 83.38246 64.28486 66.09196
#
# Poissons Ratio (x) = -0.03839 0.30826
# Poissons Ratio (y) = -0.04979 0.46481
# Poissons Ratio (z) = 0.38890 0.45210
#
# Static dielectric constant tensor:
#      x y z
#    x 1.836660 0.000000 0.000000 
#    y 0.000000 1.763750 0.000000 
#    z 0.000000 0.000000 1.811110 
# 
# From -- ./inp_files/8552.got.cif
#   From: 2010.05.17/outbox.cif.g08.bks.cpg/sg54_5_cif.got.tgz:8552.got - 2010.06.03 13:09:01.
