data_PCOD9421700
_publ_section_title
;
Structure prediction by ZEFSAII (Michael W. Deem and Ramdas Pophale) SiO2 
 PCOD9421700
Probable space group: P C C A
;
_chemical_formula_sum "Si O2"
_cell_formula_units_Z 44
_cell_length_a 8.790319
_cell_length_b 9.127471
_cell_length_c 30.323864
_cell_angle_alpha 90.000000
_cell_angle_beta 90.000000
_cell_angle_gamma 90.000000
_cell_volume 2432.986157
_symmetry_space_group_name_H-M "P C C A"
_symmetry_group_IT_number 54
_symmetry_cell_setting 'orthorhombic'
loop_
_space_group_symop_operation_xyz
x,y,z
1/2-x,-y,z
1/2+x,-y,1/2-z
-x,y,1/2-z
-x,-y,-z
1/2+x,y,-z
1/2-x,y,1/2+z
x,-y,1/2+z
loop_
_atom_site_type_symbol
_atom_site_label
_atom_site_fract_x
_atom_site_fract_y
_atom_site_fract_z
Si Si1 0.314257 0.147293 0.348640
Si Si2 0.584883 0.575128 0.704033
Si Si3 0.398883 0.602965 0.376830
Si Si4 0.750000 0.000000 0.991968
Si Si5 0.971438 0.150392 0.559298
Si Si6 0.429018 0.480729 0.047493
O O1 0.396321 0.261987 0.316056
O O2 0.169840 0.240621 0.365892
O O3 0.415046 0.107844 0.391692
O O4 0.250000 0.000000 0.327367
O O5 0.750000 0.500000 0.710901
O O6 0.500000 0.574686 0.750000
O O7 0.518154 0.473174 0.664801
O O8 0.250000 0.500000 0.385440
O O9 0.502453 0.599084 0.419208
O O10 0.618135 0.931175 0.961362
O O11 0.834165 0.883871 0.024707
O O12 0.016686 0.320542 0.562911
O O13 0.250000 0.500000 0.045767
O O14 0.500000 0.500000 0.000000
#
# Coordination Sequence:
#
# PCOD9421700 Si02
#       6
#     8   8   8   4   8   8
#     4  10  20  37  64  84 118 155 189 242 298 354
#     4   9  19  39  65  87 113 147 189 239 297 360
#     4   9  19  38  58  85 111 152 201 233 299 349
#     4  10  24  34  60  80 118 168 202 232 300 352
#     4  11  21  40  53  84 116 161 202 242 290 352
#     4  12  24  34  55  82 120 156 203 252 285 339
#
# _framework density 18.084772999999998
#
# number of rings (size 3 to 8) (size 9 to 14) (size 15 to 20)
#    0.000    2.182    4.545    1.636    2.545    2.182 
#    0.000    3.636    2.000    0.000    0.000    0.000 
#    0.000    0.000    0.000    0.000    0.000    0.000 
#
# Total GULP energy -245351.091493 kJ/mol
# GULP energy per Si atom -5576.161170 kJ/mol
# Density = 1.804361 g / cm^3
# Si number density = 18.084773 Si / 1000 Ang^3
#
#
#
# Elastic Constant Matrix: (Units=GPa)
#
#
# Indices 1 2 3 4 5 6 
#
# 1 70.0174 14.3648 44.2479 0.0000 0.0000 0.0000
# 2 14.3648 61.3855 -2.2896 0.0000 0.0000 0.0000
# 3 44.2479 -2.2896 116.4376 0.0000 0.0000 0.0000
# 4 0.0000 0.0000 0.0000 20.2276 0.0000 0.0000
# 5 0.0000 0.0000 0.0000 0.0000 37.4052 0.0000
# 6 0.0000 0.0000 0.0000 0.0000 0.0000 18.1348
#
#
#
# Elastic Compliance Matrix: (Units=1/GPa)
#
#
# Indices 1 2 3 4 5 6 
#
# 1 0.020235 -0.005026 -0.007788 0.000000 0.000000 0.000000
# 2 -0.005026 0.017551 0.002255 0.000000 0.000000 0.000000
# 3 -0.007788 0.002255 0.011592 0.000000 0.000000 0.000000
# 4 0.000000 0.000000 0.000000 0.049437 0.000000 0.000000
# 5 0.000000 0.000000 0.000000 0.000000 0.026734 0.000000
# 6 0.000000 0.000000 0.000000 0.000000 0.000000 0.055143
#
#
# Mechanical properties :
#
#
# Convention : Reuss Voigt Hill
#
# Bulk Modulus (GPa) = 35.38603 40.05407 37.72005
# Shear Modulus (GPa) = 23.67076 27.92133 25.79605
#
# Velocity S-wave (km/s) = 3.62177 3.93353 3.78086
# Velocity P-wave (km/s) = 6.09088 6.54418 6.32159
#
# Compressibility (1/GPa) = 0.02825974
#
# Stress axis : x y z
#
# Youngs Moduli (GPa) = 49.41877 56.97787 86.26369
#
# Poissons Ratio (x) = 0.28636 0.67186
# Poissons Ratio (y) = 0.24837 -0.19452
# Poissons Ratio (z) = 0.38490 -0.12848
#
# Static dielectric constant tensor:
#      x y z
#    x 1.621000 0.000000 0.000000 
#    y 0.000000 1.649950 0.000000 
#    z 0.000000 0.000000 1.584180 
# 
# From -- ./inp_files/27618.got.cif
#   From: 2010.05.17/outbox.cif.g08.bks.cpg/sg54_14_cif.got.tgz:27618.got - 2010.06.03 13:09:01.
