data_PCOD9421802
_publ_section_title
;
Structure prediction by ZEFSAII (Michael W. Deem and Ramdas Pophale) SiO2 
 PCOD9421802
Probable space group: P C C A
;
_chemical_formula_sum "Si O2"
_cell_formula_units_Z 32
_cell_length_a 13.477001
_cell_length_b 17.302725
_cell_length_c 5.341563
_cell_angle_alpha 90.000000
_cell_angle_beta 90.000000
_cell_angle_gamma 90.000000
_cell_volume 1245.592891
_symmetry_space_group_name_H-M "P C C A"
_symmetry_group_IT_number 54
_symmetry_cell_setting 'orthorhombic'
loop_
_space_group_symop_operation_xyz
x,y,z
1/2-x,-y,z
1/2+x,-y,1/2-z
-x,y,1/2-z
-x,-y,-z
1/2+x,y,-z
1/2-x,y,1/2+z
x,-y,1/2+z
loop_
_atom_site_type_symbol
_atom_site_label
_atom_site_fract_x
_atom_site_fract_y
_atom_site_fract_z
Si Si1 0.791264 0.112476 0.108593
Si Si2 0.500000 0.052264 0.750000
Si Si3 0.500000 0.677353 0.750000
Si Si4 0.207291 0.714689 0.433410
Si Si5 0.608009 0.536735 0.982132
O O1 0.719329 0.079502 0.326766
O O2 0.900751 0.103037 0.219081
O O3 0.758326 0.200847 0.062777
O O4 0.500000 0.000000 0.500000
O O5 0.588073 0.721009 0.600933
O O6 0.429223 0.624056 0.574662
O O7 0.238776 0.676005 0.694106
O O8 0.652314 0.507639 0.242600
O O9 0.500000 0.500000 0.000000
#
# Coordination Sequence:
#
# PCOD9421802 Si02
#       5
#     8   4   4   8   8
#     4  10  23  43  64  92 129 158 200 255 301 356
#     4  12  26  42  69  96 121 168 206 240 306 366
#     4  10  20  38  65  86 121 164 204 250 312 368
#     4  10  24  39  60  93 124 160 206 252 301 364
#     4   8  16  30  54  82 112 158 199 244 305 354
#
# _framework density 25.690577000000001
#
# number of rings (size 3 to 8) (size 9 to 14) (size 15 to 20)
#    0.000    2.500    0.000    1.500    0.000   20.000 
#    0.000    0.000    0.000   40.500    0.000    0.000 
#    0.000    0.000    0.000    0.000    0.000    0.000 
#
# Total GULP energy -178306.610243 kJ/mol
# GULP energy per Si atom -5572.081570 kJ/mol
# Density = 2.563210 g / cm^3
# Si number density = 25.690577 Si / 1000 Ang^3
#
#
#
# Elastic Constant Matrix: (Units=GPa)
#
#
# Indices 1 2 3 4 5 6 
#
# 1 164.7283 41.8345 14.1906 0.0000 0.0000 0.0000
# 2 41.8345 79.2656 3.2433 0.0000 0.0000 0.0000
# 3 14.1906 3.2433 238.7119 0.0000 0.0000 0.0000
# 4 0.0000 0.0000 0.0000 10.8719 0.0000 0.0000
# 5 0.0000 0.0000 0.0000 0.0000 6.5938 0.0000
# 6 0.0000 0.0000 0.0000 0.0000 0.0000 -51.9222
#
#
#
# Elastic Compliance Matrix: (Units=1/GPa)
#
#
# Indices 1 2 3 4 5 6 
#
# 1 0.007042 -0.003702 -0.000368 0.000000 0.000000 0.000000
# 2 -0.003702 0.014569 0.000022 0.000000 0.000000 0.000000
# 3 -0.000368 0.000022 0.004211 0.000000 0.000000 0.000000
# 4 0.000000 0.000000 0.000000 0.091980 0.000000 0.000000
# 5 0.000000 0.000000 0.000000 0.000000 0.151657 0.000000
# 6 0.000000 0.000000 0.000000 0.000000 0.000000 -0.019260
#
#
# Mechanical properties :
#
#
# Convention : Reuss Voigt Hill
#
# Bulk Modulus (GPa) = 56.41494 66.80472 61.60983
# Shear Modulus (GPa) = 18.92474 21.33786 20.13130
#
# Velocity S-wave (km/s) = 2.71706 2.88509 2.80233
# Velocity P-wave (km/s) = 5.64360 6.09577 5.87404
#
# Compressibility (1/GPa) = 0.01772580
#
# Stress axis : x y z
#
# Youngs Moduli (GPa) = 141.99633 68.64078 237.48757
#
# Poissons Ratio (x) = 0.25409 0.08748
# Poissons Ratio (y) = 0.52564 -0.00525
# Poissons Ratio (z) = 0.05230 -0.00152
#
# Static dielectric constant tensor:
#      x y z
#    x 1.928050 0.000000 0.000000 
#    y 0.000000 2.534310 0.000000 
#    z 0.000000 0.000000 3.271970 
# 
# From -- ./inp_files/400.got.cif
#   From: 2010.05.17/outbox.cif.g08.bks.cpg/sg54_1_cif.got.tgz:400.got - 2010.06.03 13:09:01.
