data_PCOD9421817
_publ_section_title
;
Structure prediction by ZEFSAII (Michael W. Deem and Ramdas Pophale) SiO2 
 PCOD9421817
Probable space group: P C C A
;
_chemical_formula_sum "Si O2"
_cell_formula_units_Z 40
_cell_length_a 12.238448
_cell_length_b 6.787004
_cell_length_c 17.832346
_cell_angle_alpha 90.000000
_cell_angle_beta 90.000000
_cell_angle_gamma 90.000000
_cell_volume 1481.197377
_symmetry_space_group_name_H-M "P C C A"
_symmetry_group_IT_number 54
_symmetry_cell_setting 'orthorhombic'
loop_
_space_group_symop_operation_xyz
x,y,z
1/2-x,-y,z
1/2+x,-y,1/2-z
-x,y,1/2-z
-x,-y,-z
1/2+x,y,-z
1/2-x,y,1/2+z
x,-y,1/2+z
loop_
_atom_site_type_symbol
_atom_site_label
_atom_site_fract_x
_atom_site_fract_y
_atom_site_fract_z
Si Si1 0.750000 0.000000 0.017280
Si Si2 0.647378 0.119065 0.297612
Si Si3 0.412691 0.538671 0.398603
Si Si4 0.425904 0.073150 0.366855
Si Si5 0.650838 0.389148 0.943292
Si Si6 0.750000 0.500000 0.225990
O O1 0.645843 0.953659 0.072898
O O2 0.699977 0.182959 0.971962
O O3 0.556229 0.079313 0.359935
O O4 0.611623 0.029983 0.217402
O O5 0.680103 0.340248 0.272705
O O6 0.750000 0.000000 0.323262
O O7 0.407035 0.303491 0.383375
O O8 0.374539 0.532733 0.485077
O O9 0.536527 0.620485 0.398405
O O10 0.334218 0.609216 0.331529
O O11 0.750000 0.500000 0.903932
#
# Coordination Sequence:
#
# PCOD9421817 Si02
#       6
#     4   8   8   8   8   4
#     4  10  20  40  70  94 132 182 222 278 348 396
#     4  10  20  38  66  95 130 170 225 273 342 420
#     4   9  19  38  66  91 126 174 221 274 342 398
#     4   9  19  38  65  94 133 171 219 287 339 403
#     4  10  20  38  66  93 127 172 226 279 327 412
#     4  10  20  40  68  92 130 178 220 282 346 406
#
# _framework density 27.005178999999998
#
# number of rings (size 3 to 8) (size 9 to 14) (size 15 to 20)
#    0.000    2.400    2.000    0.000    0.000    0.000 
#    1.800   25.000    6.600    0.000    0.000    0.000 
#    0.000    0.000    0.000    0.000    0.000    0.000 
#
# Total GULP energy -223639.186832 kJ/mol
# GULP energy per Si atom -5590.979671 kJ/mol
# Density = 2.694371 g / cm^3
# Si number density = 27.005179 Si / 1000 Ang^3
#
#
#
# Elastic Constant Matrix: (Units=GPa)
#
#
# Indices 1 2 3 4 5 6 
#
# 1 237.8336 50.3197 66.9137 0.0000 0.0000 0.0000
# 2 50.3197 117.6495 47.9091 0.0000 0.0000 0.0000
# 3 66.9137 47.9091 111.2652 0.0000 0.0000 0.0000
# 4 0.0000 0.0000 0.0000 31.8679 0.0000 0.0000
# 5 0.0000 0.0000 0.0000 0.0000 85.9100 0.0000
# 6 0.0000 0.0000 0.0000 0.0000 0.0000 51.2617
#
#
#
# Elastic Compliance Matrix: (Units=1/GPa)
#
#
# Indices 1 2 3 4 5 6 
#
# 1 0.005186 -0.001150 -0.002624 0.000000 0.000000 0.000000
# 2 -0.001150 0.010562 -0.003856 0.000000 0.000000 0.000000
# 3 -0.002624 -0.003856 0.012226 0.000000 0.000000 0.000000
# 4 0.000000 0.000000 0.000000 0.031379 0.000000 0.000000
# 5 0.000000 0.000000 0.000000 0.000000 0.011640 0.000000
# 6 0.000000 0.000000 0.000000 0.000000 0.000000 0.019508
#
#
# Mechanical properties :
#
#
# Convention : Reuss Voigt Hill
#
# Bulk Modulus (GPa) = 78.65217 88.55927 83.60572
# Shear Modulus (GPa) = 45.45488 53.91497 49.68492
#
# Velocity S-wave (km/s) = 4.10712 4.47303 4.29398
# Velocity P-wave (km/s) = 7.18883 7.71635 7.45726
#
# Compressibility (1/GPa) = 0.01271421
#
# Stress axis : x y z
#
# Youngs Moduli (GPa) = 192.82455 94.67947 81.79302
#
# Poissons Ratio (x) = 0.10885 0.21461
# Poissons Ratio (y) = 0.22168 0.31543
# Poissons Ratio (z) = 0.50594 0.36512
#
# Static dielectric constant tensor:
#      x y z
#    x 2.185520 0.000000 0.000000 
#    y 0.000000 2.164790 0.000000 
#    z 0.000000 0.000000 2.146400 
# 
# From -- ./inp_files/21066.got.cif
#   From: 2010.05.17/outbox.cif.g08.bks.cpg/sg54_11_cif.got.tgz:21066.got - 2010.06.03 13:09:01.
