data_PCOD9421704
_publ_section_title
;
Structure prediction by ZEFSAII (Michael W. Deem and Ramdas Pophale) SiO2 
 PCOD9421704
Probable space group: P C C A
;
_chemical_formula_sum "Si O2"
_cell_formula_units_Z 40
_cell_length_a 7.485902
_cell_length_b 14.311451
_cell_length_c 15.752055
_cell_angle_alpha 90.000000
_cell_angle_beta 90.000000
_cell_angle_gamma 90.000000
_cell_volume 1687.582545
_symmetry_space_group_name_H-M "P C C A"
_symmetry_group_IT_number 54
_symmetry_cell_setting 'orthorhombic'
loop_
_space_group_symop_operation_xyz
x,y,z
1/2-x,-y,z
1/2+x,-y,1/2-z
-x,y,1/2-z
-x,-y,-z
1/2+x,y,-z
1/2-x,y,1/2+z
x,-y,1/2+z
loop_
_atom_site_type_symbol
_atom_site_label
_atom_site_fract_x
_atom_site_fract_y
_atom_site_fract_z
Si Si1 0.574270 0.817556 0.048957
Si Si2 0.250000 0.000000 0.891186
Si Si3 0.703516 0.604354 0.878502
Si Si4 0.500000 0.080759 0.250000
Si Si5 0.132978 0.318447 0.944340
Si Si6 0.674132 0.207731 0.807019
O O1 0.684637 0.912404 0.053113
O O2 0.696145 0.735588 0.091670
O O3 0.393269 0.826967 0.101498
O O4 0.505543 0.767307 0.964085
O O5 0.083597 0.023586 0.828690
O O6 0.750000 0.500000 0.853765
O O7 0.489745 0.613561 0.890581
O O8 0.769531 0.684656 0.815435
O O9 0.800104 0.629493 0.969705
O O10 0.336538 0.145451 0.222701
O O11 0.500000 0.194810 0.750000
#
# Coordination Sequence:
#
# PCOD9421704 Si02
#       6
#     8   4   8   4   8   8
#     4  10  21  39  60  92 121 165 206 252 313 373
#     4  12  22  36  64  90 118 160 222 248 296 378
#     4  10  20  37  64  94 120 164 216 254 308 382
#     4  12  24  42  64  88 128 170 204 258 310 368
#     4   9  20  39  62  86 133 163 193 264 324 363
#     4  11  23  43  62  88 129 164 205 255 325 364
#
# _framework density 23.702546999999999
#
# number of rings (size 3 to 8) (size 9 to 14) (size 15 to 20)
#    0.000    1.600    2.000    3.000    0.000    0.800 
#    1.800    0.000    0.000    0.000    0.000    0.000 
#    0.000    0.000    0.000    0.000    0.000    0.000 
#
# Total GULP energy -223696.590367 kJ/mol
# GULP energy per Si atom -5592.414759 kJ/mol
# Density = 2.364860 g / cm^3
# Si number density = 23.702547 Si / 1000 Ang^3
#
#
#
# Elastic Constant Matrix: (Units=GPa)
#
#
# Indices 1 2 3 4 5 6 
#
# 1 143.9721 28.1183 13.1831 0.0000 0.0000 0.0000
# 2 28.1183 119.3152 12.1749 0.0000 0.0000 0.0000
# 3 13.1831 12.1749 24.7248 0.0000 0.0000 0.0000
# 4 0.0000 0.0000 0.0000 22.9455 0.0000 0.0000
# 5 0.0000 0.0000 0.0000 0.0000 25.3562 0.0000
# 6 0.0000 0.0000 0.0000 0.0000 0.0000 12.2484
#
#
#
# Elastic Compliance Matrix: (Units=1/GPa)
#
#
# Indices 1 2 3 4 5 6 
#
# 1 0.007529 -0.001437 -0.003307 0.000000 0.000000 0.000000
# 2 -0.001437 0.009099 -0.003714 0.000000 0.000000 0.000000
# 3 -0.003307 -0.003714 0.044037 0.000000 0.000000 0.000000
# 4 0.000000 0.000000 0.000000 0.043582 0.000000 0.000000
# 5 0.000000 0.000000 0.000000 0.000000 0.039438 0.000000
# 6 0.000000 0.000000 0.000000 0.000000 0.000000 0.081643
#
#
# Mechanical properties :
#
#
# Convention : Reuss Voigt Hill
#
# Bulk Modulus (GPa) = 22.85759 43.88496 33.37128
# Shear Modulus (GPa) = 19.46834 27.74575 23.60705
#
# Velocity S-wave (km/s) = 2.86905 3.42509 3.15932
# Velocity P-wave (km/s) = 4.54309 5.84779 5.23624
#
# Compressibility (1/GPa) = 0.04374914
#
# Stress axis : x y z
#
# Youngs Moduli (GPa) = 132.81566 109.90468 22.70801
#
# Poissons Ratio (x) = 0.15793 0.07509
# Poissons Ratio (y) = 0.19085 0.08434
# Poissons Ratio (z) = 0.43921 0.40821
#
# Static dielectric constant tensor:
#      x y z
#    x 1.907120 0.000000 0.000000 
#    y 0.000000 1.881890 0.000000 
#    z 0.000000 0.000000 1.987390 
# 
# From -- ./inp_files/16407.got.cif
#   From: 2010.05.17/outbox.cif.g08.bks.cpg/sg54_9_cif.got.tgz:16407.got - 2010.06.03 13:09:01.
