data_PCOD9421450
_publ_section_title
;
Structure prediction by ZEFSAII (Michael W. Deem and Ramdas Pophale) SiO2 
 PCOD9421450
Probable space group: P C C A
;
_chemical_formula_sum "Si O2"
_cell_formula_units_Z 48
_cell_length_a 25.679198
_cell_length_b 10.234051
_cell_length_c 9.004311
_cell_angle_alpha 90.000000
_cell_angle_beta 90.000000
_cell_angle_gamma 90.000000
_cell_volume 2366.352938
_symmetry_space_group_name_H-M "P C C A"
_symmetry_group_IT_number 54
_symmetry_cell_setting 'orthorhombic'
loop_
_space_group_symop_operation_xyz
x,y,z
1/2-x,-y,z
1/2+x,-y,1/2-z
-x,y,1/2-z
-x,-y,-z
1/2+x,y,-z
1/2-x,y,1/2+z
x,-y,1/2+z
loop_
_atom_site_type_symbol
_atom_site_label
_atom_site_fract_x
_atom_site_fract_y
_atom_site_fract_z
Si Si1 0.438647 0.146306 0.767239
Si Si2 0.119885 0.065224 0.559751
Si Si3 0.794790 0.184407 0.122199
Si Si4 0.323257 0.217941 0.322456
Si Si5 0.695223 0.570327 0.900438
Si Si6 0.137817 0.692932 0.622561
O O1 0.500000 0.135616 0.750000
O O2 0.415145 0.284253 0.712191
O O3 0.409495 0.047557 0.652346
O O4 0.420691 0.120182 0.936931
O O5 0.171801 0.066780 0.452289
O O6 0.142925 0.150256 0.695260
O O7 0.733766 0.159362 0.142196
O O8 0.818675 0.231126 0.278500
O O9 0.804990 0.311985 0.018865
O O10 0.308663 0.360756 0.258823
O O11 0.358682 0.236068 0.465219
O O12 0.750000 0.500000 0.916690
O O13 0.652368 0.457186 0.904629
#
# Coordination Sequence:
#
# PCOD9421450 Si02
#       6
#     8   8   8   8   8   8
#     4  11  24  46  68  85 116 166 222 285 331 358
#     4  10  23  41  64  91 119 162 218 262 314 385
#     4  10  20  35  57  91 130 166 197 241 306 388
#     4  11  20  35  59  93 132 165 195 247 312 388
#     4  11  19  32  59  89 131 171 200 229 299 386
#     4  11  21  33  58  93 123 161 211 253 301 381
#
# _framework density 20.284379999999999
#
# number of rings (size 3 to 8) (size 9 to 14) (size 15 to 20)
#    0.000    1.333    3.333    3.500    0.000    0.000 
#    0.000   14.167    0.000   20.000    0.000    0.000 
#    0.000    0.000    0.000    0.000    0.000    0.000 
#
# Total GULP energy -267707.793150 kJ/mol
# GULP energy per Si atom -5577.245691 kJ/mol
# Density = 2.023821 g / cm^3
# Si number density = 20.284380 Si / 1000 Ang^3
#
#
#
# Elastic Constant Matrix: (Units=GPa)
#
#
# Indices 1 2 3 4 5 6 
#
# 1 122.0824 67.1379 40.5527 0.0000 0.0000 0.0000
# 2 67.1379 73.0939 31.7854 0.0000 0.0000 0.0000
# 3 40.5527 31.7854 133.7586 0.0000 0.0000 0.0000
# 4 0.0000 0.0000 0.0000 27.9650 0.0000 0.0000
# 5 0.0000 0.0000 0.0000 0.0000 22.7105 0.0000
# 6 0.0000 0.0000 0.0000 0.0000 0.0000 17.6705
#
#
#
# Elastic Compliance Matrix: (Units=1/GPa)
#
#
# Indices 1 2 3 4 5 6 
#
# 1 0.016852 -0.014785 -0.001596 0.000000 0.000000 0.000000
# 2 -0.014785 0.028229 -0.002226 0.000000 0.000000 0.000000
# 3 -0.001596 -0.002226 0.008489 0.000000 0.000000 0.000000
# 4 0.000000 0.000000 0.000000 0.035759 0.000000 0.000000
# 5 0.000000 0.000000 0.000000 0.000000 0.044032 0.000000
# 6 0.000000 0.000000 0.000000 0.000000 0.000000 0.056591
#
#
# Mechanical properties :
#
#
# Convention : Reuss Voigt Hill
#
# Bulk Modulus (GPa) = 61.13522 67.54300 64.33911
# Shear Modulus (GPa) = 21.49443 26.29981 23.89712
#
# Velocity S-wave (km/s) = 3.25876 3.60468 3.43608
# Velocity P-wave (km/s) = 6.66062 7.12006 6.89417
#
# Compressibility (1/GPa) = 0.01635718
#
# Stress axis : x y z
#
# Youngs Moduli (GPa) = 59.33959 35.42431 117.80140
#
# Poissons Ratio (x) = 0.52375 0.18799
# Poissons Ratio (y) = 0.87734 0.26219
# Poissons Ratio (z) = 0.09469 0.07884
#
# Static dielectric constant tensor:
#      x y z
#    x 1.706020 0.000000 0.000000 
#    y 0.000000 1.851980 0.000000 
#    z 0.000000 0.000000 1.776300 
# 
# From -- ./inp_files/5162.got.cif
#   From: 2010.05.17/outbox.cif.g08.bks.cpg/sg54_3_cif.got.tgz:5162.got - 2010.06.03 13:09:01.
