data_PCOD9421303
_publ_section_title
;
Structure prediction by ZEFSAII (Michael W. Deem and Ramdas Pophale) SiO2 
 PCOD9421303
Probable space group: P C C A
;
_chemical_formula_sum "Si O2"
_cell_formula_units_Z 48
_cell_length_a 13.960727
_cell_length_b 8.436010
_cell_length_c 18.741752
_cell_angle_alpha 90.000000
_cell_angle_beta 90.000000
_cell_angle_gamma 90.000000
_cell_volume 2207.269221
_symmetry_space_group_name_H-M "P C C A"
_symmetry_group_IT_number 54
_symmetry_cell_setting 'orthorhombic'
loop_
_space_group_symop_operation_xyz
x,y,z
1/2-x,-y,z
1/2+x,-y,1/2-z
-x,y,1/2-z
-x,-y,-z
1/2+x,y,-z
1/2-x,y,1/2+z
x,-y,1/2+z
loop_
_atom_site_type_symbol
_atom_site_label
_atom_site_fract_x
_atom_site_fract_y
_atom_site_fract_z
Si Si1 0.366950 0.726255 0.141166
Si Si2 0.750000 0.000000 0.281518
Si Si3 0.250000 0.500000 0.035803
Si Si4 0.862378 0.474006 0.226837
Si Si5 0.617793 0.810461 0.673616
Si Si6 0.306729 0.276667 0.910773
Si Si7 0.973711 0.955122 0.579565
O O1 0.317816 0.607289 0.085287
O O2 0.404395 0.625086 0.208309
O O3 0.451990 0.824941 0.106384
O O4 0.291848 0.855962 0.171942
O O5 0.832412 0.928848 0.230126
O O6 0.304847 0.381400 0.981906
O O7 0.750000 0.500000 0.247816
O O8 0.905144 0.645276 0.211407
O O9 0.854603 0.374868 0.153913
O O10 0.699788 0.763856 0.615622
O O11 0.531652 0.896921 0.633463
O O12 0.368019 0.119776 0.920484
O O13 0.000000 0.000000 0.500000
#
# Coordination Sequence:
#
# PCOD9421303 Si02
#       7
#     8   4   4   8   8   8   8
#     4  12  26  44  69 109 142 185 247 310 348 432
#     4  12  22  42  76 100 136 188 244 296 356 418
#     4  12  24  44  74  96 140 198 236 284 366 444
#     4  10  19  44  74  98 124 182 253 286 345 428
#     4  11  20  45  76  99 133 190 239 289 365 433
#     4  11  22  44  75  97 136 194 234 282 360 443
#     4  12  28  44  65 110 152 180 232 299 370 431
#
# _framework density 21.746327999999998
#
# number of rings (size 3 to 8) (size 9 to 14) (size 15 to 20)
#    0.000    0.667    8.333    1.000    2.333    3.333 
#    0.000    1.667    0.000    0.000    0.000    0.000 
#    0.000    0.000    0.000    0.000    0.000    0.000 
#
# Total GULP energy -268773.663427 kJ/mol
# GULP energy per Si atom -5599.451321 kJ/mol
# Density = 2.169683 g / cm^3
# Si number density = 21.746328 Si / 1000 Ang^3
#
#
#
# Elastic Constant Matrix: (Units=GPa)
#
#
# Indices 1 2 3 4 5 6 
#
# 1 68.1753 41.0192 51.7549 0.0000 0.0000 0.0000
# 2 41.0192 151.6570 84.7286 0.0000 0.0000 0.0000
# 3 51.7549 84.7286 161.0249 0.0000 0.0000 0.0000
# 4 0.0000 0.0000 0.0000 59.2751 0.0000 0.0000
# 5 0.0000 0.0000 0.0000 0.0000 19.0773 0.0000
# 6 0.0000 0.0000 0.0000 0.0000 0.0000 42.4755
#
#
#
# Elastic Compliance Matrix: (Units=1/GPa)
#
#
# Indices 1 2 3 4 5 6 
#
# 1 0.020094 -0.002587 -0.005097 0.000000 0.000000 0.000000
# 2 -0.002587 0.009672 -0.004258 0.000000 0.000000 0.000000
# 3 -0.005097 -0.004258 0.010089 0.000000 0.000000 0.000000
# 4 0.000000 0.000000 0.000000 0.016871 0.000000 0.000000
# 5 0.000000 0.000000 0.000000 0.000000 0.052418 0.000000
# 6 0.000000 0.000000 0.000000 0.000000 0.000000 0.023543
#
#
# Mechanical properties :
#
#
# Convention : Reuss Voigt Hill
#
# Bulk Modulus (GPa) = 62.61344 81.76251 72.18797
# Shear Modulus (GPa) = 30.88410 37.72254 34.30332
#
# Velocity S-wave (km/s) = 3.77264 4.16945 3.97600
# Velocity P-wave (km/s) = 6.91609 7.80122 7.37195
#
# Compressibility (1/GPa) = 0.01597101
#
# Stress axis : x y z
#
# Youngs Moduli (GPa) = 49.76569 103.38644 99.11886
#
# Poissons Ratio (x) = 0.26749 0.50521
# Poissons Ratio (y) = 0.12876 0.42204
# Poissons Ratio (z) = 0.25366 0.44021
#
# Static dielectric constant tensor:
#      x y z
#    x 1.828650 0.000000 0.000000 
#    y 0.000000 1.793480 0.000000 
#    z 0.000000 0.000000 1.760140 
# 
# From -- ./inp_files/18089.got.cif
#   From: 2010.05.17/outbox.cif.g08.bks.cpg/sg54_10_cif.got.tgz:18089.got - 2010.06.03 13:09:01.
