data_PCOD9421519
_publ_section_title
;
Structure prediction by ZEFSAII (Michael W. Deem and Ramdas Pophale) SiO2 
 PCOD9421519
Probable space group: P C C A
;
_chemical_formula_sum "Si O2"
_cell_formula_units_Z 36
_cell_length_a 8.911204
_cell_length_b 19.555206
_cell_length_c 10.744075
_cell_angle_alpha 90.000000
_cell_angle_beta 90.000000
_cell_angle_gamma 90.000000
_cell_volume 1872.267129
_symmetry_space_group_name_H-M "P C C A"
_symmetry_group_IT_number 54
_symmetry_cell_setting 'orthorhombic'
loop_
_space_group_symop_operation_xyz
x,y,z
1/2-x,-y,z
1/2+x,-y,1/2-z
-x,y,1/2-z
-x,-y,-z
1/2+x,y,-z
1/2-x,y,1/2+z
x,-y,1/2+z
loop_
_atom_site_type_symbol
_atom_site_label
_atom_site_fract_x
_atom_site_fract_y
_atom_site_fract_z
Si Si1 0.573925 0.246660 0.111513
Si Si2 0.083981 0.528894 0.877656
Si Si3 0.997930 0.094433 0.894421
Si Si4 0.090766 0.306987 0.376016
Si Si5 0.750000 0.000000 0.998851
O O1 0.500000 0.254161 0.250000
O O2 0.544857 0.169411 0.059014
O O3 0.747928 0.268931 0.122197
O O4 0.495359 0.290912 0.004384
O O5 0.250000 0.500000 0.877381
O O6 0.101319 0.610934 0.875062
O O7 0.000000 0.508354 0.750000
O O8 0.000000 0.500000 0.000000
O O9 0.000000 0.104610 0.750000
O O10 0.122655 0.038534 0.925530
O O11 0.838904 0.060642 0.929020
O O12 0.000000 0.286568 0.250000
#
# Coordination Sequence:
#
# PCOD9421519 Si02
#       5
#     8   8   8   8   4
#     4  11  23  40  62  89 123 160 203 250 301 362
#     4  11  24  41  63  90 121 158 202 251 304 362
#     4  10  21  37  57  84 114 150 193 238 289 344
#     4  11  24  41  62  90 122 160 202 249 305 363
#     4  10  20  36  58  82 114 150 190 238 290 344
#
# _framework density 19.228026
#
# number of rings (size 3 to 8) (size 9 to 14) (size 15 to 20)
#    0.000    1.333    0.000    5.333    0.000    8.889 
#    0.000    5.556    0.000    0.000    0.000    0.000 
#    0.000    0.000    0.000    0.000    0.000    0.000 
#
# Total GULP energy -200727.487701 kJ/mol
# GULP energy per Si atom -5575.763547 kJ/mol
# Density = 1.918426 g / cm^3
# Si number density = 19.228026 Si / 1000 Ang^3
#
#
#
# Elastic Constant Matrix: (Units=GPa)
#
#
# Indices 1 2 3 4 5 6 
#
# 1 165.7772 49.4838 63.0546 0.0000 0.0000 0.0000
# 2 49.4838 90.6815 36.6143 0.0000 0.0000 0.0000
# 3 63.0546 36.6143 113.6371 0.0000 0.0000 0.0000
# 4 0.0000 0.0000 0.0000 72.2132 0.0000 0.0000
# 5 0.0000 0.0000 0.0000 0.0000 1.7719 0.0000
# 6 0.0000 0.0000 0.0000 0.0000 0.0000 40.9070
#
#
#
# Elastic Compliance Matrix: (Units=1/GPa)
#
#
# Indices 1 2 3 4 5 6 
#
# 1 0.008333 -0.003081 -0.003631 0.000000 0.000000 0.000000
# 2 -0.003081 0.013816 -0.002742 0.000000 0.000000 0.000000
# 3 -0.003631 -0.002742 0.011698 0.000000 0.000000 0.000000
# 4 0.000000 0.000000 0.000000 0.013848 0.000000 0.000000
# 5 0.000000 0.000000 0.000000 0.000000 0.564351 0.000000
# 6 0.000000 0.000000 0.000000 0.000000 0.000000 0.024446
#
#
# Mechanical properties :
#
#
# Convention : Reuss Voigt Hill
#
# Bulk Modulus (GPa) = 66.93875 74.26680 70.60278
# Shear Modulus (GPa) = 7.57140 37.70796 22.63968
#
# Velocity S-wave (km/s) = 1.98651 4.43323 3.43509
# Velocity P-wave (km/s) = 6.33643 8.05685 7.24787
#
# Compressibility (1/GPa) = 0.01493903
#
# Stress axis : x y z
#
# Youngs Moduli (GPa) = 120.00503 72.37967 85.48335
#
# Poissons Ratio (x) = 0.22301 0.31039
# Poissons Ratio (y) = 0.36975 0.23439
# Poissons Ratio (z) = 0.43574 0.19846
#
# Static dielectric constant tensor:
#      x y z
#    x 1.639790 0.000000 0.000000 
#    y 0.000000 1.878550 0.000000 
#    z 0.000000 0.000000 1.507450 
# 
# From -- ./inp_files/2472.got.cif
#   From: 2010.05.17/outbox.cif.g08.bks.cpg/sg54_2_cif.got.tgz:2472.got - 2010.06.03 13:09:01.
