data_PCOD9421923
_publ_section_title
;
Structure prediction by ZEFSAII (Michael W. Deem and Ramdas Pophale) SiO2 
 PCOD9421923
Probable space group: P C C A
;
_chemical_formula_sum "Si O2"
_cell_formula_units_Z 64
_cell_length_a 8.966847
_cell_length_b 17.961659
_cell_length_c 19.601859
_cell_angle_alpha 90.000000
_cell_angle_beta 90.000000
_cell_angle_gamma 90.000000
_cell_volume 3157.064593
_symmetry_space_group_name_H-M "P C C A"
_symmetry_group_IT_number 54
_symmetry_cell_setting 'orthorhombic'
loop_
_space_group_symop_operation_xyz
x,y,z
1/2-x,-y,z
1/2+x,-y,1/2-z
-x,y,1/2-z
-x,-y,-z
1/2+x,y,-z
1/2-x,y,1/2+z
x,-y,1/2+z
loop_
_atom_site_type_symbol
_atom_site_label
_atom_site_fract_x
_atom_site_fract_y
_atom_site_fract_z
Si Si1 0.676236 0.579578 0.732835
Si Si2 0.916934 0.825120 0.320319
Si Si3 0.871393 0.549017 0.464012
Si Si4 0.803014 0.215881 0.605521
Si Si5 0.914829 0.029443 0.896400
Si Si6 0.357450 0.071550 0.954622
Si Si7 0.840739 0.377811 0.576131
Si Si8 0.822174 0.263084 0.253006
O O1 0.750000 0.500000 0.750730
O O2 0.500000 0.579108 0.750000
O O3 0.696384 0.592705 0.651577
O O4 0.753329 0.654025 0.763539
O O5 0.932288 0.912632 0.335481
O O6 0.753163 0.790894 0.309955
O O7 0.000000 0.806393 0.250000
O O8 0.021099 0.791873 0.378894
O O9 0.750000 0.500000 0.421114
O O10 0.762913 0.581235 0.521500
O O11 0.000000 0.500000 0.500000
O O12 0.980166 0.609325 0.429724
O O13 0.728661 0.145009 0.569081
O O14 0.792859 0.292744 0.566265
O O15 0.726898 0.230230 0.679232
O O16 0.750000 0.000000 0.892331
O O17 0.927051 0.073415 0.969312
O O18 0.019597 0.957428 0.901298
O O19 0.250000 0.000000 0.956610
O O20 0.000000 0.266596 0.250000
#
# Coordination Sequence:
#
# PCOD9421923 Si02
#       8
#     8   8   8   8   8   8   8   8
#     4  11  22  40  64  89 122 163 207 253 307 372
#     4  10  21  42  60  83 120 162 197 255 308 367
#     4   9  18  36  59  83 122 155 194 249 299 357
#     4  10  21  39  62  83 122 160 205 255 313 376
#     4  10  22  38  60  89 120 153 208 251 309 373
#     4  10  20  40  62  85 119 164 198 252 316 376
#     4  10  21  38  59  92 121 163 202 251 313 374
#     4  10  22  40  60  88 120 157 203 257 311 364
#
# _framework density 20.271993999999999
#
# number of rings (size 3 to 8) (size 9 to 14) (size 15 to 20)
#    0.000    2.000    1.250    3.375    1.750    1.500 
#    4.500   11.250    0.000    0.000    0.000    0.000 
#    0.000    0.000    0.000    0.000    0.000    0.000 
#
# Total GULP energy -356397.595191 kJ/mol
# GULP energy per Si atom -5568.712425 kJ/mol
# Density = 2.022585 g / cm^3
# Si number density = 20.271994 Si / 1000 Ang^3
#
#
#
# Elastic Constant Matrix: (Units=GPa)
#
#
# Indices 1 2 3 4 5 6 
#
# 1 130.9057 40.3902 7.5035 0.0000 0.0000 0.0000
# 2 40.3902 125.8428 24.0896 0.0000 0.0000 0.0000
# 3 7.5035 24.0896 28.2065 0.0000 0.0000 0.0000
# 4 0.0000 0.0000 0.0000 13.5640 0.0000 0.0000
# 5 0.0000 0.0000 0.0000 0.0000 20.1163 0.0000
# 6 0.0000 0.0000 0.0000 0.0000 0.0000 36.6023
#
#
#
# Elastic Compliance Matrix: (Units=1/GPa)
#
#
# Indices 1 2 3 4 5 6 
#
# 1 0.008479 -0.002737 0.000082 0.000000 0.000000 0.000000
# 2 -0.002737 0.010383 -0.008139 0.000000 0.000000 0.000000
# 3 0.000082 -0.008139 0.042382 0.000000 0.000000 0.000000
# 4 0.000000 0.000000 0.000000 0.073725 0.000000 0.000000
# 5 0.000000 0.000000 0.000000 0.000000 0.049711 0.000000
# 6 0.000000 0.000000 0.000000 0.000000 0.000000 0.027321
#
#
# Mechanical properties :
#
#
# Convention : Reuss Voigt Hill
#
# Bulk Modulus (GPa) = 25.21728 47.65798 36.43763
# Shear Modulus (GPa) = 20.25867 28.25463 24.25665
#
# Velocity S-wave (km/s) = 3.16467 3.73738 3.46289
# Velocity P-wave (km/s) = 5.08134 6.49495 5.83114
#
# Compressibility (1/GPa) = 0.03965535
#
# Stress axis : x y z
#
# Youngs Moduli (GPa) = 117.93994 96.31121 23.59468
#
# Poissons Ratio (x) = 0.26361 -0.00194
# Poissons Ratio (y) = 0.32281 0.19205
# Poissons Ratio (z) = -0.00967 0.78392
#
# Static dielectric constant tensor:
#      x y z
#    x 1.758550 0.000000 0.000000 
#    y 0.000000 1.666840 0.000000 
#    z 0.000000 0.000000 1.746790 
# 
# From -- ./inp_files/20673.got.cif
#   From: 2010.05.17/outbox.cif.g08.bks.cpg/sg54_11_cif.got.tgz:20673.got - 2010.06.03 13:09:01.
