data_PCOD9421344
_publ_section_title
;
Structure prediction by ZEFSAII (Michael W. Deem and Ramdas Pophale) SiO2 
 PCOD9421344
Probable space group: P C C A
;
_chemical_formula_sum "Si O2"
_cell_formula_units_Z 56
_cell_length_a 14.660151
_cell_length_b 20.696639
_cell_length_c 8.322495
_cell_angle_alpha 90.000000
_cell_angle_beta 90.000000
_cell_angle_gamma 90.000000
_cell_volume 2525.176919
_symmetry_space_group_name_H-M "P C C A"
_symmetry_group_IT_number 54
_symmetry_cell_setting 'orthorhombic'
loop_
_space_group_symop_operation_xyz
x,y,z
1/2-x,-y,z
1/2+x,-y,1/2-z
-x,y,1/2-z
-x,-y,-z
1/2+x,y,-z
1/2-x,y,1/2+z
x,-y,1/2+z
loop_
_atom_site_type_symbol
_atom_site_label
_atom_site_fract_x
_atom_site_fract_y
_atom_site_fract_z
Si Si1 0.119317 0.332625 0.907083
Si Si2 0.819913 0.656211 0.465270
Si Si3 0.250000 0.000000 0.229258
Si Si4 0.633802 0.934965 0.011680
Si Si5 0.476920 0.428837 0.937125
Si Si6 0.671720 0.797398 0.010422
Si Si7 0.000000 0.919195 0.250000
Si Si8 0.628331 0.808171 0.637135
O O1 0.151184 0.341661 0.722139
O O2 0.083936 0.258573 0.922716
O O3 0.210727 0.344287 0.012234
O O4 0.040518 0.380175 0.961724
O O5 0.873393 0.595477 0.537659
O O6 0.848314 0.723357 0.557312
O O7 0.166548 0.021295 0.342393
O O8 0.280941 0.058177 0.113838
O O9 0.619755 0.861404 0.070151
O O10 0.552907 0.954836 0.892389
O O11 0.500000 0.424567 0.750000
O O12 0.500000 0.500000 0.000000
O O13 0.655163 0.796892 0.821461
O O14 0.777044 0.812829 0.044739
O O15 0.932915 0.871243 0.150290
#
# Coordination Sequence:
#
# PCOD9421344 Si02
#       8
#     8   8   4   8   8   8   4   8
#     4  10  21  38  64  91 126 166 204 261 310 374
#     4  10  21  39  64  95 124 162 209 258 320 371
#     4  10  22  38  56  80 112 164 200 246 298 380
#     4  10  20  36  58  81 114 155 204 244 303 363
#     4  12  26  43  63  91 128 169 211 256 310 372
#     4   9  18  35  60  85 114 153 196 249 299 370
#     4  10  20  32  58  90 114 156 198 254 308 368
#     4   9  19  33  60  87 120 151 199 247 314 356
#
# _framework density 22.176663000000001
#
# number of rings (size 3 to 8) (size 9 to 14) (size 15 to 20)
#    0.000    2.000    0.000    3.857    6.000    2.286 
#    0.000    2.857    0.000    6.857    0.000    0.000 
#    0.000    0.000    0.000    0.000    0.000    0.000 
#
# Total GULP energy -312464.047695 kJ/mol
# GULP energy per Si atom -5579.715137 kJ/mol
# Density = 2.212619 g / cm^3
# Si number density = 22.176663 Si / 1000 Ang^3
#
#
#
# Elastic Constant Matrix: (Units=GPa)
#
#
# Indices 1 2 3 4 5 6 
#
# 1 40.6832 8.3428 4.4362 0.0000 0.0000 0.0000
# 2 8.3428 100.2940 18.5922 0.0000 0.0000 0.0000
# 3 4.4362 18.5922 44.9304 0.0000 0.0000 0.0000
# 4 0.0000 0.0000 0.0000 16.1846 0.0000 0.0000
# 5 0.0000 0.0000 0.0000 0.0000 52.8852 0.0000
# 6 0.0000 0.0000 0.0000 0.0000 0.0000 45.0035
#
#
#
# Elastic Compliance Matrix: (Units=1/GPa)
#
#
# Indices 1 2 3 4 5 6 
#
# 1 0.025133 -0.001766 -0.001751 0.000000 0.000000 0.000000
# 2 -0.001766 0.010923 -0.004346 0.000000 0.000000 0.000000
# 3 -0.001751 -0.004346 0.024228 0.000000 0.000000 0.000000
# 4 0.000000 0.000000 0.000000 0.061787 0.000000 0.000000
# 5 0.000000 0.000000 0.000000 0.000000 0.018909 0.000000
# 6 0.000000 0.000000 0.000000 0.000000 0.000000 0.022221
#
#
# Mechanical properties :
#
#
# Convention : Reuss Voigt Hill
#
# Bulk Modulus (GPa) = 22.44206 27.62778 25.03492
# Shear Modulus (GPa) = 25.80262 33.11707 29.45984
#
# Velocity S-wave (km/s) = 3.41472 3.86855 3.64870
# Velocity P-wave (km/s) = 5.06840 5.69556 5.39111
#
# Compressibility (1/GPa) = 0.04455918
#
# Stress axis : x y z
#
# Youngs Moduli (GPa) = 39.78795 91.54847 41.27500
#
# Poissons Ratio (x) = 0.16169 0.07226
# Poissons Ratio (y) = 0.07027 0.17937
# Poissons Ratio (z) = 0.06966 0.39784
#
# Static dielectric constant tensor:
#      x y z
#    x 1.861340 0.000000 0.000000 
#    y 0.000000 1.899930 0.000000 
#    z 0.000000 0.000000 1.782410 
# 
# From -- ./inp_files/3715.got.cif
#   From: 2010.05.17/outbox.cif.g08.bks.cpg/sg54_2_cif.got.tgz:3715.got - 2010.06.03 13:09:01.
