data_PCOD9421048
_publ_section_title
;
Structure prediction by ZEFSAII (Michael W. Deem and Ramdas Pophale) SiO2 
 PCOD9421048
Probable space group: P C C A
;
_chemical_formula_sum "Si O2"
_cell_formula_units_Z 48
_cell_length_a 8.043374
_cell_length_b 17.834550
_cell_length_c 16.128359
_cell_angle_alpha 90.000000
_cell_angle_beta 90.000000
_cell_angle_gamma 90.000000
_cell_volume 2313.612385
_symmetry_space_group_name_H-M "P C C A"
_symmetry_group_IT_number 54
_symmetry_cell_setting 'orthorhombic'
loop_
_space_group_symop_operation_xyz
x,y,z
1/2-x,-y,z
1/2+x,-y,1/2-z
-x,y,1/2-z
-x,-y,-z
1/2+x,y,-z
1/2-x,y,1/2+z
x,-y,1/2+z
loop_
_atom_site_type_symbol
_atom_site_label
_atom_site_fract_x
_atom_site_fract_y
_atom_site_fract_z
Si Si1 0.650310 0.854093 0.683391
Si Si2 0.212828 0.284808 0.935431
Si Si3 0.495011 0.610660 0.458654
Si Si4 0.348484 0.825630 0.080248
Si Si5 0.000000 0.837422 0.750000
Si Si6 0.250000 0.500000 0.552082
Si Si7 0.459639 0.079121 0.040312
O O1 0.500000 0.850778 0.750000
O O2 0.663976 0.773410 0.636307
O O3 0.833336 0.877033 0.715197
O O4 0.593398 0.910295 0.612322
O O5 0.383841 0.326732 0.914584
O O6 0.225935 0.239415 0.022774
O O7 0.079475 0.347799 0.962207
O O8 0.367921 0.550116 0.494699
O O9 0.631724 0.563297 0.407221
O O10 0.412455 0.799965 0.169736
O O11 0.215493 0.894520 0.079928
O O12 0.503697 0.859590 0.030607
O O13 0.500000 0.000000 0.000000
#
# Coordination Sequence:
#
# PCOD9421048 Si02
#       7
#     8   8   8   8   4   4   8
#     4  11  23  43  65  95 135 164 217 286 330 390
#     4  10  19  34  60  90 122 170 218 262 331 392
#     4   9  16  29  53  87 129 164 210 256 321 377
#     4  11  22  39  62  94 129 164 217 282 325 396
#     4  12  24  40  64  96 132 166 200 274 344 376
#     4   8  16  28  46  88 138 156 198 274 304 358
#     4  11  23  44  67  89 123 176 216 263 340 409
#
# _framework density 20.746776000000001
#
# number of rings (size 3 to 8) (size 9 to 14) (size 15 to 20)
#    0.000    1.667    1.667    5.500    0.000    0.000 
#    1.500    0.000    0.000    0.000    0.000    7.000 
#   10.000    0.000    0.000    0.000    0.000    0.000 
#
# Total GULP energy -267211.546377 kJ/mol
# GULP energy per Si atom -5566.907216 kJ/mol
# Density = 2.069956 g / cm^3
# Si number density = 20.746776 Si / 1000 Ang^3
#
#
#
# Elastic Constant Matrix: (Units=GPa)
#
#
# Indices 1 2 3 4 5 6 
#
# 1 136.2082 52.5478 38.2645 0.0000 0.0000 0.0000
# 2 52.5478 110.4457 39.6932 0.0000 0.0000 0.0000
# 3 38.2645 39.6932 94.8498 0.0000 0.0000 0.0000
# 4 0.0000 0.0000 0.0000 3.2110 0.0000 0.0000
# 5 0.0000 0.0000 0.0000 0.0000 33.3223 0.0000
# 6 0.0000 0.0000 0.0000 0.0000 0.0000 29.5263
#
#
#
# Elastic Compliance Matrix: (Units=1/GPa)
#
#
# Indices 1 2 3 4 5 6 
#
# 1 0.009386 -0.003654 -0.002257 0.000000 0.000000 0.000000
# 2 -0.003654 0.012080 -0.003581 0.000000 0.000000 0.000000
# 3 -0.002257 -0.003581 0.012952 0.000000 0.000000 0.000000
# 4 0.000000 0.000000 0.000000 0.311433 0.000000 0.000000
# 5 0.000000 0.000000 0.000000 0.000000 0.030010 0.000000
# 6 0.000000 0.000000 0.000000 0.000000 0.000000 0.033868
#
#
# Mechanical properties :
#
#
# Convention : Reuss Voigt Hill
#
# Bulk Modulus (GPa) = 64.79708 66.94607 65.87157
# Shear Modulus (GPa) = 11.52452 27.27845 19.40149
#
# Velocity S-wave (km/s) = 2.35943 3.62999 3.06135
# Velocity P-wave (km/s) = 6.22276 7.06451 6.65695
#
# Compressibility (1/GPa) = 0.01543279
#
# Stress axis : x y z
#
# Youngs Moduli (GPa) = 106.54660 82.78256 77.20736
#
# Poissons Ratio (x) = 0.30251 0.17426
# Poissons Ratio (y) = 0.38935 0.27648
# Poissons Ratio (z) = 0.24048 0.29644
#
# Static dielectric constant tensor:
#      x y z
#    x 1.844620 0.000000 0.000000 
#    y 0.000000 1.802800 0.000000 
#    z 0.000000 0.000000 1.793330 
# 
# From -- ./inp_files/11781.got.cif
#   From: 2010.05.17/outbox.cif.g08.bks.cpg/sg54_6_cif.got.tgz:11781.got - 2010.06.03 13:09:01.
