data_PCOD9421143
_publ_section_title
;
Structure prediction by ZEFSAII (Michael W. Deem and Ramdas Pophale) SiO2 
 PCOD9421143
Probable space group: P C C A
;
_chemical_formula_sum "Si O2"
_cell_formula_units_Z 40
_cell_length_a 5.098269
_cell_length_b 26.557021
_cell_length_c 15.147580
_cell_angle_alpha 90.000000
_cell_angle_beta 90.000000
_cell_angle_gamma 90.000000
_cell_volume 2050.904123
_symmetry_space_group_name_H-M "P C C A"
_symmetry_group_IT_number 54
_symmetry_cell_setting 'orthorhombic'
loop_
_space_group_symop_operation_xyz
x,y,z
1/2-x,-y,z
1/2+x,-y,1/2-z
-x,y,1/2-z
-x,-y,-z
1/2+x,y,-z
1/2-x,y,1/2+z
x,-y,1/2+z
loop_
_atom_site_type_symbol
_atom_site_label
_atom_site_fract_x
_atom_site_fract_y
_atom_site_fract_z
Si Si1 0.752257 0.096889 0.312095
Si Si2 0.738775 0.300270 0.940842
Si Si3 0.378594 0.591649 0.061617
Si Si4 0.355479 0.190660 0.561622
Si Si5 0.250000 0.500000 0.190152
Si Si6 0.250000 0.000000 0.562926
O O1 0.500000 0.101843 0.250000
O O2 0.800198 0.146742 0.369781
O O3 0.000000 0.088367 0.250000
O O4 0.730846 0.049350 0.376677
O O5 0.670517 0.353179 0.895628
O O6 0.681581 0.246507 0.897220
O O7 0.537542 0.300605 0.024752
O O8 0.328899 0.546853 0.128810
O O9 0.664514 0.588344 0.017422
O O10 0.641353 0.186774 0.517275
O O11 0.500000 0.486846 0.250000
O O12 0.500000 0.000000 0.500000
#
# Coordination Sequence:
#
# PCOD9421143 Si02
#       6
#     8   8   8   8   4   4
#     4  12  24  39  57  85 118 146 176 223 275 321
#     4   8  16  30  54  80 102 131 180 228 258 298
#     4  10  19  36  58  78 100 140 186 222 260 318
#     4  10  19  36  58  82 109 144 183 220 260 318
#     4  12  24  36  50  78 112 140 170 222 280 324
#     4  12  24  42  64  84 106 146 192 228 266 318
#
# _framework density 19.503592999999999
#
# number of rings (size 3 to 8) (size 9 to 14) (size 15 to 20)
#    0.000    1.600    0.000    6.000    0.000    0.000 
#    0.000    2.000    0.000    0.000    0.000    0.000 
#    0.000    0.000    0.000    0.000    0.000    0.000 
#
# Total GULP energy -223438.994688 kJ/mol
# GULP energy per Si atom -5585.974867 kJ/mol
# Density = 1.945920 g / cm^3
# Si number density = 19.503593 Si / 1000 Ang^3
#
#
#
# Elastic Constant Matrix: (Units=GPa)
#
#
# Indices 1 2 3 4 5 6 
#
# 1 84.4733 -32.1799 2.4977 0.0000 0.0000 0.0000
# 2 -32.1799 130.6589 37.9790 0.0000 0.0000 0.0000
# 3 2.4977 37.9790 47.6686 0.0000 0.0000 0.0000
# 4 0.0000 0.0000 0.0000 -41.7132 0.0000 0.0000
# 5 0.0000 0.0000 0.0000 0.0000 44.8300 0.0000
# 6 0.0000 0.0000 0.0000 0.0000 0.0000 25.3792
#
#
#
# Elastic Compliance Matrix: (Units=1/GPa)
#
#
# Indices 1 2 3 4 5 6 
#
# 1 0.013753 0.004681 -0.004450 0.000000 0.000000 0.000000
# 2 0.004681 0.011553 -0.009450 0.000000 0.000000 0.000000
# 3 -0.004450 -0.009450 0.028740 0.000000 0.000000 0.000000
# 4 0.000000 0.000000 0.000000 -0.023973 0.000000 0.000000
# 5 0.000000 0.000000 0.000000 0.000000 0.022306 0.000000
# 6 0.000000 0.000000 0.000000 0.000000 0.000000 0.039402
#
#
# Mechanical properties :
#
#
# Convention : Reuss Voigt Hill
#
# Bulk Modulus (GPa) = 28.08367 31.04383 29.56375
# Shear Modulus (GPa) = 40.95352 22.66612 31.80982
#
# Velocity S-wave (km/s) = 4.58732 3.41273 4.04291
# Velocity P-wave (km/s) = 6.51832 5.61075 6.08149
#
# Compressibility (1/GPa) = 0.03560788
#
# Stress axis : x y z
#
# Youngs Moduli (GPa) = 72.71308 86.55644 34.79418
#
# Poissons Ratio (x) = -0.40513 0.15483
# Poissons Ratio (y) = -0.34034 0.32881
# Poissons Ratio (z) = 0.32356 0.81796
#
# Static dielectric constant tensor:
#      x y z
#    x 1.658830 0.000000 0.000000 
#    y 0.000000 1.722460 0.000000 
#    z 0.000000 0.000000 1.639160 
# 
# From -- ./inp_files/6471.got.cif
#   From: 2010.05.17/outbox.cif.g08.bks.cpg/sg54_4_cif.got.tgz:6471.got - 2010.06.03 13:09:01.
