data_PCOD9421770
_publ_section_title
;
Structure prediction by ZEFSAII (Michael W. Deem and Ramdas Pophale) SiO2 
 PCOD9421770
Probable space group: P C C A
;
_chemical_formula_sum "Si O2"
_cell_formula_units_Z 36
_cell_length_a 11.647096
_cell_length_b 16.897678
_cell_length_c 9.025055
_cell_angle_alpha 90.000000
_cell_angle_beta 90.000000
_cell_angle_gamma 90.000000
_cell_volume 1776.210947
_symmetry_space_group_name_H-M "P C C A"
_symmetry_group_IT_number 54
_symmetry_cell_setting 'orthorhombic'
loop_
_space_group_symop_operation_xyz
x,y,z
1/2-x,-y,z
1/2+x,-y,1/2-z
-x,y,1/2-z
-x,-y,-z
1/2+x,y,-z
1/2-x,y,1/2+z
x,-y,1/2+z
loop_
_atom_site_type_symbol
_atom_site_label
_atom_site_fract_x
_atom_site_fract_y
_atom_site_fract_z
Si Si1 0.873463 0.408700 0.685792
Si Si2 0.583193 0.978522 0.871019
Si Si3 0.250000 0.500000 0.064510
Si Si4 0.210422 0.867511 0.617710
Si Si5 0.875355 0.775307 0.166976
O O1 0.845150 0.464953 0.546935
O O2 0.792419 0.431917 0.824022
O O3 0.857902 0.317858 0.638629
O O4 0.000000 0.420488 0.750000
O O5 0.500000 0.940978 0.750000
O O6 0.635648 0.061307 0.811338
O O7 0.679940 0.920090 0.932186
O O8 0.500000 0.000000 0.000000
O O9 0.141170 0.825123 0.485478
O O10 0.271175 0.806639 0.729051
O O11 0.000000 0.779644 0.250000
#
# Coordination Sequence:
#
# PCOD9421770 Si02
#       5
#     8   8   4   8   8
#     4  10  21  37  60  87 118 153 191 238 289 345
#     4  11  22  37  57  82 109 148 195 238 283 335
#     4  10  20  38  62  88 116 152 196 234 284 350
#     4  11  22  37  58  81 114 154 193 240 291 343
#     4  11  23  39  58  86 120 153 192 241 295 348
#
# _framework density 20.267862999999998
#
# number of rings (size 3 to 8) (size 9 to 14) (size 15 to 20)
#    0.000    1.333    0.000    6.667    0.000    3.556 
#    0.000    0.000    0.000   13.333    0.000    0.000 
#    0.000    0.000    0.000    0.000    0.000    0.000 
#
# Total GULP energy -200731.155609 kJ/mol
# GULP energy per Si atom -5575.865434 kJ/mol
# Density = 2.022173 g / cm^3
# Si number density = 20.267863 Si / 1000 Ang^3
#
#
#
# Elastic Constant Matrix: (Units=GPa)
#
#
# Indices 1 2 3 4 5 6 
#
# 1 59.3656 15.3520 -0.0140 0.0000 0.0000 0.0000
# 2 15.3520 111.4804 18.9123 0.0000 0.0000 0.0000
# 3 -0.0140 18.9123 66.7300 0.0000 0.0000 0.0000
# 4 0.0000 0.0000 0.0000 13.3965 0.0000 0.0000
# 5 0.0000 0.0000 0.0000 0.0000 30.7381 0.0000
# 6 0.0000 0.0000 0.0000 0.0000 0.0000 31.3674
#
#
#
# Elastic Compliance Matrix: (Units=1/GPa)
#
#
# Indices 1 2 3 4 5 6 
#
# 1 0.017500 -0.002532 0.000721 0.000000 0.000000 0.000000
# 2 -0.002532 0.009790 -0.002775 0.000000 0.000000 0.000000
# 3 0.000721 -0.002775 0.015772 0.000000 0.000000 0.000000
# 4 0.000000 0.000000 0.000000 0.074646 0.000000 0.000000
# 5 0.000000 0.000000 0.000000 0.000000 0.032533 0.000000
# 6 0.000000 0.000000 0.000000 0.000000 0.000000 0.031880
#
#
# Mechanical properties :
#
#
# Convention : Reuss Voigt Hill
#
# Bulk Modulus (GPa) = 29.50730 34.00850 31.75790
# Shear Modulus (GPa) = 24.68040 28.65546 26.66793
#
# Velocity S-wave (km/s) = 3.49336 3.76418 3.63130
# Velocity P-wave (km/s) = 5.55533 5.97562 5.76930
#
# Compressibility (1/GPa) = 0.03388992
#
# Stress axis : x y z
#
# Youngs Moduli (GPa) = 57.14356 102.14828 63.40180
#
# Poissons Ratio (x) = 0.25867 -0.04574
# Poissons Ratio (y) = 0.14470 0.17595
# Poissons Ratio (z) = -0.04122 0.28347
#
# Static dielectric constant tensor:
#      x y z
#    x 1.752220 0.000000 0.000000 
#    y 0.000000 1.756790 0.000000 
#    z 0.000000 0.000000 1.671880 
# 
# From -- ./inp_files/2934.got.cif
#   From: 2010.05.17/outbox.cif.g08.bks.cpg/sg54_2_cif.got.tgz:2934.got - 2010.06.03 13:09:01.
