data_PCOD9421517
_publ_section_title
;
Structure prediction by ZEFSAII (Michael W. Deem and Ramdas Pophale) SiO2 
 PCOD9421517
Probable space group: P C C A
;
_chemical_formula_sum "Si O2"
_cell_formula_units_Z 44
_cell_length_a 9.689004
_cell_length_b 13.259305
_cell_length_c 14.379395
_cell_angle_alpha 90.000000
_cell_angle_beta 90.000000
_cell_angle_gamma 90.000000
_cell_volume 1847.313099
_symmetry_space_group_name_H-M "P C C A"
_symmetry_group_IT_number 54
_symmetry_cell_setting 'orthorhombic'
loop_
_space_group_symop_operation_xyz
x,y,z
1/2-x,-y,z
1/2+x,-y,1/2-z
-x,y,1/2-z
-x,-y,-z
1/2+x,y,-z
1/2-x,y,1/2+z
x,-y,1/2+z
loop_
_atom_site_type_symbol
_atom_site_label
_atom_site_fract_x
_atom_site_fract_y
_atom_site_fract_z
Si Si1 0.669855 0.644767 0.120746
Si Si2 0.101320 0.329919 0.018897
Si Si3 0.000000 0.491278 0.750000
Si Si4 0.615367 0.108469 0.892655
Si Si5 0.181218 0.860531 0.804710
Si Si6 0.250000 0.500000 0.640364
Si Si7 0.250000 0.000000 0.455675
O O1 0.563939 0.660563 0.033543
O O2 0.596071 0.558463 0.180436
O O3 0.669201 0.741221 0.187393
O O4 0.823718 0.643261 0.078257
O O5 0.133256 0.216668 0.055465
O O6 0.169209 0.414849 0.084182
O O7 0.874515 0.441743 0.805959
O O8 0.465541 0.102948 0.846056
O O9 0.710857 0.109257 0.800508
O O10 0.634327 0.019533 0.965878
O O11 0.275630 0.908604 0.883817
#
# Coordination Sequence:
#
# PCOD9421517 Si02
#       7
#     8   8   4   8   8   4   4
#     4  10  20  39  61  86 118 163 200 246 305 362
#     4  10  21  38  60  86 120 156 204 247 301 362
#     4  10  22  38  62  88 122 162 208 248 304 368
#     4  10  21  38  56  83 119 155 200 247 300 365
#     4  10  20  36  58  81 117 160 197 245 305 358
#     4  10  22  38  60  90 120 162 202 246 304 362
#     4  12  20  34  60  88 112 154 202 254 300 348
#
# _framework density 23.818376000000001
#
# number of rings (size 3 to 8) (size 9 to 14) (size 15 to 20)
#    0.000    1.818    1.818    4.364    0.000    5.091 
#    0.000    0.000    0.000    4.364    0.000    0.000 
#    0.000    0.000    0.000    0.000    0.000    0.000 
#
# Total GULP energy -245015.603308 kJ/mol
# GULP energy per Si atom -5568.536439 kJ/mol
# Density = 2.376416 g / cm^3
# Si number density = 23.818376 Si / 1000 Ang^3
#
#
#
# Elastic Constant Matrix: (Units=GPa)
#
#
# Indices 1 2 3 4 5 6 
#
# 1 51.3050 12.3549 11.6631 0.0000 0.0000 0.0000
# 2 12.3549 40.5902 5.0337 0.0000 0.0000 0.0000
# 3 11.6631 5.0337 104.7275 0.0000 0.0000 0.0000
# 4 0.0000 0.0000 0.0000 17.9032 0.0000 0.0000
# 5 0.0000 0.0000 0.0000 0.0000 19.7179 0.0000
# 6 0.0000 0.0000 0.0000 0.0000 0.0000 18.7633
#
#
#
# Elastic Compliance Matrix: (Units=1/GPa)
#
#
# Indices 1 2 3 4 5 6 
#
# 1 0.021478 -0.006278 -0.002090 0.000000 0.000000 0.000000
# 2 -0.006278 0.026619 -0.000580 0.000000 0.000000 0.000000
# 3 -0.002090 -0.000580 0.009809 0.000000 0.000000 0.000000
# 4 0.000000 0.000000 0.000000 0.055856 0.000000 0.000000
# 5 0.000000 0.000000 0.000000 0.000000 0.050715 0.000000
# 6 0.000000 0.000000 0.000000 0.000000 0.000000 0.053295
#
#
# Mechanical properties :
#
#
# Convention : Reuss Voigt Hill
#
# Bulk Modulus (GPa) = 24.99416 28.30293 26.64854
# Shear Modulus (GPa) = 20.07967 22.44828 21.26397
#
# Velocity S-wave (km/s) = 2.90665 3.07331 2.99114
# Velocity P-wave (km/s) = 4.66704 4.94997 4.81059
#
# Compressibility (1/GPa) = 0.04000935
#
# Stress axis : x y z
#
# Youngs Moduli (GPa) = 46.55852 37.56649 101.94450
#
# Poissons Ratio (x) = 0.23586 0.21308
# Poissons Ratio (y) = 0.29231 0.05915
# Poissons Ratio (z) = 0.09732 0.02180
#
# Static dielectric constant tensor:
#      x y z
#    x 2.060180 0.000000 0.000000 
#    y 0.000000 1.970180 0.000000 
#    z 0.000000 0.000000 2.067340 
# 
# From -- ./inp_files/11673.got.cif
#   From: 2010.05.17/outbox.cif.g08.bks.cpg/sg54_6_cif.got.tgz:11673.got - 2010.06.03 13:09:01.
