data_PCOD9421009
_publ_section_title
;
Structure prediction by ZEFSAII (Michael W. Deem and Ramdas Pophale) SiO2 
 PCOD9421009
Probable space group: P C C A
;
_chemical_formula_sum "Si O2"
_cell_formula_units_Z 44
_cell_length_a 8.003102
_cell_length_b 8.760163
_cell_length_c 33.026749
_cell_angle_alpha 90.000000
_cell_angle_beta 90.000000
_cell_angle_gamma 90.000000
_cell_volume 2315.455107
_symmetry_space_group_name_H-M "P C C A"
_symmetry_group_IT_number 54
_symmetry_cell_setting 'orthorhombic'
loop_
_space_group_symop_operation_xyz
x,y,z
1/2-x,-y,z
1/2+x,-y,1/2-z
-x,y,1/2-z
-x,-y,-z
1/2+x,y,-z
1/2-x,y,1/2+z
x,-y,1/2+z
loop_
_atom_site_type_symbol
_atom_site_label
_atom_site_fract_x
_atom_site_fract_y
_atom_site_fract_z
Si Si1 0.063039 0.737492 0.463520
Si Si2 0.750000 0.000000 0.584335
Si Si3 0.200345 0.321951 0.050285
Si Si4 0.098467 0.592412 0.696018
Si Si5 0.250000 0.500000 0.910195
Si Si6 0.750000 0.500000 0.226989
Si Si7 0.527222 0.762644 0.124550
O O1 0.088614 0.711759 0.511011
O O2 0.119623 0.584968 0.439582
O O3 0.871217 0.769612 0.455165
O O4 0.174198 0.870842 0.444646
O O5 0.887391 0.921081 0.612964
O O6 0.250000 0.500000 0.050277
O O7 0.111578 0.272904 0.091086
O O8 0.250000 0.500000 0.674173
O O9 0.189640 0.626002 0.739302
O O10 0.927029 0.491463 0.703186
O O11 0.043624 0.734626 0.669159
O O12 0.336326 0.370995 0.883285
#
# Coordination Sequence:
#
# PCOD9421009 Si02
#       7
#     8   4   8   8   4   4   8
#     4  11  22  37  57  76 118 155 217 255 313 357
#     4  10  26  42  52  86 118 178 206 252 302 376
#     4  12  22  36  60  86 107 155 214 278 310 354
#     4   9  17  33  57  93 126 152 183 246 300 373
#     4  10  19  34  53  80 108 158 198 262 299 348
#     4   8  17  32  59  96 128 144 186 234 315 362
#     4  11  22  36  58  83 124 156 205 247 315 352
#
# _framework density 19.002744
#
# number of rings (size 3 to 8) (size 9 to 14) (size 15 to 20)
#    0.545    1.091    2.727    3.818    0.000    3.636 
#    0.000    0.000    0.000    0.000    0.000   25.455 
#    0.000    0.000    0.000    0.000    0.000    0.000 
#
# Total GULP energy -245036.070924 kJ/mol
# GULP energy per Si atom -5569.001612 kJ/mol
# Density = 1.895949 g / cm^3
# Si number density = 19.002744 Si / 1000 Ang^3
#
#
#
# Elastic Constant Matrix: (Units=GPa)
#
#
# Indices 1 2 3 4 5 6 
#
# 1 106.9142 13.2057 32.1359 0.0000 0.0000 0.0000
# 2 13.2057 52.8581 20.5606 0.0000 0.0000 0.0000
# 3 32.1359 20.5606 86.7197 0.0000 0.0000 0.0000
# 4 0.0000 0.0000 0.0000 5.2689 0.0000 0.0000
# 5 0.0000 0.0000 0.0000 0.0000 24.8236 0.0000
# 6 0.0000 0.0000 0.0000 0.0000 0.0000 8.5938
#
#
#
# Elastic Compliance Matrix: (Units=1/GPa)
#
#
# Indices 1 2 3 4 5 6 
#
# 1 0.010598 -0.001234 -0.003635 0.000000 0.000000 0.000000
# 2 -0.001234 0.020984 -0.004518 0.000000 0.000000 0.000000
# 3 -0.003635 -0.004518 0.013950 0.000000 0.000000 0.000000
# 4 0.000000 0.000000 0.000000 0.189793 0.000000 0.000000
# 5 0.000000 0.000000 0.000000 0.000000 0.040284 0.000000
# 6 0.000000 0.000000 0.000000 0.000000 0.000000 0.116363
#
#
# Mechanical properties :
#
#
# Convention : Reuss Voigt Hill
#
# Bulk Modulus (GPa) = 37.37118 42.03294 39.70206
# Shear Modulus (GPa) = 11.91426 19.77657 15.84542
#
# Velocity S-wave (km/s) = 2.50667 3.22952 2.89078
# Velocity P-wave (km/s) = 5.29969 6.00615 5.66395
#
# Compressibility (1/GPa) = 0.02675859
#
# Stress axis : x y z
#
# Youngs Moduli (GPa) = 94.35510 47.65482 71.68685
#
# Poissons Ratio (x) = 0.05880 0.26057
# Poissons Ratio (y) = 0.11643 0.32388
# Poissons Ratio (z) = 0.34297 0.21530
#
# Static dielectric constant tensor:
#      x y z
#    x 1.726340 0.000000 0.000000 
#    y 0.000000 1.658070 0.000000 
#    z 0.000000 0.000000 1.690960 
# 
# From -- ./inp_files/27644.got.cif
#   From: 2010.05.17/outbox.cif.g08.bks.cpg/sg54_14_cif.got.tgz:27644.got - 2010.06.03 13:09:01.
