data_PCOD9421356
_publ_section_title
;
Structure prediction by ZEFSAII (Michael W. Deem and Ramdas Pophale) SiO2 
 PCOD9421356
Probable space group: P C C A
;
_chemical_formula_sum "Si O2"
_cell_formula_units_Z 64
_cell_length_a 17.395186
_cell_length_b 12.301407
_cell_length_c 16.579253
_cell_angle_alpha 90.000000
_cell_angle_beta 90.000000
_cell_angle_gamma 90.000000
_cell_volume 3547.715811
_symmetry_space_group_name_H-M "P C C A"
_symmetry_group_IT_number 54
_symmetry_cell_setting 'orthorhombic'
loop_
_space_group_symop_operation_xyz
x,y,z
1/2-x,-y,z
1/2+x,-y,1/2-z
-x,y,1/2-z
-x,-y,-z
1/2+x,y,-z
1/2-x,y,1/2+z
x,-y,1/2+z
loop_
_atom_site_type_symbol
_atom_site_label
_atom_site_fract_x
_atom_site_fract_y
_atom_site_fract_z
Si Si1 0.928629 0.703320 0.565393
Si Si2 0.428630 0.503668 0.314125
Si Si3 0.338458 0.729402 0.587971
Si Si4 0.976889 0.875530 0.843130
Si Si5 0.660450 0.502561 0.837785
Si Si6 0.525330 0.867434 0.842595
Si Si7 0.937575 0.691742 0.059005
Si Si8 0.343442 0.726670 0.090772
O O1 0.921088 0.613746 0.634718
O O2 0.856586 0.725896 0.507412
O O3 0.959437 0.814724 0.603455
O O4 0.995825 0.663231 0.505181
O O5 0.500000 0.505205 0.250000
O O6 0.355783 0.490381 0.256315
O O7 0.432351 0.403513 0.375782
O O8 0.367878 0.612444 0.620865
O O9 0.391834 0.817328 0.633022
O O10 0.247625 0.742741 0.603625
O O11 0.896523 0.818821 0.868666
O O12 0.000000 0.856754 0.750000
O O13 0.974770 0.004059 0.857571
O O14 0.750000 0.500000 0.856420
O O15 0.629779 0.388366 0.870536
O O16 0.500000 0.848287 0.750000
O O17 0.465407 0.801501 0.897592
O O18 0.863333 0.714460 0.003932
#
# Coordination Sequence:
#
# PCOD9421356 Si02
#       8
#     8   8   8   8   8   8   8   8
#     4  10  20  33  53  79 107 140 175 218 265 315
#     4  12  20  31  54  81 108 141 181 219 257 312
#     4  10  21  37  56  79 109 143 179 220 268 322
#     4  10  21  38  58  79 105 139 179 223 270 319
#     4  10  21  35  51  75 108 141 171 211 264 314
#     4  10  21  38  58  79 105 139 179 223 270 319
#     4  10  20  33  53  79 107 140 175 218 265 315
#     4  10  21  37  56  79 109 143 179 220 268 322
#
# _framework density 18.039777000000001
#
# number of rings (size 3 to 8) (size 9 to 14) (size 15 to 20)
#    0.000    1.750    0.000    6.375    0.000    6.000 
#    0.000    1.250    0.000    1.500    0.000    0.000 
#    0.000    0.000    0.000    0.000    0.000    0.000 
#
# Total GULP energy -357038.382706 kJ/mol
# GULP energy per Si atom -5578.724730 kJ/mol
# Density = 1.799872 g / cm^3
# Si number density = 18.039777 Si / 1000 Ang^3
#
#
#
# Elastic Constant Matrix: (Units=GPa)
#
#
# Indices 1 2 3 4 5 6 
#
# 1 49.2906 35.4529 22.5277 0.0000 0.0000 0.0000
# 2 35.4529 59.7693 11.0881 0.0000 0.0000 0.0000
# 3 22.5277 11.0881 64.5629 0.0000 0.0000 0.0000
# 4 0.0000 0.0000 0.0000 23.6793 0.0000 0.0000
# 5 0.0000 0.0000 0.0000 0.0000 20.0429 0.0000
# 6 0.0000 0.0000 0.0000 0.0000 0.0000 4.6779
#
#
#
# Elastic Compliance Matrix: (Units=1/GPa)
#
#
# Indices 1 2 3 4 5 6 
#
# 1 0.041338 -0.022563 -0.010549 0.000000 0.000000 0.000000
# 2 -0.022563 0.029597 0.002790 0.000000 0.000000 0.000000
# 3 -0.010549 0.002790 0.018690 0.000000 0.000000 0.000000
# 4 0.000000 0.000000 0.000000 0.042231 0.000000 0.000000
# 5 0.000000 0.000000 0.000000 0.000000 0.049893 0.000000
# 6 0.000000 0.000000 0.000000 0.000000 0.000000 0.213773
#
#
# Mechanical properties :
#
#
# Convention : Reuss Voigt Hill
#
# Bulk Modulus (GPa) = 34.50531 34.64004 34.57267
# Shear Modulus (GPa) = 10.73360 16.65030 13.69195
#
# Velocity S-wave (km/s) = 2.44190 3.04135 2.75796
# Velocity P-wave (km/s) = 5.20763 5.61932 5.41739
#
# Compressibility (1/GPa) = 0.02898105
#
# Stress axis : x y z
#
# Youngs Moduli (GPa) = 24.19095 33.78727 53.50341
#
# Poissons Ratio (x) = 0.76234 0.56440
# Poissons Ratio (y) = 0.54582 -0.14926
# Poissons Ratio (z) = 0.25519 -0.09426
#
# Static dielectric constant tensor:
#      x y z
#    x 1.642160 0.000000 0.000000 
#    y 0.000000 1.611810 0.000000 
#    z 0.000000 0.000000 1.656610 
# 
# From -- ./inp_files/14316.got.cif
#   From: 2010.05.17/outbox.cif.g08.bks.cpg/sg54_8_cif.got.tgz:14316.got - 2010.06.03 13:09:01.
