data_PCOD9421633
_publ_section_title
;
Structure prediction by ZEFSAII (Michael W. Deem and Ramdas Pophale) SiO2 
 PCOD9421633
Probable space group: P C C A
;
_chemical_formula_sum "Si O2"
_cell_formula_units_Z 48
_cell_length_a 13.664902
_cell_length_b 17.130866
_cell_length_c 9.597518
_cell_angle_alpha 90.000000
_cell_angle_beta 90.000000
_cell_angle_gamma 90.000000
_cell_volume 2246.698393
_symmetry_space_group_name_H-M "P C C A"
_symmetry_group_IT_number 54
_symmetry_cell_setting 'orthorhombic'
loop_
_space_group_symop_operation_xyz
x,y,z
1/2-x,-y,z
1/2+x,-y,1/2-z
-x,y,1/2-z
-x,-y,-z
1/2+x,y,-z
1/2-x,y,1/2+z
x,-y,1/2+z
loop_
_atom_site_type_symbol
_atom_site_label
_atom_site_fract_x
_atom_site_fract_y
_atom_site_fract_z
Si Si1 0.500000 0.896455 0.750000
Si Si2 0.650599 0.784324 0.816562
Si Si3 0.750000 0.500000 0.766529
Si Si4 0.554284 0.564381 0.398561
Si Si5 0.247203 0.864320 0.451061
Si Si6 0.892187 0.006184 0.559766
Si Si7 0.096843 0.623665 0.328263
O O1 0.552260 0.834424 0.851550
O O2 0.586765 0.954377 0.708748
O O3 0.704621 0.826102 0.687443
O O4 0.623601 0.699567 0.761311
O O5 0.719677 0.795275 0.948119
O O6 0.836689 0.537624 0.857229
O O7 0.811050 0.435233 0.680493
O O8 0.500000 0.580278 0.250000
O O9 0.500000 0.500000 0.500000
O O10 0.567302 0.634922 0.510133
O O11 0.167543 0.924508 0.515875
O O12 0.334745 0.926162 0.426714
O O13 0.000000 0.000000 0.500000
O O14 0.000000 0.590742 0.250000
#
# Coordination Sequence:
#
# PCOD9421633 Si02
#       7
#     4   8   4   8   8   8   8
#     4  10  20  38  68  94 134 182 224 288 354 426
#     4  11  24  45  62  98 141 183 230 290 364 421
#     4  12  24  44  78 106 142 184 248 294 368 442
#     4  12  24  46  72 112 143 181 242 300 362 446
#     4  10  24  40  64  99 136 178 238 286 346 441
#     4  10  20  36  68  97 134 178 234 288 354 413
#     4  12  26  47  73 101 144 193 238 306 377 440
#
# _framework density 21.364682999999999
#
# number of rings (size 3 to 8) (size 9 to 14) (size 15 to 20)
#    0.000    1.000    5.833    0.500    4.667    1.333 
#    0.000    0.000    0.000    0.000    0.000    0.000 
#    0.000    0.000    0.000    0.000    0.000    0.000 
#
# Total GULP energy -267242.603977 kJ/mol
# GULP energy per Si atom -5567.554250 kJ/mol
# Density = 2.131606 g / cm^3
# Si number density = 21.364683 Si / 1000 Ang^3
#
#
#
# Elastic Constant Matrix: (Units=GPa)
#
#
# Indices 1 2 3 4 5 6 
#
# 1 128.3137 29.2436 32.3179 0.0000 0.0000 0.0000
# 2 29.2436 86.7394 26.7264 0.0000 0.0000 0.0000
# 3 32.3179 26.7264 106.0212 0.0000 0.0000 0.0000
# 4 0.0000 0.0000 0.0000 30.6087 0.0000 0.0000
# 5 0.0000 0.0000 0.0000 0.0000 34.0055 0.0000
# 6 0.0000 0.0000 0.0000 0.0000 0.0000 25.5632
#
#
#
# Elastic Compliance Matrix: (Units=1/GPa)
#
#
# Indices 1 2 3 4 5 6 
#
# 1 0.008857 -0.002336 -0.002111 0.000000 0.000000 0.000000
# 2 -0.002336 0.013116 -0.002594 0.000000 0.000000 0.000000
# 3 -0.002111 -0.002594 0.010730 0.000000 0.000000 0.000000
# 4 0.000000 0.000000 0.000000 0.032670 0.000000 0.000000
# 5 0.000000 0.000000 0.000000 0.000000 0.029407 0.000000
# 6 0.000000 0.000000 0.000000 0.000000 0.000000 0.039119
#
#
# Mechanical properties :
#
#
# Convention : Reuss Voigt Hill
#
# Bulk Modulus (GPa) = 53.70473 55.29445 54.49959
# Shear Modulus (GPa) = 32.42795 33.55458 32.99126
#
# Velocity S-wave (km/s) = 3.90016 3.96733 3.93389
# Velocity P-wave (km/s) = 6.74340 6.85009 6.79695
#
# Compressibility (1/GPa) = 0.01862033
#
# Stress axis : x y z
#
# Youngs Moduli (GPa) = 112.89910 76.24497 93.20020
#
# Poissons Ratio (x) = 0.17809 0.19676
# Poissons Ratio (y) = 0.26370 0.24179
# Poissons Ratio (z) = 0.23835 0.19780
#
# Static dielectric constant tensor:
#      x y z
#    x 1.835630 0.000000 0.000000 
#    y 0.000000 1.826470 0.000000 
#    z 0.000000 0.000000 1.928670 
# 
# From -- ./inp_files/3626.got.cif
#   From: 2010.05.17/outbox.cif.g08.bks.cpg/sg54_2_cif.got.tgz:3626.got - 2010.06.03 13:09:01.
