data_PCOD9421567
_publ_section_title
;
Structure prediction by ZEFSAII (Michael W. Deem and Ramdas Pophale) SiO2 
 PCOD9421567
Probable space group: P C C A
;
_chemical_formula_sum "Si O2"
_cell_formula_units_Z 40
_cell_length_a 11.821679
_cell_length_b 6.233372
_cell_length_c 20.922305
_cell_angle_alpha 90.000000
_cell_angle_beta 90.000000
_cell_angle_gamma 90.000000
_cell_volume 1541.742119
_symmetry_space_group_name_H-M "P C C A"
_symmetry_group_IT_number 54
_symmetry_cell_setting 'orthorhombic'
loop_
_space_group_symop_operation_xyz
x,y,z
1/2-x,-y,z
1/2+x,-y,1/2-z
-x,y,1/2-z
-x,-y,-z
1/2+x,y,-z
1/2-x,y,1/2+z
x,-y,1/2+z
loop_
_atom_site_type_symbol
_atom_site_label
_atom_site_fract_x
_atom_site_fract_y
_atom_site_fract_z
Si Si1 0.750000 0.000000 0.528895
Si Si2 0.868041 0.928893 0.802676
Si Si3 0.907302 0.317103 0.176397
Si Si4 0.648509 0.621042 0.943939
Si Si5 0.500000 0.305808 0.250000
Si Si6 0.606594 0.626029 0.571993
O O1 0.816532 0.837954 0.481268
O O2 0.667707 0.856818 0.574088
O O3 0.851156 0.836973 0.729631
O O4 0.963942 0.773453 0.832582
O O5 0.750000 0.000000 0.833436
O O6 0.931452 0.150890 0.794732
O O7 0.858829 0.407806 0.110533
O O8 0.914878 0.541565 0.213693
O O9 0.750000 0.500000 0.905426
O O10 0.525970 0.653545 0.913995
O O11 0.625004 0.443501 0.998931
#
# Coordination Sequence:
#
# PCOD9421567 Si02
#       6
#     4   8   8   8   4   8
#     4  10  20  36  60  90 118 166 208 260 316 368
#     4   9  19  39  60  86 121 156 200 250 315 374
#     4   9  20  36  60  87 118 160 195 255 312 370
#     4   9  20  39  60  85 124 165 203 261 318 372
#     4   8  18  38  52  80 122 146 190 246 306 358
#     4  10  20  39  60  88 127 159 210 257 317 384
#
# _framework density 25.944678
#
# number of rings (size 3 to 8) (size 9 to 14) (size 15 to 20)
#    0.000    3.200    0.000    0.600    0.000    6.400 
#   18.000    0.000    8.800    0.000    0.000    0.000 
#    0.000    0.000    0.000    0.000    0.000    0.000 
#
# Total GULP energy -223157.025644 kJ/mol
# GULP energy per Si atom -5578.925641 kJ/mol
# Density = 2.588563 g / cm^3
# Si number density = 25.944678 Si / 1000 Ang^3
#
#
#
# Elastic Constant Matrix: (Units=GPa)
#
#
# Indices 1 2 3 4 5 6 
#
# 1 148.5480 73.4706 9.2796 0.0000 0.0000 0.0000
# 2 73.4706 161.2390 28.8898 0.0000 0.0000 0.0000
# 3 9.2796 28.8898 60.8047 0.0000 0.0000 0.0000
# 4 0.0000 0.0000 0.0000 18.9217 0.0000 0.0000
# 5 0.0000 0.0000 0.0000 0.0000 9.5027 0.0000
# 6 0.0000 0.0000 0.0000 0.0000 0.0000 34.4384
#
#
#
# Elastic Compliance Matrix: (Units=1/GPa)
#
#
# Indices 1 2 3 4 5 6 
#
# 1 0.008711 -0.004078 0.000608 0.000000 0.000000 0.000000
# 2 -0.004078 0.008688 -0.003506 0.000000 0.000000 0.000000
# 3 0.000608 -0.003506 0.018019 0.000000 0.000000 0.000000
# 4 0.000000 0.000000 0.000000 0.052849 0.000000 0.000000
# 5 0.000000 0.000000 0.000000 0.000000 0.105234 0.000000
# 6 0.000000 0.000000 0.000000 0.000000 0.000000 0.029037
#
#
# Mechanical properties :
#
#
# Convention : Reuss Voigt Hill
#
# Bulk Modulus (GPa) = 46.58329 65.98575 56.28452
# Shear Modulus (GPa) = 20.52160 29.83598 25.17879
#
# Velocity S-wave (km/s) = 2.81548 3.39482 3.11863
# Velocity P-wave (km/s) = 5.34444 6.39178 5.89143
#
# Compressibility (1/GPa) = 0.02146692
#
# Stress axis : x y z
#
# Youngs Moduli (GPa) = 114.79887 115.09610 55.49723
#
# Poissons Ratio (x) = 0.46939 -0.03376
# Poissons Ratio (y) = 0.46817 0.19456
# Poissons Ratio (z) = -0.06983 0.40349
#
# Static dielectric constant tensor:
#      x y z
#    x 2.286820 0.000000 0.000000 
#    y 0.000000 1.986440 0.000000 
#    z 0.000000 0.000000 2.143380 
# 
# From -- ./inp_files/26087.got.cif
#   From: 2010.05.17/outbox.cif.g08.bks.cpg/sg54_14_cif.got.tgz:26087.got - 2010.06.03 13:09:01.
