data_PCOD9421131
_publ_section_title
;
Structure prediction by ZEFSAII (Michael W. Deem and Ramdas Pophale) SiO2 
 PCOD9421131
Probable space group: P C C A
;
_chemical_formula_sum "Si O2"
_cell_formula_units_Z 60
_cell_length_a 28.043826
_cell_length_b 14.039067
_cell_length_c 8.593783
_cell_angle_alpha 90.000000
_cell_angle_beta 90.000000
_cell_angle_gamma 90.000000
_cell_volume 3383.451019
_symmetry_space_group_name_H-M "P C C A"
_symmetry_group_IT_number 54
_symmetry_cell_setting 'orthorhombic'
loop_
_space_group_symop_operation_xyz
x,y,z
1/2-x,-y,z
1/2+x,-y,1/2-z
-x,y,1/2-z
-x,-y,-z
1/2+x,y,-z
1/2-x,y,1/2+z
x,-y,1/2+z
loop_
_atom_site_type_symbol
_atom_site_label
_atom_site_fract_x
_atom_site_fract_y
_atom_site_fract_z
Si Si1 0.427592 0.877688 0.449273
Si Si2 0.099263 0.562170 0.051747
Si Si3 0.892431 0.713409 0.727382
Si Si4 0.040752 0.579454 0.346172
Si Si5 0.817042 0.419213 0.364154
Si Si6 0.444051 0.081225 0.294968
Si Si7 0.250000 0.500000 0.896800
Si Si8 0.972369 0.764479 0.972422
O O1 0.388978 0.814169 0.359671
O O2 0.418815 0.892506 0.632903
O O3 0.478765 0.821246 0.435673
O O4 0.431509 0.979357 0.366322
O O5 0.103079 0.638039 0.913574
O O6 0.063782 0.483554 0.979357
O O7 0.079964 0.602993 0.214657
O O8 0.147027 0.504895 0.091768
O O9 0.849547 0.673271 0.833431
O O10 0.939927 0.724510 0.832867
O O11 0.017506 0.673378 0.419641
O O12 0.000000 0.525300 0.250000
O O13 0.777284 0.422309 0.497919
O O14 0.788759 0.447968 0.209580
O O15 0.500000 0.076840 0.250000
O O16 0.440676 0.161831 0.426762
#
# Coordination Sequence:
#
# PCOD9421131 Si02
#       8
#     8   8   8   8   8   8   4   8
#     4  11  22  36  56  80 113 159 200 246 284 326
#     4  12  22  38  51  75 112 155 189 240 286 322
#     4  12  22  35  55  82 115 148 189 239 288 332
#     4  12  22  33  47  71 110 159 205 229 265 329
#     4  11  21  40  59  83 106 144 179 236 287 346
#     4  10  19  36  55  78 108 157 209 250 287 316
#     4  10  22  40  66  80 102 142 188 224 302 362
#     4  11  21  35  51  78 112 160 204 244 278 324
#
# _framework density 17.733374000000001
#
# number of rings (size 3 to 8) (size 9 to 14) (size 15 to 20)
#    0.000    0.800    4.000    6.800    0.000    1.067 
#    0.000    0.000    0.000    0.000    0.000    0.000 
#    0.000   12.800    0.000    0.000    0.000    0.000 
#
# Total GULP energy -334940.728901 kJ/mol
# GULP energy per Si atom -5582.345482 kJ/mol
# Density = 1.769301 g / cm^3
# Si number density = 17.733374 Si / 1000 Ang^3
#
#
#
# Elastic Constant Matrix: (Units=GPa)
#
#
# Indices 1 2 3 4 5 6 
#
# 1 52.1936 12.1909 31.9156 0.0000 0.0000 0.0000
# 2 12.1909 62.9161 25.6846 0.0000 0.0000 0.0000
# 3 31.9156 25.6846 103.9190 0.0000 0.0000 0.0000
# 4 0.0000 0.0000 0.0000 37.3237 0.0000 0.0000
# 5 0.0000 0.0000 0.0000 0.0000 32.7885 0.0000
# 6 0.0000 0.0000 0.0000 0.0000 0.0000 11.8385
#
#
#
# Elastic Compliance Matrix: (Units=1/GPa)
#
#
# Indices 1 2 3 4 5 6 
#
# 1 0.023773 -0.001808 -0.006854 0.000000 0.000000 0.000000
# 2 -0.001808 0.017815 -0.003848 0.000000 0.000000 0.000000
# 3 -0.006854 -0.003848 0.012679 0.000000 0.000000 0.000000
# 4 0.000000 0.000000 0.000000 0.026793 0.000000 0.000000
# 5 0.000000 0.000000 0.000000 0.000000 0.030498 0.000000
# 6 0.000000 0.000000 0.000000 0.000000 0.000000 0.084470
#
#
# Mechanical properties :
#
#
# Convention : Reuss Voigt Hill
#
# Bulk Modulus (GPa) = 34.19192 39.84566 37.01879
# Shear Modulus (GPa) = 21.66394 26.33933 24.00164
#
# Velocity S-wave (km/s) = 3.49900 3.85814 3.68295
# Velocity P-wave (km/s) = 5.97051 6.50884 6.24548
#
# Compressibility (1/GPa) = 0.02924668
#
# Stress axis : x y z
#
# Youngs Moduli (GPa) = 42.06440 56.13125 78.87055
#
# Poissons Ratio (x) = 0.10150 0.54060
# Poissons Ratio (y) = 0.07606 0.30349
# Poissons Ratio (z) = 0.28832 0.21599
#
# Static dielectric constant tensor:
#      x y z
#    x 1.651600 0.000000 0.000000 
#    y 0.000000 1.615890 0.000000 
#    z 0.000000 0.000000 1.681330 
# 
# From -- ./inp_files/5575.got.cif
#   From: 2010.05.17/outbox.cif.g08.bks.cpg/sg54_3_cif.got.tgz:5575.got - 2010.06.03 13:09:01.
