data_PCOD9421275
_publ_section_title
;
Structure prediction by ZEFSAII (Michael W. Deem and Ramdas Pophale) SiO2 
 PCOD9421275
Probable space group: P C C A
;
_chemical_formula_sum "Si O2"
_cell_formula_units_Z 48
_cell_length_a 22.111892
_cell_length_b 7.071542
_cell_length_c 12.426111
_cell_angle_alpha 90.000000
_cell_angle_beta 90.000000
_cell_angle_gamma 90.000000
_cell_volume 1943.010996
_symmetry_space_group_name_H-M "P C C A"
_symmetry_group_IT_number 54
_symmetry_cell_setting 'orthorhombic'
loop_
_space_group_symop_operation_xyz
x,y,z
1/2-x,-y,z
1/2+x,-y,1/2-z
-x,y,1/2-z
-x,-y,-z
1/2+x,y,-z
1/2-x,y,1/2+z
x,-y,1/2+z
loop_
_atom_site_type_symbol
_atom_site_label
_atom_site_fract_x
_atom_site_fract_y
_atom_site_fract_z
Si Si1 0.342790 0.726145 0.868387
Si Si2 0.250000 0.000000 0.169915
Si Si3 0.355816 0.844508 0.276205
Si Si4 0.750000 0.500000 0.516026
Si Si5 0.930471 0.795441 0.945002
Si Si6 0.656810 0.682481 0.866351
Si Si7 0.565610 0.228655 0.526855
O O1 0.277347 0.674522 0.917014
O O2 0.346757 0.616095 0.755985
O O3 0.353050 0.938493 0.822763
O O4 0.391778 0.694315 0.961409
O O5 0.286830 0.836470 0.233390
O O6 0.194646 0.882512 0.116482
O O7 0.398010 0.810888 0.171341
O O8 0.385092 0.739964 0.378476
O O9 0.803880 0.548698 0.438051
O O10 0.998547 0.718192 0.936999
O O11 0.935423 0.007172 0.994019
O O12 0.590560 0.685438 0.916605
#
# Coordination Sequence:
#
# PCOD9421275 Si02
#       7
#     8   4   8   4   8   8   8
#     4  10  23  42  63  91 131 180 221 273 336 403
#     4  10  20  36  62  92 134 162 216 282 328 394
#     4  10  20  36  62 100 133 167 208 272 341 398
#     4  12  26  42  66  88 146 188 230 266 336 402
#     4  10  19  40  64  98 129 167 212 286 344 391
#     4  11  24  42  62 100 128 179 223 276 340 404
#     4  10  21  34  65  98 131 160 220 276 344 399
#
# _framework density 24.703928999999999
#
# number of rings (size 3 to 8) (size 9 to 14) (size 15 to 20)
#    0.000    1.667    3.333    2.000    7.000    0.667 
#    3.000    0.833    0.000    0.000    0.000    0.000 
#    0.000    0.000    0.000    0.000    0.000    0.000 
#
# Total GULP energy -267811.089456 kJ/mol
# GULP energy per Si atom -5579.397697 kJ/mol
# Density = 2.464770 g / cm^3
# Si number density = 24.703929 Si / 1000 Ang^3
#
#
#
# Elastic Constant Matrix: (Units=GPa)
#
#
# Indices 1 2 3 4 5 6 
#
# 1 112.1832 10.1182 43.5517 0.0000 0.0000 0.0000
# 2 10.1182 49.3710 30.2486 0.0000 0.0000 0.0000
# 3 43.5517 30.2486 150.4954 0.0000 0.0000 0.0000
# 4 0.0000 0.0000 0.0000 28.4122 0.0000 0.0000
# 5 0.0000 0.0000 0.0000 0.0000 41.4508 0.0000
# 6 0.0000 0.0000 0.0000 0.0000 0.0000 18.8142
#
#
#
# Elastic Compliance Matrix: (Units=1/GPa)
#
#
# Indices 1 2 3 4 5 6 
#
# 1 0.010047 -0.000317 -0.002844 0.000000 0.000000 0.000000
# 2 -0.000317 0.023109 -0.004553 0.000000 0.000000 0.000000
# 3 -0.002844 -0.004553 0.008383 0.000000 0.000000 0.000000
# 4 0.000000 0.000000 0.000000 0.035196 0.000000 0.000000
# 5 0.000000 0.000000 0.000000 0.000000 0.024125 0.000000
# 6 0.000000 0.000000 0.000000 0.000000 0.000000 0.053151
#
#
# Mechanical properties :
#
#
# Convention : Reuss Voigt Hill
#
# Bulk Modulus (GPa) = 38.29718 53.32072 45.80895
# Shear Modulus (GPa) = 28.06747 32.94418 30.50582
#
# Velocity S-wave (km/s) = 3.37434 3.65576 3.51787
# Velocity P-wave (km/s) = 5.54236 6.28094 5.92317
#
# Compressibility (1/GPa) = 0.02611158
#
# Stress axis : x y z
#
# Youngs Moduli (GPa) = 99.53678 43.27250 119.29158
#
# Poissons Ratio (x) = 0.01370 0.33923
# Poissons Ratio (y) = 0.03152 0.54316
# Poissons Ratio (z) = 0.28305 0.19703
#
# Static dielectric constant tensor:
#      x y z
#    x 1.934350 0.000000 0.000000 
#    y 0.000000 2.156370 0.000000 
#    z 0.000000 0.000000 1.961870 
# 
# From -- ./inp_files/9954.got.cif
#   From: 2010.05.17/outbox.cif.g08.bks.cpg/sg54_5_cif.got.tgz:9954.got - 2010.06.03 13:09:01.
