data_PCOD9421438
_publ_section_title
;
Structure prediction by ZEFSAII (Michael W. Deem and Ramdas Pophale) SiO2 
 PCOD9421438
Probable space group: P C C A
;
_chemical_formula_sum "Si O2"
_cell_formula_units_Z 64
_cell_length_a 19.778548
_cell_length_b 19.795268
_cell_length_c 9.066381
_cell_angle_alpha 90.000000
_cell_angle_beta 90.000000
_cell_angle_gamma 90.000000
_cell_volume 3549.684524
_symmetry_space_group_name_H-M "P C C A"
_symmetry_group_IT_number 54
_symmetry_cell_setting 'orthorhombic'
loop_
_space_group_symop_operation_xyz
x,y,z
1/2-x,-y,z
1/2+x,-y,1/2-z
-x,y,1/2-z
-x,-y,-z
1/2+x,y,-z
1/2-x,y,1/2+z
x,-y,1/2+z
loop_
_atom_site_type_symbol
_atom_site_label
_atom_site_fract_x
_atom_site_fract_y
_atom_site_fract_z
Si Si1 0.948164 0.070952 0.117668
Si Si2 0.321453 0.680246 0.717227
Si Si3 0.048938 0.081313 0.887407
Si Si4 0.425476 0.436796 0.182928
Si Si5 0.818918 0.156517 0.100384
Si Si6 0.173743 0.836698 0.256186
Si Si7 0.820158 0.312301 0.134293
Si Si8 0.572451 0.424466 0.672933
O O1 0.878556 0.107702 0.153967
O O2 0.000000 0.064277 0.250000
O O3 0.931623 0.994842 0.060844
O O4 0.995708 0.111668 0.003757
O O5 0.377987 0.623558 0.740024
O O6 0.339441 0.756102 0.770195
O O7 0.312218 0.681251 0.541285
O O8 0.249703 0.665913 0.791271
O O9 0.113596 0.122956 0.835664
O O10 0.000000 0.073557 0.750000
O O11 0.500000 0.427986 0.250000
O O12 0.399829 0.508543 0.245758
O O13 0.431346 0.437176 0.004310
O O14 0.744382 0.143433 0.165599
O O15 0.834029 0.232798 0.155014
O O16 0.820449 0.151439 0.920979
O O17 0.879615 0.360069 0.190255
O O18 0.500000 0.412508 0.750000
#
# Coordination Sequence:
#
# PCOD9421438 Si02
#       8
#     8   8   8   8   8   8   8   8
#     4  10  22  37  58  84 116 143 188 230 277 333
#     4   9  20  37  55  80 106 141 182 225 268 326
#     4  10  20  39  59  82 111 150 181 230 279 332
#     4  10  20  35  54  80 110 141 182 223 271 324
#     4  10  21  39  57  82 113 147 187 234 277 340
#     4  10  21  38  59  81 112 148 187 230 285 330
#     4   9  20  37  56  77 109 141 182 225 271 321
#     4  10  20  35  55  80 110 144 178 226 272 323
#
# _framework density 18.029772000000001
#
# number of rings (size 3 to 8) (size 9 to 14) (size 15 to 20)
#    0.000    2.250    1.250    1.500    1.750    4.000 
#    2.250    3.750    0.000    0.000    0.000    0.000 
#    0.000    0.000    0.000    0.000    0.000    0.000 
#
# Total GULP energy -356474.848538 kJ/mol
# GULP energy per Si atom -5569.919508 kJ/mol
# Density = 1.798874 g / cm^3
# Si number density = 18.029772 Si / 1000 Ang^3
#
#
#
# Elastic Constant Matrix: (Units=GPa)
#
#
# Indices 1 2 3 4 5 6 
#
# 1 131.7359 89.6563 34.1865 0.0000 0.0000 0.0000
# 2 89.6563 87.5488 25.1349 0.0000 0.0000 0.0000
# 3 34.1865 25.1349 45.1387 0.0000 0.0000 0.0000
# 4 0.0000 0.0000 0.0000 21.6827 0.0000 0.0000
# 5 0.0000 0.0000 0.0000 0.0000 35.7595 0.0000
# 6 0.0000 0.0000 0.0000 0.0000 0.0000 62.3941
#
#
#
# Elastic Compliance Matrix: (Units=1/GPa)
#
#
# Indices 1 2 3 4 5 6 
#
# 1 0.026288 -0.025240 -0.005855 0.000000 0.000000 0.000000
# 2 -0.025240 0.037829 -0.001949 0.000000 0.000000 0.000000
# 3 -0.005855 -0.001949 0.027674 0.000000 0.000000 0.000000
# 4 0.000000 0.000000 0.000000 0.046120 0.000000 0.000000
# 5 0.000000 0.000000 0.000000 0.000000 0.027965 0.000000
# 6 0.000000 0.000000 0.000000 0.000000 0.000000 0.016027
#
#
# Mechanical properties :
#
#
# Convention : Reuss Voigt Hill
#
# Bulk Modulus (GPa) = 38.90592 62.48652 50.69622
# Shear Modulus (GPa) = 19.48880 31.66363 25.57621
#
# Velocity S-wave (km/s) = 3.29131 4.19523 3.77046
# Velocity P-wave (km/s) = 6.00576 7.62885 6.86544
#
# Compressibility (1/GPa) = 0.02570303
#
# Stress axis : x y z
#
# Youngs Moduli (GPa) = 38.04020 26.43470 36.13544
#
# Poissons Ratio (x) = 0.66721 0.21158
# Poissons Ratio (y) = 0.96013 0.07043
# Poissons Ratio (z) = 0.22273 0.05152
#
# Static dielectric constant tensor:
#      x y z
#    x 1.586800 0.000000 0.000000 
#    y 0.000000 1.641190 0.000000 
#    z 0.000000 0.000000 1.931020 
# 
# From -- ./inp_files/4394.got.cif
#   From: 2010.05.17/outbox.cif.g08.bks.cpg/sg54_3_cif.got.tgz:4394.got - 2010.06.03 13:09:01.
