data_PCOD9421293
_publ_section_title
;
Structure prediction by ZEFSAII (Michael W. Deem and Ramdas Pophale) SiO2 
 PCOD9421293
Probable space group: P C C A
;
_chemical_formula_sum "Si O2"
_cell_formula_units_Z 44
_cell_length_a 15.756974
_cell_length_b 7.889884
_cell_length_c 16.625517
_cell_angle_alpha 90.000000
_cell_angle_beta 90.000000
_cell_angle_gamma 90.000000
_cell_volume 2066.895862
_symmetry_space_group_name_H-M "P C C A"
_symmetry_group_IT_number 54
_symmetry_cell_setting 'orthorhombic'
loop_
_space_group_symop_operation_xyz
x,y,z
1/2-x,-y,z
1/2+x,-y,1/2-z
-x,y,1/2-z
-x,-y,-z
1/2+x,y,-z
1/2-x,y,1/2+z
x,-y,1/2+z
loop_
_atom_site_type_symbol
_atom_site_label
_atom_site_fract_x
_atom_site_fract_y
_atom_site_fract_z
Si Si1 0.572434 0.566521 0.313846
Si Si2 0.250000 0.500000 0.431117
Si Si3 0.493717 0.800370 0.631075
Si Si4 0.424869 0.638125 0.010988
Si Si5 0.707332 0.727743 0.217725
Si Si6 0.372186 0.073803 0.241959
O O1 0.500000 0.615760 0.250000
O O2 0.548179 0.380646 0.346015
O O3 0.579150 0.676155 0.394702
O O4 0.660411 0.580296 0.266648
O O5 0.165768 0.560830 0.480157
O O6 0.225782 0.345475 0.370632
O O7 0.539648 0.788294 0.545489
O O8 0.567956 0.833260 0.694349
O O9 0.419622 0.929646 0.656228
O O10 0.500000 0.500000 0.000000
O O11 0.788506 0.811731 0.259792
O O12 0.644621 0.888949 0.221693
#
# Coordination Sequence:
#
# PCOD9421293 Si02
#       6
#     8   4   8   8   8   8
#     4  11  22  40  67  97 128 178 241 270 338 412
#     4  12  22  42  68  98 136 176 240 294 336 412
#     4  10  19  42  62  91 134 176 214 285 339 398
#     4  10  23  40  64  98 136 175 233 288 344 395
#     4  11  23  38  67  99 124 178 230 275 335 426
#     4  10  21  38  64  94 136 177 214 272 355 406
#
# _framework density 21.287962
#
# number of rings (size 3 to 8) (size 9 to 14) (size 15 to 20)
#    0.000    1.455    3.636    3.273    2.545    3.636 
#    0.000    0.909   12.000    0.000    0.000    0.000 
#    0.000    0.000    0.000    0.000    0.000    0.000 
#
# Total GULP energy -245315.686579 kJ/mol
# GULP energy per Si atom -5575.356513 kJ/mol
# Density = 2.123951 g / cm^3
# Si number density = 21.287962 Si / 1000 Ang^3
#
#
#
# Elastic Constant Matrix: (Units=GPa)
#
#
# Indices 1 2 3 4 5 6 
#
# 1 93.9497 29.5909 41.6828 0.0000 0.0000 0.0000
# 2 29.5909 87.3665 19.6855 0.0000 0.0000 0.0000
# 3 41.6828 19.6855 136.0532 0.0000 0.0000 0.0000
# 4 0.0000 0.0000 0.0000 20.9290 0.0000 0.0000
# 5 0.0000 0.0000 0.0000 0.0000 35.3099 0.0000
# 6 0.0000 0.0000 0.0000 0.0000 0.0000 20.4613
#
#
#
# Elastic Compliance Matrix: (Units=1/GPa)
#
#
# Indices 1 2 3 4 5 6 
#
# 1 0.013403 -0.003736 -0.003566 0.000000 0.000000 0.000000
# 2 -0.003736 0.012873 -0.000718 0.000000 0.000000 0.000000
# 3 -0.003566 -0.000718 0.008546 0.000000 0.000000 0.000000
# 4 0.000000 0.000000 0.000000 0.047781 0.000000 0.000000
# 5 0.000000 0.000000 0.000000 0.000000 0.028321 0.000000
# 6 0.000000 0.000000 0.000000 0.000000 0.000000 0.048873
#
#
# Mechanical properties :
#
#
# Convention : Reuss Voigt Hill
#
# Bulk Modulus (GPa) = 53.23996 55.47642 54.35819
# Shear Modulus (GPa) = 27.45795 30.43405 28.94600
#
# Velocity S-wave (km/s) = 3.59532 3.78516 3.69146
# Velocity P-wave (km/s) = 6.50376 6.72457 6.61508
#
# Compressibility (1/GPa) = 0.01878288
#
# Stress axis : x y z
#
# Youngs Moduli (GPa) = 74.61182 77.68074 117.00887
#
# Poissons Ratio (x) = 0.29022 0.41721
# Poissons Ratio (y) = 0.27875 0.08401
# Poissons Ratio (z) = 0.26604 0.05577
#
# Static dielectric constant tensor:
#      x y z
#    x 1.797080 0.000000 0.000000 
#    y 0.000000 1.879120 0.000000 
#    z 0.000000 0.000000 1.813700 
# 
# From -- ./inp_files/17933.got.cif
#   From: 2010.05.17/outbox.cif.g08.bks.cpg/sg54_9_cif.got.tgz:17933.got - 2010.06.03 13:09:01.
