data_PCOD9421440
_publ_section_title
;
Structure prediction by ZEFSAII (Michael W. Deem and Ramdas Pophale) SiO2 
 PCOD9421440
Probable space group: P C C A
;
_chemical_formula_sum "Si O2"
_cell_formula_units_Z 40
_cell_length_a 23.491743
_cell_length_b 5.029414
_cell_length_c 15.535281
_cell_angle_alpha 90.000000
_cell_angle_beta 90.000000
_cell_angle_gamma 90.000000
_cell_volume 1835.488807
_symmetry_space_group_name_H-M "P C C A"
_symmetry_group_IT_number 54
_symmetry_cell_setting 'orthorhombic'
loop_
_space_group_symop_operation_xyz
x,y,z
1/2-x,-y,z
1/2+x,-y,1/2-z
-x,y,1/2-z
-x,-y,-z
1/2+x,y,-z
1/2-x,y,1/2+z
x,-y,1/2+z
loop_
_atom_site_type_symbol
_atom_site_label
_atom_site_fract_x
_atom_site_fract_y
_atom_site_fract_z
Si Si1 0.449073 0.781061 0.179342
Si Si2 0.961315 0.567095 0.086231
Si Si3 0.919423 0.050600 0.989891
Si Si4 0.684756 0.998284 0.613038
Si Si5 0.638124 0.486128 0.207524
O O1 0.500000 0.860101 0.250000
O O2 0.482653 0.561657 0.124286
O O3 0.390733 0.645068 0.213342
O O4 0.427896 0.005333 0.111842
O O5 0.961342 0.842930 0.037756
O O6 0.920535 0.614951 0.165936
O O7 0.931649 0.343084 0.026723
O O8 0.858222 0.962728 0.031621
O O9 0.676260 0.774855 0.688649
O O10 0.750000 0.000000 0.585244
O O11 0.667883 0.280660 0.653603
#
# Coordination Sequence:
#
# PCOD9421440 Si02
#       5
#     8   8   8   8   8
#     4  10  20  35  55  85 122 150 178 230 288 343
#     4   9  19  34  54  80 115 151 185 223 272 339
#     4  10  20  35  55  82 110 150 197 227 271 344
#     4  10  20  38  59  77 104 146 194 241 281 327
#     4   9  20  34  55  84 109 143 186 229 287 341
#
# _framework density 21.792558
#
# number of rings (size 3 to 8) (size 9 to 14) (size 15 to 20)
#    0.000    2.400    0.000    1.800    0.000    3.200 
#    0.000   12.000    0.000    7.200    0.000    0.000 
#    0.000    0.000    0.000    0.000    0.000    0.400 
#
# Total GULP energy -222685.440572 kJ/mol
# GULP energy per Si atom -5567.136014 kJ/mol
# Density = 2.174296 g / cm^3
# Si number density = 21.792558 Si / 1000 Ang^3
#
#
#
# Elastic Constant Matrix: (Units=GPa)
#
#
# Indices 1 2 3 4 5 6 
#
# 1 124.9527 17.1873 32.6521 0.0000 0.0000 0.0000
# 2 17.1873 118.2241 21.0826 0.0000 0.0000 0.0000
# 3 32.6521 21.0826 73.9952 0.0000 0.0000 0.0000
# 4 0.0000 0.0000 0.0000 20.5160 0.0000 0.0000
# 5 0.0000 0.0000 0.0000 0.0000 22.9453 0.0000
# 6 0.0000 0.0000 0.0000 0.0000 0.0000 22.1112
#
#
#
# Elastic Compliance Matrix: (Units=1/GPa)
#
#
# Indices 1 2 3 4 5 6 
#
# 1 0.009092 -0.000639 -0.003830 0.000000 0.000000 0.000000
# 2 -0.000639 0.008956 -0.002270 0.000000 0.000000 0.000000
# 3 -0.003830 -0.002270 0.015851 0.000000 0.000000 0.000000
# 4 0.000000 0.000000 0.000000 0.048743 0.000000 0.000000
# 5 0.000000 0.000000 0.000000 0.000000 0.043582 0.000000
# 6 0.000000 0.000000 0.000000 0.000000 0.000000 0.045226
#
#
# Mechanical properties :
#
#
# Convention : Reuss Voigt Hill
#
# Bulk Modulus (GPa) = 48.96718 51.00179 49.98449
# Shear Modulus (GPa) = 26.07780 29.53116 27.80448
#
# Velocity S-wave (km/s) = 3.46300 3.68517 3.57581
# Velocity P-wave (km/s) = 6.20550 6.44681 6.32731
#
# Compressibility (1/GPa) = 0.02042184
#
# Stress axis : x y z
#
# Youngs Moduli (GPa) = 109.99025 111.65503 63.08679
#
# Poissons Ratio (x) = 0.07132 0.24162
# Poissons Ratio (y) = 0.07026 0.14320
# Poissons Ratio (z) = 0.42126 0.25345
#
# Static dielectric constant tensor:
#      x y z
#    x 1.853860 0.000000 0.000000 
#    y 0.000000 1.841980 0.000000 
#    z 0.000000 0.000000 1.917840 
# 
# From -- ./inp_files/14815.got.cif
#   From: 2010.05.17/outbox.cif.g08.bks.cpg/sg54_8_cif.got.tgz:14815.got - 2010.06.03 13:09:01.
