data_PCOD9421781
_publ_section_title
;
Structure prediction by ZEFSAII (Michael W. Deem and Ramdas Pophale) SiO2 
 PCOD9421781
Probable space group: P C C A
;
_chemical_formula_sum "Si O2"
_cell_formula_units_Z 48
_cell_length_a 15.073087
_cell_length_b 8.101539
_cell_length_c 19.423653
_cell_angle_alpha 90.000000
_cell_angle_beta 90.000000
_cell_angle_gamma 90.000000
_cell_volume 2371.923313
_symmetry_space_group_name_H-M "P C C A"
_symmetry_group_IT_number 54
_symmetry_cell_setting 'orthorhombic'
loop_
_space_group_symop_operation_xyz
x,y,z
1/2-x,-y,z
1/2+x,-y,1/2-z
-x,y,1/2-z
-x,-y,-z
1/2+x,y,-z
1/2-x,y,1/2+z
x,-y,1/2+z
loop_
_atom_site_type_symbol
_atom_site_label
_atom_site_fract_x
_atom_site_fract_y
_atom_site_fract_z
Si Si1 0.904609 0.208035 0.267817
Si Si2 0.249447 0.694830 0.636417
Si Si3 0.680826 0.126486 0.636855
Si Si4 0.932508 0.175619 0.808608
Si Si5 0.218218 0.692170 0.484520
Si Si6 0.453569 0.888260 0.940957
O O1 0.844791 0.266948 0.329697
O O2 0.851649 0.238882 0.197811
O O3 0.000000 0.281051 0.250000
O O4 0.918001 0.013653 0.284327
O O5 0.250000 0.500000 0.629969
O O6 0.334107 0.750744 0.681011
O O7 0.248703 0.762745 0.558544
O O8 0.728769 0.219534 0.575930
O O9 0.750000 0.000000 0.669825
O O10 0.603037 0.017731 0.604468
O O11 0.000000 0.246695 0.750000
O O12 0.978291 0.184240 0.884276
O O13 0.250000 0.500000 0.481881
O O14 0.115192 0.749746 0.471335
O O15 0.500000 0.000000 0.000000
#
# Coordination Sequence:
#
# PCOD9421781 Si02
#       6
#     8   8   8   8   8   8
#     4  11  22  40  68  95 125 162 215 268 319 383
#     4  11  25  44  61  89 133 171 208 259 327 388
#     4  10  20  38  63  93 123 161 212 262 317 382
#     4  11  22  41  66  96 125 163 210 272 314 378
#     4  10  24  43  61  92 133 176 213 267 330 391
#     4  11  21  38  68  96 121 165 223 265 318 387
#
# _framework density 20.236740999999999
#
# number of rings (size 3 to 8) (size 9 to 14) (size 15 to 20)
#    0.000    1.333    3.333    3.500    2.333    4.000 
#    3.000    2.500    0.000    0.000    0.000    0.000 
#    0.000    0.000    0.000    0.000    0.000    0.000 
#
# Total GULP energy -267575.245159 kJ/mol
# GULP energy per Si atom -5574.484274 kJ/mol
# Density = 2.019068 g / cm^3
# Si number density = 20.236741 Si / 1000 Ang^3
#
#
#
# Elastic Constant Matrix: (Units=GPa)
#
#
# Indices 1 2 3 4 5 6 
#
# 1 99.8585 19.3669 46.3570 0.0000 0.0000 0.0000
# 2 19.3669 38.1703 9.1178 0.0000 0.0000 0.0000
# 3 46.3570 9.1178 116.5020 0.0000 0.0000 0.0000
# 4 0.0000 0.0000 0.0000 6.4305 0.0000 0.0000
# 5 0.0000 0.0000 0.0000 0.0000 173.7464 0.0000
# 6 0.0000 0.0000 0.0000 0.0000 0.0000 -12.7399
#
#
#
# Elastic Compliance Matrix: (Units=1/GPa)
#
#
# Indices 1 2 3 4 5 6 
#
# 1 0.013369 -0.005618 -0.004880 0.000000 0.000000 0.000000
# 2 -0.005618 0.029058 -0.000039 0.000000 0.000000 0.000000
# 3 -0.004880 -0.000039 0.010528 0.000000 0.000000 0.000000
# 4 0.000000 0.000000 0.000000 0.155509 0.000000 0.000000
# 5 0.000000 0.000000 0.000000 0.000000 0.005756 0.000000
# 6 0.000000 0.000000 0.000000 0.000000 0.000000 -0.078494
#
#
# Mechanical properties :
#
#
# Convention : Reuss Voigt Hill
#
# Bulk Modulus (GPa) = 31.36516 44.91268 38.13892
# Shear Modulus (GPa) = 29.86381 45.46668 37.66525
#
# Velocity S-wave (km/s) = 3.84568 4.74512 4.31888
# Velocity P-wave (km/s) = 5.93732 7.22934 6.61495
#
# Compressibility (1/GPa) = 0.03188250
#
# Stress axis : x y z
#
# Youngs Moduli (GPa) = 74.79945 34.41403 94.98133
#
# Poissons Ratio (x) = 0.19332 0.46351
# Poissons Ratio (y) = 0.42019 0.00370
# Poissons Ratio (z) = 0.36502 0.00134
#
# Static dielectric constant tensor:
#      x y z
#    x 1.779530 0.000000 0.000000 
#    y 0.000000 1.581390 0.000000 
#    z 0.000000 0.000000 1.736250 
# 
# From -- ./inp_files/18041.got.cif
#   From: 2010.05.17/outbox.cif.g08.bks.cpg/sg54_10_cif.got.tgz:18041.got - 2010.06.03 13:09:01.
