data_PCOD9421843
_publ_section_title
;
Structure prediction by ZEFSAII (Michael W. Deem and Ramdas Pophale) SiO2 
 PCOD9421843
Probable space group: P C C A
;
_chemical_formula_sum "Si O2"
_cell_formula_units_Z 40
_cell_length_a 28.685074
_cell_length_b 5.011909
_cell_length_c 10.185038
_cell_angle_alpha 90.000000
_cell_angle_beta 90.000000
_cell_angle_gamma 90.000000
_cell_volume 1464.272160
_symmetry_space_group_name_H-M "P C C A"
_symmetry_group_IT_number 54
_symmetry_cell_setting 'orthorhombic'
loop_
_space_group_symop_operation_xyz
x,y,z
1/2-x,-y,z
1/2+x,-y,1/2-z
-x,y,1/2-z
-x,-y,-z
1/2+x,y,-z
1/2-x,y,1/2+z
x,-y,1/2+z
loop_
_atom_site_type_symbol
_atom_site_label
_atom_site_fract_x
_atom_site_fract_y
_atom_site_fract_z
Si Si1 0.250000 0.500000 0.188610
Si Si2 0.500000 0.500000 0.500000
Si Si3 0.647998 0.447351 0.792646
Si Si4 0.348351 0.060481 0.391861
Si Si5 0.000000 0.862417 0.250000
Si Si6 0.577407 0.150880 0.424027
Si Si7 0.250000 0.000000 0.379937
O O1 0.302307 0.524877 0.128909
O O2 0.248208 0.752048 0.283548
O O3 0.484478 0.332099 0.367761
O O4 0.540362 0.274643 0.524148
O O5 0.644118 0.154431 0.726602
O O6 0.605337 0.591824 0.867713
O O7 0.652332 0.647391 0.668528
O O8 0.387301 0.033996 0.500590
O O9 0.298255 0.991505 0.455141
O O10 0.045270 0.997780 0.184693
#
# Coordination Sequence:
#
# PCOD9421843 Si02
#       7
#     4   4   8   8   4   8   4
#     4   8  16  34  58  90 128 168 218 278 340 418
#     4   8  18  36  66  98 144 186 242 304 358 420
#     4  10  21  39  65  95 134 179 231 288 360 427
#     4  10  21  39  65  94 136 179 232 291 356 428
#     4   8  18  36  64 100 136 186 232 300 350 420
#     4  10  20  38  68  98 139 185 240 291 362 419
#     4   8  16  34  58  90 126 170 216 280 342 414
#
# _framework density 27.317326000000001
#
# number of rings (size 3 to 8) (size 9 to 14) (size 15 to 20)
#    1.200    1.600    0.000    1.200    0.000    1.600 
#    0.000   13.000    4.400    0.000    0.000    0.000 
#    0.000    0.000    0.000    0.000    0.000    0.000 
#
# Total GULP energy -222727.714277 kJ/mol
# GULP energy per Si atom -5568.192857 kJ/mol
# Density = 2.725515 g / cm^3
# Si number density = 27.317326 Si / 1000 Ang^3
#
#
#
# Elastic Constant Matrix: (Units=GPa)
#
#
# Indices 1 2 3 4 5 6 
#
# 1 115.7979 22.5513 10.7027 0.0000 0.0000 0.0000
# 2 22.5513 95.3056 32.0311 0.0000 0.0000 0.0000
# 3 10.7027 32.0311 60.7955 0.0000 0.0000 0.0000
# 4 0.0000 0.0000 0.0000 17.9632 0.0000 0.0000
# 5 0.0000 0.0000 0.0000 0.0000 -11.8595 0.0000
# 6 0.0000 0.0000 0.0000 0.0000 0.0000 34.4930
#
#
#
# Elastic Compliance Matrix: (Units=1/GPa)
#
#
# Indices 1 2 3 4 5 6 
#
# 1 0.009069 -0.001956 -0.000566 0.000000 0.000000 0.000000
# 2 -0.001956 0.013172 -0.006596 0.000000 0.000000 0.000000
# 3 -0.000566 -0.006596 0.020023 0.000000 0.000000 0.000000
# 4 0.000000 0.000000 0.000000 0.055669 0.000000 0.000000
# 5 0.000000 0.000000 0.000000 0.000000 -0.084321 0.000000
# 6 0.000000 0.000000 0.000000 0.000000 0.000000 0.028991
#
#
# Mechanical properties :
#
#
# Convention : Reuss Voigt Hill
#
# Bulk Modulus (GPa) = 41.61573 44.71881 43.16727
# Shear Modulus (GPa) = 72.62262 21.89359 47.25811
#
# Velocity S-wave (km/s) = 5.16164 2.83407 4.16380
# Velocity P-wave (km/s) = 7.12676 5.20720 6.24122
#
# Compressibility (1/GPa) = 0.02402938
#
# Stress axis : x y z
#
# Youngs Moduli (GPa) = 110.26681 75.91862 49.94188
#
# Poissons Ratio (x) = 0.14847 0.02828
# Poissons Ratio (y) = 0.21564 0.32940
# Poissons Ratio (z) = 0.06243 0.50073
#
# Static dielectric constant tensor:
#      x y z
#    x 2.295160 0.000000 0.000000 
#    y 0.000000 2.030470 0.000000 
#    z 0.000000 0.000000 2.113590 
# 
# From -- ./inp_files/10220.got.cif
#   From: 2010.05.17/outbox.cif.g08.bks.cpg/sg54_6_cif.got.tgz:10220.got - 2010.06.03 13:09:01.
