data_PCOD9421224
_publ_section_title
;
Structure prediction by ZEFSAII (Michael W. Deem and Ramdas Pophale) SiO2 
 PCOD9421224
Probable space group: P C C A
;
_chemical_formula_sum "Si O2"
_cell_formula_units_Z 48
_cell_length_a 14.166968
_cell_length_b 9.384520
_cell_length_c 16.533040
_cell_angle_alpha 90.000000
_cell_angle_beta 90.000000
_cell_angle_gamma 90.000000
_cell_volume 2198.070884
_symmetry_space_group_name_H-M "P C C A"
_symmetry_group_IT_number 54
_symmetry_cell_setting 'orthorhombic'
loop_
_space_group_symop_operation_xyz
x,y,z
1/2-x,-y,z
1/2+x,-y,1/2-z
-x,y,1/2-z
-x,-y,-z
1/2+x,y,-z
1/2-x,y,1/2+z
x,-y,1/2+z
loop_
_atom_site_type_symbol
_atom_site_label
_atom_site_fract_x
_atom_site_fract_y
_atom_site_fract_z
Si Si1 0.000000 0.550947 0.750000
Si Si2 0.499656 0.210559 0.631561
Si Si3 0.358596 0.026280 0.144735
Si Si4 0.358332 0.005560 0.449208
Si Si5 0.917951 0.317486 0.534134
Si Si6 0.250000 0.500000 0.022893
Si Si7 0.897381 0.350076 0.863359
O O1 0.038993 0.661520 0.815698
O O2 0.918755 0.453919 0.788725
O O3 0.442669 0.286244 0.559209
O O4 0.426907 0.100318 0.674377
O O5 0.580184 0.114176 0.592784
O O6 0.388785 0.186746 0.165036
O O7 0.250000 0.000000 0.167620
O O8 0.365329 0.017406 0.046246
O O9 0.395701 0.162305 0.429699
O O10 0.250000 0.000000 0.425930
O O11 0.827112 0.418079 0.531010
O O12 0.010527 0.370344 0.579779
O O13 0.192605 0.607327 0.082048
#
# Coordination Sequence:
#
# PCOD9421224 Si02
#       7
#     4   8   8   8   8   4   8
#     4  12  30  40  64  92 150 198 222 270 360 426
#     4  11  21  45  64  96 135 182 230 285 345 408
#     4  10  20  39  77 101 126 172 238 291 341 401
#     4  10  19  37  71 106 126 161 236 295 343 398
#     4  11  22  41  74 102 130 183 230 303 340 406
#     4  12  24  38  74 104 142 172 234 292 366 408
#     4  12  24  46  67 105 144 183 228 288 354 427
#
# _framework density 21.837330000000001
#
# number of rings (size 3 to 8) (size 9 to 14) (size 15 to 20)
#    0.000    1.000    5.000    4.500    0.000    0.667 
#    0.000    3.333    0.000    0.000    0.000    0.000 
#    0.000    0.000    0.000    0.000    0.000    0.000 
#
# Total GULP energy -268551.692351 kJ/mol
# GULP energy per Si atom -5594.826924 kJ/mol
# Density = 2.178763 g / cm^3
# Si number density = 21.837330 Si / 1000 Ang^3
#
#
#
# Elastic Constant Matrix: (Units=GPa)
#
#
# Indices 1 2 3 4 5 6 
#
# 1 124.4069 50.9610 23.7432 0.0000 0.0000 0.0000
# 2 50.9610 151.0366 34.0318 0.0000 0.0000 0.0000
# 3 23.7432 34.0318 25.5871 0.0000 0.0000 0.0000
# 4 0.0000 0.0000 0.0000 -35.9098 0.0000 0.0000
# 5 0.0000 0.0000 0.0000 0.0000 11.1510 0.0000
# 6 0.0000 0.0000 0.0000 0.0000 0.0000 46.4129
#
#
#
# Elastic Compliance Matrix: (Units=1/GPa)
#
#
# Indices 1 2 3 4 5 6 
#
# 1 0.010119 -0.001854 -0.006924 0.000000 0.000000 0.000000
# 2 -0.001854 0.009794 -0.011306 0.000000 0.000000 0.000000
# 3 -0.006924 -0.011306 0.060544 0.000000 0.000000 0.000000
# 4 0.000000 0.000000 0.000000 -0.027848 0.000000 0.000000
# 5 0.000000 0.000000 0.000000 0.000000 0.089678 0.000000
# 6 0.000000 0.000000 0.000000 0.000000 0.000000 0.021546
#
#
# Mechanical properties :
#
#
# Convention : Reuss Voigt Hill
#
# Bulk Modulus (GPa) = 24.82022 57.61138 41.21580
# Shear Modulus (GPa) = 22.99585 17.15044 20.07315
#
# Velocity S-wave (km/s) = 3.24860 2.80549 3.03514
# Velocity P-wave (km/s) = 5.04597 6.07731 5.58550
#
# Compressibility (1/GPa) = 0.04028973
#
# Stress axis : x y z
#
# Youngs Moduli (GPa) = 98.82330 102.10376 16.51693
#
# Poissons Ratio (x) = 0.18932 0.11436
# Poissons Ratio (y) = 0.18324 0.18674
# Poissons Ratio (z) = 0.68422 1.15436
#
# Static dielectric constant tensor:
#      x y z
#    x 1.772710 0.000000 0.000000 
#    y 0.000000 1.809890 0.000000 
#    z 0.000000 0.000000 1.838860 
# 
# From -- ./inp_files/18061.got.cif
#   From: 2010.05.17/outbox.cif.g08.bks.cpg/sg54_10_cif.got.tgz:18061.got - 2010.06.03 13:09:01.
