data_PCOD9421787
_publ_section_title
;
Structure prediction by ZEFSAII (Michael W. Deem and Ramdas Pophale) SiO2 
 PCOD9421787
Probable space group: P C C A
;
_chemical_formula_sum "Si O2"
_cell_formula_units_Z 44
_cell_length_a 12.886536
_cell_length_b 6.243515
_cell_length_c 26.404985
_cell_angle_alpha 90.000000
_cell_angle_beta 90.000000
_cell_angle_gamma 90.000000
_cell_volume 2124.473293
_symmetry_space_group_name_H-M "P C C A"
_symmetry_group_IT_number 54
_symmetry_cell_setting 'orthorhombic'
loop_
_space_group_symop_operation_xyz
x,y,z
1/2-x,-y,z
1/2+x,-y,1/2-z
-x,y,1/2-z
-x,-y,-z
1/2+x,y,-z
1/2-x,y,1/2+z
x,-y,1/2+z
loop_
_atom_site_type_symbol
_atom_site_label
_atom_site_fract_x
_atom_site_fract_y
_atom_site_fract_z
Si Si1 0.250000 0.500000 0.775140
Si Si2 0.899045 0.193042 0.779463
Si Si3 0.870584 0.440241 0.553690
Si Si4 0.960756 0.191677 0.464485
Si Si5 0.509055 0.891278 0.879237
Si Si6 0.643969 0.878249 0.196708
O O1 0.303353 0.674361 0.740665
O O2 0.334706 0.372378 0.807198
O O3 0.000000 0.280442 0.750000
O O4 0.914437 0.216126 0.838849
O O5 0.884601 0.958250 0.753586
O O6 0.750000 0.500000 0.565397
O O7 0.879437 0.327055 0.497958
O O8 0.932240 0.274218 0.591275
O O9 0.943672 0.650637 0.549706
O O10 0.000000 0.000000 0.500000
O O11 0.930083 0.055559 0.415368
O O12 0.439722 0.035338 0.841823
O O13 0.750000 0.000000 0.182676
#
# Coordination Sequence:
#
# PCOD9421787 Si02
#       6
#     4   8   8   8   8   8
#     4  10  20  38  64  84 124 178 204 250 308 362
#     4   9  20  38  56  87 128 164 203 251 307 361
#     4  10  22  40  67  94 122 158 207 258 319 373
#     4   9  21  40  63  89 126 158 196 255 315 365
#     4  10  21  37  63  91 126 159 207 255 307 374
#     4   9  20  35  55  88 122 159 202 251 303 357
#
# _framework density 20.711017999999999
#
# number of rings (size 3 to 8) (size 9 to 14) (size 15 to 20)
#    0.000    2.545    0.000    0.000    2.545   10.182 
#    6.545    0.000   60.000    0.000    0.000    0.000 
#    0.000    0.000    0.000    0.000    0.000    0.000 
#
# Total GULP energy -245032.231028 kJ/mol
# GULP energy per Si atom -5568.914342 kJ/mol
# Density = 2.066388 g / cm^3
# Si number density = 20.711018 Si / 1000 Ang^3
#
#
#
# Elastic Constant Matrix: (Units=GPa)
#
#
# Indices 1 2 3 4 5 6 
#
# 1 29.5644 18.9019 -7.0890 0.0000 0.0000 0.0000
# 2 18.9019 105.5934 30.6271 0.0000 0.0000 0.0000
# 3 -7.0890 30.6271 79.8708 0.0000 0.0000 0.0000
# 4 0.0000 0.0000 0.0000 1.5528 0.0000 0.0000
# 5 0.0000 0.0000 0.0000 0.0000 18.6804 0.0000
# 6 0.0000 0.0000 0.0000 0.0000 0.0000 29.2370
#
#
#
# Elastic Compliance Matrix: (Units=1/GPa)
#
#
# Indices 1 2 3 4 5 6 
#
# 1 0.041746 -0.009617 0.007393 0.000000 0.000000 0.000000
# 2 -0.009617 0.012871 -0.005789 0.000000 0.000000 0.000000
# 3 0.007393 -0.005789 0.015396 0.000000 0.000000 0.000000
# 4 0.000000 0.000000 0.000000 0.643983 0.000000 0.000000
# 5 0.000000 0.000000 0.000000 0.000000 0.053532 0.000000
# 6 0.000000 0.000000 0.000000 0.000000 0.000000 0.034203
#
#
# Mechanical properties :
#
#
# Convention : Reuss Voigt Hill
#
# Bulk Modulus (GPa) = 18.52314 33.32319 25.92316
# Shear Modulus (GPa) = 5.98263 21.39994 13.69129
#
# Velocity S-wave (km/s) = 1.70144 3.21793 2.57390
# Velocity P-wave (km/s) = 3.58091 5.47095 4.62354
#
# Compressibility (1/GPa) = 0.05398652
#
# Stress axis : x y z
#
# Youngs Moduli (GPa) = 23.95455 77.69473 64.95096
#
# Poissons Ratio (x) = 0.74719 -0.48017
# Poissons Ratio (y) = 0.23037 0.37600
# Poissons Ratio (z) = -0.17709 0.44978
#
# Static dielectric constant tensor:
#      x y z
#    x 1.786260 0.000000 0.000000 
#    y 0.000000 1.803880 0.000000 
#    z 0.000000 0.000000 1.825170 
# 
# From -- ./inp_files/26397.got.cif
#   From: 2010.05.17/outbox.cif.g08.bks.cpg/sg54_14_cif.got.tgz:26397.got - 2010.06.03 13:09:01.
