data_PCOD9421072
_publ_section_title
;
Structure prediction by ZEFSAII (Michael W. Deem and Ramdas Pophale) SiO2 
 PCOD9421072
Probable space group: P C C A
;
_chemical_formula_sum "Si O2"
_cell_formula_units_Z 60
_cell_length_a 15.438421
_cell_length_b 13.014935
_cell_length_c 16.706413
_cell_angle_alpha 90.000000
_cell_angle_beta 90.000000
_cell_angle_gamma 90.000000
_cell_volume 3356.820330
_symmetry_space_group_name_H-M "P C C A"
_symmetry_group_IT_number 54
_symmetry_cell_setting 'orthorhombic'
loop_
_space_group_symop_operation_xyz
x,y,z
1/2-x,-y,z
1/2+x,-y,1/2-z
-x,y,1/2-z
-x,-y,-z
1/2+x,y,-z
1/2-x,y,1/2+z
x,-y,1/2+z
loop_
_atom_site_type_symbol
_atom_site_label
_atom_site_fract_x
_atom_site_fract_y
_atom_site_fract_z
Si Si1 0.596489 0.598579 0.239309
Si Si2 0.250000 0.500000 0.849606
Si Si3 0.745186 0.294983 0.547293
Si Si4 0.679579 0.915921 0.597263
Si Si5 0.937105 0.757158 0.595242
Si Si6 0.840961 0.951398 0.907203
Si Si7 0.481448 0.018048 0.842484
Si Si8 0.631040 0.720179 0.397941
O O1 0.500000 0.554543 0.250000
O O2 0.665155 0.519654 0.203630
O O3 0.583866 0.692917 0.176257
O O4 0.630055 0.645136 0.322604
O O5 0.257103 0.600520 0.904415
O O6 0.782652 0.198374 0.597313
O O7 0.643221 0.268315 0.537680
O O8 0.798112 0.302767 0.465075
O O9 0.660805 0.938951 0.503303
O O10 0.750000 0.000000 0.624542
O O11 0.591734 0.933015 0.645272
O O12 0.945891 0.877616 0.615672
O O13 0.032618 0.721765 0.567515
O O14 0.851638 0.837525 0.870863
O O15 0.927247 0.011215 0.882687
O O16 0.750000 0.000000 0.882500
O O17 0.500000 0.039637 0.750000
#
# Coordination Sequence:
#
# PCOD9421072 Si02
#       8
#     8   4   8   8   8   8   8   8
#     4   9  18  37  59  79 104 143 192 232 274 330
#     4  10  22  38  58  78 114 154 176 236 296 334
#     4  10  20  37  56  84 111 143 191 230 281 333
#     4  10  19  35  56  79 109 149 182 224 276 323
#     4   9  17  34  58  78 111 150 186 226 267 334
#     4   9  19  34  52  79 114 145 180 224 274 330
#     4  11  20  32  52  82 112 153 188 218 267 332
#     4   9  18  34  58  84 103 140 197 235 263 329
#
# _framework density 17.874057000000001
#
# number of rings (size 3 to 8) (size 9 to 14) (size 15 to 20)
#    0.000    2.400    1.333    2.400    0.000    1.067 
#    4.800    8.000    0.000    0.000    0.000    0.000 
#    0.000    0.000    0.000    0.000    0.000    0.000 
#
# Total GULP energy -334605.308394 kJ/mol
# GULP energy per Si atom -5576.755140 kJ/mol
# Density = 1.783338 g / cm^3
# Si number density = 17.874057 Si / 1000 Ang^3
#
#
#
# Elastic Constant Matrix: (Units=GPa)
#
#
# Indices 1 2 3 4 5 6 
#
# 1 153.9080 45.0345 43.9688 0.0000 0.0000 0.0000
# 2 45.0345 65.8186 16.6593 0.0000 0.0000 0.0000
# 3 43.9688 16.6593 40.6599 0.0000 0.0000 0.0000
# 4 0.0000 0.0000 0.0000 7.3371 0.0000 0.0000
# 5 0.0000 0.0000 0.0000 0.0000 21.2100 0.0000
# 6 0.0000 0.0000 0.0000 0.0000 0.0000 28.5267
#
#
#
# Elastic Compliance Matrix: (Units=1/GPa)
#
#
# Indices 1 2 3 4 5 6 
#
# 1 0.010640 -0.004873 -0.009509 0.000000 0.000000 0.000000
# 2 -0.004873 0.019183 -0.002590 0.000000 0.000000 0.000000
# 3 -0.009509 -0.002590 0.035938 0.000000 0.000000 0.000000
# 4 0.000000 0.000000 0.000000 0.136294 0.000000 0.000000
# 5 0.000000 0.000000 0.000000 0.000000 0.047148 0.000000
# 6 0.000000 0.000000 0.000000 0.000000 0.000000 0.035055
#
#
# Mechanical properties :
#
#
# Convention : Reuss Voigt Hill
#
# Bulk Modulus (GPa) = 31.42986 52.41238 41.92112
# Shear Modulus (GPa) = 15.20643 21.72968 18.46806
#
# Velocity S-wave (km/s) = 2.91993 3.49049 3.21788
# Velocity P-wave (km/s) = 5.38426 6.75511 6.10826
#
# Compressibility (1/GPa) = 0.03181688
#
# Stress axis : x y z
#
# Youngs Moduli (GPa) = 93.98572 52.12903 27.82535
#
# Poissons Ratio (x) = 0.25404 0.26460
# Poissons Ratio (y) = 0.45801 0.07207
# Poissons Ratio (z) = 0.89372 0.13501
#
# Static dielectric constant tensor:
#      x y z
#    x 1.642440 0.000000 0.000000 
#    y 0.000000 1.599120 0.000000 
#    z 0.000000 0.000000 1.604040 
# 
# From -- ./inp_files/17438.got.cif
#   From: 2010.05.17/outbox.cif.g08.bks.cpg/sg54_9_cif.got.tgz:17438.got - 2010.06.03 13:09:01.
