data_PCOD9421512
_publ_section_title
;
Structure prediction by ZEFSAII (Michael W. Deem and Ramdas Pophale) SiO2 
 PCOD9421512
Probable space group: P C C A
;
_chemical_formula_sum "Si O2"
_cell_formula_units_Z 48
_cell_length_a 15.562187
_cell_length_b 11.272059
_cell_length_c 12.861106
_cell_angle_alpha 90.000000
_cell_angle_beta 90.000000
_cell_angle_gamma 90.000000
_cell_volume 2256.068078
_symmetry_space_group_name_H-M "P C C A"
_symmetry_group_IT_number 54
_symmetry_cell_setting 'orthorhombic'
loop_
_space_group_symop_operation_xyz
x,y,z
1/2-x,-y,z
1/2+x,-y,1/2-z
-x,y,1/2-z
-x,-y,-z
1/2+x,y,-z
1/2-x,y,1/2+z
x,-y,1/2+z
loop_
_atom_site_type_symbol
_atom_site_label
_atom_site_fract_x
_atom_site_fract_y
_atom_site_fract_z
Si Si1 0.372759 0.807254 0.736165
Si Si2 0.250000 0.000000 0.716325
Si Si3 0.512500 0.813605 0.581026
Si Si4 0.066203 0.597418 0.955543
Si Si5 0.629862 0.179300 0.905052
Si Si6 0.771515 0.372921 0.910695
Si Si7 0.000000 0.308942 0.250000
O O1 0.438333 0.868807 0.653121
O O2 0.426248 0.755855 0.831528
O O3 0.322667 0.707616 0.672364
O O4 0.310117 0.909414 0.777968
O O5 0.307421 0.083849 0.644361
O O6 0.466509 0.718166 0.509129
O O7 0.575223 0.876536 0.499672
O O8 0.052114 0.612021 0.832938
O O9 0.164154 0.591451 0.994941
O O10 0.000000 0.500000 0.000000
O O11 0.688635 0.292737 0.940397
O O12 0.566160 0.229147 0.816100
O O13 0.750000 0.500000 0.861930
#
# Coordination Sequence:
#
# PCOD9421512 Si02
#       7
#     8   4   8   8   8   8   4
#     4   9  20  37  58  83 114 149 193 242 291 354
#     4  10  22  38  56  86 116 146 196 248 296 350
#     4   9  19  37  58  82 111 151 194 235 294 356
#     4  10  21  38  60  87 121 159 197 238 292 359
#     4  10  22  39  59  84 116 153 197 245 296 355
#     4  10  20  36  57  87 120 150 193 245 295 350
#     4  10  22  40  60  84 120 160 200 242 298 364
#
# _framework density 21.275953999999999
#
# number of rings (size 3 to 8) (size 9 to 14) (size 15 to 20)
#    0.000    2.333    0.000    2.000    0.000    9.333 
#    0.000    6.667    0.000    0.000    0.000    0.000 
#    0.000    0.000    0.000    0.000    0.000    0.000 
#
# Total GULP energy -267478.900450 kJ/mol
# GULP energy per Si atom -5572.477093 kJ/mol
# Density = 2.122753 g / cm^3
# Si number density = 21.275954 Si / 1000 Ang^3
#
#
#
# Elastic Constant Matrix: (Units=GPa)
#
#
# Indices 1 2 3 4 5 6 
#
# 1 105.1306 24.9231 32.7228 0.0000 0.0000 0.0000
# 2 24.9231 52.6698 2.7124 0.0000 0.0000 0.0000
# 3 32.7228 2.7124 94.9608 0.0000 0.0000 0.0000
# 4 0.0000 0.0000 0.0000 -0.3759 0.0000 0.0000
# 5 0.0000 0.0000 0.0000 0.0000 28.2011 0.0000
# 6 0.0000 0.0000 0.0000 0.0000 0.0000 20.9385
#
#
#
# Elastic Compliance Matrix: (Units=1/GPa)
#
#
# Indices 1 2 3 4 5 6 
#
# 1 0.012061 -0.005501 -0.003999 0.000000 0.000000 0.000000
# 2 -0.005501 0.021523 0.001281 0.000000 0.000000 0.000000
# 3 -0.003999 0.001281 0.011872 0.000000 0.000000 0.000000
# 4 0.000000 0.000000 0.000000 -2.660456 0.000000 0.000000
# 5 0.000000 0.000000 0.000000 0.000000 0.035460 0.000000
# 6 0.000000 0.000000 0.000000 0.000000 0.000000 0.047759
#
#
# Mechanical properties :
#
#
# Convention : Reuss Voigt Hill
#
# Bulk Modulus (GPa) = 34.46159 41.49752 37.97956
# Shear Modulus (GPa) = -1.99547 22.57962 10.29207
#
# Velocity S-wave (km/s) = -0.96950 3.26125 2.20180
# Velocity P-wave (km/s) = 3.87032 5.80756 4.93493
#
# Compressibility (1/GPa) = 0.02901781
#
# Stress axis : x y z
#
# Youngs Moduli (GPa) = 82.91300 46.46115 84.23129
#
# Poissons Ratio (x) = 0.25559 0.33684
# Poissons Ratio (y) = 0.45612 -0.10789
# Poissons Ratio (z) = 0.33156 -0.05951
#
# Static dielectric constant tensor:
#      x y z
#    x 1.521710 0.000000 0.000000 
#    y 0.000000 1.774130 0.000000 
#    z 0.000000 0.000000 1.764550 
# 
# From -- ./inp_files/8969.got.cif
#   From: 2010.05.17/outbox.cif.g08.bks.cpg/sg54_5_cif.got.tgz:8969.got - 2010.06.03 13:09:01.
