data_PCOD9421195
_publ_section_title
;
Structure prediction by ZEFSAII (Michael W. Deem and Ramdas Pophale) SiO2 
 PCOD9421195
Probable space group: P C C A
;
_chemical_formula_sum "Si O2"
_cell_formula_units_Z 40
_cell_length_a 9.619387
_cell_length_b 12.404854
_cell_length_c 15.006502
_cell_angle_alpha 90.000000
_cell_angle_beta 90.000000
_cell_angle_gamma 90.000000
_cell_volume 1790.682234
_symmetry_space_group_name_H-M "P C C A"
_symmetry_group_IT_number 54
_symmetry_cell_setting 'orthorhombic'
loop_
_space_group_symop_operation_xyz
x,y,z
1/2-x,-y,z
1/2+x,-y,1/2-z
-x,y,1/2-z
-x,-y,-z
1/2+x,y,-z
1/2-x,y,1/2+z
x,-y,1/2+z
loop_
_atom_site_type_symbol
_atom_site_label
_atom_site_fract_x
_atom_site_fract_y
_atom_site_fract_z
Si Si1 0.781278 0.382678 0.388866
Si Si2 0.034019 0.706450 0.003584
Si Si3 0.790543 0.159147 0.305138
Si Si4 0.904266 0.897210 0.622047
Si Si5 0.500605 0.875175 0.858253
O O1 0.750000 0.500000 0.349901
O O2 0.656193 0.366809 0.458944
O O3 0.924714 0.356961 0.441773
O O4 0.772705 0.287420 0.316225
O O5 0.106959 0.806595 0.952303
O O6 0.963563 0.767155 0.088193
O O7 0.797317 0.123952 0.202511
O O8 0.668250 0.109331 0.364538
O O9 0.940586 0.127099 0.341089
O O10 0.917434 0.023735 0.601239
O O11 0.500000 0.867204 0.750000
#
# Coordination Sequence:
#
# PCOD9421195 Si02
#       5
#     8   8   8   8   8
#     4  10  21  42  64  84 121 155 204 259 305 344
#     4  10  23  38  61  92 119 158 206 247 301 372
#     4   9  20  36  57  85 116 158 198 244 291 362
#     4  10  19  37  59  85 121 159 195 237 302 367
#     4  11  21  34  58  87 129 158 192 242 305 357
#
# _framework density 22.337854
#
# number of rings (size 3 to 8) (size 9 to 14) (size 15 to 20)
#    0.000    2.000    2.000    1.800    2.800    0.000 
#    0.000    3.000   35.200    0.000    0.000    0.000 
#    0.000    0.000    0.000    0.000    0.000    0.000 
#
# Total GULP energy -223195.149423 kJ/mol
# GULP energy per Si atom -5579.878736 kJ/mol
# Density = 2.228701 g / cm^3
# Si number density = 22.337854 Si / 1000 Ang^3
#
#
#
# Elastic Constant Matrix: (Units=GPa)
#
#
# Indices 1 2 3 4 5 6 
#
# 1 69.2830 20.6347 -1.0308 0.0000 0.0000 0.0000
# 2 20.6347 78.3727 -5.6786 0.0000 0.0000 0.0000
# 3 -1.0308 -5.6786 35.0744 0.0000 0.0000 0.0000
# 4 0.0000 0.0000 0.0000 12.7575 0.0000 0.0000
# 5 0.0000 0.0000 0.0000 0.0000 22.3160 0.0000
# 6 0.0000 0.0000 0.0000 0.0000 0.0000 25.7982
#
#
#
# Elastic Compliance Matrix: (Units=1/GPa)
#
#
# Indices 1 2 3 4 5 6 
#
# 1 0.015663 -0.004139 -0.000210 0.000000 0.000000 0.000000
# 2 -0.004139 0.014005 0.002146 0.000000 0.000000 0.000000
# 3 -0.000210 0.002146 0.028852 0.000000 0.000000 0.000000
# 4 0.000000 0.000000 0.000000 0.078386 0.000000 0.000000
# 5 0.000000 0.000000 0.000000 0.000000 0.044811 0.000000
# 6 0.000000 0.000000 0.000000 0.000000 0.000000 0.038762
#
#
# Mechanical properties :
#
#
# Convention : Reuss Voigt Hill
#
# Bulk Modulus (GPa) = 18.47963 23.39785 20.93874
# Shear Modulus (GPa) = 20.58263 23.42798 22.00530
#
# Velocity S-wave (km/s) = 3.03879 3.24203 3.14206
# Velocity P-wave (km/s) = 4.53906 4.95092 4.74946
#
# Compressibility (1/GPa) = 0.05411365
#
# Stress axis : x y z
#
# Youngs Moduli (GPa) = 63.84388 71.40400 34.65955
#
# Poissons Ratio (x) = 0.29555 0.00727
# Poissons Ratio (y) = 0.26426 -0.07437
# Poissons Ratio (z) = 0.01340 -0.15321
#
# Static dielectric constant tensor:
#      x y z
#    x 1.912770 0.000000 0.000000 
#    y 0.000000 1.832070 0.000000 
#    z 0.000000 0.000000 1.880650 
# 
# From -- ./inp_files/12466.got.cif
#   From: 2010.05.17/outbox.cif.g08.bks.cpg/sg54_7_cif.got.tgz:12466.got - 2010.06.03 13:09:01.
