data_PCOD9421008
_publ_section_title
;
Structure prediction by ZEFSAII (Michael W. Deem and Ramdas Pophale) SiO2 
 PCOD9421008
Probable space group: P C C A
;
_chemical_formula_sum "Si O2"
_cell_formula_units_Z 60
_cell_length_a 20.750634
_cell_length_b 12.842203
_cell_length_c 12.618154
_cell_angle_alpha 90.000000
_cell_angle_beta 90.000000
_cell_angle_gamma 90.000000
_cell_volume 3362.534311
_symmetry_space_group_name_H-M "P C C A"
_symmetry_group_IT_number 54
_symmetry_cell_setting 'orthorhombic'
loop_
_space_group_symop_operation_xyz
x,y,z
1/2-x,-y,z
1/2+x,-y,1/2-z
-x,y,1/2-z
-x,-y,-z
1/2+x,y,-z
1/2-x,y,1/2+z
x,-y,1/2+z
loop_
_atom_site_type_symbol
_atom_site_label
_atom_site_fract_x
_atom_site_fract_y
_atom_site_fract_z
Si Si1 0.179843 0.827052 0.180896
Si Si2 0.250000 0.000000 0.806966
Si Si3 0.171790 0.175232 0.430764
Si Si4 0.119060 0.436623 0.201308
Si Si5 0.113787 0.348229 0.795673
Si Si6 0.741554 0.661697 0.205252
Si Si7 0.953718 0.261754 0.160666
Si Si8 0.538546 0.390820 0.995378
O O1 0.199638 0.935273 0.234944
O O2 0.122086 0.763147 0.238447
O O3 0.240310 0.750703 0.208051
O O4 0.169091 0.834218 0.056596
O O5 0.212056 0.918432 0.879965
O O6 0.206804 0.281619 0.392593
O O7 0.101586 0.185447 0.378896
O O8 0.099636 0.556500 0.217003
O O9 0.192422 0.415194 0.236541
O O10 0.077964 0.362109 0.279821
O O11 0.099632 0.405424 0.083066
O O12 0.187716 0.373253 0.832521
O O13 0.935629 0.354645 0.608638
O O14 0.993311 0.306588 0.061865
O O15 0.000000 0.213976 0.250000
O O16 0.500000 0.500000 0.000000
#
# Coordination Sequence:
#
# PCOD9421008 Si02
#       8
#     8   4   8   8   8   8   8   8
#     4   9  21  34  57  91 111 145 192 247 308 352
#     4  10  20  40  62  92 114 144 192 256 322 380
#     4  10  19  38  64  84 118 151 192 252 309 360
#     4  10  19  34  53  77 121 161 199 241 280 353
#     4  10  21  34  51  86 121 148 207 246 280 355
#     4   8  20  33  52  85 118 149 195 242 301 344
#     4   9  20  38  55  85 115 163 208 223 284 357
#     4  11  22  34  55  81 118 175 201 233 284 336
#
# _framework density 17.843682999999999
#
# number of rings (size 3 to 8) (size 9 to 14) (size 15 to 20)
#    0.800    1.600    1.333    0.800    3.733    0.000 
#    0.000    1.333    0.000    3.200    0.000    0.000 
#    0.000    0.000    0.000    0.000    0.000    0.000 
#
# Total GULP energy -334057.000826 kJ/mol
# GULP energy per Si atom -5567.616680 kJ/mol
# Density = 1.780307 g / cm^3
# Si number density = 17.843683 Si / 1000 Ang^3
#
#
#
# Elastic Constant Matrix: (Units=GPa)
#
#
# Indices 1 2 3 4 5 6 
#
# 1 63.5764 8.9510 31.3556 0.0000 0.0000 0.0000
# 2 8.9510 61.4679 35.8474 0.0000 0.0000 0.0000
# 3 31.3556 35.8474 93.4264 0.0000 0.0000 0.0000
# 4 0.0000 0.0000 0.0000 14.1593 0.0000 0.0000
# 5 0.0000 0.0000 0.0000 0.0000 28.1075 0.0000
# 6 0.0000 0.0000 0.0000 0.0000 0.0000 23.5660
#
#
#
# Elastic Compliance Matrix: (Units=1/GPa)
#
#
# Indices 1 2 3 4 5 6 
#
# 1 0.018920 0.001221 -0.006819 0.000000 0.000000 0.000000
# 2 0.001221 0.021037 -0.008482 0.000000 0.000000 0.000000
# 3 -0.006819 -0.008482 0.016246 0.000000 0.000000 0.000000
# 4 0.000000 0.000000 0.000000 0.070625 0.000000 0.000000
# 5 0.000000 0.000000 0.000000 0.000000 0.035578 0.000000
# 6 0.000000 0.000000 0.000000 0.000000 0.000000 0.042434
#
#
# Mechanical properties :
#
#
# Convention : Reuss Voigt Hill
#
# Bulk Modulus (GPa) = 35.65600 41.19760 38.42680
# Shear Modulus (GPa) = 20.63156 22.65435 21.64296
#
# Velocity S-wave (km/s) = 3.40404 3.56701 3.48648
# Velocity P-wave (km/s) = 5.95616 6.33269 6.14731
#
# Compressibility (1/GPa) = 0.02804577
#
# Stress axis : x y z
#
# Youngs Moduli (GPa) = 52.85411 47.53454 61.55174
#
# Poissons Ratio (x) = -0.05806 0.41969
# Poissons Ratio (y) = -0.06455 0.52207
# Poissons Ratio (z) = 0.36039 0.40318
#
# Static dielectric constant tensor:
#      x y z
#    x 1.640510 0.000000 0.000000 
#    y 0.000000 1.612240 0.000000 
#    z 0.000000 0.000000 1.582490 
# 
# From -- ./inp_files/9640.got.cif
#   From: 2010.05.17/outbox.cif.g08.bks.cpg/sg54_5_cif.got.tgz:9640.got - 2010.06.03 13:09:01.
