data_PCOD9421593
_publ_section_title
;
Structure prediction by ZEFSAII (Michael W. Deem and Ramdas Pophale) SiO2 
 PCOD9421593
Probable space group: P C C A
;
_chemical_formula_sum "Si O2"
_cell_formula_units_Z 64
_cell_length_a 8.915766
_cell_length_b 14.768898
_cell_length_c 22.371925
_cell_angle_alpha 90.000000
_cell_angle_beta 90.000000
_cell_angle_gamma 90.000000
_cell_volume 2945.846461
_symmetry_space_group_name_H-M "P C C A"
_symmetry_group_IT_number 54
_symmetry_cell_setting 'orthorhombic'
loop_
_space_group_symop_operation_xyz
x,y,z
1/2-x,-y,z
1/2+x,-y,1/2-z
-x,y,1/2-z
-x,-y,-z
1/2+x,y,-z
1/2-x,y,1/2+z
x,-y,1/2+z
loop_
_atom_site_type_symbol
_atom_site_label
_atom_site_fract_x
_atom_site_fract_y
_atom_site_fract_z
Si Si1 0.409431 0.027985 0.135094
Si Si2 0.411797 0.551002 0.566474
Si Si3 0.321897 0.787626 0.485981
Si Si4 0.626171 0.920078 0.198291
Si Si5 0.559993 0.905487 0.526024
Si Si6 0.556014 0.624591 0.064251
Si Si7 0.242572 0.292273 0.114618
Si Si8 0.160718 0.180875 0.727905
O O1 0.495613 0.095738 0.092597
O O2 0.372630 0.083169 0.195689
O O3 0.250000 0.000000 0.108580
O O4 0.516348 0.940849 0.142999
O O5 0.250000 0.500000 0.551557
O O6 0.468691 0.603050 0.506971
O O7 0.539802 0.479778 0.585910
O O8 0.359532 0.624016 0.614574
O O9 0.491451 0.822388 0.489010
O O10 0.231491 0.878092 0.469679
O O11 0.313390 0.700380 0.442389
O O12 0.282121 0.760350 0.553627
O O13 0.500000 0.923621 0.250000
O O14 0.727849 0.835000 0.216313
O O15 0.750000 0.000000 0.194838
O O16 0.500000 0.000000 0.500000
O O17 0.423621 0.670819 0.101856
O O18 0.262177 0.236893 0.175089
O O19 0.000000 0.215490 0.750000
#
# Coordination Sequence:
#
# PCOD9421593 Si02
#       8
#     8   8   8   8   8   8   8   8
#     4  12  23  41  63  82 115 171 225 280 329 377
#     4   8  16  32  62 100 130 169 200 247 316 406
#     4  11  21  39  57  88 130 170 214 254 305 394
#     4  12  20  38  61  86 111 150 226 296 327 366
#     4  12  26  40  54  85 132 177 217 252 321 391
#     4   9  17  34  61  95 132 165 206 249 312 397
#     4  10  20  36  62  89 131 167 203 262 337 391
#     4  12  23  40  61  87 119 162 219 285 335 367
#
# _framework density 21.725504000000001
#
# number of rings (size 3 to 8) (size 9 to 14) (size 15 to 20)
#    0.000    1.250    6.250    1.125    0.000    1.000 
#    2.250    0.000    0.000    0.000    0.000   13.125 
#    0.000    0.000    0.000    0.000    0.000    0.000 
#
# Total GULP energy -356286.656599 kJ/mol
# GULP energy per Si atom -5566.979009 kJ/mol
# Density = 2.167606 g / cm^3
# Si number density = 21.725504 Si / 1000 Ang^3
#
#
#
# Elastic Constant Matrix: (Units=GPa)
#
#
# Indices 1 2 3 4 5 6 
#
# 1 93.8165 25.8131 28.5560 0.0000 0.0000 0.0000
# 2 25.8131 82.4796 27.1150 0.0000 0.0000 0.0000
# 3 28.5560 27.1150 41.9036 0.0000 0.0000 0.0000
# 4 0.0000 0.0000 0.0000 18.9866 0.0000 0.0000
# 5 0.0000 0.0000 0.0000 0.0000 24.5637 0.0000
# 6 0.0000 0.0000 0.0000 0.0000 0.0000 25.5064
#
#
#
# Elastic Compliance Matrix: (Units=1/GPa)
#
#
# Indices 1 2 3 4 5 6 
#
# 1 0.013600 -0.001536 -0.008274 0.000000 0.000000 0.000000
# 2 -0.001536 0.015574 -0.009031 0.000000 0.000000 0.000000
# 3 -0.008274 -0.009031 0.035346 0.000000 0.000000 0.000000
# 4 0.000000 0.000000 0.000000 0.052669 0.000000 0.000000
# 5 0.000000 0.000000 0.000000 0.000000 0.040711 0.000000
# 6 0.000000 0.000000 0.000000 0.000000 0.000000 0.039206
#
#
# Mechanical properties :
#
#
# Convention : Reuss Voigt Hill
#
# Bulk Modulus (GPa) = 37.25982 42.35198 39.80590
# Shear Modulus (GPa) = 20.51420 22.92570 21.71995
#
# Velocity S-wave (km/s) = 3.07619 3.25198 3.16530
# Velocity P-wave (km/s) = 5.45937 5.79973 5.63213
#
# Compressibility (1/GPa) = 0.02683856
#
# Stress axis : x y z
#
# Youngs Moduli (GPa) = 73.52789 64.21035 28.29146
#
# Poissons Ratio (x) = 0.09865 0.23409
# Poissons Ratio (y) = 0.11296 0.25549
# Poissons Ratio (z) = 0.60837 0.57986
#
# Static dielectric constant tensor:
#      x y z
#    x 1.865300 0.000000 0.000000 
#    y 0.000000 1.870890 0.000000 
#    z 0.000000 0.000000 1.795730 
# 
# From -- ./inp_files/23674.got.cif
#   From: 2010.05.17/outbox.cif.g08.bks.cpg/sg54_12_cif.got.tgz:23674.got - 2010.06.03 13:09:01.
