data_PCOD9421744
_publ_section_title
;
Structure prediction by ZEFSAII (Michael W. Deem and Ramdas Pophale) SiO2 
 PCOD9421744
Probable space group: P C C A
;
_chemical_formula_sum "Si O2"
_cell_formula_units_Z 48
_cell_length_a 15.283173
_cell_length_b 8.199142
_cell_length_c 18.327256
_cell_angle_alpha 90.000000
_cell_angle_beta 90.000000
_cell_angle_gamma 90.000000
_cell_volume 2296.568393
_symmetry_space_group_name_H-M "P C C A"
_symmetry_group_IT_number 54
_symmetry_cell_setting 'orthorhombic'
loop_
_space_group_symop_operation_xyz
x,y,z
1/2-x,-y,z
1/2+x,-y,1/2-z
-x,y,1/2-z
-x,-y,-z
1/2+x,y,-z
1/2-x,y,1/2+z
x,-y,1/2+z
loop_
_atom_site_type_symbol
_atom_site_label
_atom_site_fract_x
_atom_site_fract_y
_atom_site_fract_z
Si Si1 0.656768 0.595991 0.149208
Si Si2 0.088304 0.717637 0.289704
Si Si3 0.261934 0.195993 0.566382
Si Si4 0.597801 0.842341 0.550482
Si Si5 0.589602 0.774626 0.006900
Si Si6 0.234130 0.807005 0.726006
O O1 0.750000 0.500000 0.137379
O O2 0.589092 0.467599 0.182892
O O3 0.615696 0.668558 0.076439
O O4 0.677258 0.736036 0.208288
O O5 0.108109 0.819779 0.363210
O O6 0.169620 0.732373 0.235587
O O7 0.000000 0.767996 0.250000
O O8 0.323963 0.232883 0.497781
O O9 0.164887 0.261523 0.552217
O O10 0.299774 0.239100 0.645500
O O11 0.250000 0.000000 0.568092
O O12 0.507178 0.759441 0.525390
O O13 0.595866 0.034453 0.531053
O O14 0.250000 0.000000 0.731563
#
# Coordination Sequence:
#
# PCOD9421744 Si02
#       6
#     8   8   8   8   8   8
#     4  10  22  38  56  82 118 159 195 232 290 355
#     4  11  23  39  56  83 122 157 191 236 290 348
#     4   9  18  34  58  87 115 142 184 242 293 337
#     4  10  21  37  62  88 112 149 197 246 292 341
#     4  10  20  38  60  86 115 148 197 248 290 340
#     4  10  20  38  63  86 111 151 196 239 290 343
#
# _framework density 20.900749999999999
#
# number of rings (size 3 to 8) (size 9 to 14) (size 15 to 20)
#    0.000    2.000    0.000    4.000    0.000    4.667 
#    0.000   10.833    0.000    0.000    0.000    0.000 
#    0.000    0.000    0.000    0.000    0.000    0.000 
#
# Total GULP energy -268027.270257 kJ/mol
# GULP energy per Si atom -5583.901464 kJ/mol
# Density = 2.085318 g / cm^3
# Si number density = 20.900750 Si / 1000 Ang^3
#
#
#
# Elastic Constant Matrix: (Units=GPa)
#
#
# Indices 1 2 3 4 5 6 
#
# 1 53.9690 -8.8346 11.5999 0.0000 0.0000 0.0000
# 2 -8.8346 34.7688 16.1034 0.0000 0.0000 0.0000
# 3 11.5999 16.1034 103.0288 0.0000 0.0000 0.0000
# 4 0.0000 0.0000 0.0000 -19.4882 0.0000 0.0000
# 5 0.0000 0.0000 0.0000 0.0000 26.6971 0.0000
# 6 0.0000 0.0000 0.0000 0.0000 0.0000 11.6482
#
#
#
# Elastic Compliance Matrix: (Units=1/GPa)
#
#
# Indices 1 2 3 4 5 6 
#
# 1 0.020347 0.006717 -0.003341 0.000000 0.000000 0.000000
# 2 0.006717 0.033224 -0.005949 0.000000 0.000000 0.000000
# 3 -0.003341 -0.005949 0.011012 0.000000 0.000000 0.000000
# 4 0.000000 0.000000 0.000000 -0.051313 0.000000 0.000000
# 5 0.000000 0.000000 0.000000 0.000000 0.037457 0.000000
# 6 0.000000 0.000000 0.000000 0.000000 0.000000 0.085850
#
#
# Mechanical properties :
#
#
# Convention : Reuss Voigt Hill
#
# Bulk Modulus (GPa) = 16.82447 25.50047 21.16247
# Shear Modulus (GPa) = 30.95323 15.29795 23.12559
#
# Velocity S-wave (km/s) = 3.85250 2.70836 3.32994
# Velocity P-wave (km/s) = 5.27790 4.69122 4.99318
#
# Compressibility (1/GPa) = 0.05943723
#
# Stress axis : x y z
#
# Youngs Moduli (GPa) = 49.14774 30.09910 90.81002
#
# Poissons Ratio (x) = -0.20218 0.30337
# Poissons Ratio (y) = -0.33014 0.54024
# Poissons Ratio (z) = 0.16419 0.17906
#
# Static dielectric constant tensor:
#      x y z
#    x 1.748130 0.000000 0.000000 
#    y 0.000000 1.801830 0.000000 
#    z 0.000000 0.000000 1.737810 
# 
# From -- ./inp_files/18024.got.cif
#   From: 2010.05.17/outbox.cif.g08.bks.cpg/sg54_10_cif.got.tgz:18024.got - 2010.06.03 13:09:01.
