data_PCOD9421937
_publ_section_title
;
Structure prediction by ZEFSAII (Michael W. Deem and Ramdas Pophale) SiO2 
 PCOD9421937
Probable space group: P C C A
;
_chemical_formula_sum "Si O2"
_cell_formula_units_Z 64
_cell_length_a 27.647561
_cell_length_b 8.864883
_cell_length_c 12.209303
_cell_angle_alpha 90.000000
_cell_angle_beta 90.000000
_cell_angle_gamma 90.000000
_cell_volume 2992.407295
_symmetry_space_group_name_H-M "P C C A"
_symmetry_group_IT_number 54
_symmetry_cell_setting 'orthorhombic'
loop_
_space_group_symop_operation_xyz
x,y,z
1/2-x,-y,z
1/2+x,-y,1/2-z
-x,y,1/2-z
-x,-y,-z
1/2+x,y,-z
1/2-x,y,1/2+z
x,-y,1/2+z
loop_
_atom_site_type_symbol
_atom_site_label
_atom_site_fract_x
_atom_site_fract_y
_atom_site_fract_z
Si Si1 0.285076 0.369364 0.505668
Si Si2 0.715564 0.123511 0.570486
Si Si3 0.070057 0.509530 0.985440
Si Si4 0.382045 0.031514 0.512487
Si Si5 0.660495 0.589434 0.134209
Si Si6 0.935954 0.228077 0.659100
Si Si7 0.458929 0.799199 0.590889
Si Si8 0.379957 0.310646 0.645405
O O1 0.250000 0.500000 0.548821
O O2 0.253968 0.217638 0.501746
O O3 0.306593 0.442159 0.391589
O O4 0.330702 0.344148 0.580623
O O5 0.693205 0.261127 0.638810
O O6 0.750000 0.000000 0.627547
O O7 0.669873 0.045582 0.510249
O O8 0.036312 0.645207 0.021046
O O9 0.076225 0.392913 0.084672
O O10 0.122431 0.588972 0.965686
O O11 0.062033 0.401248 0.882013
O O12 0.394188 0.143050 0.409848
O O13 0.384911 0.132067 0.623750
O O14 0.425093 0.911822 0.523879
O O15 0.627617 0.610959 0.239519
O O16 0.933442 0.225329 0.790314
O O17 0.986654 0.153032 0.621004
#
# Coordination Sequence:
#
# PCOD9421937 Si02
#       8
#     8   8   8   8   8   8   8   8
#     4   9  20  37  58  80 120 156 202 259 298 355
#     4  11  21  40  58  85 125 162 203 254 309 361
#     4  10  20  40  64  89 122 160 201 262 312 365
#     4  11  23  40  63  89 133 163 203 256 310 371
#     4  10  21  38  60  88 118 163 211 252 307 366
#     4  10  24  41  64  96 127 158 211 256 312 384
#     4  11  22  41  67  94 123 168 204 254 320 373
#     4  10  21  38  59  88 120 162 205 251 310 363
#
# _framework density 21.387460999999998
#
# number of rings (size 3 to 8) (size 9 to 14) (size 15 to 20)
#    0.000    1.750    2.500    1.500    1.750    1.500 
#    2.250    0.000    0.000    6.000    0.000    0.000 
#    0.000    0.000    0.000    0.000    0.000    0.000 
#
# Total GULP energy -356473.096823 kJ/mol
# GULP energy per Si atom -5569.892138 kJ/mol
# Density = 2.133878 g / cm^3
# Si number density = 21.387461 Si / 1000 Ang^3
#
#
#
# Elastic Constant Matrix: (Units=GPa)
#
#
# Indices 1 2 3 4 5 6 
#
# 1 55.2725 31.1916 3.2661 0.0000 0.0000 0.0000
# 2 31.1916 101.6569 26.1145 0.0000 0.0000 0.0000
# 3 3.2661 26.1145 51.3786 0.0000 0.0000 0.0000
# 4 0.0000 0.0000 0.0000 67.6755 0.0000 0.0000
# 5 0.0000 0.0000 0.0000 0.0000 17.1873 0.0000
# 6 0.0000 0.0000 0.0000 0.0000 0.0000 31.1359
#
#
#
# Elastic Compliance Matrix: (Units=1/GPa)
#
#
# Indices 1 2 3 4 5 6 
#
# 1 0.022125 -0.007393 0.002351 0.000000 0.000000 0.000000
# 2 -0.007393 0.013784 -0.006536 0.000000 0.000000 0.000000
# 3 0.002351 -0.006536 0.022636 0.000000 0.000000 0.000000
# 4 0.000000 0.000000 0.000000 0.014776 0.000000 0.000000
# 5 0.000000 0.000000 0.000000 0.000000 0.058182 0.000000
# 6 0.000000 0.000000 0.000000 0.000000 0.000000 0.032117
#
#
# Mechanical properties :
#
#
# Convention : Reuss Voigt Hill
#
# Bulk Modulus (GPa) = 28.25676 36.60583 32.43129
# Shear Modulus (GPa) = 25.17949 33.04880 29.11415
#
# Velocity S-wave (km/s) = 3.43491 3.93522 3.69354
# Velocity P-wave (km/s) = 5.38256 6.14822 5.77809
#
# Compressibility (1/GPa) = 0.03538976
#
# Stress axis : x y z
#
# Youngs Moduli (GPa) = 45.19754 72.54565 44.17711
#
# Poissons Ratio (x) = 0.53630 -0.10386
# Poissons Ratio (y) = 0.33413 0.28876
# Poissons Ratio (z) = -0.10626 0.47418
#
# Static dielectric constant tensor:
#      x y z
#    x 1.822170 0.000000 0.000000 
#    y 0.000000 1.679430 0.000000 
#    z 0.000000 0.000000 1.804720 
# 
# From -- ./inp_files/10545.got.cif
#   From: 2010.05.17/outbox.cif.g08.bks.cpg/sg54_6_cif.got.tgz:10545.got - 2010.06.03 13:09:01.
