data_PCOD9421443
_publ_section_title
;
Structure prediction by ZEFSAII (Michael W. Deem and Ramdas Pophale) SiO2 
 PCOD9421443
Probable space group: P C C A
;
_chemical_formula_sum "Si O2"
_cell_formula_units_Z 32
_cell_length_a 14.549524
_cell_length_b 8.851850
_cell_length_c 9.155100
_cell_angle_alpha 90.000000
_cell_angle_beta 90.000000
_cell_angle_gamma 90.000000
_cell_volume 1179.087197
_symmetry_space_group_name_H-M "P C C A"
_symmetry_group_IT_number 54
_symmetry_cell_setting 'orthorhombic'
loop_
_space_group_symop_operation_xyz
x,y,z
1/2-x,-y,z
1/2+x,-y,1/2-z
-x,y,1/2-z
-x,-y,-z
1/2+x,y,-z
1/2-x,y,1/2+z
x,-y,1/2+z
loop_
_atom_site_type_symbol
_atom_site_label
_atom_site_fract_x
_atom_site_fract_y
_atom_site_fract_z
Si Si1 0.374161 0.049694 0.109367
Si Si2 0.609307 0.296353 0.782812
Si Si3 0.250000 0.000000 0.342267
Si Si4 0.395693 0.524903 0.940032
Si Si5 0.000000 0.741620 0.250000
O O1 0.465253 0.147477 0.122541
O O2 0.385827 0.877894 0.165131
O O3 0.301497 0.110972 0.230061
O O4 0.328159 0.054310 0.952968
O O5 0.500000 0.316588 0.750000
O O6 0.647919 0.376763 0.634660
O O7 0.647421 0.391056 0.921513
O O8 0.417970 0.638888 0.807625
O O9 0.500000 0.500000 0.000000
#
# Coordination Sequence:
#
# PCOD9421443 Si02
#       5
#     8   8   4   8   4
#     4  11  24  42  68  95 127 169 219 264 317 380
#     4  10  20  37  61  96 127 160 204 267 314 367
#     4  10  26  44  58  94 140 172 198 270 330 378
#     4  10  20  35  56 101 133 152 191 280 323 357
#     4  12  22  36  74 102 118 162 226 268 312 376
#
# _framework density 27.139635999999999
#
# number of rings (size 3 to 8) (size 9 to 14) (size 15 to 20)
#    0.000    1.500    5.000    1.500    7.000    2.000 
#    0.000    0.000    0.000   25.500    0.000    0.000 
#    0.000    0.000    0.000    0.000    0.000    0.000 
#
# Total GULP energy -178705.154126 kJ/mol
# GULP energy per Si atom -5584.536066 kJ/mol
# Density = 2.707786 g / cm^3
# Si number density = 27.139636 Si / 1000 Ang^3
#
#
#
# Elastic Constant Matrix: (Units=GPa)
#
#
# Indices 1 2 3 4 5 6 
#
# 1 29.5512 10.3872 6.9338 0.0000 0.0000 0.0000
# 2 10.3872 153.5958 42.5945 0.0000 0.0000 0.0000
# 3 6.9338 42.5945 154.9014 0.0000 0.0000 0.0000
# 4 0.0000 0.0000 0.0000 21.8786 0.0000 0.0000
# 5 0.0000 0.0000 0.0000 0.0000 28.5656 0.0000
# 6 0.0000 0.0000 0.0000 0.0000 0.0000 15.0936
#
#
#
# Elastic Compliance Matrix: (Units=1/GPa)
#
#
# Indices 1 2 3 4 5 6 
#
# 1 0.034802 -0.002080 -0.000986 0.000000 0.000000 0.000000
# 2 -0.002080 0.007172 -0.001879 0.000000 0.000000 0.000000
# 3 -0.000986 -0.001879 0.007017 0.000000 0.000000 0.000000
# 4 0.000000 0.000000 0.000000 0.045707 0.000000 0.000000
# 5 0.000000 0.000000 0.000000 0.000000 0.035007 0.000000
# 6 0.000000 0.000000 0.000000 0.000000 0.000000 0.066253
#
#
# Mechanical properties :
#
#
# Convention : Reuss Voigt Hill
#
# Bulk Modulus (GPa) = 25.57495 50.87547 38.22521
# Shear Modulus (GPa) = 22.84335 31.64975 27.24655
#
# Velocity S-wave (km/s) = 2.90435 3.41865 3.17194
# Velocity P-wave (km/s) = 4.54873 5.86254 5.24692
#
# Compressibility (1/GPa) = 0.03910075
#
# Stress axis : x y z
#
# Youngs Moduli (GPa) = 28.73393 139.42370 142.51979
#
# Poissons Ratio (x) = 0.29002 0.14050
# Poissons Ratio (y) = 0.05977 0.26781
# Poissons Ratio (z) = 0.02833 0.26200
#
# Static dielectric constant tensor:
#      x y z
#    x 2.296490 0.000000 0.000000 
#    y 0.000000 2.221340 0.000000 
#    z 0.000000 0.000000 2.164890 
# 
# From -- ./inp_files/4491.got.cif
#   From: 2010.05.17/outbox.cif.g08.bks.cpg/sg54_3_cif.got.tgz:4491.got - 2010.06.03 13:09:01.
