data_PCOD9421342
_publ_section_title
;
Structure prediction by ZEFSAII (Michael W. Deem and Ramdas Pophale) SiO2 
 PCOD9421342
Probable space group: P C C A
;
_chemical_formula_sum "Si O2"
_cell_formula_units_Z 48
_cell_length_a 13.590013
_cell_length_b 8.149719
_cell_length_c 20.672896
_cell_angle_alpha 90.000000
_cell_angle_beta 90.000000
_cell_angle_gamma 90.000000
_cell_volume 2289.622196
_symmetry_space_group_name_H-M "P C C A"
_symmetry_group_IT_number 54
_symmetry_cell_setting 'orthorhombic'
loop_
_space_group_symop_operation_xyz
x,y,z
1/2-x,-y,z
1/2+x,-y,1/2-z
-x,y,1/2-z
-x,-y,-z
1/2+x,y,-z
1/2-x,y,1/2+z
x,-y,1/2+z
loop_
_atom_site_type_symbol
_atom_site_label
_atom_site_fract_x
_atom_site_fract_y
_atom_site_fract_z
Si Si1 0.038587 0.640641 0.117364
Si Si2 0.760071 0.701127 0.023956
Si Si3 0.678294 0.659294 0.662360
Si Si4 0.725240 0.301059 0.303435
Si Si5 0.612139 0.724734 0.398336
Si Si6 0.458493 0.823500 0.485083
O O1 0.126398 0.734819 0.154927
O O2 0.090345 0.467354 0.106300
O O3 0.011388 0.709265 0.046436
O O4 0.938613 0.621119 0.158713
O O5 0.750000 0.500000 0.020278
O O6 0.800380 0.746463 0.094465
O O7 0.826214 0.753778 0.963697
O O8 0.656314 0.789561 0.017300
O O9 0.750000 0.500000 0.660652
O O10 0.705123 0.745857 0.729485
O O11 0.750000 0.500000 0.303001
O O12 0.820296 0.223727 0.338486
O O13 0.504619 0.790684 0.414468
O O14 0.500000 0.000000 0.500000
#
# Coordination Sequence:
#
# PCOD9421342 Si02
#       6
#     8   8   8   8   8   8
#     4  11  19  37  62  86 122 155 197 246 300 363
#     4  11  19  36  61  89 119 149 198 247 301 360
#     4  10  20  32  56  92 121 148 193 249 299 350
#     4   9  19  34  57  89 119 153 193 243 299 356
#     4  11  19  37  63  86 118 157 200 243 301 366
#     4  12  25  37  57  92 119 152 203 258 305 351
#
# _framework density 20.964158999999999
#
# number of rings (size 3 to 8) (size 9 to 14) (size 15 to 20)
#    0.000    1.333    5.000    3.500    0.000    0.667 
#    0.000    2.500    0.000    6.000    0.000    0.000 
#    0.000    0.000    0.000    0.000    0.000    0.000 
#
# Total GULP energy -267497.788373 kJ/mol
# GULP energy per Si atom -5572.870591 kJ/mol
# Density = 2.091644 g / cm^3
# Si number density = 20.964159 Si / 1000 Ang^3
#
#
#
# Elastic Constant Matrix: (Units=GPa)
#
#
# Indices 1 2 3 4 5 6 
#
# 1 112.9864 16.6153 42.2089 0.0000 0.0000 0.0000
# 2 16.6153 17.8509 -5.2833 0.0000 0.0000 0.0000
# 3 42.2089 -5.2833 120.4423 0.0000 0.0000 0.0000
# 4 0.0000 0.0000 0.0000 -8.0085 0.0000 0.0000
# 5 0.0000 0.0000 0.0000 0.0000 10.9904 0.0000
# 6 0.0000 0.0000 0.0000 0.0000 0.0000 16.3733
#
#
#
# Elastic Compliance Matrix: (Units=1/GPa)
#
#
# Indices 1 2 3 4 5 6 
#
# 1 0.012684 -0.013294 -0.005028 0.000000 0.000000 0.000000
# 2 -0.013294 0.070691 0.007760 0.000000 0.000000 0.000000
# 3 -0.005028 0.007760 0.010405 0.000000 0.000000 0.000000
# 4 0.000000 0.000000 0.000000 -0.124867 0.000000 0.000000
# 5 0.000000 0.000000 0.000000 0.000000 0.090988 0.000000
# 6 0.000000 0.000000 0.000000 0.000000 0.000000 0.061075
#
#
# Mechanical properties :
#
#
# Convention : Reuss Voigt Hill
#
# Bulk Modulus (GPa) = 13.76379 39.81791 26.79085
# Shear Modulus (GPa) = 30.06255 17.05362 23.55809
#
# Velocity S-wave (km/s) = 3.79092 2.85523 3.35585
# Velocity P-wave (km/s) = 5.07357 5.46848 5.27472
#
# Compressibility (1/GPa) = 0.07265439
#
# Stress axis : x y z
#
# Youngs Moduli (GPa) = 78.83913 14.14617 96.10507
#
# Poissons Ratio (x) = 0.18806 0.48324
# Poissons Ratio (y) = 1.04811 -0.74576
# Poissons Ratio (z) = 0.39642 -0.10977
#
# Static dielectric constant tensor:
#      x y z
#    x 2.191520 0.000000 0.000000 
#    y 0.000000 1.727820 0.000000 
#    z 0.000000 0.000000 1.835550 
# 
# From -- ./inp_files/21462.got.cif
#   From: 2010.05.17/outbox.cif.g08.bks.cpg/sg54_11_cif.got.tgz:21462.got - 2010.06.03 13:09:01.
