data_PCOD9421528
_publ_section_title
;
Structure prediction by ZEFSAII (Michael W. Deem and Ramdas Pophale) SiO2 
 PCOD9421528
Probable space group: P C C A
;
_chemical_formula_sum "Si O2"
_cell_formula_units_Z 36
_cell_length_a 9.452793
_cell_length_b 13.220210
_cell_length_c 12.073263
_cell_angle_alpha 90.000000
_cell_angle_beta 90.000000
_cell_angle_gamma 90.000000
_cell_volume 1508.770426
_symmetry_space_group_name_H-M "P C C A"
_symmetry_group_IT_number 54
_symmetry_cell_setting 'orthorhombic'
loop_
_space_group_symop_operation_xyz
x,y,z
1/2-x,-y,z
1/2+x,-y,1/2-z
-x,y,1/2-z
-x,-y,-z
1/2+x,y,-z
1/2-x,y,1/2+z
x,-y,1/2+z
loop_
_atom_site_type_symbol
_atom_site_label
_atom_site_fract_x
_atom_site_fract_y
_atom_site_fract_z
Si Si1 0.250000 0.000000 0.401780
Si Si2 0.440806 0.355798 0.934457
Si Si3 0.199677 0.337676 0.199634
Si Si4 0.000000 0.035557 0.750000
Si Si5 0.837163 0.832321 0.430818
Si Si6 0.750000 0.500000 0.916236
O O1 0.379866 0.979287 0.318894
O O2 0.248144 0.096771 0.483616
O O3 0.601019 0.389024 0.899127
O O4 0.370658 0.330082 0.816629
O O5 0.430406 0.252565 0.005740
O O6 0.350249 0.440613 0.991508
O O7 0.234932 0.230413 0.149397
O O8 0.317093 0.421533 0.187001
O O9 0.929085 0.101100 0.847416
#
# Coordination Sequence:
#
# PCOD9421528 Si02
#       6
#     4   8   8   4   8   4
#     4  12  26  46  70 100 136 174 224 282 344 416
#     4  10  21  37  60  88 123 164 211 266 324 393
#     4  10  21  38  59  87 122 165 211 263 327 390
#     4  12  26  44  70 100 132 180 226 280 348 412
#     4  11  24  42  64  93 129 169 218 274 333 402
#     4  10  20  36  58  88 122 162 210 266 328 396
#
# _framework density 23.860486999999999
#
# number of rings (size 3 to 8) (size 9 to 14) (size 15 to 20)
#    0.000    1.333    0.000    5.333    0.000    5.333 
#    0.000    8.889    0.000    0.000    0.000    0.000 
#    0.000    0.000    0.000    0.000    0.000    0.000 
#
# Total GULP energy -200496.178808 kJ/mol
# GULP energy per Si atom -5569.338300 kJ/mol
# Density = 2.380618 g / cm^3
# Si number density = 23.860487 Si / 1000 Ang^3
#
#
#
# Elastic Constant Matrix: (Units=GPa)
#
#
# Indices 1 2 3 4 5 6 
#
# 1 46.9976 -2.4800 25.7530 0.0000 0.0000 0.0000
# 2 -2.4800 73.9230 17.0381 0.0000 0.0000 0.0000
# 3 25.7530 17.0381 134.5723 0.0000 0.0000 0.0000
# 4 0.0000 0.0000 0.0000 22.4553 0.0000 0.0000
# 5 0.0000 0.0000 0.0000 0.0000 50.0931 0.0000
# 6 0.0000 0.0000 0.0000 0.0000 0.0000 15.9171
#
#
#
# Elastic Compliance Matrix: (Units=1/GPa)
#
#
# Indices 1 2 3 4 5 6 
#
# 1 0.024033 0.001922 -0.004843 0.000000 0.000000 0.000000
# 2 0.001922 0.014088 -0.002152 0.000000 0.000000 0.000000
# 3 -0.004843 -0.002152 0.008630 0.000000 0.000000 0.000000
# 4 0.000000 0.000000 0.000000 0.044533 0.000000 0.000000
# 5 0.000000 0.000000 0.000000 0.000000 0.019963 0.000000
# 6 0.000000 0.000000 0.000000 0.000000 0.000000 0.062826
#
#
# Mechanical properties :
#
#
# Convention : Reuss Voigt Hill
#
# Bulk Modulus (GPa) = 27.31691 37.34611 32.33151
# Shear Modulus (GPa) = 25.45592 32.03853 28.74723
#
# Velocity S-wave (km/s) = 3.26983 3.66832 3.47480
# Velocity P-wave (km/s) = 5.07240 5.79896 5.44781
#
# Compressibility (1/GPa) = 0.03660736
#
# Stress axis : x y z
#
# Youngs Moduli (GPa) = 41.61004 70.98244 115.87398
#
# Poissons Ratio (x) = -0.13646 0.56112
# Poissons Ratio (y) = -0.07999 0.24931
# Poissons Ratio (z) = 0.20150 0.15272
#
# Static dielectric constant tensor:
#      x y z
#    x 2.170260 0.000000 0.000000 
#    y 0.000000 -4.893320 0.000000 
#    z 0.000000 0.000000 1.863500 
# 
# From -- ./inp_files/7439.got.cif
#   From: 2010.05.17/outbox.cif.g08.bks.cpg/sg54_4_cif.got.tgz:7439.got - 2010.06.03 13:09:01.
