data_PCOD9421997
_publ_section_title
;
Structure prediction by ZEFSAII (Michael W. Deem and Ramdas Pophale) SiO2 
 PCOD9421997
Probable space group: P C C A
;
_chemical_formula_sum "Si O2"
_cell_formula_units_Z 48
_cell_length_a 29.787882
_cell_length_b 9.267171
_cell_length_c 9.413017
_cell_angle_alpha 90.000000
_cell_angle_beta 90.000000
_cell_angle_gamma 90.000000
_cell_volume 2598.457659
_symmetry_space_group_name_H-M "P C C A"
_symmetry_group_IT_number 54
_symmetry_cell_setting 'orthorhombic'
loop_
_space_group_symop_operation_xyz
x,y,z
1/2-x,-y,z
1/2+x,-y,1/2-z
-x,y,1/2-z
-x,-y,-z
1/2+x,y,-z
1/2-x,y,1/2+z
x,-y,1/2+z
loop_
_atom_site_type_symbol
_atom_site_label
_atom_site_fract_x
_atom_site_fract_y
_atom_site_fract_z
Si Si1 0.703996 0.848161 0.571806
Si Si2 0.530382 0.174342 0.111715
Si Si3 0.617546 0.644886 0.563183
Si Si4 0.535028 0.154887 0.622733
Si Si5 0.794015 0.849369 0.731094
Si Si6 0.881559 0.343911 0.225839
O O1 0.662352 0.739831 0.587205
O O2 0.748836 0.795154 0.652947
O O3 0.712136 0.869594 0.401900
O O4 0.694643 0.999973 0.651573
O O5 0.500000 0.169703 0.250000
O O6 0.574434 0.269630 0.121542
O O7 0.545421 0.009666 0.074206
O O8 0.495174 0.230548 0.995757
O O9 0.611432 0.628754 0.393525
O O10 0.620323 0.491904 0.639728
O O11 0.500000 0.141328 0.750000
O O12 0.578544 0.242408 0.667953
O O13 0.834871 0.740709 0.710671
#
# Coordination Sequence:
#
# PCOD9421997 Si02
#       6
#     8   8   8   8   8   8
#     4  10  21  40  65  91 119 150 196 245 292 350
#     4  10  22  39  63  90 114 154 200 246 297 346
#     4  11  25  41  57  87 123 159 198 237 295 352
#     4  10  20  41  63  85 119 151 198 248 291 344
#     4  10  21  40  64  92 118 151 196 244 294 346
#     4  11  25  40  59  86 122 160 196 241 291 353
#
# _framework density 18.472498000000002
#
# number of rings (size 3 to 8) (size 9 to 14) (size 15 to 20)
#    0.000    1.667    1.667    3.000    2.333    4.667 
#    0.000    3.333    0.000    0.000    0.000    0.000 
#    0.000    0.000    0.000    0.000    0.000    0.000 
#
# Total GULP energy -267852.673288 kJ/mol
# GULP energy per Si atom -5580.264027 kJ/mol
# Density = 1.843045 g / cm^3
# Si number density = 18.472498 Si / 1000 Ang^3
#
#
#
# Elastic Constant Matrix: (Units=GPa)
#
#
# Indices 1 2 3 4 5 6 
#
# 1 155.1452 93.5939 70.3623 0.0000 0.0000 0.0000
# 2 93.5939 96.5225 47.9745 0.0000 0.0000 0.0000
# 3 70.3623 47.9745 100.3691 0.0000 0.0000 0.0000
# 4 0.0000 0.0000 0.0000 30.4561 0.0000 0.0000
# 5 0.0000 0.0000 0.0000 0.0000 29.6033 0.0000
# 6 0.0000 0.0000 0.0000 0.0000 0.0000 -9.4384
#
#
#
# Elastic Compliance Matrix: (Units=1/GPa)
#
#
# Indices 1 2 3 4 5 6 
#
# 1 0.017556 -0.014304 -0.005470 0.000000 0.000000 0.000000
# 2 -0.014304 0.025244 -0.002038 0.000000 0.000000 0.000000
# 3 -0.005470 -0.002038 0.014772 0.000000 0.000000 0.000000
# 4 0.000000 0.000000 0.000000 0.032834 0.000000 0.000000
# 5 0.000000 0.000000 0.000000 0.000000 0.033780 0.000000
# 6 0.000000 0.000000 0.000000 0.000000 0.000000 -0.105950
#
#
# Mechanical properties :
#
#
# Convention : Reuss Voigt Hill
#
# Bulk Modulus (GPa) = 71.70245 86.21090 78.95668
# Shear Modulus (GPa) = 75.17793 19.46459 47.32126
#
# Velocity S-wave (km/s) = 6.38636 3.24961 5.06683
# Velocity P-wave (km/s) = 9.65820 7.80071 8.77872
#
# Compressibility (1/GPa) = 0.01394653
#
# Stress axis : x y z
#
# Youngs Moduli (GPa) = 56.96181 39.61409 67.69540
#
# Poissons Ratio (x) = 0.56665 0.37029
# Poissons Ratio (y) = 0.81480 0.13797
# Poissons Ratio (z) = 0.31158 0.08074
#
# Static dielectric constant tensor:
#      x y z
#    x 1.608520 0.000000 0.000000 
#    y 0.000000 1.621380 0.000000 
#    z 0.000000 0.000000 1.608860 
# 
# From -- ./inp_files/5847.got.cif
#   From: 2010.05.17/outbox.cif.g08.bks.cpg/sg54_3_cif.got.tgz:5847.got - 2010.06.03 13:09:01.
