data_PCOD9421699
_publ_section_title
;
Structure prediction by ZEFSAII (Michael W. Deem and Ramdas Pophale) SiO2 
 PCOD9421699
Probable space group: P C C A
;
_chemical_formula_sum "Si O2"
_cell_formula_units_Z 64
_cell_length_a 14.295876
_cell_length_b 9.176398
_cell_length_c 25.115743
_cell_angle_alpha 90.000000
_cell_angle_beta 90.000000
_cell_angle_gamma 90.000000
_cell_volume 3294.799903
_symmetry_space_group_name_H-M "P C C A"
_symmetry_group_IT_number 54
_symmetry_cell_setting 'orthorhombic'
loop_
_space_group_symop_operation_xyz
x,y,z
1/2-x,-y,z
1/2+x,-y,1/2-z
-x,y,1/2-z
-x,-y,-z
1/2+x,y,-z
1/2-x,y,1/2+z
x,-y,1/2+z
loop_
_atom_site_type_symbol
_atom_site_label
_atom_site_fract_x
_atom_site_fract_y
_atom_site_fract_z
Si Si1 0.755215 0.325166 0.357616
Si Si2 0.859184 0.488446 0.542586
Si Si3 0.074541 0.610478 0.341855
Si Si4 0.267076 0.325361 0.264313
Si Si5 0.938299 0.858586 0.884024
Si Si6 0.936974 0.714483 0.698907
Si Si7 0.500591 0.734709 0.490911
Si Si8 0.078064 0.810949 0.104198
O O1 0.750000 0.500000 0.361522
O O2 0.724553 0.283128 0.297348
O O3 0.855845 0.254301 0.368669
O O4 0.680251 0.258881 0.397705
O O5 0.750000 0.500000 0.530119
O O6 0.872256 0.434920 0.603598
O O7 0.914444 0.374169 0.505670
O O8 0.916020 0.637907 0.533311
O O9 0.143212 0.695138 0.301606
O O10 0.047076 0.456503 0.315196
O O11 0.986658 0.707589 0.359013
O O12 0.250000 0.500000 0.264400
O O13 0.171736 0.261506 0.288339
O O14 0.963019 0.841026 0.945760
O O15 0.026988 0.810230 0.849563
O O16 0.914005 0.025977 0.874012
O O17 0.000000 0.748755 0.750000
O O18 0.467193 0.806064 0.545701
#
# Coordination Sequence:
#
# PCOD9421699 Si02
#       8
#     8   8   8   8   8   8   8   8
#     4  11  24  41  67  95 122 162 214 259 308 374
#     4  10  20  37  64 100 119 153 217 272 302 360
#     4  10  21  39  64  92 124 161 211 263 311 371
#     4   9  20  37  63  95 123 159 205 261 315 363
#     4  12  24  44  62  90 131 169 204 260 325 383
#     4  11  20  38  65  93 122 163 211 260 308 370
#     4  10  24  39  64  90 126 168 210 259 320 374
#     4  11  26  43  60  92 129 168 208 258 323 388
#
# _framework density 19.424548000000001
#
# number of rings (size 3 to 8) (size 9 to 14) (size 15 to 20)
#    0.000    1.500    2.500    2.625    8.750    0.000 
#    2.250    0.625    0.000    0.000    0.000    0.000 
#    0.000    0.000    0.000    0.000    0.000    0.000 
#
# Total GULP energy -357548.796216 kJ/mol
# GULP energy per Si atom -5586.699941 kJ/mol
# Density = 1.938034 g / cm^3
# Si number density = 19.424548 Si / 1000 Ang^3
#
#
#
# Elastic Constant Matrix: (Units=GPa)
#
#
# Indices 1 2 3 4 5 6 
#
# 1 75.7231 9.6672 3.8428 0.0000 0.0000 0.0000
# 2 9.6672 71.8016 -1.0249 0.0000 0.0000 0.0000
# 3 3.8428 -1.0249 60.8176 0.0000 0.0000 0.0000
# 4 0.0000 0.0000 0.0000 1.6420 0.0000 0.0000
# 5 0.0000 0.0000 0.0000 0.0000 18.3165 0.0000
# 6 0.0000 0.0000 0.0000 0.0000 0.0000 0.2171
#
#
#
# Elastic Compliance Matrix: (Units=1/GPa)
#
#
# Indices 1 2 3 4 5 6 
#
# 1 0.013484 -0.001828 -0.000883 0.000000 0.000000 0.000000
# 2 -0.001828 0.014178 0.000354 0.000000 0.000000 0.000000
# 3 -0.000883 0.000354 0.016504 0.000000 0.000000 0.000000
# 4 0.000000 0.000000 0.000000 0.609000 0.000000 0.000000
# 5 0.000000 0.000000 0.000000 0.000000 0.054596 0.000000
# 6 0.000000 0.000000 0.000000 0.000000 0.000000 4.605656
#
#
# Mechanical properties :
#
#
# Convention : Reuss Voigt Hill
#
# Bulk Modulus (GPa) = 25.34589 25.92360 25.63475
# Shear Modulus (GPa) = 0.93786 17.09228 9.01507
#
# Velocity S-wave (km/s) = 0.69561 2.96958 2.15665
# Velocity P-wave (km/s) = 3.70430 5.01325 4.40764
#
# Compressibility (1/GPa) = 0.03945413
#
# Stress axis : x y z
#
# Youngs Moduli (GPa) = 74.16092 70.52956 60.58999
#
# Poissons Ratio (x) = 0.12893 0.05349
# Poissons Ratio (y) = 0.13557 -0.02148
# Poissons Ratio (z) = 0.06547 -0.02500
#
# Static dielectric constant tensor:
#      x y z
#    x 1.656480 0.000000 0.000000 
#    y 0.000000 1.656120 0.000000 
#    z 0.000000 0.000000 1.690910 
# 
# From -- ./inp_files/24522.got.cif
#   From: 2010.05.17/outbox.cif.g08.bks.cpg/sg54_13_cif.got.tgz:24522.got - 2010.06.03 13:09:01.
