data_PCOD9421693
_publ_section_title
;
Structure prediction by ZEFSAII (Michael W. Deem and Ramdas Pophale) SiO2 
 PCOD9421693
Probable space group: P C C A
;
_chemical_formula_sum "Si O2"
_cell_formula_units_Z 48
_cell_length_a 8.319921
_cell_length_b 16.036801
_cell_length_c 17.195895
_cell_angle_alpha 90.000000
_cell_angle_beta 90.000000
_cell_angle_gamma 90.000000
_cell_volume 2294.360870
_symmetry_space_group_name_H-M "P C C A"
_symmetry_group_IT_number 54
_symmetry_cell_setting 'orthorhombic'
loop_
_space_group_symop_operation_xyz
x,y,z
1/2-x,-y,z
1/2+x,-y,1/2-z
-x,y,1/2-z
-x,-y,-z
1/2+x,y,-z
1/2-x,y,1/2+z
x,-y,1/2+z
loop_
_atom_site_type_symbol
_atom_site_label
_atom_site_fract_x
_atom_site_fract_y
_atom_site_fract_z
Si Si1 0.439136 0.329534 0.095223
Si Si2 0.435727 0.518743 0.832245
Si Si3 0.000000 0.100582 0.250000
Si Si4 0.567428 0.625063 0.426977
Si Si5 0.692140 0.162050 0.442817
Si Si6 0.942460 0.793375 0.607001
Si Si7 0.750000 0.000000 0.355752
O O1 0.525020 0.383710 0.160178
O O2 0.253908 0.358811 0.089812
O O3 0.424240 0.229755 0.098466
O O4 0.530680 0.355312 0.016454
O O5 0.250000 0.500000 0.839031
O O6 0.500000 0.487107 0.750000
O O7 0.523281 0.466890 0.899844
O O8 0.089745 0.159450 0.312776
O O9 0.878397 0.044997 0.300158
O O10 0.453747 0.693467 0.383920
O O11 0.666956 0.177699 0.534743
O O12 0.875739 0.183179 0.420165
O O13 0.666964 0.069222 0.411058
#
# Coordination Sequence:
#
# PCOD9421693 Si02
#       7
#     8   8   4   8   8   8   4
#     4  10  20  39  60  88 118 157 207 254 300 364
#     4  12  25  40  57  87 122 161 203 251 309 366
#     4  10  22  38  56  90 118 154 194 256 316 366
#     4  10  20  37  63  84 117 157 202 250 299 363
#     4   9  20  38  61  87 120 158 204 252 299 377
#     4   9  20  37  61  88 118 156 204 249 306 361
#     4  10  22  40  58  88 126 158 208 252 316 376
#
# _framework density 20.920857999999999
#
# number of rings (size 3 to 8) (size 9 to 14) (size 15 to 20)
#    0.000    2.000    0.000    3.000    1.167    6.000 
#    4.500    0.000    0.000    0.000    0.000    0.000 
#    0.000    0.000    0.000    0.000    0.000    0.000 
#
# Total GULP energy -268029.167992 kJ/mol
# GULP energy per Si atom -5583.941000 kJ/mol
# Density = 2.087324 g / cm^3
# Si number density = 20.920858 Si / 1000 Ang^3
#
#
#
# Elastic Constant Matrix: (Units=GPa)
#
#
# Indices 1 2 3 4 5 6 
#
# 1 54.7793 19.3366 12.8883 0.0000 0.0000 0.0000
# 2 19.3366 129.0112 45.4257 0.0000 0.0000 0.0000
# 3 12.8883 45.4257 57.0020 0.0000 0.0000 0.0000
# 4 0.0000 0.0000 0.0000 35.5705 0.0000 0.0000
# 5 0.0000 0.0000 0.0000 0.0000 19.7379 0.0000
# 6 0.0000 0.0000 0.0000 0.0000 0.0000 13.4021
#
#
#
# Elastic Compliance Matrix: (Units=1/GPa)
#
#
# Indices 1 2 3 4 5 6 
#
# 1 0.019616 -0.001916 -0.002908 0.000000 0.000000 0.000000
# 2 -0.001916 0.010962 -0.008302 0.000000 0.000000 0.000000
# 3 -0.002908 -0.008302 0.024817 0.000000 0.000000 0.000000
# 4 0.000000 0.000000 0.000000 0.028113 0.000000 0.000000
# 5 0.000000 0.000000 0.000000 0.000000 0.050664 0.000000
# 6 0.000000 0.000000 0.000000 0.000000 0.000000 0.074615
#
#
# Mechanical properties :
#
#
# Convention : Reuss Voigt Hill
#
# Bulk Modulus (GPa) = 34.31567 44.01041 39.16304
# Shear Modulus (GPa) = 20.42868 24.61822 22.52345
#
# Velocity S-wave (km/s) = 3.12825 3.43407 3.28472
# Velocity P-wave (km/s) = 5.43011 6.06680 5.75727
#
# Compressibility (1/GPa) = 0.02914121
#
# Stress axis : x y z
#
# Youngs Moduli (GPa) = 50.97964 91.22622 40.29486
#
# Poissons Ratio (x) = 0.17479 0.11719
# Poissons Ratio (y) = 0.09768 0.33454
# Poissons Ratio (z) = 0.14826 0.75739
#
# Static dielectric constant tensor:
#      x y z
#    x 1.729930 0.000000 0.000000 
#    y 0.000000 1.822020 0.000000 
#    z 0.000000 0.000000 1.736220 
# 
# From -- ./inp_files/16683.got.cif
#   From: 2010.05.17/outbox.cif.g08.bks.cpg/sg54_9_cif.got.tgz:16683.got - 2010.06.03 13:09:01.
