data_PCOD9421258
_publ_section_title
;
Structure prediction by ZEFSAII (Michael W. Deem and Ramdas Pophale) SiO2 
 PCOD9421258
Probable space group: P C C A
;
_chemical_formula_sum "Si O2"
_cell_formula_units_Z 56
_cell_length_a 14.882298
_cell_length_b 13.905543
_cell_length_c 13.775802
_cell_angle_alpha 90.000000
_cell_angle_beta 90.000000
_cell_angle_gamma 90.000000
_cell_volume 2850.853110
_symmetry_space_group_name_H-M "P C C A"
_symmetry_group_IT_number 54
_symmetry_cell_setting 'orthorhombic'
loop_
_space_group_symop_operation_xyz
x,y,z
1/2-x,-y,z
1/2+x,-y,1/2-z
-x,y,1/2-z
-x,-y,-z
1/2+x,y,-z
1/2-x,y,1/2+z
x,-y,1/2+z
loop_
_atom_site_type_symbol
_atom_site_label
_atom_site_fract_x
_atom_site_fract_y
_atom_site_fract_z
Si Si1 0.299245 0.233510 0.975985
Si Si2 0.486327 0.561449 0.134139
Si Si3 0.684574 0.910545 0.856763
Si Si4 0.985792 0.778791 0.633788
Si Si5 0.847656 0.454834 0.997448
Si Si6 0.994674 0.010537 0.367550
Si Si7 0.681258 0.912343 0.626145
O O1 0.382445 0.211202 0.902018
O O2 0.321292 0.342916 0.002273
O O3 0.212498 0.186931 0.923135
O O4 0.293795 0.180026 0.078685
O O5 0.500000 0.556830 0.250000
O O6 0.476497 0.674482 0.102344
O O7 0.579309 0.528402 0.083157
O O8 0.402623 0.498771 0.094535
O O9 0.587069 0.942777 0.891381
O O10 0.683950 0.893817 0.741829
O O11 0.750000 0.000000 0.874382
O O12 0.000000 0.777055 0.750000
O O13 0.025361 0.880538 0.599605
O O14 0.750000 0.500000 0.011023
O O15 0.085790 0.959123 0.399315
O O16 0.000000 0.016243 0.250000
O O17 0.750000 0.000000 0.604856
#
# Coordination Sequence:
#
# PCOD9421258 Si02
#       7
#     8   8   8   8   8   8   8
#     4  11  22  41  58  89 124 158 206 259 306 371
#     4   9  20  43  67  92 127 165 205 272 331 376
#     4  10  23  37  56  89 126 162 205 251 297 365
#     4   9  18  34  63  89 116 161 209 242 301 377
#     4  10  23  44  63  94 126 157 218 270 317 391
#     4   9  18  35  57  85 121 163 202 242 295 364
#     4  10  19  39  59  83 128 164 200 253 298 363
#
# _framework density 19.643242000000001
#
# number of rings (size 3 to 8) (size 9 to 14) (size 15 to 20)
#    0.000    2.286    1.429    0.429    2.000    2.286 
#   15.429    0.714    0.000    0.000    0.000    0.000 
#    0.000    0.000    0.000    0.000    0.000    0.000 
#
# Total GULP energy -311941.471729 kJ/mol
# GULP energy per Si atom -5570.383424 kJ/mol
# Density = 1.959853 g / cm^3
# Si number density = 19.643242 Si / 1000 Ang^3
#
#
#
# Elastic Constant Matrix: (Units=GPa)
#
#
# Indices 1 2 3 4 5 6 
#
# 1 91.4948 49.9382 21.1673 0.0000 0.0000 0.0000
# 2 49.9382 109.5329 46.1084 0.0000 0.0000 0.0000
# 3 21.1673 46.1084 100.2908 0.0000 0.0000 0.0000
# 4 0.0000 0.0000 0.0000 19.8801 0.0000 0.0000
# 5 0.0000 0.0000 0.0000 0.0000 37.0536 0.0000
# 6 0.0000 0.0000 0.0000 0.0000 0.0000 4.6884
#
#
#
# Elastic Compliance Matrix: (Units=1/GPa)
#
#
# Indices 1 2 3 4 5 6 
#
# 1 0.014550 -0.006623 -0.000026 0.000000 0.000000 0.000000
# 2 -0.006623 0.014335 -0.005193 0.000000 0.000000 0.000000
# 3 -0.000026 -0.005193 0.012364 0.000000 0.000000 0.000000
# 4 0.000000 0.000000 0.000000 0.050301 0.000000 0.000000
# 5 0.000000 0.000000 0.000000 0.000000 0.026988 0.000000
# 6 0.000000 0.000000 0.000000 0.000000 0.000000 0.213291
#
#
# Mechanical properties :
#
#
# Convention : Reuss Voigt Hill
#
# Bulk Modulus (GPa) = 56.92833 59.52737 58.22785
# Shear Modulus (GPa) = 13.83632 24.59809 19.21720
#
# Velocity S-wave (km/s) = 2.65690 3.54254 3.13119
# Velocity P-wave (km/s) = 6.20130 6.86315 6.54060
#
# Compressibility (1/GPa) = 0.01756595
#
# Stress axis : x y z
#
# Youngs Moduli (GPa) = 68.72677 69.75931 80.88102
#
# Poissons Ratio (x) = 0.46200 0.00212
# Poissons Ratio (y) = 0.45516 0.41999
# Poissons Ratio (z) = 0.00180 0.36224
#
# Static dielectric constant tensor:
#      x y z
#    x 1.689000 0.000000 0.000000 
#    y 0.000000 1.691710 0.000000 
#    z 0.000000 0.000000 1.718730 
# 
# From -- ./inp_files/13488.got.cif
#   From: 2010.05.17/outbox.cif.g08.bks.cpg/sg54_7_cif.got.tgz:13488.got - 2010.06.03 13:09:01.
