data_PCOD9421878
_publ_section_title
;
Structure prediction by ZEFSAII (Michael W. Deem and Ramdas Pophale) SiO2 
 PCOD9421878
Probable space group: P C C A
;
_chemical_formula_sum "Si O2"
_cell_formula_units_Z 60
_cell_length_a 9.189935
_cell_length_b 9.966389
_cell_length_c 33.719426
_cell_angle_alpha 90.000000
_cell_angle_beta 90.000000
_cell_angle_gamma 90.000000
_cell_volume 3088.377978
_symmetry_space_group_name_H-M "P C C A"
_symmetry_group_IT_number 54
_symmetry_cell_setting 'orthorhombic'
loop_
_space_group_symop_operation_xyz
x,y,z
1/2-x,-y,z
1/2+x,-y,1/2-z
-x,y,1/2-z
-x,-y,-z
1/2+x,y,-z
1/2-x,y,1/2+z
x,-y,1/2+z
loop_
_atom_site_type_symbol
_atom_site_label
_atom_site_fract_x
_atom_site_fract_y
_atom_site_fract_z
Si Si1 0.797458 0.734760 0.354669
Si Si2 0.653457 0.368528 0.267126
Si Si3 0.544751 0.211818 0.640326
Si Si4 0.250000 0.500000 0.590119
Si Si5 0.441553 0.093419 0.375803
Si Si6 0.253390 0.852476 0.795626
Si Si7 0.032025 0.454500 0.455566
Si Si8 0.233702 0.311225 0.919708
O O1 0.845651 0.700102 0.310156
O O2 0.624158 0.753393 0.358171
O O3 0.829308 0.606909 0.382037
O O4 0.893526 0.857444 0.370473
O O5 0.750000 0.500000 0.269792
O O6 0.500000 0.414212 0.250000
O O7 0.703407 0.258069 0.235519
O O8 0.601028 0.188907 0.684807
O O9 0.655125 0.315571 0.618582
O O10 0.565483 0.066338 0.619423
O O11 0.375554 0.430838 0.564216
O O12 0.359594 0.130865 0.334154
O O13 0.360959 0.179431 0.409863
O O14 0.250000 0.000000 0.776839
O O15 0.143158 0.328569 0.453703
O O16 0.118666 0.571679 0.431099
O O17 0.000000 0.500000 0.500000
#
# Coordination Sequence:
#
# PCOD9421878 Si02
#       8
#     8   8   8   4   8   8   8   8
#     4  12  23  39  61  92 124 170 215 267 323 379
#     4  12  27  43  59  88 127 173 221 282 332 388
#     4  10  22  39  67  93 120 165 218 266 327 381
#     4  12  22  40  60  92 130 156 212 254 316 394
#     4  10  20  41  65  92 121 165 216 268 317 382
#     4   9  21  42  63  85 120 166 219 276 330 384
#     4  11  23  40  67  99 124 163 201 253 320 386
#     4  10  20  39  64  94 127 162 200 252 315 377
#
# _framework density 19.427674
#
# number of rings (size 3 to 8) (size 9 to 14) (size 15 to 20)
#    0.000    1.333    4.667    2.400    1.867    1.067 
#    9.600    0.000    0.000    3.200    0.000    0.000 
#    0.000    0.000    0.000    0.000    0.000    0.000 
#
# Total GULP energy -334372.339885 kJ/mol
# GULP energy per Si atom -5572.872331 kJ/mol
# Density = 1.938346 g / cm^3
# Si number density = 19.427674 Si / 1000 Ang^3
#
#
#
# Elastic Constant Matrix: (Units=GPa)
#
#
# Indices 1 2 3 4 5 6 
#
# 1 110.7204 7.2307 24.1805 0.0000 0.0000 0.0000
# 2 7.2307 61.7166 28.6023 0.0000 0.0000 0.0000
# 3 24.1805 28.6023 71.5586 0.0000 0.0000 0.0000
# 4 0.0000 0.0000 0.0000 51.3776 0.0000 0.0000
# 5 0.0000 0.0000 0.0000 0.0000 20.0126 0.0000
# 6 0.0000 0.0000 0.0000 0.0000 0.0000 37.1346
#
#
#
# Elastic Compliance Matrix: (Units=1/GPa)
#
#
# Indices 1 2 3 4 5 6 
#
# 1 0.009763 0.000473 -0.003488 0.000000 0.000000 0.000000
# 2 0.000473 0.019910 -0.008118 0.000000 0.000000 0.000000
# 3 -0.003488 -0.008118 0.018398 0.000000 0.000000 0.000000
# 4 0.000000 0.000000 0.000000 0.019464 0.000000 0.000000
# 5 0.000000 0.000000 0.000000 0.000000 0.049968 0.000000
# 6 0.000000 0.000000 0.000000 0.000000 0.000000 0.026929
#
#
# Mechanical properties :
#
#
# Convention : Reuss Voigt Hill
#
# Bulk Modulus (GPa) = 38.75308 40.44696 39.60002
# Shear Modulus (GPa) = 28.52269 33.97042 31.24655
#
# Velocity S-wave (km/s) = 3.83580 4.18611 4.01478
# Velocity P-wave (km/s) = 6.29352 6.65050 6.47447
#
# Compressibility (1/GPa) = 0.02580440
#
# Stress axis : x y z
#
# Youngs Moduli (GPa) = 102.43161 50.22629 54.35416
#
# Poissons Ratio (x) = -0.02374 0.18958
# Poissons Ratio (y) = -0.04841 0.44124
# Poissons Ratio (z) = 0.35726 0.40773
#
# Static dielectric constant tensor:
#      x y z
#    x 1.752040 0.000000 0.000000 
#    y 0.000000 1.713210 0.000000 
#    z 0.000000 0.000000 1.666880 
# 
# From -- ./inp_files/27909.got.cif
#   From: 2010.05.17/outbox.cif.g08.bks.cpg/sg54_14_cif.got.tgz:27909.got - 2010.06.03 13:09:01.
