data_PCOD9421849
_publ_section_title
;
Structure prediction by ZEFSAII (Michael W. Deem and Ramdas Pophale) SiO2 
 PCOD9421849
Probable space group: P C C A
;
_chemical_formula_sum "Si O2"
_cell_formula_units_Z 44
_cell_length_a 14.569654
_cell_length_b 7.696766
_cell_length_c 18.201978
_cell_angle_alpha 90.000000
_cell_angle_beta 90.000000
_cell_angle_gamma 90.000000
_cell_volume 2041.155571
_symmetry_space_group_name_H-M "P C C A"
_symmetry_group_IT_number 54
_symmetry_cell_setting 'orthorhombic'
loop_
_space_group_symop_operation_xyz
x,y,z
1/2-x,-y,z
1/2+x,-y,1/2-z
-x,y,1/2-z
-x,-y,-z
1/2+x,y,-z
1/2-x,y,1/2+z
x,-y,1/2+z
loop_
_atom_site_type_symbol
_atom_site_label
_atom_site_fract_x
_atom_site_fract_y
_atom_site_fract_z
Si Si1 0.451430 0.679457 0.408939
Si Si2 0.578563 0.006211 0.689084
Si Si3 0.655951 0.755158 0.947110
Si Si4 0.250000 0.000000 0.219804
Si Si5 0.508531 0.669711 0.838252
Si Si6 0.346129 0.836422 0.084244
O O1 0.401997 0.678300 0.486697
O O2 0.456739 0.492249 0.372457
O O3 0.556237 0.746730 0.416103
O O4 0.402953 0.821258 0.356623
O O5 0.500000 0.045816 0.750000
O O6 0.537187 0.853099 0.639676
O O7 0.668459 0.933914 0.729037
O O8 0.610712 0.681517 0.872213
O O9 0.764952 0.730629 0.954965
O O10 0.645179 0.966220 0.945759
O O11 0.302711 0.866792 0.165777
O O12 0.500000 0.660530 0.750000
#
# Coordination Sequence:
#
# PCOD9421849 Si02
#       6
#     8   8   8   4   8   8
#     4  12  23  40  72  94 131 179 221 274 341 394
#     4  11  21  42  66  96 134 169 222 276 323 392
#     4  10  22  42  65  98 131 172 222 277 326 398
#     4  10  20  38  70  96 128 184 214 266 328 398
#     4  11  23  41  66  97 132 171 220 278 334 396
#     4  10  20  40  70  93 127 180 226 252 345 401
#
# _framework density 21.556417
#
# number of rings (size 3 to 8) (size 9 to 14) (size 15 to 20)
#    0.000    1.455    3.636    4.909    0.000    2.182 
#    0.000    0.909    0.000    0.000    0.000    0.000 
#    0.000    0.000    0.000    0.000    0.000    0.000 
#
# Total GULP energy -245848.561014 kJ/mol
# GULP energy per Si atom -5587.467296 kJ/mol
# Density = 2.150735 g / cm^3
# Si number density = 21.556417 Si / 1000 Ang^3
#
#
#
# Elastic Constant Matrix: (Units=GPa)
#
#
# Indices 1 2 3 4 5 6 
#
# 1 99.7247 -10.4379 39.1560 0.0000 0.0000 0.0000
# 2 -10.4379 71.3884 25.5840 0.0000 0.0000 0.0000
# 3 39.1560 25.5840 80.2910 0.0000 0.0000 0.0000
# 4 0.0000 0.0000 0.0000 16.2054 0.0000 0.0000
# 5 0.0000 0.0000 0.0000 0.0000 24.3232 0.0000
# 6 0.0000 0.0000 0.0000 0.0000 0.0000 -3.4147
#
#
#
# Elastic Compliance Matrix: (Units=1/GPa)
#
#
# Indices 1 2 3 4 5 6 
#
# 1 0.013826 0.005010 -0.008339 0.000000 0.000000 0.000000
# 2 0.005010 0.017629 -0.008061 0.000000 0.000000 0.000000
# 3 -0.008339 -0.008061 0.019090 0.000000 0.000000 0.000000
# 4 0.000000 0.000000 0.000000 0.061708 0.000000 0.000000
# 5 0.000000 0.000000 0.000000 0.000000 0.041113 0.000000
# 6 0.000000 0.000000 0.000000 0.000000 0.000000 -0.292853
#
#
# Mechanical properties :
#
#
# Convention : Reuss Voigt Hill
#
# Bulk Modulus (GPa) = 36.01525 40.00091 38.00808
# Shear Modulus (GPa) = -46.53234 20.56293 -12.98470
#
# Velocity S-wave (km/s) = -4.65115 3.09190 -2.45696
# Velocity P-wave (km/s) = 3.47858 5.59849 3.10182
#
# Compressibility (1/GPa) = 0.02776601
#
# Stress axis : x y z
#
# Youngs Moduli (GPa) = 72.32582 56.72400 52.38340
#
# Poissons Ratio (x) = -0.28420 0.43684
# Poissons Ratio (y) = -0.36236 0.42225
# Poissons Ratio (z) = 0.60314 0.45724
#
# Static dielectric constant tensor:
#      x y z
#    x 1.816560 0.000000 0.000000 
#    y 0.000000 1.801750 0.000000 
#    z 0.000000 0.000000 1.818090 
# 
# From -- ./inp_files/17896.got.cif
#   From: 2010.05.17/outbox.cif.g08.bks.cpg/sg54_9_cif.got.tgz:17896.got - 2010.06.03 13:09:01.
