data_PCOD9421168
_publ_section_title
;
Structure prediction by ZEFSAII (Michael W. Deem and Ramdas Pophale) SiO2 
 PCOD9421168
Probable space group: P C C A
;
_chemical_formula_sum "Si O2"
_cell_formula_units_Z 60
_cell_length_a 14.691117
_cell_length_b 8.176597
_cell_length_c 20.762393
_cell_angle_alpha 90.000000
_cell_angle_beta 90.000000
_cell_angle_gamma 90.000000
_cell_volume 2494.048060
_symmetry_space_group_name_H-M "P C C A"
_symmetry_group_IT_number 54
_symmetry_cell_setting 'orthorhombic'
loop_
_space_group_symop_operation_xyz
x,y,z
1/2-x,-y,z
1/2+x,-y,1/2-z
-x,y,1/2-z
-x,-y,-z
1/2+x,y,-z
1/2-x,y,1/2+z
x,-y,1/2+z
loop_
_atom_site_type_symbol
_atom_site_label
_atom_site_fract_x
_atom_site_fract_y
_atom_site_fract_z
Si Si1 0.524569 0.460562 0.124871
Si Si2 0.298066 0.168169 0.245735
Si Si3 0.795766 0.327592 0.620428
Si Si4 0.000000 0.755284 0.250000
Si Si5 0.884375 0.221082 0.095575
Si Si6 0.287439 0.182409 0.605761
Si Si7 0.377879 0.676914 0.550044
Si Si8 0.466889 0.009347 0.574011
O O1 0.602989 0.343188 0.093671
O O2 0.502591 0.367623 0.189990
O O3 0.574612 0.632315 0.138498
O O4 0.434830 0.469239 0.081210
O O5 0.293986 0.301140 0.302564
O O6 0.407059 0.142895 0.239676
O O7 0.245233 0.215569 0.179580
O O8 0.250000 0.000000 0.266021
O O9 0.750000 0.500000 0.603485
O O10 0.723319 0.196306 0.596794
O O11 0.940970 0.059096 0.110153
O O12 0.900715 0.294353 0.024107
O O13 0.229666 0.309050 0.562881
O O14 0.393466 0.151518 0.590596
O O15 0.250000 0.000000 0.590099
O O16 0.420486 0.836118 0.586562
O O17 0.500000 0.000000 0.500000
#
# Coordination Sequence:
#
# PCOD9421168 Si02
#       8
#     8   8   8   4   8   8   8   8
#     4  10  20  38  61  83 115 163 204 247 303 378
#     4  10  20  38  62  89 116 153 214 252 304 378
#     4   9  21  40  57  81 122 161 197 252 312 368
#     4  10  20  38  64  88 122 168 204 252 330 372
#     4  10  21  37  55  88 119 153 202 246 308 367
#     4   9  18  36  57  85 116 156 194 249 310 362
#     4  10  19  36  63  84 117 155 197 254 303 364
#     4   9  20  37  57  85 122 154 193 247 307 365
#
# _framework density 24.057275000000001
#
# number of rings (size 3 to 8) (size 9 to 14) (size 15 to 20)
#    0.000    2.400    1.333    0.400    0.000    4.267 
#    7.200    5.333    0.000    0.000    0.000    0.000 
#    0.000    0.000    0.000    0.000    0.000    0.000 
#
# Total GULP energy -334529.195459 kJ/mol
# GULP energy per Si atom -5575.486591 kJ/mol
# Density = 2.400252 g / cm^3
# Si number density = 24.057275 Si / 1000 Ang^3
#
#
#
# Elastic Constant Matrix: (Units=GPa)
#
#
# Indices 1 2 3 4 5 6 
#
# 1 103.8387 4.4372 16.7149 0.0000 0.0000 0.0000
# 2 4.4372 63.1204 -4.1372 0.0000 0.0000 0.0000
# 3 16.7149 -4.1372 62.8252 0.0000 0.0000 0.0000
# 4 0.0000 0.0000 0.0000 18.0567 0.0000 0.0000
# 5 0.0000 0.0000 0.0000 0.0000 31.3421 0.0000
# 6 0.0000 0.0000 0.0000 0.0000 0.0000 28.9223
#
#
#
# Elastic Compliance Matrix: (Units=1/GPa)
#
#
# Indices 1 2 3 4 5 6 
#
# 1 0.010111 -0.000891 -0.002749 0.000000 0.000000 0.000000
# 2 -0.000891 0.015990 0.001290 0.000000 0.000000 0.000000
# 3 -0.002749 0.001290 0.016733 0.000000 0.000000 0.000000
# 4 0.000000 0.000000 0.000000 0.055381 0.000000 0.000000
# 5 0.000000 0.000000 0.000000 0.000000 0.031906 0.000000
# 6 0.000000 0.000000 0.000000 0.000000 0.000000 0.034575
#
#
# Mechanical properties :
#
#
# Convention : Reuss Voigt Hill
#
# Bulk Modulus (GPa) = 26.22266 29.31268 27.76767
# Shear Modulus (GPa) = 27.45632 29.84886 28.65259
#
# Velocity S-wave (km/s) = 3.38196 3.52624 3.45485
# Velocity P-wave (km/s) = 5.11605 5.36564 5.24233
#
# Compressibility (1/GPa) = 0.03813496
#
# Stress axis : x y z
#
# Youngs Moduli (GPa) = 98.90365 62.53936 59.76065
#
# Poissons Ratio (x) = 0.05572 0.16426
# Poissons Ratio (y) = 0.08812 -0.07709
# Poissons Ratio (z) = 0.27186 -0.08068
#
# Static dielectric constant tensor:
#      x y z
#    x 2.174160 0.000000 0.000000 
#    y 0.000000 1.965870 0.000000 
#    z 0.000000 0.000000 1.942480 
# 
# From -- ./inp_files/24453.got.cif
#   From: 2010.05.17/outbox.cif.g08.bks.cpg/sg54_13_cif.got.tgz:24453.got - 2010.06.03 13:09:01.
