data_PCOD9421847
_publ_section_title
;
Structure prediction by ZEFSAII (Michael W. Deem and Ramdas Pophale) SiO2 
 PCOD9421847
Probable space group: P C C A
;
_chemical_formula_sum "Si O2"
_cell_formula_units_Z 64
_cell_length_a 16.542831
_cell_length_b 9.572807
_cell_length_c 20.761339
_cell_angle_alpha 90.000000
_cell_angle_beta 90.000000
_cell_angle_gamma 90.000000
_cell_volume 3287.793223
_symmetry_space_group_name_H-M "P C C A"
_symmetry_group_IT_number 54
_symmetry_cell_setting 'orthorhombic'
loop_
_space_group_symop_operation_xyz
x,y,z
1/2-x,-y,z
1/2+x,-y,1/2-z
-x,y,1/2-z
-x,-y,-z
1/2+x,y,-z
1/2-x,y,1/2+z
x,-y,1/2+z
loop_
_atom_site_type_symbol
_atom_site_label
_atom_site_fract_x
_atom_site_fract_y
_atom_site_fract_z
Si Si1 0.887448 0.141578 0.025984
Si Si2 0.842654 0.171684 0.371712
Si Si3 0.063860 0.625518 0.193907
Si Si4 0.075334 0.173065 0.003991
Si Si5 0.651566 0.852513 0.881371
Si Si6 0.678760 0.622657 0.115879
Si Si7 0.533593 0.438302 0.066662
Si Si8 0.400860 0.650281 0.246869
O O1 0.828247 0.231194 0.073034
O O2 0.984894 0.157026 0.034761
O O3 0.870302 0.195075 0.953505
O O4 0.882796 0.971142 0.020514
O O5 0.871958 0.238859 0.438613
O O6 0.746692 0.162334 0.372489
O O7 0.874208 0.244564 0.308297
O O8 0.874243 0.013040 0.375578
O O9 0.108791 0.762443 0.172190
O O10 0.119924 0.505412 0.222705
O O11 0.000000 0.656300 0.250000
O O12 0.023955 0.564172 0.128766
O O13 0.063658 0.281158 0.946428
O O14 0.750000 0.500000 0.118242
O O15 0.607117 0.535502 0.084515
O O16 0.647186 0.668361 0.186646
O O17 0.500000 0.500000 0.000000
O O18 0.500000 0.655156 0.250000
#
# Coordination Sequence:
#
# PCOD9421847 Si02
#       8
#     8   8   8   8   8   8   8   8
#     4  10  21  42  63  95 128 158 213 265 316 386
#     4  10  23  39  66  89 123 164 208 257 312 378
#     4  11  22  40  63  89 126 160 206 262 304 373
#     4  10  20  38  70  92 121 164 211 265 316 372
#     4  10  22  42  61  93 125 159 206 260 311 379
#     4  12  26  41  61  93 135 165 205 269 331 382
#     4  12  21  41  65  92 124 167 213 256 312 388
#     4  11  23  43  63  89 122 168 217 261 306 382
#
# _framework density 19.465945000000001
#
# number of rings (size 3 to 8) (size 9 to 14) (size 15 to 20)
#    0.000    1.250    5.000    1.500    3.500    0.500 
#    2.250    0.000    0.000    0.000    0.000    0.000 
#    0.000    0.000    0.000    0.000    0.000    0.000 
#
# Total GULP energy -356525.141210 kJ/mol
# GULP energy per Si atom -5570.705331 kJ/mol
# Density = 1.942164 g / cm^3
# Si number density = 19.465945 Si / 1000 Ang^3
#
#
#
# Elastic Constant Matrix: (Units=GPa)
#
#
# Indices 1 2 3 4 5 6 
#
# 1 39.4846 13.5366 15.0095 0.0000 0.0000 0.0000
# 2 13.5366 66.7451 40.8065 0.0000 0.0000 0.0000
# 3 15.0095 40.8065 112.1697 0.0000 0.0000 0.0000
# 4 0.0000 0.0000 0.0000 39.3127 0.0000 0.0000
# 5 0.0000 0.0000 0.0000 0.0000 19.5974 0.0000
# 6 0.0000 0.0000 0.0000 0.0000 0.0000 7.7329
#
#
#
# Elastic Compliance Matrix: (Units=1/GPa)
#
#
# Indices 1 2 3 4 5 6 
#
# 1 0.027610 -0.004296 -0.002131 0.000000 0.000000 0.000000
# 2 -0.004296 0.019936 -0.006678 0.000000 0.000000 0.000000
# 3 -0.002131 -0.006678 0.011630 0.000000 0.000000 0.000000
# 4 0.000000 0.000000 0.000000 0.025437 0.000000 0.000000
# 5 0.000000 0.000000 0.000000 0.000000 0.051027 0.000000
# 6 0.000000 0.000000 0.000000 0.000000 0.000000 0.129317
#
#
# Mechanical properties :
#
#
# Convention : Reuss Voigt Hill
#
# Bulk Modulus (GPa) = 30.33589 39.67827 35.00708
# Shear Modulus (GPa) = 16.54771 23.26505 19.90638
#
# Velocity S-wave (km/s) = 2.91878 3.46087 3.20132
# Velocity P-wave (km/s) = 5.19394 6.03306 5.62916
#
# Compressibility (1/GPa) = 0.03296426
#
# Stress axis : x y z
#
# Youngs Moduli (GPa) = 36.21936 50.15953 85.98743
#
# Poissons Ratio (x) = 0.21551 0.18328
# Poissons Ratio (y) = 0.15561 0.57421
# Poissons Ratio (z) = 0.07720 0.33496
#
# Static dielectric constant tensor:
#      x y z
#    x 1.696020 0.000000 0.000000 
#    y 0.000000 1.275340 0.000000 
#    z 0.000000 0.000000 1.687060 
# 
# From -- ./inp_files/21950.got.cif
#   From: 2010.05.17/outbox.cif.g08.bks.cpg/sg54_11_cif.got.tgz:21950.got - 2010.06.03 13:09:01.
