data_PCOD9421197
_publ_section_title
;
Structure prediction by ZEFSAII (Michael W. Deem and Ramdas Pophale) SiO2 
 PCOD9421197
Probable space group: P C C A
;
_chemical_formula_sum "Si O2"
_cell_formula_units_Z 48
_cell_length_a 13.810994
_cell_length_b 6.484510
_cell_length_c 27.444878
_cell_angle_alpha 90.000000
_cell_angle_beta 90.000000
_cell_angle_gamma 90.000000
_cell_volume 2457.895449
_symmetry_space_group_name_H-M "P C C A"
_symmetry_group_IT_number 54
_symmetry_cell_setting 'orthorhombic'
loop_
_space_group_symop_operation_xyz
x,y,z
1/2-x,-y,z
1/2+x,-y,1/2-z
-x,y,1/2-z
-x,-y,-z
1/2+x,y,-z
1/2-x,y,1/2+z
x,-y,1/2+z
loop_
_atom_site_type_symbol
_atom_site_label
_atom_site_fract_x
_atom_site_fract_y
_atom_site_fract_z
Si Si1 0.362799 0.530478 0.621821
Si Si2 0.520682 0.244712 0.954966
Si Si3 0.643860 0.550157 0.525047
Si Si4 0.004755 0.919719 0.128831
Si Si5 0.019596 0.306468 0.193081
Si Si6 0.855784 0.424631 0.641525
O O1 0.250000 0.500000 0.612025
O O2 0.426342 0.400549 0.583008
O O3 0.408466 0.757651 0.620604
O O4 0.388522 0.437753 0.674922
O O5 0.427585 0.353542 0.979244
O O6 0.494613 0.049163 0.921671
O O7 0.598448 0.249940 0.998756
O O8 0.750000 0.500000 0.505829
O O9 0.648729 0.572427 0.582984
O O10 0.909059 0.797002 0.147609
O O11 0.031283 0.080249 0.170930
O O12 0.000000 0.310069 0.250000
O O13 0.929851 0.412740 0.164807
O O14 0.750000 0.500000 0.658824
#
# Coordination Sequence:
#
# PCOD9421197 Si02
#       6
#     8   8   8   8   8   8
#     4  10  21  40  62  85 118 158 198 251 300 356
#     4  10  20  37  59  88 126 160 202 244 285 355
#     4  10  19  37  59  87 130 162 197 245 290 346
#     4  10  20  39  60  86 115 162 195 247 301 359
#     4  10  22  40  59  87 117 152 200 252 305 361
#     4  10  21  40  60  86 122 157 195 247 300 357
#
# _framework density 19.528901000000001
#
# number of rings (size 3 to 8) (size 9 to 14) (size 15 to 20)
#    0.000    2.000    5.000    0.500    0.000    7.333 
#    0.000    1.667    0.000    0.000    0.000    0.000 
#    0.000    0.000    0.000    0.000    0.000    0.000 
#
# Total GULP energy -267276.634954 kJ/mol
# GULP energy per Si atom -5568.263228 kJ/mol
# Density = 1.948445 g / cm^3
# Si number density = 19.528901 Si / 1000 Ang^3
#
#
#
# Elastic Constant Matrix: (Units=GPa)
#
#
# Indices 1 2 3 4 5 6 
#
# 1 136.8400 41.6818 22.7489 0.0000 0.0000 0.0000
# 2 41.6818 108.5239 34.6992 0.0000 0.0000 0.0000
# 3 22.7489 34.6992 100.2252 0.0000 0.0000 0.0000
# 4 0.0000 0.0000 0.0000 -16.7322 0.0000 0.0000
# 5 0.0000 0.0000 0.0000 0.0000 24.1636 0.0000
# 6 0.0000 0.0000 0.0000 0.0000 0.0000 7.6049
#
#
#
# Elastic Compliance Matrix: (Units=1/GPa)
#
#
# Indices 1 2 3 4 5 6 
#
# 1 0.008345 -0.002923 -0.000882 0.000000 0.000000 0.000000
# 2 -0.002923 0.011385 -0.003278 0.000000 0.000000 0.000000
# 3 -0.000882 -0.003278 0.011313 0.000000 0.000000 0.000000
# 4 0.000000 0.000000 0.000000 -0.059765 0.000000 0.000000
# 5 0.000000 0.000000 0.000000 0.000000 0.041384 0.000000
# 6 0.000000 0.000000 0.000000 0.000000 0.000000 0.131494
#
#
# Mechanical properties :
#
#
# Convention : Reuss Voigt Hill
#
# Bulk Modulus (GPa) = 59.25539 60.42765 59.84152
# Shear Modulus (GPa) = 30.49739 19.43789 24.96764
#
# Velocity S-wave (km/s) = 3.95606 3.15832 3.57949
# Velocity P-wave (km/s) = 7.16069 6.65657 6.91323
#
# Compressibility (1/GPa) = 0.01687610
#
# Stress axis : x y z
#
# Youngs Moduli (GPa) = 119.83498 87.83150 88.39592
#
# Poissons Ratio (x) = 0.25673 0.07797
# Poissons Ratio (y) = 0.35028 0.28979
# Poissons Ratio (z) = 0.10571 0.28794
#
# Static dielectric constant tensor:
#      x y z
#    x 1.734600 0.000000 0.000000 
#    y 0.000000 1.710900 0.000000 
#    z 0.000000 0.000000 1.716010 
# 
# From -- ./inp_files/26462.got.cif
#   From: 2010.05.17/outbox.cif.g08.bks.cpg/sg54_14_cif.got.tgz:26462.got - 2010.06.03 13:09:01.
