data_PCOD9421402
_publ_section_title
;
Structure prediction by ZEFSAII (Michael W. Deem and Ramdas Pophale) SiO2 
 PCOD9421402
Probable space group: P C C A
;
_chemical_formula_sum "Si O2"
_cell_formula_units_Z 64
_cell_length_a 14.016352
_cell_length_b 9.711675
_cell_length_c 20.413018
_cell_angle_alpha 90.000000
_cell_angle_beta 90.000000
_cell_angle_gamma 90.000000
_cell_volume 2778.666048
_symmetry_space_group_name_H-M "P C C A"
_symmetry_group_IT_number 54
_symmetry_cell_setting 'orthorhombic'
loop_
_space_group_symop_operation_xyz
x,y,z
1/2-x,-y,z
1/2+x,-y,1/2-z
-x,y,1/2-z
-x,-y,-z
1/2+x,y,-z
1/2-x,y,1/2+z
x,-y,1/2+z
loop_
_atom_site_type_symbol
_atom_site_label
_atom_site_fract_x
_atom_site_fract_y
_atom_site_fract_z
Si Si1 0.901290 0.790997 0.997024
Si Si2 0.365053 0.004083 0.271154
Si Si3 0.860921 0.040364 0.084214
Si Si4 0.862889 0.023675 0.371925
Si Si5 0.890926 0.672041 0.243464
Si Si6 0.596446 0.702673 0.884825
Si Si7 0.102876 0.666774 0.974554
Si Si8 0.375732 0.602217 0.894834
O O1 0.836081 0.699966 0.046861
O O2 0.916856 0.925075 0.043097
O O3 0.988159 0.687384 0.981804
O O4 0.876781 0.861959 0.927866
O O5 0.395106 0.937933 0.202088
O O6 0.394634 0.163730 0.268618
O O7 0.250000 0.000000 0.272577
O O8 0.396842 0.947866 0.341381
O O9 0.867777 0.183826 0.048831
O O10 0.750000 0.000000 0.084749
O O11 0.901484 0.869582 0.387234
O O12 0.750000 0.000000 0.368880
O O13 0.852633 0.657405 0.317504
O O14 0.837791 0.615315 0.179305
O O15 0.000000 0.618846 0.250000
O O16 0.485774 0.654007 0.884666
O O17 0.639691 0.643770 0.951677
O O18 0.127159 0.549770 0.923278
#
# Coordination Sequence:
#
# PCOD9421402 Si02
#       8
#     8   8   8   8   8   8   8   8
#     4  11  20  35  60  85 114 152 187 238 295 344
#     4   9  19  35  55  82 116 148 190 242 287 340
#     4  11  22  37  60  85 115 151 195 244 295 342
#     4  10  20  34  57  89 116 146 195 247 292 337
#     4   9  17  32  57  82 107 152 200 227 279 360
#     4   9  18  32  56  80 112 149 191 228 292 344
#     4  11  23  37  57  86 121 149 191 246 288 345
#     4  10  21  37  55  82 116 155 192 230 289 348
#
# _framework density 23.032633000000001
#
# number of rings (size 3 to 8) (size 9 to 14) (size 15 to 20)
#    0.000    2.000    2.500    2.250    1.750    1.000 
#    0.000    5.625    2.750    0.000    0.000   12.250 
#    0.000    0.000    0.000    0.000    0.000    0.000 
#
# Total GULP energy -357067.811578 kJ/mol
# GULP energy per Si atom -5579.184556 kJ/mol
# Density = 2.298021 g / cm^3
# Si number density = 23.032633 Si / 1000 Ang^3
#
#
#
# Elastic Constant Matrix: (Units=GPa)
#
#
# Indices 1 2 3 4 5 6 
#
# 1 19.4643 -13.7123 -18.7835 0.0000 0.0000 0.0000
# 2 -13.7123 75.9338 34.1598 0.0000 0.0000 0.0000
# 3 -18.7835 34.1598 233.6611 0.0000 0.0000 0.0000
# 4 0.0000 0.0000 0.0000 33.7701 0.0000 0.0000
# 5 0.0000 0.0000 0.0000 0.0000 8.7911 0.0000
# 6 0.0000 0.0000 0.0000 0.0000 0.0000 9.6744
#
#
#
# Elastic Compliance Matrix: (Units=1/GPa)
#
#
# Indices 1 2 3 4 5 6 
#
# 1 0.061504 0.009508 0.003554 0.000000 0.000000 0.000000
# 2 0.009508 0.015566 -0.001511 0.000000 0.000000 0.000000
# 3 0.003554 -0.001511 0.004786 0.000000 0.000000 0.000000
# 4 0.000000 0.000000 0.000000 0.029612 0.000000 0.000000
# 5 0.000000 0.000000 0.000000 0.000000 0.113751 0.000000
# 6 0.000000 0.000000 0.000000 0.000000 0.000000 0.103365
#
#
# Mechanical properties :
#
#
# Convention : Reuss Voigt Hill
#
# Bulk Modulus (GPa) = 9.52766 36.93190 23.22978
# Shear Modulus (GPa) = 14.68558 32.27349 23.47953
#
# Velocity S-wave (km/s) = 2.52781 3.74733 3.19627
# Velocity P-wave (km/s) = 3.55884 5.89854 4.87125
#
# Compressibility (1/GPa) = 0.10495752
#
# Stress axis : x y z
#
# Youngs Moduli (GPa) = 16.25911 64.24176 208.92651
#
# Poissons Ratio (x) = -0.61079 -0.74257
# Poissons Ratio (y) = -0.15459 0.31577
# Poissons Ratio (z) = -0.05779 0.09709
#
# Static dielectric constant tensor:
#      x y z
#    x 1.967960 0.000000 0.000000 
#    y 0.000000 1.784900 0.000000 
#    z 0.000000 0.000000 1.961670 
# 
# From -- ./inp_files/21980.got.cif
#   From: 2010.05.17/outbox.cif.g08.bks.cpg/sg54_11_cif.got.tgz:21980.got - 2010.06.03 13:09:01.
