data_PCOD9421844
_publ_section_title
;
Structure prediction by ZEFSAII (Michael W. Deem and Ramdas Pophale) SiO2 
 PCOD9421844
Probable space group: P C C A
;
_chemical_formula_sum "Si O2"
_cell_formula_units_Z 48
_cell_length_a 15.614341
_cell_length_b 8.797119
_cell_length_c 15.251247
_cell_angle_alpha 90.000000
_cell_angle_beta 90.000000
_cell_angle_gamma 90.000000
_cell_volume 2094.929832
_symmetry_space_group_name_H-M "P C C A"
_symmetry_group_IT_number 54
_symmetry_cell_setting 'orthorhombic'
loop_
_space_group_symop_operation_xyz
x,y,z
1/2-x,-y,z
1/2+x,-y,1/2-z
-x,y,1/2-z
-x,-y,-z
1/2+x,y,-z
1/2-x,y,1/2+z
x,-y,1/2+z
loop_
_atom_site_type_symbol
_atom_site_label
_atom_site_fract_x
_atom_site_fract_y
_atom_site_fract_z
Si Si1 0.204940 0.741698 0.385116
Si Si2 0.569660 0.671160 0.902804
Si Si3 0.818984 0.128979 0.805013
Si Si4 0.000000 0.465865 0.250000
Si Si5 0.879874 0.592862 0.593668
Si Si6 0.556158 0.944325 0.580119
Si Si7 0.000000 0.977919 0.750000
O O1 0.207056 0.779110 0.281587
O O2 0.157870 0.579543 0.400911
O O3 0.302133 0.711614 0.411636
O O4 0.153225 0.884024 0.428225
O O5 0.658095 0.760188 0.884499
O O6 0.556479 0.559359 0.820594
O O7 0.490366 0.786664 0.893055
O O8 0.571290 0.608444 0.001118
O O9 0.910888 0.056751 0.780205
O O10 0.750000 0.000000 0.824339
O O11 0.065184 0.386081 0.317349
O O12 0.536465 0.069282 0.654840
O O13 0.500000 0.000000 0.500000
#
# Coordination Sequence:
#
# PCOD9421844 Si02
#       7
#     8   8   8   4   8   8   4
#     4  10  22  44  59 101 143 181 232 303 365 430
#     4  11  22  42  67  97 132 182 236 298 359 447
#     4  10  20  40  72  95 135 190 233 291 366 432
#     4  12  21  46  71  92 134 189 242 283 372 446
#     4  11  24  40  69  98 140 186 236 309 368 430
#     4  10  20  38  69  91 133 184 228 290 366 426
#     4   8  19  38  59  92 122 177 220 279 340 412
#
# _framework density 22.912462000000001
#
# number of rings (size 3 to 8) (size 9 to 14) (size 15 to 20)
#    0.000    1.667    3.333    2.500    0.000    5.333 
#    6.000    5.000    0.000    0.000    0.000    0.000 
#    0.000    0.000    0.000    0.000    0.000    0.000 
#
# Total GULP energy -267302.684153 kJ/mol
# GULP energy per Si atom -5568.805920 kJ/mol
# Density = 2.286031 g / cm^3
# Si number density = 22.912462 Si / 1000 Ang^3
#
#
#
# Elastic Constant Matrix: (Units=GPa)
#
#
# Indices 1 2 3 4 5 6 
#
# 1 130.0982 50.1801 66.8490 0.0000 0.0000 0.0000
# 2 50.1801 79.4894 42.2868 0.0000 0.0000 0.0000
# 3 66.8490 42.2868 129.3912 0.0000 0.0000 0.0000
# 4 0.0000 0.0000 0.0000 38.9310 0.0000 0.0000
# 5 0.0000 0.0000 0.0000 0.0000 19.3637 0.0000
# 6 0.0000 0.0000 0.0000 0.0000 0.0000 27.8225
#
#
#
# Elastic Compliance Matrix: (Units=1/GPa)
#
#
# Indices 1 2 3 4 5 6 
#
# 1 0.011999 -0.005177 -0.004507 0.000000 0.000000 0.000000
# 2 -0.005177 0.017461 -0.003032 0.000000 0.000000 0.000000
# 3 -0.004507 -0.003032 0.011048 0.000000 0.000000 0.000000
# 4 0.000000 0.000000 0.000000 0.025686 0.000000 0.000000
# 5 0.000000 0.000000 0.000000 0.000000 0.051643 0.000000
# 6 0.000000 0.000000 0.000000 0.000000 0.000000 0.035942
#
#
# Mechanical properties :
#
#
# Convention : Reuss Voigt Hill
#
# Bulk Modulus (GPa) = 66.33068 73.06785 69.69926
# Shear Modulus (GPa) = 27.13867 29.20096 28.16982
#
# Velocity S-wave (km/s) = 3.44532 3.57383 3.51016
# Velocity P-wave (km/s) = 6.69622 6.99921 6.84939
#
# Compressibility (1/GPa) = 0.01507598
#
# Stress axis : x y z
#
# Youngs Moduli (GPa) = 83.33700 57.26910 90.51308
#
# Poissons Ratio (x) = 0.29649 0.40799
# Poissons Ratio (y) = 0.43145 0.27443
# Poissons Ratio (z) = 0.37564 0.17363
#
# Static dielectric constant tensor:
#      x y z
#    x 1.750190 0.000000 0.000000 
#    y 0.000000 1.635620 0.000000 
#    z 0.000000 0.000000 1.935950 
# 
# From -- ./inp_files/14165.got.cif
#   From: 2010.05.17/outbox.cif.g08.bks.cpg/sg54_8_cif.got.tgz:14165.got - 2010.06.03 13:09:01.
