data_PCOD9421961
_publ_section_title
;
Structure prediction by ZEFSAII (Michael W. Deem and Ramdas Pophale) SiO2 
 PCOD9421961
Probable space group: P C C A
;
_chemical_formula_sum "Si O2"
_cell_formula_units_Z 32
_cell_length_a 16.224318
_cell_length_b 5.765315
_cell_length_c 14.192116
_cell_angle_alpha 90.000000
_cell_angle_beta 90.000000
_cell_angle_gamma 90.000000
_cell_volume 1327.506460
_symmetry_space_group_name_H-M "P C C A"
_symmetry_group_IT_number 54
_symmetry_cell_setting 'orthorhombic'
loop_
_space_group_symop_operation_xyz
x,y,z
1/2-x,-y,z
1/2+x,-y,1/2-z
-x,y,1/2-z
-x,-y,-z
1/2+x,y,-z
1/2-x,y,1/2+z
x,-y,1/2+z
loop_
_atom_site_type_symbol
_atom_site_label
_atom_site_fract_x
_atom_site_fract_y
_atom_site_fract_z
Si Si1 0.250000 0.500000 0.387232
Si Si2 0.382036 0.847810 0.850818
Si Si3 0.467555 0.445217 0.104165
Si Si4 0.331251 0.133576 0.027799
Si Si5 0.500000 0.188866 0.750000
O O1 0.199655 0.696822 0.330482
O O2 0.194529 0.344616 0.457531
O O3 0.454604 0.665503 0.845340
O O4 0.420923 0.054735 0.792035
O O5 0.372176 0.945683 0.957462
O O6 0.394060 0.258327 0.098419
O O7 0.456425 0.674890 0.163919
O O8 0.500000 0.500000 0.000000
O O9 0.250000 0.000000 0.065924
#
# Coordination Sequence:
#
# PCOD9421961 Si02
#       5
#     4   8   8   8   4
#     4  10  20  40  68 106 136 182 246 304 380 454
#     4  11  22  41  70 108 137 192 248 309 379 450
#     4  12  23  44  71 110 143 195 256 310 370 460
#     4  10  22  39  73 105 139 190 248 306 380 446
#     4  12  26  38  70 112 152 192 256 320 380 454
#
# _framework density 24.105343999999999
#
# number of rings (size 3 to 8) (size 9 to 14) (size 15 to 20)
#    0.000    1.000    5.000    1.500    0.000    0.000 
#    0.000    0.000    0.000   67.500    0.000    0.000 
#    0.000    0.000    0.000    0.000    0.000    0.000 
#
# Total GULP energy -178752.993149 kJ/mol
# GULP energy per Si atom -5586.031036 kJ/mol
# Density = 2.405048 g / cm^3
# Si number density = 24.105344 Si / 1000 Ang^3
#
#
#
# Elastic Constant Matrix: (Units=GPa)
#
#
# Indices 1 2 3 4 5 6 
#
# 1 114.4899 36.2087 21.1761 0.0000 0.0000 0.0000
# 2 36.2087 91.0171 25.3222 0.0000 0.0000 0.0000
# 3 21.1761 25.3222 69.7390 0.0000 0.0000 0.0000
# 4 0.0000 0.0000 0.0000 2.1858 0.0000 0.0000
# 5 0.0000 0.0000 0.0000 0.0000 9.7376 0.0000
# 6 0.0000 0.0000 0.0000 0.0000 0.0000 57.3474
#
#
#
# Elastic Compliance Matrix: (Units=1/GPa)
#
#
# Indices 1 2 3 4 5 6 
#
# 1 0.010192 -0.003552 -0.001805 0.000000 0.000000 0.000000
# 2 -0.003552 0.013460 -0.003809 0.000000 0.000000 0.000000
# 3 -0.001805 -0.003809 0.016270 0.000000 0.000000 0.000000
# 4 0.000000 0.000000 0.000000 0.457491 0.000000 0.000000
# 5 0.000000 0.000000 0.000000 0.000000 0.102695 0.000000
# 6 0.000000 0.000000 0.000000 0.000000 0.000000 0.017438
#
#
# Mechanical properties :
#
#
# Convention : Reuss Voigt Hill
#
# Bulk Modulus (GPa) = 46.31766 48.96223 47.63995
# Shear Modulus (GPa) = 7.77516 26.69009 17.23263
#
# Velocity S-wave (km/s) = 1.79791 3.33111 2.67664
# Velocity P-wave (km/s) = 4.85452 5.92882 5.41836
#
# Compressibility (1/GPa) = 0.02159004
#
# Stress axis : x y z
#
# Youngs Moduli (GPa) = 98.11921 74.29554 61.46244
#
# Poissons Ratio (x) = 0.26392 0.11093
# Poissons Ratio (y) = 0.34855 0.23408
# Poissons Ratio (z) = 0.17709 0.28296
#
# Static dielectric constant tensor:
#      x y z
#    x 1.909810 0.000000 0.000000 
#    y 0.000000 2.140420 0.000000 
#    z 0.000000 0.000000 1.939340 
# 
# From -- ./inp_files/13807.got.cif
#   From: 2010.05.17/outbox.cif.g08.bks.cpg/sg54_7_cif.got.tgz:13807.got - 2010.06.03 13:09:01.
