data_PCOD9421055
_publ_section_title
;
Structure prediction by ZEFSAII (Michael W. Deem and Ramdas Pophale) SiO2 
 PCOD9421055
Probable space group: P C C A
;
_chemical_formula_sum "Si O2"
_cell_formula_units_Z 44
_cell_length_a 11.533950
_cell_length_b 7.162114
_cell_length_c 26.184240
_cell_angle_alpha 90.000000
_cell_angle_beta 90.000000
_cell_angle_gamma 90.000000
_cell_volume 2163.013683
_symmetry_space_group_name_H-M "P C C A"
_symmetry_group_IT_number 54
_symmetry_cell_setting 'orthorhombic'
loop_
_space_group_symop_operation_xyz
x,y,z
1/2-x,-y,z
1/2+x,-y,1/2-z
-x,y,1/2-z
-x,-y,-z
1/2+x,y,-z
1/2-x,y,1/2+z
x,-y,1/2+z
loop_
_atom_site_type_symbol
_atom_site_label
_atom_site_fract_x
_atom_site_fract_y
_atom_site_fract_z
Si Si1 0.799502 0.290934 0.952890
Si Si2 0.858771 0.250424 0.067392
Si Si3 0.999524 0.560986 0.114892
Si Si4 0.750000 0.000000 0.644693
Si Si5 0.015411 0.107741 0.809988
Si Si6 0.907915 0.164864 0.384742
O O1 0.750000 0.500000 0.958776
O O2 0.919395 0.318660 0.922688
O O3 0.705380 0.180500 0.919462
O O4 0.821425 0.220701 0.009735
O O5 0.602411 0.538375 0.082051
O O6 0.763676 0.174998 0.106650
O O7 0.977818 0.135995 0.079607
O O8 0.070130 0.377814 0.134509
O O9 0.972383 0.693471 0.161975
O O10 0.635992 0.995791 0.678453
O O11 0.000000 0.124598 0.750000
O O12 0.917483 0.984915 0.839493
#
# Coordination Sequence:
#
# PCOD9421055 Si02
#       6
#     8   8   8   4   8   8
#     4  10  19  34  62  92 128 172 192 244 321 364
#     4   9  20  36  58  88 127 161 199 244 303 377
#     4   9  21  38  60  92 122 157 210 252 297 381
#     4  10  24  42  58  92 118 164 202 258 312 372
#     4  11  24  43  65  85 120 160 215 265 316 354
#     4   8  21  39  56  89 132 153 207 261 293 380
#
# _framework density 20.341988000000001
#
# number of rings (size 3 to 8) (size 9 to 14) (size 15 to 20)
#    1.091    1.455    0.000    0.545    2.545    4.364 
#    0.000    3.636    0.000    0.000    0.000    0.000 
#    0.000    0.000    0.000    0.000    0.000    0.000 
#
# Total GULP energy -245289.902330 kJ/mol
# GULP energy per Si atom -5574.770507 kJ/mol
# Density = 2.029569 g / cm^3
# Si number density = 20.341988 Si / 1000 Ang^3
#
#
#
# Elastic Constant Matrix: (Units=GPa)
#
#
# Indices 1 2 3 4 5 6 
#
# 1 67.7763 20.7636 57.4002 0.0000 0.0000 0.0000
# 2 20.7636 69.4785 46.6064 0.0000 0.0000 0.0000
# 3 57.4002 46.6064 164.5837 0.0000 0.0000 0.0000
# 4 0.0000 0.0000 0.0000 -237.3182 0.0000 0.0000
# 5 0.0000 0.0000 0.0000 0.0000 21.1349 0.0000
# 6 0.0000 0.0000 0.0000 0.0000 0.0000 26.5411
#
#
#
# Elastic Compliance Matrix: (Units=1/GPa)
#
#
# Indices 1 2 3 4 5 6 
#
# 1 0.021099 -0.001690 -0.006880 0.000000 0.000000 0.000000
# 2 -0.001690 0.017904 -0.004480 0.000000 0.000000 0.000000
# 3 -0.006880 -0.004480 0.009744 0.000000 0.000000 0.000000
# 4 0.000000 0.000000 0.000000 -0.004214 0.000000 0.000000
# 5 0.000000 0.000000 0.000000 0.000000 0.047315 0.000000
# 6 0.000000 0.000000 0.000000 0.000000 0.000000 0.037677
#
#
# Mechanical properties :
#
#
# Convention : Reuss Voigt Hill
#
# Bulk Modulus (GPa) = 44.15905 61.26432 52.71169
# Shear Modulus (GPa) = 30.64203 -26.12390 2.25906
#
# Velocity S-wave (km/s) = 3.88538 -3.58751 1.05497
# Velocity P-wave (km/s) = 6.47176 3.60863 5.23956
#
# Compressibility (1/GPa) = 0.02264541
#
# Stress axis : x y z
#
# Youngs Moduli (GPa) = 47.39614 55.85488 102.62689
#
# Poissons Ratio (x) = 0.09442 0.70604
# Poissons Ratio (y) = 0.08012 0.45980
# Poissons Ratio (z) = 0.32607 0.25025
#
# Static dielectric constant tensor:
#      x y z
#    x 1.778700 0.000000 0.000000 
#    y 0.000000 1.786400 0.000000 
#    z 0.000000 0.000000 1.659790 
# 
# From -- ./inp_files/23989.got.cif
#   From: 2010.05.17/outbox.cif.g08.bks.cpg/sg54_12_cif.got.tgz:23989.got - 2010.06.03 13:09:01.
