data_PCOD9421273
_publ_section_title
;
Structure prediction by ZEFSAII (Michael W. Deem and Ramdas Pophale) SiO2 
 PCOD9421273
Probable space group: P C C A
;
_chemical_formula_sum "Si O2"
_cell_formula_units_Z 60
_cell_length_a 14.579510
_cell_length_b 18.310895
_cell_length_c 9.541763
_cell_angle_alpha 90.000000
_cell_angle_beta 90.000000
_cell_angle_gamma 90.000000
_cell_volume 2547.306042
_symmetry_space_group_name_H-M "P C C A"
_symmetry_group_IT_number 54
_symmetry_cell_setting 'orthorhombic'
loop_
_space_group_symop_operation_xyz
x,y,z
1/2-x,-y,z
1/2+x,-y,1/2-z
-x,y,1/2-z
-x,-y,-z
1/2+x,y,-z
1/2-x,y,1/2+z
x,-y,1/2+z
loop_
_atom_site_type_symbol
_atom_site_label
_atom_site_fract_x
_atom_site_fract_y
_atom_site_fract_z
Si Si1 0.606478 0.919524 0.766153
Si Si2 0.912711 0.604692 0.808955
Si Si3 0.168032 0.236571 0.783612
Si Si4 0.377081 0.496603 0.958570
Si Si5 0.887516 0.599875 0.272313
Si Si6 0.000000 0.152373 0.250000
Si Si7 0.343556 0.246060 0.612251
Si Si8 0.596044 0.032647 0.559211
O O1 0.500000 0.940690 0.750000
O O2 0.607711 0.833546 0.746736
O O3 0.648180 0.969077 0.643262
O O4 0.644271 0.939647 0.918342
O O5 0.888346 0.555952 0.675438
O O6 0.937003 0.550950 0.938748
O O7 0.845818 0.667174 0.854715
O O8 0.000000 0.646747 0.750000
O O9 0.128821 0.313771 0.727556
O O10 0.263387 0.217969 0.710242
O O11 0.177957 0.240910 0.949662
O O12 0.351173 0.440803 0.086249
O O13 0.336080 0.563590 0.862356
O O14 0.000000 0.586748 0.250000
O O15 0.936203 0.202457 0.349626
O O16 0.933464 0.099731 0.159278
O O17 0.500000 0.000000 0.500000
#
# Coordination Sequence:
#
# PCOD9421273 Si02
#       8
#     8   8   8   8   8   4   8   8
#     4  10  21  42  75 106 142 178 231 287 355 427
#     4  11  20  41  68 100 131 182 239 294 350 418
#     4  12  29  48  66 104 151 187 242 298 364 430
#     4  10  21  37  69 104 135 177 243 298 343 418
#     4  11  21  40  70 102 139 186 236 291 357 424
#     4  12  24  46  84 100 142 192 246 284 360 430
#     4  12  29  48  69 104 146 192 241 296 361 430
#     4  10  19  39  76 112 133 175 235 289 342 430
#
# _framework density 23.554296000000001
#
# number of rings (size 3 to 8) (size 9 to 14) (size 15 to 20)
#    0.000    1.067    4.000    5.200    3.733    0.000 
#    0.000    4.667    2.933    0.000    0.000    0.000 
#    0.000    0.000    0.000    0.000    0.000    0.000 
#
# Total GULP energy -334143.409311 kJ/mol
# GULP energy per Si atom -5569.056822 kJ/mol
# Density = 2.350069 g / cm^3
# Si number density = 23.554296 Si / 1000 Ang^3
#
#
#
# Elastic Constant Matrix: (Units=GPa)
#
#
# Indices 1 2 3 4 5 6 
#
# 1 30.3084 7.2106 -8.1300 0.0000 0.0000 0.0000
# 2 7.2106 132.3283 64.5582 0.0000 0.0000 0.0000
# 3 -8.1300 64.5582 176.4550 0.0000 0.0000 0.0000
# 4 0.0000 0.0000 0.0000 26.2708 0.0000 0.0000
# 5 0.0000 0.0000 0.0000 0.0000 -19.7930 0.0000
# 6 0.0000 0.0000 0.0000 0.0000 0.0000 -4.1383
#
#
#
# Elastic Compliance Matrix: (Units=1/GPa)
#
#
# Indices 1 2 3 4 5 6 
#
# 1 0.034507 -0.003233 0.002773 0.000000 0.000000 0.000000
# 2 -0.003233 0.009502 -0.003625 0.000000 0.000000 0.000000
# 3 0.002773 -0.003625 0.007121 0.000000 0.000000 0.000000
# 4 0.000000 0.000000 0.000000 0.038065 0.000000 0.000000
# 5 0.000000 0.000000 0.000000 0.000000 -0.050523 0.000000
# 6 0.000000 0.000000 0.000000 0.000000 0.000000 -0.241645
#
#
# Mechanical properties :
#
#
# Convention : Reuss Voigt Hill
#
# Bulk Modulus (GPa) = 23.27804 51.81878 37.54841
# Shear Modulus (GPa) = -27.70363 18.83144 -4.43609
#
# Velocity S-wave (km/s) = -3.43324 2.83059 -1.37384
# Velocity P-wave (km/s) = 2.41081 5.72106 3.66868
#
# Compressibility (1/GPa) = 0.04295894
#
# Stress axis : x y z
#
# Youngs Moduli (GPa) = 28.97960 105.24344 140.42425
#
# Poissons Ratio (x) = 0.34025 -0.38936
# Poissons Ratio (y) = 0.09369 0.50908
# Poissons Ratio (z) = -0.08035 0.38154
#
# Static dielectric constant tensor:
#      x y z
#    x 1.996230 0.000000 0.000000 
#    y 0.000000 1.872270 0.000000 
#    z 0.000000 0.000000 1.886680 
# 
# From -- ./inp_files/4364.got.cif
#   From: 2010.05.17/outbox.cif.g08.bks.cpg/sg54_3_cif.got.tgz:4364.got - 2010.06.03 13:09:01.
