data_PCOD9421317
_publ_section_title
;
Structure prediction by ZEFSAII (Michael W. Deem and Ramdas Pophale) SiO2 
 PCOD9421317
Probable space group: P C C A
;
_chemical_formula_sum "Si O2"
_cell_formula_units_Z 48
_cell_length_a 9.590978
_cell_length_b 10.950749
_cell_length_c 24.489669
_cell_angle_alpha 90.000000
_cell_angle_beta 90.000000
_cell_angle_gamma 90.000000
_cell_volume 2572.110574
_symmetry_space_group_name_H-M "P C C A"
_symmetry_group_IT_number 54
_symmetry_cell_setting 'orthorhombic'
loop_
_space_group_symop_operation_xyz
x,y,z
1/2-x,-y,z
1/2+x,-y,1/2-z
-x,y,1/2-z
-x,-y,-z
1/2+x,y,-z
1/2-x,y,1/2+z
x,-y,1/2+z
loop_
_atom_site_type_symbol
_atom_site_label
_atom_site_fract_x
_atom_site_fract_y
_atom_site_fract_z
Si Si1 0.800256 0.682670 0.077436
Si Si2 0.592881 0.022805 0.946517
Si Si3 0.526827 0.552226 0.095109
Si Si4 0.690138 0.722535 0.453772
Si Si5 0.435155 0.211417 0.122962
Si Si6 0.107116 0.425451 0.700054
O O1 0.650264 0.651072 0.101807
O O2 0.889517 0.559100 0.068237
O O3 0.901992 0.758608 0.116199
O O4 0.786948 0.740024 0.017836
O O5 0.596746 0.165026 0.931389
O O6 0.750000 0.000000 0.965611
O O7 0.574009 0.931174 0.894991
O O8 0.500000 0.000000 0.000000
O O9 0.398819 0.603675 0.060460
O O10 0.465500 0.501654 0.151319
O O11 0.839216 0.726486 0.424268
O O12 0.379440 0.285673 0.176114
O O13 0.250000 0.500000 0.712482
O O14 0.000000 0.422862 0.750000
#
# Coordination Sequence:
#
# PCOD9421317 Si02
#       6
#     8   8   8   8   8   8
#     4  10  20  31  53  83 127 158 189 224 285 360
#     4  10  21  34  54  84 120 161 200 229 273 346
#     4  10  22  35  52  86 118 154 191 241 292 352
#     4  11  19  34  55  83 121 164 194 230 287 350
#     4  10  21  37  54  85 118 154 195 242 287 346
#     4  11  24  42  65  84 110 148 198 256 311 353
#
# _framework density 18.661716999999999
#
# number of rings (size 3 to 8) (size 9 to 14) (size 15 to 20)
#    0.000    1.667    3.333    1.500    7.000    4.000 
#    0.000    0.000    0.000    1.000    0.000    0.000 
#    0.000    0.000    0.000    0.000    0.000    0.000 
#
# Total GULP energy -267239.946129 kJ/mol
# GULP energy per Si atom -5567.498878 kJ/mol
# Density = 1.861924 g / cm^3
# Si number density = 18.661717 Si / 1000 Ang^3
#
#
#
# Elastic Constant Matrix: (Units=GPa)
#
#
# Indices 1 2 3 4 5 6 
#
# 1 70.0431 21.3025 15.8149 0.0000 0.0000 0.0000
# 2 21.3025 68.8016 25.7277 0.0000 0.0000 0.0000
# 3 15.8149 25.7277 61.7398 0.0000 0.0000 0.0000
# 4 0.0000 0.0000 0.0000 15.7593 0.0000 0.0000
# 5 0.0000 0.0000 0.0000 0.0000 31.0779 0.0000
# 6 0.0000 0.0000 0.0000 0.0000 0.0000 25.3453
#
#
#
# Elastic Compliance Matrix: (Units=1/GPa)
#
#
# Indices 1 2 3 4 5 6 
#
# 1 0.016060 -0.004068 -0.002419 0.000000 0.000000 0.000000
# 2 -0.004068 0.018248 -0.006562 0.000000 0.000000 0.000000
# 3 -0.002419 -0.006562 0.019551 0.000000 0.000000 0.000000
# 4 0.000000 0.000000 0.000000 0.063454 0.000000 0.000000
# 5 0.000000 0.000000 0.000000 0.000000 0.032177 0.000000
# 6 0.000000 0.000000 0.000000 0.000000 0.000000 0.039455
#
#
# Mechanical properties :
#
#
# Convention : Reuss Voigt Hill
#
# Bulk Modulus (GPa) = 36.02112 36.25277 36.13694
# Shear Modulus (GPa) = 22.29180 23.61914 22.95547
#
# Velocity S-wave (km/s) = 3.45993 3.56145 3.51106
# Velocity P-wave (km/s) = 5.94185 6.03161 5.98690
#
# Compressibility (1/GPa) = 0.02776149
#
# Stress axis : x y z
#
# Youngs Moduli (GPa) = 62.26528 54.80056 51.14813
#
# Poissons Ratio (x) = 0.22294 0.12371
# Poissons Ratio (y) = 0.25331 0.33564
# Poissons Ratio (z) = 0.15060 0.35961
#
# Static dielectric constant tensor:
#      x y z
#    x 1.535730 0.000000 0.000000 
#    y 0.000000 1.756850 0.000000 
#    z 0.000000 0.000000 1.609730 
# 
# From -- ./inp_files/23517.got.cif
#   From: 2010.05.17/outbox.cif.g08.bks.cpg/sg54_12_cif.got.tgz:23517.got - 2010.06.03 13:09:01.
