data_PCOD9421331
_publ_section_title
;
Structure prediction by ZEFSAII (Michael W. Deem and Ramdas Pophale) SiO2 
 PCOD9421331
Probable space group: P C C A
;
_chemical_formula_sum "Si O2"
_cell_formula_units_Z 36
_cell_length_a 5.493904
_cell_length_b 13.606347
_cell_length_c 21.884493
_cell_angle_alpha 90.000000
_cell_angle_beta 90.000000
_cell_angle_gamma 90.000000
_cell_volume 1635.908837
_symmetry_space_group_name_H-M "P C C A"
_symmetry_group_IT_number 54
_symmetry_cell_setting 'orthorhombic'
loop_
_space_group_symop_operation_xyz
x,y,z
1/2-x,-y,z
1/2+x,-y,1/2-z
-x,y,1/2-z
-x,-y,-z
1/2+x,y,-z
1/2-x,y,1/2+z
x,-y,1/2+z
loop_
_atom_site_type_symbol
_atom_site_label
_atom_site_fract_x
_atom_site_fract_y
_atom_site_fract_z
Si Si1 0.881728 0.085774 0.190466
Si Si2 0.500000 0.232637 0.250000
Si Si3 0.317213 0.105715 0.038118
Si Si4 0.499730 0.559268 0.323023
Si Si5 0.703026 0.746883 0.363471
O O1 0.695161 0.164462 0.217008
O O2 0.000000 0.035590 0.250000
O O3 0.076113 0.152488 0.158157
O O4 0.750000 0.000000 0.153580
O O5 0.620564 0.286347 0.307587
O O6 0.316766 0.208826 0.075604
O O7 0.250000 0.000000 0.070805
O O8 0.587370 0.105239 0.008782
O O9 0.750000 0.500000 0.335528
O O10 0.500000 0.583580 0.250000
O O11 0.513269 0.657941 0.363856
O O12 0.250000 0.500000 0.334368
#
# Coordination Sequence:
#
# PCOD9421331 Si02
#       5
#     8   4   8   8   8
#     4  10  20  32  50  85 130 167 199 252 330 407
#     4  10  22  34  58  94 134 168 212 264 348 412
#     4  10  25  46  68  95 131 184 235 274 328 397
#     4  10  23  41  64  94 135 177 214 268 341 415
#     4  11  25  38  66  94 130 173 228 281 331 407
#
# _framework density 22.006115000000001
#
# number of rings (size 3 to 8) (size 9 to 14) (size 15 to 20)
#    0.000    1.778    1.111    2.000   14.000    0.889 
#    0.000    0.000    0.000    4.000    0.000    0.000 
#    0.000    0.000    0.000    0.000    0.000    0.000 
#
# Total GULP energy -200618.494134 kJ/mol
# GULP energy per Si atom -5572.735948 kJ/mol
# Density = 2.195603 g / cm^3
# Si number density = 22.006115 Si / 1000 Ang^3
#
#
#
# Elastic Constant Matrix: (Units=GPa)
#
#
# Indices 1 2 3 4 5 6 
#
# 1 98.4115 19.0461 17.2973 0.0000 0.0000 0.0000
# 2 19.0461 117.6113 33.6674 0.0000 0.0000 0.0000
# 3 17.2973 33.6674 23.4610 0.0000 0.0000 0.0000
# 4 0.0000 0.0000 0.0000 18.6704 0.0000 0.0000
# 5 0.0000 0.0000 0.0000 0.0000 21.3522 0.0000
# 6 0.0000 0.0000 0.0000 0.0000 0.0000 36.0688
#
#
#
# Elastic Compliance Matrix: (Units=1/GPa)
#
#
# Indices 1 2 3 4 5 6 
#
# 1 0.011740 0.000979 -0.010060 0.000000 0.000000 0.000000
# 2 0.000979 0.014512 -0.021547 0.000000 0.000000 0.000000
# 3 -0.010060 -0.021547 0.080961 0.000000 0.000000 0.000000
# 4 0.000000 0.000000 0.000000 0.053561 0.000000 0.000000
# 5 0.000000 0.000000 0.000000 0.000000 0.046834 0.000000
# 6 0.000000 0.000000 0.000000 0.000000 0.000000 0.027725
#
#
# Mechanical properties :
#
#
# Convention : Reuss Voigt Hill
#
# Bulk Modulus (GPa) = 21.75946 42.16727 31.96336
# Shear Modulus (GPa) = 16.03034 26.51649 21.27341
#
# Velocity S-wave (km/s) = 2.70191 3.47502 3.11256
# Velocity P-wave (km/s) = 4.43206 5.94174 5.24153
#
# Compressibility (1/GPa) = 0.04595703
#
# Stress axis : x y z
#
# Youngs Moduli (GPa) = 85.17710 68.90798 12.35155
#
# Poissons Ratio (x) = -0.06743 0.12426
# Poissons Ratio (y) = -0.08335 0.26614
# Poissons Ratio (z) = 0.85689 1.48475
#
# Static dielectric constant tensor:
#      x y z
#    x 1.941520 0.000000 0.000000 
#    y 0.000000 1.857530 0.000000 
#    z 0.000000 0.000000 1.924960 
# 
# From -- ./inp_files/22679.got.cif
#   From: 2010.05.17/outbox.cif.g08.bks.cpg/sg54_12_cif.got.tgz:22679.got - 2010.06.03 13:09:01.
