data_PCOD9421020
_publ_section_title
;
Structure prediction by ZEFSAII (Michael W. Deem and Ramdas Pophale) SiO2 
 PCOD9421020
Probable space group: P C C A
;
_chemical_formula_sum "Si O2"
_cell_formula_units_Z 40
_cell_length_a 18.326074
_cell_length_b 5.301845
_cell_length_c 14.779618
_cell_angle_alpha 90.000000
_cell_angle_beta 90.000000
_cell_angle_gamma 90.000000
_cell_volume 1436.017300
_symmetry_space_group_name_H-M "P C C A"
_symmetry_group_IT_number 54
_symmetry_cell_setting 'orthorhombic'
loop_
_space_group_symop_operation_xyz
x,y,z
1/2-x,-y,z
1/2+x,-y,1/2-z
-x,y,1/2-z
-x,-y,-z
1/2+x,y,-z
1/2-x,y,1/2+z
x,-y,1/2+z
loop_
_atom_site_type_symbol
_atom_site_label
_atom_site_fract_x
_atom_site_fract_y
_atom_site_fract_z
Si Si1 0.352000 0.239614 0.604421
Si Si2 0.148652 0.738722 0.205149
Si Si3 0.250000 0.500000 0.853832
Si Si4 0.507183 0.743090 0.634483
Si Si5 0.250000 0.000000 0.456301
Si Si6 0.527125 0.239049 0.575193
O O1 0.330901 0.524723 0.630130
O O2 0.313215 0.126640 0.517115
O O3 0.439518 0.243404 0.594775
O O4 0.333495 0.026883 0.679644
O O5 0.189995 0.635786 0.291244
O O6 0.059995 0.730637 0.204062
O O7 0.279950 0.252977 0.906998
O O8 0.553206 0.493396 0.620354
O O9 0.466499 0.761159 0.532935
O O10 0.553644 0.996356 0.628747
#
# Coordination Sequence:
#
# PCOD9421020 Si02
#       6
#     8   8   4   8   4   8
#     4  10  19  34  55  76 100 134 176 215 255 312
#     4  10  19  34  55  76 100 134 176 215 255 312
#     4  12  24  36  50  74 108 142 176 218 266 310
#     4   8  14  25  45  74  99 119 155 209 256 293
#     4  12  24  36  50  74 108 142 176 218 266 310
#     4   8  14  25  45  74  99 119 155 209 256 293
#
# _framework density 27.854818999999999
#
# number of rings (size 3 to 8) (size 9 to 14) (size 15 to 20)
#    0.000    2.400    0.000    3.600    0.000    0.000 
#    0.000    0.000    0.000    1.200    0.000    2.800 
#    0.000    0.000    0.000    0.000    0.000    0.000 
#
# Total GULP energy -223966.651459 kJ/mol
# GULP energy per Si atom -5599.166286 kJ/mol
# Density = 2.779142 g / cm^3
# Si number density = 27.854819 Si / 1000 Ang^3
#
#
#
# Elastic Constant Matrix: (Units=GPa)
#
#
# Indices 1 2 3 4 5 6 
#
# 1 103.6338 -11.4771 17.1285 0.0000 0.0000 0.0000
# 2 -11.4771 210.7889 20.7115 0.0000 0.0000 0.0000
# 3 17.1285 20.7115 52.9920 0.0000 0.0000 0.0000
# 4 0.0000 0.0000 0.0000 32.2775 0.0000 0.0000
# 5 0.0000 0.0000 0.0000 0.0000 38.4836 0.0000
# 6 0.0000 0.0000 0.0000 0.0000 0.0000 19.4311
#
#
#
# Elastic Compliance Matrix: (Units=1/GPa)
#
#
# Indices 1 2 3 4 5 6 
#
# 1 0.010366 0.000929 -0.003714 0.000000 0.000000 0.000000
# 2 0.000929 0.005017 -0.002261 0.000000 0.000000 0.000000
# 3 -0.003714 -0.002261 0.020955 0.000000 0.000000 0.000000
# 4 0.000000 0.000000 0.000000 0.030981 0.000000 0.000000
# 5 0.000000 0.000000 0.000000 0.000000 0.025985 0.000000
# 6 0.000000 0.000000 0.000000 0.000000 0.000000 0.051464
#
#
# Mechanical properties :
#
#
# Convention : Reuss Voigt Hill
#
# Bulk Modulus (GPa) = 38.10026 46.68227 42.39126
# Shear Modulus (GPa) = 30.56078 40.77525 35.66801
#
# Velocity S-wave (km/s) = 3.31591 3.83018 3.58229
# Velocity P-wave (km/s) = 5.32618 6.02958 5.68876
#
# Compressibility (1/GPa) = 0.02624654
#
# Stress axis : x y z
#
# Youngs Moduli (GPa) = 96.46826 199.32783 47.72138
#
# Poissons Ratio (x) = -0.18524 0.17723
# Poissons Ratio (y) = -0.08965 0.10791
# Poissons Ratio (z) = 0.35827 0.45072
#
# Static dielectric constant tensor:
#      x y z
#    x 2.118740 0.000000 0.000000 
#    y 0.000000 2.245180 0.000000 
#    z 0.000000 0.000000 2.315660 
# 
# From -- ./inp_files/10182.got.cif
#   From: 2010.05.17/outbox.cif.g08.bks.cpg/sg54_6_cif.got.tgz:10182.got - 2010.06.03 13:09:01.
