data_PCOD9421174
_publ_section_title
;
Structure prediction by ZEFSAII (Michael W. Deem and Ramdas Pophale) SiO2 
 PCOD9421174
Probable space group: P C C A
;
_chemical_formula_sum "Si O2"
_cell_formula_units_Z 56
_cell_length_a 9.769266
_cell_length_b 19.175082
_cell_length_c 14.092366
_cell_angle_alpha 90.000000
_cell_angle_beta 90.000000
_cell_angle_gamma 90.000000
_cell_volume 2639.873270
_symmetry_space_group_name_H-M "P C C A"
_symmetry_group_IT_number 54
_symmetry_cell_setting 'orthorhombic'
loop_
_space_group_symop_operation_xyz
x,y,z
1/2-x,-y,z
1/2+x,-y,1/2-z
-x,y,1/2-z
-x,-y,-z
1/2+x,y,-z
1/2-x,y,1/2+z
x,-y,1/2+z
loop_
_atom_site_type_symbol
_atom_site_label
_atom_site_fract_x
_atom_site_fract_y
_atom_site_fract_z
Si Si1 0.323956 0.793899 0.532584
Si Si2 0.415232 0.000988 0.345245
Si Si3 0.112439 0.464844 0.385660
Si Si4 0.357840 0.558482 0.613288
Si Si5 0.782048 0.297207 0.324242
Si Si6 0.936886 0.107645 0.479532
Si Si7 0.909779 0.306113 0.127113
O O1 0.316892 0.761467 0.636010
O O2 0.462341 0.830982 0.506758
O O3 0.208941 0.854307 0.530813
O O4 0.325322 0.726716 0.460596
O O5 0.500000 0.019017 0.250000
O O6 0.492348 0.932281 0.389960
O O7 0.250000 0.000000 0.325723
O O8 0.429266 0.055358 0.431709
O O9 0.250000 0.500000 0.354118
O O10 0.128870 0.444329 0.497894
O O11 0.090182 0.388317 0.346810
O O12 0.001730 0.523490 0.361307
O O13 0.250000 0.500000 0.638841
O O14 0.299116 0.630274 0.655930
O O15 0.833415 0.277810 0.219895
O O16 0.926804 0.293319 0.382374
#
# Coordination Sequence:
#
# PCOD9421174 Si02
#       7
#     8   8   8   8   8   8   8
#     4  12  24  45  71  97 142 189 230 285 341 417
#     4  11  26  46  76 114 149 181 230 285 335 406
#     4  10  21  36  62  91 125 163 221 288 356 414
#     4  10  19  36  64  89 119 171 220 280 354 415
#     4  11  24  41  66  94 133 182 234 290 352 420
#     4  11  26  46  72 104 145 189 232 276 344 405
#     4  11  24  42  63  97 134 177 235 293 352 419
#
# _framework density 21.213138000000001
#
# number of rings (size 3 to 8) (size 9 to 14) (size 15 to 20)
#    0.000    1.143    5.714    0.000    2.000    4.000 
#    0.000    1.429    0.000    0.000    0.000    0.000 
#    0.000    0.000    0.000    0.000    0.000    0.000 
#
# Total GULP energy -311904.419832 kJ/mol
# GULP energy per Si atom -5569.721783 kJ/mol
# Density = 2.116486 g / cm^3
# Si number density = 21.213138 Si / 1000 Ang^3
#
#
#
# Elastic Constant Matrix: (Units=GPa)
#
#
# Indices 1 2 3 4 5 6 
#
# 1 101.5721 4.9606 20.6868 0.0000 0.0000 0.0000
# 2 4.9606 55.7469 -0.0048 0.0000 0.0000 0.0000
# 3 20.6868 -0.0048 53.6912 0.0000 0.0000 0.0000
# 4 0.0000 0.0000 0.0000 18.7144 0.0000 0.0000
# 5 0.0000 0.0000 0.0000 0.0000 30.5851 0.0000
# 6 0.0000 0.0000 0.0000 0.0000 0.0000 35.5197
#
#
#
# Elastic Compliance Matrix: (Units=1/GPa)
#
#
# Indices 1 2 3 4 5 6 
#
# 1 0.010734 -0.000956 -0.004136 0.000000 0.000000 0.000000
# 2 -0.000956 0.018023 0.000370 0.000000 0.000000 0.000000
# 3 -0.004136 0.000370 0.020219 0.000000 0.000000 0.000000
# 4 0.000000 0.000000 0.000000 0.053435 0.000000 0.000000
# 5 0.000000 0.000000 0.000000 0.000000 0.032696 0.000000
# 6 0.000000 0.000000 0.000000 0.000000 0.000000 0.028153
#
#
# Mechanical properties :
#
#
# Convention : Reuss Voigt Hill
#
# Bulk Modulus (GPa) = 25.29545 29.14392 27.21968
# Shear Modulus (GPa) = 26.89896 29.32170 28.11033
#
# Velocity S-wave (km/s) = 3.56481 3.72189 3.64419
# Velocity P-wave (km/s) = 5.37533 5.67788 5.52867
#
# Compressibility (1/GPa) = 0.03953280
#
# Stress axis : x y z
#
# Youngs Moduli (GPa) = 93.15994 55.48377 49.45946
#
# Poissons Ratio (x) = 0.05302 0.20456
# Poissons Ratio (y) = 0.08902 -0.01829
# Poissons Ratio (z) = 0.38530 -0.02052
#
# Static dielectric constant tensor:
#      x y z
#    x 1.787830 0.000000 0.000000 
#    y 0.000000 1.777090 0.000000 
#    z 0.000000 0.000000 1.887130 
# 
# From -- ./inp_files/11874.got.cif
#   From: 2010.05.17/outbox.cif.g08.bks.cpg/sg54_6_cif.got.tgz:11874.got - 2010.06.03 13:09:01.
