data_PCOD9421385
_publ_section_title
;
Structure prediction by ZEFSAII (Michael W. Deem and Ramdas Pophale) SiO2 
 PCOD9421385
Probable space group: P C C A
;
_chemical_formula_sum "Si O2"
_cell_formula_units_Z 60
_cell_length_a 8.795004
_cell_length_b 27.931720
_cell_length_c 12.336139
_cell_angle_alpha 90.000000
_cell_angle_beta 90.000000
_cell_angle_gamma 90.000000
_cell_volume 3030.490838
_symmetry_space_group_name_H-M "P C C A"
_symmetry_group_IT_number 54
_symmetry_cell_setting 'orthorhombic'
loop_
_space_group_symop_operation_xyz
x,y,z
1/2-x,-y,z
1/2+x,-y,1/2-z
-x,y,1/2-z
-x,-y,-z
1/2+x,y,-z
1/2-x,y,1/2+z
x,-y,1/2+z
loop_
_atom_site_type_symbol
_atom_site_label
_atom_site_fract_x
_atom_site_fract_y
_atom_site_fract_z
Si Si1 0.233946 0.052324 0.343568
Si Si2 0.999059 0.558844 0.878138
Si Si3 0.750000 0.500000 0.493672
Si Si4 0.304553 0.873119 0.652518
Si Si5 0.197826 0.728008 0.484260
Si Si6 0.541891 0.086159 0.977735
Si Si7 0.947461 0.771664 0.358316
Si Si8 0.454296 0.670665 0.375041
O O1 0.283944 0.093030 0.257726
O O2 0.342761 0.054590 0.449984
O O3 0.063926 0.060592 0.388611
O O4 0.250000 0.000000 0.292184
O O5 0.036929 0.614307 0.900271
O O6 0.000000 0.552317 0.750000
O O7 0.838663 0.539782 0.923529
O O8 0.126901 0.526503 0.933064
O O9 0.145152 0.875828 0.587595
O O10 0.427756 0.892450 0.566471
O O11 0.368055 0.820903 0.679402
O O12 0.320121 0.747115 0.569329
O O13 0.292789 0.695575 0.400134
O O14 0.102032 0.771152 0.429278
O O15 0.076699 0.696331 0.548436
O O16 0.000000 0.744666 0.250000
O O17 0.500000 0.677557 0.250000
#
# Coordination Sequence:
#
# PCOD9421385 Si02
#       8
#     8   8   4   8   8   8   8   8
#     4  11  23  40  62  87 116 150 187 228 274 330
#     4  10  20  34  55  80 117 155 200 247 291 346
#     4  10  20  34  52  82 116 162 202 238 292 350
#     4  11  23  40  60  85 115 148 187 228 280 337
#     4  10  22  38  60  85 114 148 192 240 300 356
#     4  10  23  40  59  85 115 148 186 228 272 330
#     4  11  22  39  60  85 114 148 186 236 289 353
#     4  10  20  37  58  86 115 151 195 248 298 347
#
# _framework density 19.798773000000001
#
# number of rings (size 3 to 8) (size 9 to 14) (size 15 to 20)
#    0.000    1.600    0.000    4.800    0.000    5.333 
#    0.000    4.000    0.000   12.800    0.000    0.000 
#    0.000    0.000    0.000    0.000    0.000    0.000 
#
# Total GULP energy -334867.997999 kJ/mol
# GULP energy per Si atom -5581.133300 kJ/mol
# Density = 1.975371 g / cm^3
# Si number density = 19.798773 Si / 1000 Ang^3
#
#
#
# Elastic Constant Matrix: (Units=GPa)
#
#
# Indices 1 2 3 4 5 6 
#
# 1 128.2731 39.9308 43.4996 0.0000 0.0000 0.0000
# 2 39.9308 94.7591 47.4634 0.0000 0.0000 0.0000
# 3 43.4996 47.4634 94.0221 0.0000 0.0000 0.0000
# 4 0.0000 0.0000 0.0000 29.2205 0.0000 0.0000
# 5 0.0000 0.0000 0.0000 0.0000 33.4648 0.0000
# 6 0.0000 0.0000 0.0000 0.0000 0.0000 29.9059
#
#
#
# Elastic Compliance Matrix: (Units=1/GPa)
#
#
# Indices 1 2 3 4 5 6 
#
# 1 0.009654 -0.002451 -0.003229 0.000000 0.000000 0.000000
# 2 -0.002451 0.014747 -0.006310 0.000000 0.000000 0.000000
# 3 -0.003229 -0.006310 0.015315 0.000000 0.000000 0.000000
# 4 0.000000 0.000000 0.000000 0.034223 0.000000 0.000000
# 5 0.000000 0.000000 0.000000 0.000000 0.029882 0.000000
# 6 0.000000 0.000000 0.000000 0.000000 0.000000 0.033438
#
#
# Mechanical properties :
#
#
# Convention : Reuss Voigt Hill
#
# Bulk Modulus (GPa) = 63.55191 64.31576 63.93384
# Shear Modulus (GPa) = 30.03285 30.92894 30.48089
#
# Velocity S-wave (km/s) = 3.89897 3.95671 3.92795
# Velocity P-wave (km/s) = 7.24140 7.30954 7.27555
#
# Compressibility (1/GPa) = 0.01573517
#
# Stress axis : x y z
#
# Youngs Moduli (GPa) = 103.58590 67.81260 65.29363
#
# Poissons Ratio (x) = 0.16618 0.21085
# Poissons Ratio (y) = 0.25384 0.41203
# Poissons Ratio (z) = 0.33451 0.42793
#
# Static dielectric constant tensor:
#      x y z
#    x 1.704490 0.000000 0.000000 
#    y 0.000000 1.697570 0.000000 
#    z 0.000000 0.000000 1.682360 
# 
# From -- ./inp_files/7001.got.cif
#   From: 2010.05.17/outbox.cif.g08.bks.cpg/sg54_4_cif.got.tgz:7001.got - 2010.06.03 13:09:01.
