data_PCOD9421970
_publ_section_title
;
Structure prediction by ZEFSAII (Michael W. Deem and Ramdas Pophale) SiO2 
 PCOD9421970
Probable space group: P C C A
;
_chemical_formula_sum "Si O2"
_cell_formula_units_Z 60
_cell_length_a 7.651840
_cell_length_b 11.573259
_cell_length_c 27.709028
_cell_angle_alpha 90.000000
_cell_angle_beta 90.000000
_cell_angle_gamma 90.000000
_cell_volume 2453.820804
_symmetry_space_group_name_H-M "P C C A"
_symmetry_group_IT_number 54
_symmetry_cell_setting 'orthorhombic'
loop_
_space_group_symop_operation_xyz
x,y,z
1/2-x,-y,z
1/2+x,-y,1/2-z
-x,y,1/2-z
-x,-y,-z
1/2+x,y,-z
1/2-x,y,1/2+z
x,-y,1/2+z
loop_
_atom_site_type_symbol
_atom_site_label
_atom_site_fract_x
_atom_site_fract_y
_atom_site_fract_z
Si Si1 0.000000 0.713749 0.750000
Si Si2 0.431966 0.056731 0.048642
Si Si3 0.362393 0.913912 0.377089
Si Si4 0.207063 0.134272 0.181644
Si Si5 0.473197 0.562611 0.338221
Si Si6 0.378632 0.686081 0.432151
Si Si7 0.282924 0.691628 0.537085
Si Si8 0.864139 0.346489 0.860338
O O1 0.847665 0.796062 0.770690
O O2 0.082621 0.630283 0.790686
O O3 0.386300 0.187730 0.037517
O O4 0.250000 0.000000 0.064113
O O5 0.568024 0.015305 0.087912
O O6 0.500000 0.000000 0.000000
O O7 0.528148 0.862563 0.349248
O O8 0.303124 0.805468 0.410144
O O9 0.250000 0.000000 0.342945
O O10 0.352864 0.210738 0.153046
O O11 0.250000 0.000000 0.188516
O O12 0.378319 0.599845 0.387199
O O13 0.492340 0.424805 0.334455
O O14 0.672650 0.608879 0.344841
O O15 0.290530 0.647441 0.482310
O O16 0.582046 0.707351 0.446949
O O17 0.372829 0.627143 0.582205
#
# Coordination Sequence:
#
# PCOD9421970 Si02
#       8
#     4   8   8   8   8   8   8   8
#     4  10  20  40  70 100 130 164 222 288 356 416
#     4  12  20  31  49  78 122 173 222 265 321 403
#     4  12  23  35  55  90 134 177 223 280 341 409
#     4  11  22  43  69 102 134 178 224 284 354 429
#     4   9  19  39  66  93 121 169 222 281 337 409
#     4  11  22  37  55  91 128 172 227 278 340 402
#     4  11  20  34  56  85 127 170 219 272 328 403
#     4   9  18  38  66  90 122 169 225 264 330 412
#
# _framework density 24.451664999999998
#
# number of rings (size 3 to 8) (size 9 to 14) (size 15 to 20)
#    0.000    1.333    6.667    1.600    1.867    1.067 
#    0.000    0.667    0.000   16.000    0.000    0.000 
#    0.000    0.000    0.000    0.000    0.000    0.000 
#
# Total GULP energy -335224.756918 kJ/mol
# GULP energy per Si atom -5587.079282 kJ/mol
# Density = 2.439601 g / cm^3
# Si number density = 24.451665 Si / 1000 Ang^3
#
#
#
# Elastic Constant Matrix: (Units=GPa)
#
#
# Indices 1 2 3 4 5 6 
#
# 1 36.3900 33.4739 12.8893 0.0000 0.0000 0.0000
# 2 33.4739 150.1828 57.2570 0.0000 0.0000 0.0000
# 3 12.8893 57.2570 127.7890 0.0000 0.0000 0.0000
# 4 0.0000 0.0000 0.0000 20.4939 0.0000 0.0000
# 5 0.0000 0.0000 0.0000 0.0000 23.5917 0.0000
# 6 0.0000 0.0000 0.0000 0.0000 0.0000 34.2561
#
#
#
# Elastic Compliance Matrix: (Units=1/GPa)
#
#
# Indices 1 2 3 4 5 6 
#
# 1 0.034568 -0.007689 -0.000042 0.000000 0.000000 0.000000
# 2 -0.007689 0.009741 -0.003589 0.000000 0.000000 0.000000
# 3 -0.000042 -0.003589 0.009438 0.000000 0.000000 0.000000
# 4 0.000000 0.000000 0.000000 0.048795 0.000000 0.000000
# 5 0.000000 0.000000 0.000000 0.000000 0.042388 0.000000
# 6 0.000000 0.000000 0.000000 0.000000 0.000000 0.029192
#
#
# Mechanical properties :
#
#
# Convention : Reuss Voigt Hill
#
# Bulk Modulus (GPa) = 32.14686 57.95581 45.05133
# Shear Modulus (GPa) = 24.13969 29.71778 26.92874
#
# Velocity S-wave (km/s) = 3.14545 3.49000 3.32219
# Velocity P-wave (km/s) = 5.13492 6.32406 5.76026
#
# Compressibility (1/GPa) = 0.03110723
#
# Stress axis : x y z
#
# Youngs Moduli (GPa) = 28.92889 102.66383 105.95922
#
# Poissons Ratio (x) = 0.78937 0.00440
# Poissons Ratio (y) = 0.22243 0.38027
# Poissons Ratio (z) = 0.00120 0.36844
#
# Static dielectric constant tensor:
#      x y z
#    x 1.861020 0.000000 0.000000 
#    y 0.000000 2.037690 0.000000 
#    z 0.000000 0.000000 1.926130 
# 
# From -- ./inp_files/25925.got.cif
#   From: 2010.05.17/outbox.cif.g08.bks.cpg/sg54_13_cif.got.tgz:25925.got - 2010.06.03 13:09:01.
