data_PCOD9421889
_publ_section_title
;
Structure prediction by ZEFSAII (Michael W. Deem and Ramdas Pophale) SiO2 
 PCOD9421889
Probable space group: P C C A
;
_chemical_formula_sum "Si O2"
_cell_formula_units_Z 24
_cell_length_a 9.545985
_cell_length_b 4.830845
_cell_length_c 18.210316
_cell_angle_alpha 90.000000
_cell_angle_beta 90.000000
_cell_angle_gamma 90.000000
_cell_volume 839.771889
_symmetry_space_group_name_H-M "P C C A"
_symmetry_group_IT_number 54
_symmetry_cell_setting 'orthorhombic'
loop_
_space_group_symop_operation_xyz
x,y,z
1/2-x,-y,z
1/2+x,-y,1/2-z
-x,y,1/2-z
-x,-y,-z
1/2+x,y,-z
1/2-x,y,1/2+z
x,-y,1/2+z
loop_
_atom_site_type_symbol
_atom_site_label
_atom_site_fract_x
_atom_site_fract_y
_atom_site_fract_z
Si Si1 0.348232 0.273522 0.126792
Si Si2 0.591939 0.099703 0.685342
Si Si3 0.882080 0.202850 0.028282
O O1 0.250000 0.500000 0.165675
O O2 0.490374 0.158129 0.162382
O O3 0.250000 0.000000 0.119490
O O4 0.374736 0.392375 0.043826
O O5 0.500000 0.231555 0.750000
O O6 0.598612 0.290242 0.612370
O O7 0.750000 0.000000 0.704544
O O8 0.750000 0.000000 0.035477
O O9 0.000000 0.000000 0.000000
#
# Coordination Sequence:
#
# PCOD9421889 Si02
#       3
#     8   8   8
#     4  10  21  42  71 102 135 178 234 299 360 422
#     4  10  20  39  66 100 143 190 238 293 361 435
#     4   8  16  33  58  92 127 170 225 284 344 411
#
# _framework density 28.579190000000001
#
# number of rings (size 3 to 8) (size 9 to 14) (size 15 to 20)
#    0.000    2.667    0.000    1.000    0.000    1.333 
#    0.000   66.667    0.000   10.000    0.000    0.000 
#    0.000    0.000    0.000    0.000    0.000    2.000 
#
# Total GULP energy -134165.829048 kJ/mol
# GULP energy per Si atom -5590.242877 kJ/mol
# Density = 2.851414 g / cm^3
# Si number density = 28.579190 Si / 1000 Ang^3
#
#
#
# Elastic Constant Matrix: (Units=GPa)
#
#
# Indices 1 2 3 4 5 6 
#
# 1 245.5924 39.9875 67.3000 0.0000 0.0000 0.0000
# 2 39.9875 93.9229 -1.2258 0.0000 0.0000 0.0000
# 3 67.3000 -1.2258 167.0935 0.0000 0.0000 0.0000
# 4 0.0000 0.0000 0.0000 14.2174 0.0000 0.0000
# 5 0.0000 0.0000 0.0000 0.0000 45.2720 0.0000
# 6 0.0000 0.0000 0.0000 0.0000 0.0000 56.1167
#
#
#
# Elastic Compliance Matrix: (Units=1/GPa)
#
#
# Indices 1 2 3 4 5 6 
#
# 1 0.004974 -0.002144 -0.002019 0.000000 0.000000 0.000000
# 2 -0.002144 0.011572 0.000948 0.000000 0.000000 0.000000
# 3 -0.002019 0.000948 0.006805 0.000000 0.000000 0.000000
# 4 0.000000 0.000000 0.000000 0.070336 0.000000 0.000000
# 5 0.000000 0.000000 0.000000 0.000000 0.022089 0.000000
# 6 0.000000 0.000000 0.000000 0.000000 0.000000 0.017820
#
#
# Mechanical properties :
#
#
# Convention : Reuss Voigt Hill
#
# Bulk Modulus (GPa) = 59.09560 79.85912 69.47736
# Shear Modulus (GPa) = 34.32499 49.82436 42.07468
#
# Velocity S-wave (km/s) = 3.46937 4.17991 3.84111
# Velocity P-wave (km/s) = 6.06395 7.16235 6.63592
#
# Compressibility (1/GPa) = 0.01692173
#
# Stress axis : x y z
#
# Youngs Moduli (GPa) = 201.03677 86.41347 146.95297
#
# Poissons Ratio (x) = 0.18528 0.29673
# Poissons Ratio (y) = 0.43105 -0.13938
# Poissons Ratio (z) = 0.40593 -0.08196
#
# Static dielectric constant tensor:
#      x y z
#    x 2.295730 0.000000 0.000000 
#    y 0.000000 2.155200 0.000000 
#    z 0.000000 0.000000 2.404820 
# 
# From -- ./inp_files/16895.got.cif
#   From: 2010.05.17/outbox.cif.g08.bks.cpg/sg54_9_cif.got.tgz:16895.got - 2010.06.03 13:09:01.
