data_PCOD9421958
_publ_section_title
;
Structure prediction by ZEFSAII (Michael W. Deem and Ramdas Pophale) SiO2 
 PCOD9421958
Probable space group: P C C A
;
_chemical_formula_sum "Si O2"
_cell_formula_units_Z 32
_cell_length_a 11.041870
_cell_length_b 5.101890
_cell_length_c 23.694873
_cell_angle_alpha 90.000000
_cell_angle_beta 90.000000
_cell_angle_gamma 90.000000
_cell_volume 1334.836599
_symmetry_space_group_name_H-M "P C C A"
_symmetry_group_IT_number 54
_symmetry_cell_setting 'orthorhombic'
loop_
_space_group_symop_operation_xyz
x,y,z
1/2-x,-y,z
1/2+x,-y,1/2-z
-x,y,1/2-z
-x,-y,-z
1/2+x,y,-z
1/2-x,y,1/2+z
x,-y,1/2+z
loop_
_atom_site_type_symbol
_atom_site_label
_atom_site_fract_x
_atom_site_fract_y
_atom_site_fract_z
Si Si1 0.750000 0.000000 0.366796
Si Si2 0.573860 0.629438 0.615243
Si Si3 0.750000 0.000000 0.557214
Si Si4 0.511733 0.138142 0.816767
Si Si5 0.633546 0.318102 0.466932
O O1 0.846016 0.164609 0.331494
O O2 0.677030 0.180941 0.409341
O O3 0.696925 0.763417 0.593586
O O4 0.562077 0.362727 0.650388
O O5 0.494930 0.580641 0.557145
O O6 0.527010 0.857241 0.657957
O O7 0.858439 0.895054 0.516870
O O8 0.500000 0.151562 0.750000
O O9 0.750000 0.500000 0.480207
#
# Coordination Sequence:
#
# PCOD9421958 Si02
#       5
#     4   8   4   8   8
#     4   9  20  41  64  98 128 173 234 287 332 426
#     4  11  25  44  65 102 137 179 232 291 352 436
#     4  11  26  39  64 102 144 175 218 293 364 422
#     4  11  24  44  71  97 132 181 238 293 359 423
#     4  10  20  40  67  93 131 185 227 274 345 434
#
# _framework density 23.972971000000001
#
# number of rings (size 3 to 8) (size 9 to 14) (size 15 to 20)
#    0.000    1.500    2.500    1.500    3.500    2.000 
#    0.000    5.000    0.000    0.000    0.000    0.000 
#    0.000    0.000    0.000    0.000    0.000    0.000 
#
# Total GULP energy -178765.697396 kJ/mol
# GULP energy per Si atom -5586.428044 kJ/mol
# Density = 2.391841 g / cm^3
# Si number density = 23.972971 Si / 1000 Ang^3
#
#
#
# Elastic Constant Matrix: (Units=GPa)
#
#
# Indices 1 2 3 4 5 6 
#
# 1 82.8941 15.4684 41.0849 0.0000 0.0000 0.0000
# 2 15.4684 108.5499 39.2947 0.0000 0.0000 0.0000
# 3 41.0849 39.2947 164.0293 0.0000 0.0000 0.0000
# 4 0.0000 0.0000 0.0000 40.7947 0.0000 0.0000
# 5 0.0000 0.0000 0.0000 0.0000 -176.5367 0.0000
# 6 0.0000 0.0000 0.0000 0.0000 0.0000 35.9766
#
#
#
# Elastic Compliance Matrix: (Units=1/GPa)
#
#
# Indices 1 2 3 4 5 6 
#
# 1 0.013834 -0.000785 -0.003277 0.000000 0.000000 0.000000
# 2 -0.000785 0.010132 -0.002230 0.000000 0.000000 0.000000
# 3 -0.003277 -0.002230 0.007452 0.000000 0.000000 0.000000
# 4 0.000000 0.000000 0.000000 0.024513 0.000000 0.000000
# 5 0.000000 0.000000 0.000000 0.000000 -0.005665 0.000000
# 6 0.000000 0.000000 0.000000 0.000000 0.000000 0.027796
#
#
# Mechanical properties :
#
#
# Convention : Reuss Voigt Hill
#
# Bulk Modulus (GPa) = 53.10025 60.79659 56.94842
# Shear Modulus (GPa) = 51.58652 -2.64472 24.47090
#
# Velocity S-wave (km/s) = 4.64385 -1.05148 3.19842
# Velocity P-wave (km/s) = 7.13806 4.89299 6.11937
#
# Compressibility (1/GPa) = 0.01883230
#
# Stress axis : x y z
#
# Youngs Moduli (GPa) = 72.28410 98.70048 134.19909
#
# Poissons Ratio (x) = 0.07749 0.43978
# Poissons Ratio (y) = 0.05675 0.29933
# Poissons Ratio (z) = 0.23688 0.22015
#
# Static dielectric constant tensor:
#      x y z
#    x 2.148120 0.000000 0.000000 
#    y 0.000000 1.827710 0.000000 
#    z 0.000000 0.000000 1.854220 
# 
# From -- ./inp_files/20839.got.cif
#   From: 2010.05.17/outbox.cif.g08.bks.cpg/sg54_11_cif.got.tgz:20839.got - 2010.06.03 13:09:01.
