data_PCOD9421423
_publ_section_title
;
Structure prediction by ZEFSAII (Michael W. Deem and Ramdas Pophale) SiO2 
 PCOD9421423
Probable space group: P C C A
;
_chemical_formula_sum "Si O2"
_cell_formula_units_Z 48
_cell_length_a 13.752836
_cell_length_b 7.958774
_cell_length_c 18.033917
_cell_angle_alpha 90.000000
_cell_angle_beta 90.000000
_cell_angle_gamma 90.000000
_cell_volume 1973.915254
_symmetry_space_group_name_H-M "P C C A"
_symmetry_group_IT_number 54
_symmetry_cell_setting 'orthorhombic'
loop_
_space_group_symop_operation_xyz
x,y,z
1/2-x,-y,z
1/2+x,-y,1/2-z
-x,y,1/2-z
-x,-y,-z
1/2+x,y,-z
1/2-x,y,1/2+z
x,-y,1/2+z
loop_
_atom_site_type_symbol
_atom_site_label
_atom_site_fract_x
_atom_site_fract_y
_atom_site_fract_z
Si Si1 0.750000 0.500000 0.790334
Si Si2 0.638009 0.457912 0.058302
Si Si3 0.353318 0.943762 0.934330
Si Si4 0.571951 0.580973 0.896254
Si Si5 0.804053 0.840779 0.787625
Si Si6 0.022455 0.063300 0.670205
Si Si7 0.250000 0.000000 0.571851
O O1 0.651410 0.510032 0.838921
O O2 0.769776 0.673440 0.748259
O O3 0.750000 0.500000 0.079569
O O4 0.638222 0.255240 0.054529
O O5 0.539241 0.493870 0.106329
O O6 0.613751 0.541586 0.978389
O O7 0.435705 0.005418 0.879824
O O8 0.250000 0.000000 0.903203
O O9 0.342279 0.013821 0.017878
O O10 0.561093 0.777066 0.875588
O O11 0.750000 0.000000 0.753490
O O12 0.762563 0.843623 0.872839
O O13 0.910884 0.907072 0.804649
O O14 0.000000 0.143939 0.750000
#
# Coordination Sequence:
#
# PCOD9421423 Si02
#       7
#     4   8   8   8   8   8   4
#     4  12  20  40  66  98 138 174 240 274 358 428
#     4  10  20  34  63 100 142 173 227 293 368 421
#     4   9  21  39  62 100 133 177 224 298 361 425
#     4  10  21  37  63  99 136 187 226 292 353 421
#     4  10  22  39  66  99 129 179 222 291 356 413
#     4  11  24  44  67  94 139 189 243 285 348 438
#     4   8  18  38  56  98 132 158 214 286 352 410
#
# _framework density 24.317153999999999
#
# number of rings (size 3 to 8) (size 9 to 14) (size 15 to 20)
#    1.000    1.000    2.500    1.000    2.333    2.667 
#    0.000    0.833    7.333    0.000    0.000    0.000 
#    0.000    0.000    0.000    0.000    0.000    0.000 
#
# Total GULP energy -267354.129212 kJ/mol
# GULP energy per Si atom -5569.877692 kJ/mol
# Density = 2.426181 g / cm^3
# Si number density = 24.317154 Si / 1000 Ang^3
#
#
#
# Elastic Constant Matrix: (Units=GPa)
#
#
# Indices 1 2 3 4 5 6 
#
# 1 155.4818 39.8397 19.5888 0.0000 0.0000 0.0000
# 2 39.8397 130.5486 28.1147 0.0000 0.0000 0.0000
# 3 19.5888 28.1147 74.2534 0.0000 0.0000 0.0000
# 4 0.0000 0.0000 0.0000 3.1304 0.0000 0.0000
# 5 0.0000 0.0000 0.0000 0.0000 -86.3082 0.0000
# 6 0.0000 0.0000 0.0000 0.0000 0.0000 31.2896
#
#
#
# Elastic Compliance Matrix: (Units=1/GPa)
#
#
# Indices 1 2 3 4 5 6 
#
# 1 0.007065 -0.001910 -0.001140 0.000000 0.000000 0.000000
# 2 -0.001910 0.008857 -0.002849 0.000000 0.000000 0.000000
# 3 -0.001140 -0.002849 0.014847 0.000000 0.000000 0.000000
# 4 0.000000 0.000000 0.000000 0.319450 0.000000 0.000000
# 5 0.000000 0.000000 0.000000 0.000000 -0.011586 0.000000
# 6 0.000000 0.000000 0.000000 0.000000 0.000000 0.031960
#
#
# Mechanical properties :
#
#
# Convention : Reuss Voigt Hill
#
# Bulk Modulus (GPa) = 52.72010 59.48557 56.10283
# Shear Modulus (GPa) = 12.86289 7.80506 10.33397
#
# Velocity S-wave (km/s) = 2.30242 1.79351 2.06371
# Velocity P-wave (km/s) = 5.36614 5.36697 5.36655
#
# Compressibility (1/GPa) = 0.01896810
#
# Stress axis : x y z
#
# Youngs Moduli (GPa) = 141.54671 112.90994 67.35303
#
# Poissons Ratio (x) = 0.21570 0.07681
# Poissons Ratio (y) = 0.27041 0.19192
# Poissons Ratio (z) = 0.16143 0.32173
#
# Static dielectric constant tensor:
#      x y z
#    x 2.126570 0.000000 0.000000 
#    y 0.000000 1.968860 0.000000 
#    z 0.000000 0.000000 1.961430 
# 
# From -- ./inp_files/21492.got.cif
#   From: 2010.05.17/outbox.cif.g08.bks.cpg/sg54_11_cif.got.tgz:21492.got - 2010.06.03 13:09:01.
