data_PCOD9421130
_publ_section_title
;
Structure prediction by ZEFSAII (Michael W. Deem and Ramdas Pophale) SiO2 
 PCOD9421130
Probable space group: P C C A
;
_chemical_formula_sum "Si O2"
_cell_formula_units_Z 56
_cell_length_a 18.461373
_cell_length_b 8.745353
_cell_length_c 14.597125
_cell_angle_alpha 90.000000
_cell_angle_beta 90.000000
_cell_angle_gamma 90.000000
_cell_volume 2356.723694
_symmetry_space_group_name_H-M "P C C A"
_symmetry_group_IT_number 54
_symmetry_cell_setting 'orthorhombic'
loop_
_space_group_symop_operation_xyz
x,y,z
1/2-x,-y,z
1/2+x,-y,1/2-z
-x,y,1/2-z
-x,-y,-z
1/2+x,y,-z
1/2-x,y,1/2+z
x,-y,1/2+z
loop_
_atom_site_type_symbol
_atom_site_label
_atom_site_fract_x
_atom_site_fract_y
_atom_site_fract_z
Si Si1 0.821474 0.104765 0.141328
Si Si2 0.165906 0.334849 0.046026
Si Si3 0.251941 0.676728 0.726301
Si Si4 0.519360 0.308855 0.345656
Si Si5 0.368224 0.793894 0.862270
Si Si6 0.387123 0.675332 0.493103
Si Si7 0.978404 0.336575 0.349632
O O1 0.809643 0.223945 0.223143
O O2 0.750000 0.000000 0.142347
O O3 0.882435 0.974173 0.147579
O O4 0.834546 0.205502 0.053217
O O5 0.231030 0.319508 0.119465
O O6 0.148819 0.511474 0.016539
O O7 0.093058 0.276452 0.098850
O O8 0.178443 0.242384 0.952861
O O9 0.250000 0.500000 0.754443
O O10 0.327295 0.737242 0.770258
O O11 0.500000 0.230220 0.250000
O O12 0.439654 0.300667 0.387596
O O13 0.578167 0.251536 0.415845
O O14 0.540899 0.484887 0.329761
O O15 0.453771 0.659579 0.419897
O O16 0.000000 0.270198 0.250000
#
# Coordination Sequence:
#
# PCOD9421130 Si02
#       7
#     8   8   8   8   8   8   8
#     4  10  25  47  65  95 145 185 220 283 343 420
#     4  11  22  42  72 106 130 176 233 291 356 410
#     4  11  26  43  68  97 127 178 232 283 341 413
#     4  10  21  38  66 102 132 180 224 293 349 410
#     4  11  23  47  65  95 147 177 227 282 345 422
#     4  11  20  41  73 102 138 177 233 289 355 409
#     4  10  19  35  70 106 141 168 227 301 356 402
#
# _framework density 23.761800999999998
#
# number of rings (size 3 to 8) (size 9 to 14) (size 15 to 20)
#    0.000    1.429    2.857    2.571    6.000    3.429 
#    2.571    5.714    0.000    0.000    0.000    0.000 
#    0.000    0.000    0.000    0.000    0.000    0.000 
#
# Total GULP energy -312591.247236 kJ/mol
# GULP energy per Si atom -5581.986558 kJ/mol
# Density = 2.370772 g / cm^3
# Si number density = 23.761801 Si / 1000 Ang^3
#
#
#
# Elastic Constant Matrix: (Units=GPa)
#
#
# Indices 1 2 3 4 5 6 
#
# 1 53.2936 8.9136 36.3250 0.0000 0.0000 0.0000
# 2 8.9136 88.2382 45.4400 0.0000 0.0000 0.0000
# 3 36.3250 45.4400 169.0356 0.0000 0.0000 0.0000
# 4 0.0000 0.0000 0.0000 1.9777 0.0000 0.0000
# 5 0.0000 0.0000 0.0000 0.0000 51.6903 0.0000
# 6 0.0000 0.0000 0.0000 0.0000 0.0000 20.2366
#
#
#
# Elastic Compliance Matrix: (Units=1/GPa)
#
#
# Indices 1 2 3 4 5 6 
#
# 1 0.021989 0.000246 -0.004791 0.000000 0.000000 0.000000
# 2 0.000246 0.013157 -0.003590 0.000000 0.000000 0.000000
# 3 -0.004791 -0.003590 0.007911 0.000000 0.000000 0.000000
# 4 0.000000 0.000000 0.000000 0.505625 0.000000 0.000000
# 5 0.000000 0.000000 0.000000 0.000000 0.019346 0.000000
# 6 0.000000 0.000000 0.000000 0.000000 0.000000 0.049415
#
#
# Mechanical properties :
#
#
# Convention : Reuss Voigt Hill
#
# Bulk Modulus (GPa) = 37.33288 54.65830 45.99559
# Shear Modulus (GPa) = 7.78039 29.44019 18.61029
#
# Velocity S-wave (km/s) = 1.81147 3.52372 2.80161
# Velocity P-wave (km/s) = 4.48561 6.29349 5.46483
#
# Compressibility (1/GPa) = 0.02678604
#
# Stress axis : x y z
#
# Youngs Moduli (GPa) = 45.47803 76.00707 126.41349
#
# Poissons Ratio (x) = -0.01871 0.60570
# Poissons Ratio (y) = -0.01120 0.45378
# Poissons Ratio (z) = 0.21791 0.27284
#
# Static dielectric constant tensor:
#      x y z
#    x 2.163510 0.000000 0.000000 
#    y 0.000000 1.890230 0.000000 
#    z 0.000000 0.000000 1.964950 
# 
# From -- ./inp_files/14657.got.cif
#   From: 2010.05.17/outbox.cif.g08.bks.cpg/sg54_8_cif.got.tgz:14657.got - 2010.06.03 13:09:01.
