data_PCOD9421482
_publ_section_title
;
Structure prediction by ZEFSAII (Michael W. Deem and Ramdas Pophale) SiO2 
 PCOD9421482
Probable space group: P C C A
;
_chemical_formula_sum "Si O2"
_cell_formula_units_Z 40
_cell_length_a 4.984736
_cell_length_b 12.877523
_cell_length_c 31.286818
_cell_angle_alpha 90.000000
_cell_angle_beta 90.000000
_cell_angle_gamma 90.000000
_cell_volume 2008.333776
_symmetry_space_group_name_H-M "P C C A"
_symmetry_group_IT_number 54
_symmetry_cell_setting 'orthorhombic'
loop_
_space_group_symop_operation_xyz
x,y,z
1/2-x,-y,z
1/2+x,-y,1/2-z
-x,y,1/2-z
-x,-y,-z
1/2+x,y,-z
1/2-x,y,1/2+z
x,-y,1/2+z
loop_
_atom_site_type_symbol
_atom_site_label
_atom_site_fract_x
_atom_site_fract_y
_atom_site_fract_z
Si Si1 0.502473 0.576318 0.157029
Si Si2 0.000000 0.071121 0.750000
Si Si3 0.776706 0.222215 0.119150
Si Si4 0.500000 0.422863 0.750000
Si Si5 0.767747 0.876365 0.338366
Si Si6 0.270477 0.876989 0.971861
O O1 0.250000 0.500000 0.147916
O O2 0.606491 0.661866 0.123908
O O3 0.472392 0.631497 0.203934
O O4 0.750000 0.500000 0.161857
O O5 0.125408 0.131979 0.710157
O O6 0.250000 0.000000 0.765643
O O7 0.474397 0.193213 0.133804
O O8 0.801486 0.183571 0.070806
O O9 0.970152 0.159882 0.151099
O O10 0.250000 0.500000 0.750542
O O11 0.750000 0.000000 0.348330
O O12 0.250000 0.000000 0.962291
O O13 0.565285 0.854827 0.989672
#
# Coordination Sequence:
#
# PCOD9421482 Si02
#       6
#     8   4   8   4   8   8
#     4  10  21  38  57  82 116 152 196 249 294 341
#     4  10  20  36  52  76 122 168 192 226 282 342
#     4  12  23  37  62  88 112 154 201 244 299 357
#     4   8  16  32  54  76 106 146 188 240 292 328
#     4  11  22  36  55  84 120 154 194 238 283 350
#     4  10  21  38  60  86 117 148 184 240 305 367
#
# _framework density 19.917010000000001
#
# number of rings (size 3 to 8) (size 9 to 14) (size 15 to 20)
#    0.000    1.600    0.000    6.600    0.000    3.200 
#    0.000    2.000    0.000    3.600    0.000    0.000 
#    0.000    0.000    0.000    0.000    0.000    0.000 
#
# Total GULP energy -223015.191978 kJ/mol
# GULP energy per Si atom -5575.379799 kJ/mol
# Density = 1.987168 g / cm^3
# Si number density = 19.917010 Si / 1000 Ang^3
#
#
#
# Elastic Constant Matrix: (Units=GPa)
#
#
# Indices 1 2 3 4 5 6 
#
# 1 96.1404 7.7174 1.4650 0.0000 0.0000 0.0000
# 2 7.7174 69.4264 40.4820 0.0000 0.0000 0.0000
# 3 1.4650 40.4820 111.2851 0.0000 0.0000 0.0000
# 4 0.0000 0.0000 0.0000 2.9546 0.0000 0.0000
# 5 0.0000 0.0000 0.0000 0.0000 2.4507 0.0000
# 6 0.0000 0.0000 0.0000 0.0000 0.0000 23.6067
#
#
#
# Elastic Compliance Matrix: (Units=1/GPa)
#
#
# Indices 1 2 3 4 5 6 
#
# 1 0.010507 -0.001380 0.000364 0.000000 0.000000 0.000000
# 2 -0.001380 0.018463 -0.006698 0.000000 0.000000 0.000000
# 3 0.000364 -0.006698 0.011418 0.000000 0.000000 0.000000
# 4 0.000000 0.000000 0.000000 0.338454 0.000000 0.000000
# 5 0.000000 0.000000 0.000000 0.000000 0.408044 0.000000
# 6 0.000000 0.000000 0.000000 0.000000 0.000000 0.042361
#
#
# Mechanical properties :
#
#
# Convention : Reuss Voigt Hill
#
# Bulk Modulus (GPa) = 40.06654 41.79785 40.93219
# Shear Modulus (GPa) = 5.86170 20.94823 13.40497
#
# Velocity S-wave (km/s) = 1.71740 3.24663 2.59712
# Velocity P-wave (km/s) = 4.90846 5.92332 5.43961
#
# Compressibility (1/GPa) = 0.02495848
#
# Stress axis : x y z
#
# Youngs Moduli (GPa) = 95.17744 54.16334 87.58368
#
# Poissons Ratio (x) = 0.07474 -0.03185
# Poissons Ratio (y) = 0.13134 0.58663
# Poissons Ratio (z) = -0.03461 0.36278
#
# Static dielectric constant tensor:
#      x y z
#    x 1.692520 0.000000 0.000000 
#    y 0.000000 1.715330 0.000000 
#    z 0.000000 0.000000 1.713280 
# 
# From -- ./inp_files/25171.got.cif
#   From: 2010.05.17/outbox.cif.g08.bks.cpg/sg54_13_cif.got.tgz:25171.got - 2010.06.03 13:09:01.
