data_PCOD9421202
_publ_section_title
;
Structure prediction by ZEFSAII (Michael W. Deem and Ramdas Pophale) SiO2 
 PCOD9421202
Probable space group: P C C A
;
_chemical_formula_sum "Si O2"
_cell_formula_units_Z 28
_cell_length_a 15.051209
_cell_length_b 4.976473
_cell_length_c 14.121164
_cell_angle_alpha 90.000000
_cell_angle_beta 90.000000
_cell_angle_gamma 90.000000
_cell_volume 1057.702511
_symmetry_space_group_name_H-M "P C C A"
_symmetry_group_IT_number 54
_symmetry_cell_setting 'orthorhombic'
loop_
_space_group_symop_operation_xyz
x,y,z
1/2-x,-y,z
1/2+x,-y,1/2-z
-x,y,1/2-z
-x,-y,-z
1/2+x,y,-z
1/2-x,y,1/2+z
x,-y,1/2+z
loop_
_atom_site_type_symbol
_atom_site_label
_atom_site_fract_x
_atom_site_fract_y
_atom_site_fract_z
Si Si1 0.826776 0.686632 0.053634
Si Si2 0.569976 0.175881 0.556270
Si Si3 0.500000 0.047757 0.250000
Si Si4 0.689580 0.744584 0.779757
O O1 0.750000 0.500000 0.014219
O O2 0.910937 0.486786 0.039030
O O3 0.812334 0.707974 0.166244
O O4 0.844284 0.993956 0.028345
O O5 0.500000 0.000000 0.500000
O O6 0.545344 0.130197 0.667306
O O7 0.416771 0.211836 0.202118
O O8 0.750000 0.500000 0.815779
O O9 0.750000 0.000000 0.803393
#
# Coordination Sequence:
#
# PCOD9421202 Si02
#       4
#     8   8   4   8
#     4  10  19  37  61  83 115 155 193 240 289 342
#     4  11  23  38  59  88 116 150 197 236 290 357
#     4  10  22  40  64  84 122 162 186 248 304 332
#     4  10  20  35  59  90 116 152 205 241 287 358
#
# _framework density 26.472470000000001
#
# number of rings (size 3 to 8) (size 9 to 14) (size 15 to 20)
#    0.000    1.714    0.000    8.571    0.000   10.286 
#    0.000    4.286    0.000    1.714    0.000    0.000 
#    0.000    0.000    0.000    0.000    0.000    0.000 
#
# Total GULP energy -156226.184742 kJ/mol
# GULP energy per Si atom -5579.506598 kJ/mol
# Density = 2.641222 g / cm^3
# Si number density = 26.472470 Si / 1000 Ang^3
#
#
#
# Elastic Constant Matrix: (Units=GPa)
#
#
# Indices 1 2 3 4 5 6 
#
# 1 177.9029 44.4341 -6.7173 0.0000 0.0000 0.0000
# 2 44.4341 213.9469 -8.0652 0.0000 0.0000 0.0000
# 3 -6.7173 -8.0652 62.3447 0.0000 0.0000 0.0000
# 4 0.0000 0.0000 0.0000 -193.9040 0.0000 0.0000
# 5 0.0000 0.0000 0.0000 0.0000 90.9139 0.0000
# 6 0.0000 0.0000 0.0000 0.0000 0.0000 40.2520
#
#
#
# Elastic Compliance Matrix: (Units=1/GPa)
#
#
# Indices 1 2 3 4 5 6 
#
# 1 0.005943 -0.001216 0.000483 0.000000 0.000000 0.000000
# 2 -0.001216 0.004946 0.000509 0.000000 0.000000 0.000000
# 3 0.000483 0.000509 0.016158 0.000000 0.000000 0.000000
# 4 0.000000 0.000000 0.000000 -0.005157 0.000000 0.000000
# 5 0.000000 0.000000 0.000000 0.000000 0.010999 0.000000
# 6 0.000000 0.000000 0.000000 0.000000 0.000000 0.024844
#
#
# Mechanical properties :
#
#
# Convention : Reuss Voigt Hill
#
# Bulk Modulus (GPa) = 37.59687 57.05531 47.32609
# Shear Modulus (GPa) = 74.57473 15.75523 45.16498
#
# Velocity S-wave (km/s) = 5.31336 2.44223 4.13499
# Velocity P-wave (km/s) = 7.20247 5.43619 6.38074
#
# Compressibility (1/GPa) = 0.02659796
#
# Stress axis : x y z
#
# Youngs Moduli (GPa) = 168.26470 202.19172 61.88992
#
# Poissons Ratio (x) = 0.24588 -0.02989
# Poissons Ratio (y) = 0.20462 -0.03149
# Poissons Ratio (z) = -0.08127 -0.10287
#
# Static dielectric constant tensor:
#      x y z
#    x 3.397510 0.000000 0.000000 
#    y 0.000000 1.576180 0.000000 
#    z 0.000000 0.000000 2.161290 
# 
# From -- ./inp_files/17522.got.cif
#   From: 2010.05.17/outbox.cif.g08.bks.cpg/sg54_9_cif.got.tgz:17522.got - 2010.06.03 13:09:01.
