data_PCOD9421465
_publ_section_title
;
Structure prediction by ZEFSAII (Michael W. Deem and Ramdas Pophale) SiO2 
 PCOD9421465
Probable space group: P C C A
;
_chemical_formula_sum "Si O2"
_cell_formula_units_Z 44
_cell_length_a 9.163670
_cell_length_b 7.690206
_cell_length_c 26.050903
_cell_angle_alpha 90.000000
_cell_angle_beta 90.000000
_cell_angle_gamma 90.000000
_cell_volume 1835.820421
_symmetry_space_group_name_H-M "P C C A"
_symmetry_group_IT_number 54
_symmetry_cell_setting 'orthorhombic'
loop_
_space_group_symop_operation_xyz
x,y,z
1/2-x,-y,z
1/2+x,-y,1/2-z
-x,y,1/2-z
-x,-y,-z
1/2+x,y,-z
1/2-x,y,1/2+z
x,-y,1/2+z
loop_
_atom_site_type_symbol
_atom_site_label
_atom_site_fract_x
_atom_site_fract_y
_atom_site_fract_z
Si Si1 0.466359 0.303808 0.057681
Si Si2 0.583495 0.043656 0.590061
Si Si3 0.250000 0.500000 0.483262
Si Si4 0.089638 0.446272 0.672407
Si Si5 0.569040 0.886894 0.701694
Si Si6 0.158935 0.323692 0.342191
O O1 0.624032 0.385236 0.043853
O O2 0.424479 0.385118 0.112883
O O3 0.483613 0.092371 0.059112
O O4 0.344428 0.366861 0.018251
O O5 0.599118 0.248174 0.602855
O O6 0.750000 0.000000 0.576250
O O7 0.547268 0.987968 0.648683
O O8 0.250000 0.500000 0.685158
O O9 0.040267 0.275332 0.701035
O O10 0.983135 0.604615 0.685186
O O11 0.500000 0.988883 0.750000
O O12 0.731836 0.802576 0.690686
O O13 0.250000 0.500000 0.351671
#
# Coordination Sequence:
#
# PCOD9421465 Si02
#       6
#     8   8   4   8   8   8
#     4  10  21  39  64  94 128 165 216 265 334 401
#     4   9  19  37  63  92 123 171 214 262 327 395
#     4  10  22  38  68  94 126 172 212 278 336 398
#     4  10  20  35  60  87 122 166 214 262 312 388
#     4   9  19  36  57  89 126 159 210 265 312 379
#     4   9  19  37  64  90 117 175 219 259 318 383
#
# _framework density 23.967483000000001
#
# number of rings (size 3 to 8) (size 9 to 14) (size 15 to 20)
#    0.000    2.545    0.909    1.091    8.909    2.182 
#    0.000   13.636    0.000    2.182    0.000    0.000 
#    0.000    0.000    0.000    0.000    0.000    0.000 
#
# Total GULP energy -245086.829719 kJ/mol
# GULP energy per Si atom -5570.155221 kJ/mol
# Density = 2.391293 g / cm^3
# Si number density = 23.967483 Si / 1000 Ang^3
#
#
#
# Elastic Constant Matrix: (Units=GPa)
#
#
# Indices 1 2 3 4 5 6 
#
# 1 125.8874 30.4659 14.6353 0.0000 0.0000 0.0000
# 2 30.4659 92.5272 -7.0768 0.0000 0.0000 0.0000
# 3 14.6353 -7.0768 50.7421 0.0000 0.0000 0.0000
# 4 0.0000 0.0000 0.0000 12.3878 0.0000 0.0000
# 5 0.0000 0.0000 0.0000 0.0000 28.1456 0.0000
# 6 0.0000 0.0000 0.0000 0.0000 0.0000 24.2710
#
#
#
# Elastic Compliance Matrix: (Units=1/GPa)
#
#
# Indices 1 2 3 4 5 6 
#
# 1 0.009081 -0.003225 -0.003069 0.000000 0.000000 0.000000
# 2 -0.003225 0.012069 0.002613 0.000000 0.000000 0.000000
# 3 -0.003069 0.002613 0.020957 0.000000 0.000000 0.000000
# 4 0.000000 0.000000 0.000000 0.080724 0.000000 0.000000
# 5 0.000000 0.000000 0.000000 0.000000 0.035529 0.000000
# 6 0.000000 0.000000 0.000000 0.000000 0.000000 0.041201
#
#
# Mechanical properties :
#
#
# Convention : Reuss Voigt Hill
#
# Bulk Modulus (GPa) = 28.77965 38.35614 33.56790
# Shear Modulus (GPa) = 22.88276 28.36972 25.62624
#
# Velocity S-wave (km/s) = 3.09324 3.44419 3.27342
# Velocity P-wave (km/s) = 4.97909 5.64400 5.32194
#
# Compressibility (1/GPa) = 0.03474677
#
# Stress axis : x y z
#
# Youngs Moduli (GPa) = 110.12261 82.85492 47.71648
#
# Poissons Ratio (x) = 0.26718 0.14644
# Poissons Ratio (y) = 0.35511 -0.12470
# Poissons Ratio (z) = 0.33795 -0.21653
#
# Static dielectric constant tensor:
#      x y z
#    x 1.880700 0.000000 0.000000 
#    y 0.000000 2.106110 0.000000 
#    z 0.000000 0.000000 1.975770 
# 
# From -- ./inp_files/27613.got.cif
#   From: 2010.05.17/outbox.cif.g08.bks.cpg/sg54_14_cif.got.tgz:27613.got - 2010.06.03 13:09:01.
