data_PCOD9421786
_publ_section_title
;
Structure prediction by ZEFSAII (Michael W. Deem and Ramdas Pophale) SiO2 
 PCOD9421786
Probable space group: P C C A
;
_chemical_formula_sum "Si O2"
_cell_formula_units_Z 60
_cell_length_a 17.632680
_cell_length_b 16.384690
_cell_length_c 9.538216
_cell_angle_alpha 90.000000
_cell_angle_beta 90.000000
_cell_angle_gamma 90.000000
_cell_volume 2755.647790
_symmetry_space_group_name_H-M "P C C A"
_symmetry_group_IT_number 54
_symmetry_cell_setting 'orthorhombic'
loop_
_space_group_symop_operation_xyz
x,y,z
1/2-x,-y,z
1/2+x,-y,1/2-z
-x,y,1/2-z
-x,-y,-z
1/2+x,y,-z
1/2-x,y,1/2+z
x,-y,1/2+z
loop_
_atom_site_type_symbol
_atom_site_label
_atom_site_fract_x
_atom_site_fract_y
_atom_site_fract_z
Si Si1 0.341854 0.057070 0.255561
Si Si2 0.361961 0.712614 0.424784
Si Si3 0.885599 0.589305 0.924257
Si Si4 0.000000 0.308600 0.250000
Si Si5 0.806119 0.739489 0.022500
Si Si6 0.813835 0.913825 0.915863
Si Si7 0.913555 0.228558 0.774330
Si Si8 0.162252 0.522940 0.852173
O O1 0.320605 0.054647 0.421584
O O2 0.268694 0.080756 0.159171
O O3 0.399834 0.130847 0.233918
O O4 0.364163 0.970207 0.187208
O O5 0.430110 0.738473 0.321199
O O6 0.277691 0.749742 0.413715
O O7 0.386942 0.736319 0.579258
O O8 0.352611 0.615540 0.402059
O O9 0.960279 0.634674 0.868236
O O10 0.858209 0.524080 0.810565
O O11 0.819412 0.657805 0.934716
O O12 0.890116 0.541364 0.068117
O O13 0.863017 0.734312 0.151528
O O14 0.828877 0.818175 0.932311
O O15 0.000000 0.247886 0.750000
O O16 0.250000 0.500000 0.874853
#
# Coordination Sequence:
#
# PCOD9421786 Si02
#       8
#     8   8   8   4   8   8   8   8
#     4  10  20  38  66  99 141 178 224 287 346 412
#     4  11  24  43  68 101 137 187 233 296 358 422
#     4  11  25  43  66  96 140 181 232 295 358 420
#     4  10  26  46  64 100 144 176 236 294 356 432
#     4  11  24  41  73 100 134 184 240 286 353 429
#     4  10  20  38  64 102 133 173 233 283 336 421
#     4  11  25  45  69 104 145 185 234 295 359 427
#     4  11  24  40  68  98 135 177 241 298 353 422
#
# _framework density 21.773465999999999
#
# number of rings (size 3 to 8) (size 9 to 14) (size 15 to 20)
#    0.000    1.333    2.667    2.800    5.600    2.133 
#    6.000    2.667    1.467    0.000    0.000    0.000 
#    0.000    0.000    0.000    0.000    0.000    0.000 
#
# Total GULP energy -335161.743754 kJ/mol
# GULP energy per Si atom -5586.029063 kJ/mol
# Density = 2.172391 g / cm^3
# Si number density = 21.773466 Si / 1000 Ang^3
#
#
#
# Elastic Constant Matrix: (Units=GPa)
#
#
# Indices 1 2 3 4 5 6 
#
# 1 114.9919 -15.1551 44.0262 0.0000 0.0000 0.0000
# 2 -15.1551 54.4277 30.8723 0.0000 0.0000 0.0000
# 3 44.0262 30.8723 113.7752 0.0000 0.0000 0.0000
# 4 0.0000 0.0000 0.0000 39.3507 0.0000 0.0000
# 5 0.0000 0.0000 0.0000 0.0000 18.6425 0.0000
# 6 0.0000 0.0000 0.0000 0.0000 0.0000 -6.3251
#
#
#
# Elastic Compliance Matrix: (Units=1/GPa)
#
#
# Indices 1 2 3 4 5 6 
#
# 1 0.012194 0.007176 -0.006666 0.000000 0.000000 0.000000
# 2 0.007176 0.025939 -0.009815 0.000000 0.000000 0.000000
# 3 -0.006666 -0.009815 0.014032 0.000000 0.000000 0.000000
# 4 0.000000 0.000000 0.000000 0.025413 0.000000 0.000000
# 5 0.000000 0.000000 0.000000 0.000000 0.053641 0.000000
# 6 0.000000 0.000000 0.000000 0.000000 0.000000 -0.158100
#
#
# Mechanical properties :
#
#
# Convention : Reuss Voigt Hill
#
# Bulk Modulus (GPa) = 29.80158 44.74240 37.27199
# Shear Modulus (GPa) = 1716.68155 25.23038 870.95596
#
# Velocity S-wave (km/s) = 28.10943 3.40776 20.02190
# Velocity P-wave (km/s) = 32.66859 6.00645 23.48738
#
# Compressibility (1/GPa) = 0.03355526
#
# Stress axis : x y z
#
# Youngs Moduli (GPa) = 82.00621 38.55261 71.26564
#
# Poissons Ratio (x) = -0.27667 0.47505
# Poissons Ratio (y) = -0.58851 0.69949
# Poissons Ratio (z) = 0.54665 0.37840
#
# Static dielectric constant tensor:
#      x y z
#    x 1.793930 0.000000 0.000000 
#    y 0.000000 1.846020 0.000000 
#    z 0.000000 0.000000 1.802320 
# 
# From -- ./inp_files/4347.got.cif
#   From: 2010.05.17/outbox.cif.g08.bks.cpg/sg54_3_cif.got.tgz:4347.got - 2010.06.03 13:09:01.
