data_PCOD9421690
_publ_section_title
;
Structure prediction by ZEFSAII (Michael W. Deem and Ramdas Pophale) SiO2 
 PCOD9421690
Probable space group: P C C A
;
_chemical_formula_sum "Si O2"
_cell_formula_units_Z 32
_cell_length_a 21.833108
_cell_length_b 7.862570
_cell_length_c 8.608286
_cell_angle_alpha 90.000000
_cell_angle_beta 90.000000
_cell_angle_gamma 90.000000
_cell_volume 1477.735734
_symmetry_space_group_name_H-M "P C C A"
_symmetry_group_IT_number 54
_symmetry_cell_setting 'orthorhombic'
loop_
_space_group_symop_operation_xyz
x,y,z
1/2-x,-y,z
1/2+x,-y,1/2-z
-x,y,1/2-z
-x,-y,-z
1/2+x,y,-z
1/2-x,y,1/2+z
x,-y,1/2+z
loop_
_atom_site_type_symbol
_atom_site_label
_atom_site_fract_x
_atom_site_fract_y
_atom_site_fract_z
Si Si1 0.820024 0.682955 0.845255
Si Si2 0.437229 0.658743 0.333167
Si Si3 0.213425 0.825990 0.328087
Si Si4 0.610662 0.649708 0.838860
O O1 0.803704 0.792272 0.994650
O O2 0.840900 0.494623 0.898446
O O3 0.879517 0.746661 0.750878
O O4 0.762939 0.688661 0.730289
O O5 0.500000 0.706051 0.250000
O O6 0.432502 0.689800 0.516111
O O7 0.424751 0.457492 0.294259
O O8 0.250000 0.000000 0.308558
O O9 0.151779 0.800274 0.228230
#
# Coordination Sequence:
#
# PCOD9421690 Si02
#       4
#     8   8   8   8
#     4  10  22  37  58  91 126 165 214 264 313 382
#     4  10  20  37  66  95 128 162 221 269 304 367
#     4  12  23  39  61  93 131 169 207 267 331 386
#     4  10  20  37  62  95 123 163 214 262 316 373
#
# _framework density 21.654751000000001
#
# number of rings (size 3 to 8) (size 9 to 14) (size 15 to 20)
#    1.500    0.000    2.500    3.750    0.000    2.000 
#    0.000    1.250    0.000    7.500    0.000    0.000 
#    0.000    0.000    0.000    0.000    0.000    0.000 
#
# Total GULP energy -178519.140619 kJ/mol
# GULP energy per Si atom -5578.723144 kJ/mol
# Density = 2.160546 g / cm^3
# Si number density = 21.654751 Si / 1000 Ang^3
#
#
#
# Elastic Constant Matrix: (Units=GPa)
#
#
# Indices 1 2 3 4 5 6 
#
# 1 61.7836 -14.3809 4.9811 0.0000 0.0000 0.0000
# 2 -14.3809 47.4540 1.7222 0.0000 0.0000 0.0000
# 3 4.9811 1.7222 86.4135 0.0000 0.0000 0.0000
# 4 0.0000 0.0000 0.0000 9.7565 0.0000 0.0000
# 5 0.0000 0.0000 0.0000 0.0000 38.1063 0.0000
# 6 0.0000 0.0000 0.0000 0.0000 0.0000 15.2397
#
#
#
# Elastic Compliance Matrix: (Units=1/GPa)
#
#
# Indices 1 2 3 4 5 6 
#
# 1 0.017521 0.005350 -0.001117 0.000000 0.000000 0.000000
# 2 0.005350 0.022722 -0.000761 0.000000 0.000000 0.000000
# 3 -0.001117 -0.000761 0.011652 0.000000 0.000000 0.000000
# 4 0.000000 0.000000 0.000000 0.102496 0.000000 0.000000
# 5 0.000000 0.000000 0.000000 0.000000 0.026242 0.000000
# 6 0.000000 0.000000 0.000000 0.000000 0.000000 0.065618
#
#
# Mechanical properties :
#
#
# Convention : Reuss Voigt Hill
#
# Bulk Modulus (GPa) = 16.99538 20.03287 18.51413
# Shear Modulus (GPa) = 19.31101 26.17574 22.74338
#
# Velocity S-wave (km/s) = 2.98949 3.48052 3.24431
# Velocity P-wave (km/s) = 4.44763 5.04213 4.75418
#
# Compressibility (1/GPa) = 0.05883952
#
# Stress axis : x y z
#
# Youngs Moduli (GPa) = 57.07477 44.01013 85.82365
#
# Poissons Ratio (x) = -0.23546 0.09583
# Poissons Ratio (y) = -0.30536 0.06533
# Poissons Ratio (z) = 0.06373 0.03350
#
# Static dielectric constant tensor:
#      x y z
#    x 1.782480 0.000000 0.000000 
#    y 0.000000 1.848220 0.000000 
#    z 0.000000 0.000000 1.769850 
# 
# From -- ./inp_files/5394.got.cif
#   From: 2010.05.17/outbox.cif.g08.bks.cpg/sg54_3_cif.got.tgz:5394.got - 2010.06.03 13:09:01.
