data_PCOD9421311
_publ_section_title
;
Structure prediction by ZEFSAII (Michael W. Deem and Ramdas Pophale) SiO2 
 PCOD9421311
Probable space group: P C C A
;
_chemical_formula_sum "Si O2"
_cell_formula_units_Z 40
_cell_length_a 8.961837
_cell_length_b 10.591604
_cell_length_c 21.135453
_cell_angle_alpha 90.000000
_cell_angle_beta 90.000000
_cell_angle_gamma 90.000000
_cell_volume 2006.182031
_symmetry_space_group_name_H-M "P C C A"
_symmetry_group_IT_number 54
_symmetry_cell_setting 'orthorhombic'
loop_
_space_group_symop_operation_xyz
x,y,z
1/2-x,-y,z
1/2+x,-y,1/2-z
-x,y,1/2-z
-x,-y,-z
1/2+x,y,-z
1/2-x,y,1/2+z
x,-y,1/2+z
loop_
_atom_site_type_symbol
_atom_site_label
_atom_site_fract_x
_atom_site_fract_y
_atom_site_fract_z
Si Si1 0.929287 0.339499 0.182574
Si Si2 0.990801 0.342906 0.944834
Si Si3 0.572228 0.636775 0.684600
Si Si4 0.250000 0.000000 0.009267
Si Si5 0.750000 0.500000 0.002038
Si Si6 0.508947 0.837817 0.061340
O O1 0.972488 0.488222 0.174273
O O2 0.749602 0.345379 0.186757
O O3 0.974138 0.246770 0.124611
O O4 0.000000 0.299559 0.250000
O O5 0.008451 0.289043 0.875503
O O6 0.828136 0.398310 0.957553
O O7 0.119166 0.448606 0.953558
O O8 0.023575 0.253118 0.002541
O O9 0.500000 0.676871 0.750000
O O10 0.127091 0.063982 0.055146
O O11 0.339216 0.093464 0.961789
#
# Coordination Sequence:
#
# PCOD9421311 Si02
#       6
#     8   8   8   4   4   8
#     4  10  21  38  58  83 120 157 185 225 283 347
#     4  11  20  34  56  84 118 155 188 228 282 342
#     4  10  21  34  53  88 126 154 184 219 270 354
#     4  10  24  40  60  84 106 142 204 264 292 320
#     4  10  20  30  52  88 116 144 192 226 266 352
#     4  11  22  40  61  83 113 150 197 248 294 331
#
# _framework density 19.938369999999999
#
# number of rings (size 3 to 8) (size 9 to 14) (size 15 to 20)
#    0.000    1.600    0.000    7.200    0.000    6.400 
#    0.000    1.000    0.000    4.800    0.000    0.000 
#    0.000    0.000    0.000    0.000    0.000    0.000 
#
# Total GULP energy -223205.401993 kJ/mol
# GULP energy per Si atom -5580.135050 kJ/mol
# Density = 1.989299 g / cm^3
# Si number density = 19.938370 Si / 1000 Ang^3
#
#
#
# Elastic Constant Matrix: (Units=GPa)
#
#
# Indices 1 2 3 4 5 6 
#
# 1 79.0078 20.3190 46.0903 0.0000 0.0000 0.0000
# 2 20.3190 39.9339 39.6610 0.0000 0.0000 0.0000
# 3 46.0903 39.6610 195.4074 0.0000 0.0000 0.0000
# 4 0.0000 0.0000 0.0000 20.6282 0.0000 0.0000
# 5 0.0000 0.0000 0.0000 0.0000 27.0286 0.0000
# 6 0.0000 0.0000 0.0000 0.0000 0.0000 19.0058
#
#
#
# Elastic Compliance Matrix: (Units=1/GPa)
#
#
# Indices 1 2 3 4 5 6 
#
# 1 0.015536 -0.005343 -0.002580 0.000000 0.000000 0.000000
# 2 -0.005343 0.033201 -0.005479 0.000000 0.000000 0.000000
# 3 -0.002580 -0.005479 0.006838 0.000000 0.000000 0.000000
# 4 0.000000 0.000000 0.000000 0.048477 0.000000 0.000000
# 5 0.000000 0.000000 0.000000 0.000000 0.036998 0.000000
# 6 0.000000 0.000000 0.000000 0.000000 0.000000 0.052615
#
#
# Mechanical properties :
#
#
# Convention : Reuss Voigt Hill
#
# Bulk Modulus (GPa) = 34.75524 58.49887 46.62705
# Shear Modulus (GPa) = 21.73357 27.21778 24.47568
#
# Velocity S-wave (km/s) = 3.30515 3.69873 3.50747
# Velocity P-wave (km/s) = 5.65991 6.90249 6.31185
#
# Compressibility (1/GPa) = 0.02877264
#
# Stress axis : x y z
#
# Youngs Moduli (GPa) = 64.36618 30.11971 146.24108
#
# Poissons Ratio (x) = 0.16092 0.37732
# Poissons Ratio (y) = 0.34388 0.80118
# Poissons Ratio (z) = 0.16607 0.16501
#
# Static dielectric constant tensor:
#      x y z
#    x 1.744520 0.000000 0.000000 
#    y 0.000000 1.808290 0.000000 
#    z 0.000000 0.000000 1.741370 
# 
# From -- ./inp_files/20345.got.cif
#   From: 2010.05.17/outbox.cif.g08.bks.cpg/sg54_11_cif.got.tgz:20345.got - 2010.06.03 13:09:01.
