data_PCOD9421904
_publ_section_title
;
Structure prediction by ZEFSAII (Michael W. Deem and Ramdas Pophale) SiO2 
 PCOD9421904
Probable space group: P C C A
;
_chemical_formula_sum "Si O2"
_cell_formula_units_Z 60
_cell_length_a 18.509771
_cell_length_b 14.025258
_cell_length_c 9.208175
_cell_angle_alpha 90.000000
_cell_angle_beta 90.000000
_cell_angle_gamma 90.000000
_cell_volume 2390.481952
_symmetry_space_group_name_H-M "P C C A"
_symmetry_group_IT_number 54
_symmetry_cell_setting 'orthorhombic'
loop_
_space_group_symop_operation_xyz
x,y,z
1/2-x,-y,z
1/2+x,-y,1/2-z
-x,y,1/2-z
-x,-y,-z
1/2+x,y,-z
1/2-x,y,1/2+z
x,-y,1/2+z
loop_
_atom_site_type_symbol
_atom_site_label
_atom_site_fract_x
_atom_site_fract_y
_atom_site_fract_z
Si Si1 0.385162 0.375384 0.383870
Si Si2 0.500000 0.777479 0.750000
Si Si3 0.702671 0.243361 0.925950
Si Si4 0.572062 0.893533 0.006841
Si Si5 0.415116 0.259125 0.778664
Si Si6 0.262530 0.143173 0.311287
Si Si7 0.371542 0.004608 0.742374
Si Si8 0.419084 0.535152 0.191254
O O1 0.438505 0.293477 0.318734
O O2 0.316451 0.329478 0.467388
O O3 0.372844 0.446694 0.249263
O O4 0.419379 0.436042 0.520885
O O5 0.521403 0.847246 0.884011
O O6 0.623872 0.216505 0.862519
O O7 0.750100 0.239613 0.780957
O O8 0.740569 0.163001 0.019903
O O9 0.610247 0.980232 0.922005
O O10 0.604704 0.795489 0.075231
O O11 0.565050 0.948837 0.161678
O O12 0.500000 0.254917 0.750000
O O13 0.393405 0.369262 0.774477
O O14 0.340971 0.098707 0.289074
O O15 0.198545 0.071504 0.267440
O O16 0.500000 0.515745 0.250000
#
# Coordination Sequence:
#
# PCOD9421904 Si02
#       8
#     8   4   8   8   8   8   8   8
#     4  11  24  41  72 112 150 195 248 298 372 456
#     4  12  26  42  72 108 160 208 240 296 394 470
#     4  11  23  44  72 110 141 191 245 314 379 443
#     4  12  25  46  67 104 146 193 249 307 385 457
#     4  10  23  44  73 108 155 192 240 307 387 453
#     4  11  23  45  73 100 134 181 259 317 368 433
#     4  11  25  43  73  99 129 184 257 322 366 430
#     4  10  20  39  71 108 152 195 248 296 354 452
#
# _framework density 25.099542
#
# number of rings (size 3 to 8) (size 9 to 14) (size 15 to 20)
#    0.000    1.067    2.000    5.200    1.867    2.667 
#    1.200    0.000    0.000    9.600    0.000    0.000 
#    0.000    0.000    0.000    0.000    0.000    0.000 
#
# Total GULP energy -334223.510831 kJ/mol
# GULP energy per Si atom -5570.391847 kJ/mol
# Density = 2.504241 g / cm^3
# Si number density = 25.099542 Si / 1000 Ang^3
#
#
#
# Elastic Constant Matrix: (Units=GPa)
#
#
# Indices 1 2 3 4 5 6 
#
# 1 45.0376 51.4682 31.3832 0.0000 0.0000 0.0000
# 2 51.4682 122.8072 55.5581 0.0000 0.0000 0.0000
# 3 31.3832 55.5581 128.8071 0.0000 0.0000 0.0000
# 4 0.0000 0.0000 0.0000 56.7027 0.0000 0.0000
# 5 0.0000 0.0000 0.0000 0.0000 47.7873 0.0000
# 6 0.0000 0.0000 0.0000 0.0000 0.0000 33.0325
#
#
#
# Elastic Compliance Matrix: (Units=1/GPa)
#
#
# Indices 1 2 3 4 5 6 
#
# 1 0.043793 -0.016806 -0.003421 0.000000 0.000000 0.000000
# 2 -0.016806 0.016566 -0.003051 0.000000 0.000000 0.000000
# 3 -0.003421 -0.003051 0.009913 0.000000 0.000000 0.000000
# 4 0.000000 0.000000 0.000000 0.017636 0.000000 0.000000
# 5 0.000000 0.000000 0.000000 0.000000 0.020926 0.000000
# 6 0.000000 0.000000 0.000000 0.000000 0.000000 0.030273
#
#
# Mechanical properties :
#
#
# Convention : Reuss Voigt Hill
#
# Bulk Modulus (GPa) = 42.16436 63.71898 52.94167
# Shear Modulus (GPa) = 25.83065 38.05400 31.94232
#
# Velocity S-wave (km/s) = 3.21148 3.89797 3.57126
# Velocity P-wave (km/s) = 5.53054 6.76021 6.17605
#
# Compressibility (1/GPa) = 0.02371671
#
# Stress axis : x y z
#
# Youngs Moduli (GPa) = 22.83474 60.36334 100.87749
#
# Poissons Ratio (x) = 1.01445 0.34511
# Poissons Ratio (y) = 0.38376 0.30777
# Poissons Ratio (z) = 0.07812 0.18416
#
# Static dielectric constant tensor:
#      x y z
#    x 2.113330 0.000000 0.000000 
#    y 0.000000 2.126170 0.000000 
#    z 0.000000 0.000000 2.027740 
# 
# From -- ./inp_files/5261.got.cif
#   From: 2010.05.17/outbox.cif.g08.bks.cpg/sg54_3_cif.got.tgz:5261.got - 2010.06.03 13:09:01.
