data_PCOD9421036
_publ_section_title
;
Structure prediction by ZEFSAII (Michael W. Deem and Ramdas Pophale) SiO2 
 PCOD9421036
Probable space group: P C C A
;
_chemical_formula_sum "Si O2"
_cell_formula_units_Z 48
_cell_length_a 5.295845
_cell_length_b 26.443142
_cell_length_c 16.511025
_cell_angle_alpha 90.000000
_cell_angle_beta 90.000000
_cell_angle_gamma 90.000000
_cell_volume 2312.183820
_symmetry_space_group_name_H-M "P C C A"
_symmetry_group_IT_number 54
_symmetry_cell_setting 'orthorhombic'
loop_
_space_group_symop_operation_xyz
x,y,z
1/2-x,-y,z
1/2+x,-y,1/2-z
-x,y,1/2-z
-x,-y,-z
1/2+x,y,-z
1/2-x,y,1/2+z
x,-y,1/2+z
loop_
_atom_site_type_symbol
_atom_site_label
_atom_site_fract_x
_atom_site_fract_y
_atom_site_fract_z
Si Si1 0.715548 0.835246 0.056122
Si Si2 0.672126 0.421872 0.977219
Si Si3 0.751009 0.750563 0.195108
Si Si4 0.750114 0.439104 0.298632
Si Si5 0.800968 0.053211 0.552694
Si Si6 0.650257 0.309338 0.042930
O O1 0.727385 0.795763 0.129431
O O2 0.744864 0.892418 0.091227
O O3 0.453773 0.830013 0.005760
O O4 0.737753 0.412956 0.884704
O O5 0.405208 0.448844 0.981263
O O6 0.643432 0.368974 0.024350
O O7 0.500000 0.746800 0.250000
O O8 0.791885 0.702606 0.135651
O O9 0.000000 0.756862 0.250000
O O10 0.750000 0.500000 0.312579
O O11 0.500000 0.426072 0.250000
O O12 0.000000 0.426218 0.250000
O O13 0.588107 0.052423 0.480713
O O14 0.750000 0.000000 0.597494
O O15 0.381490 0.288645 0.011992
#
# Coordination Sequence:
#
# PCOD9421036 Si02
#       6
#     8   8   8   8   8   8
#     4  10  19  34  57  80 107 144 182 226 274 325
#     4  10  21  38  59  85 114 148 187 226 267 322
#     4  12  24  38  57  82 111 142 182 232 282 330
#     4  10  21  38  60  88 120 150 182 224 274 323
#     4   8  14  25  45  75 104 132 174 222 264 312
#     4  10  21  41  60  80 110 144 185 228 273 328
#
# _framework density 20.759594
#
# number of rings (size 3 to 8) (size 9 to 14) (size 15 to 20)
#    0.000    2.000    0.000    4.000    0.000    0.667 
#    0.000   20.000    0.000    1.000    0.000    0.000 
#    0.000    0.000    0.000    0.000    0.000    0.000 
#
# Total GULP energy -267848.845655 kJ/mol
# GULP energy per Si atom -5580.184284 kJ/mol
# Density = 2.071234 g / cm^3
# Si number density = 20.759594 Si / 1000 Ang^3
#
#
#
# Elastic Constant Matrix: (Units=GPa)
#
#
# Indices 1 2 3 4 5 6 
#
# 1 184.6537 4.6810 60.4524 0.0000 0.0000 0.0000
# 2 4.6810 74.6297 36.1600 0.0000 0.0000 0.0000
# 3 60.4524 36.1600 127.0000 0.0000 0.0000 0.0000
# 4 0.0000 0.0000 0.0000 10.7519 0.0000 0.0000
# 5 0.0000 0.0000 0.0000 0.0000 40.1309 0.0000
# 6 0.0000 0.0000 0.0000 0.0000 0.0000 20.1529
#
#
#
# Elastic Compliance Matrix: (Units=1/GPa)
#
#
# Indices 1 2 3 4 5 6 
#
# 1 0.006517 0.001269 -0.003464 0.000000 0.000000 0.000000
# 2 0.001269 0.015791 -0.005100 0.000000 0.000000 0.000000
# 3 -0.003464 -0.005100 0.010975 0.000000 0.000000 0.000000
# 4 0.000000 0.000000 0.000000 0.093007 0.000000 0.000000
# 5 0.000000 0.000000 0.000000 0.000000 0.024918 0.000000
# 6 0.000000 0.000000 0.000000 0.000000 0.000000 0.049621
#
#
# Mechanical properties :
#
#
# Convention : Reuss Voigt Hill
#
# Bulk Modulus (GPa) = 53.49270 65.43005 59.46137
# Shear Modulus (GPa) = 22.55811 33.20648 27.88230
#
# Velocity S-wave (km/s) = 3.29999 4.00381 3.66881
# Velocity P-wave (km/s) = 6.35166 7.27739 6.83022
#
# Compressibility (1/GPa) = 0.01869414
#
# Stress axis : x y z
#
# Youngs Moduli (GPa) = 153.43722 63.32662 91.11647
#
# Poissons Ratio (x) = -0.08039 0.31560
# Poissons Ratio (y) = -0.19478 0.46473
# Poissons Ratio (z) = 0.53146 0.32299
#
# Static dielectric constant tensor:
#      x y z
#    x 1.847090 0.000000 0.000000 
#    y 0.000000 1.799580 0.000000 
#    z 0.000000 0.000000 1.630770 
# 
# From -- ./inp_files/10965.got.cif
#   From: 2010.05.17/outbox.cif.g08.bks.cpg/sg54_6_cif.got.tgz:10965.got - 2010.06.03 13:09:01.
