data_PCOD9421388
_publ_section_title
;
Structure prediction by ZEFSAII (Michael W. Deem and Ramdas Pophale) SiO2 
 PCOD9421388
Probable space group: P C C A
;
_chemical_formula_sum "Si O2"
_cell_formula_units_Z 32
_cell_length_a 4.955293
_cell_length_b 20.595612
_cell_length_c 12.935951
_cell_angle_alpha 90.000000
_cell_angle_beta 90.000000
_cell_angle_gamma 90.000000
_cell_volume 1320.208128
_symmetry_space_group_name_H-M "P C C A"
_symmetry_group_IT_number 54
_symmetry_cell_setting 'orthorhombic'
loop_
_space_group_symop_operation_xyz
x,y,z
1/2-x,-y,z
1/2+x,-y,1/2-z
-x,y,1/2-z
-x,-y,-z
1/2+x,y,-z
1/2-x,y,1/2+z
x,-y,1/2+z
loop_
_atom_site_type_symbol
_atom_site_label
_atom_site_fract_x
_atom_site_fract_y
_atom_site_fract_z
Si Si1 0.994766 0.454627 0.373837
Si Si2 0.435701 0.202658 0.069463
Si Si3 0.668602 0.934639 0.923250
Si Si4 0.249289 0.668074 0.179313
O O1 0.750000 0.500000 0.399658
O O2 0.888502 0.382370 0.402629
O O3 0.250000 0.500000 0.396920
O O4 0.000000 0.445744 0.250000
O O5 0.342659 0.136510 0.127703
O O6 0.374766 0.268804 0.127509
O O7 0.744993 0.201929 0.032756
O O8 0.750000 0.000000 0.861561
O O9 0.385682 0.936434 0.983390
O O10 0.500000 0.689028 0.250000
O O11 0.000000 0.638928 0.250000
#
# Coordination Sequence:
#
# PCOD9421388 Si02
#       4
#     8   8   8   8
#     4   9  16  28  47  70  94 121 162 209 243 284
#     4  10  20  34  53  77 107 141 174 213 262 314
#     4   8  14  26  46  71  96 128 175 219 247 286
#     4  11  21  34  54  79 107 136 171 217 265 312
#
# _framework density 24.238602
#
# number of rings (size 3 to 8) (size 9 to 14) (size 15 to 20)
#    0.000    2.500    0.000    5.250    0.000    0.000 
#    0.000    0.000    0.000    6.000    0.000    0.000 
#    0.000    8.000    0.000    0.000    0.000    0.000 
#
# Total GULP energy -178205.050827 kJ/mol
# GULP energy per Si atom -5568.907838 kJ/mol
# Density = 2.418343 g / cm^3
# Si number density = 24.238602 Si / 1000 Ang^3
#
#
#
# Elastic Constant Matrix: (Units=GPa)
#
#
# Indices 1 2 3 4 5 6 
#
# 1 157.3686 15.1116 -1.3768 0.0000 0.0000 0.0000
# 2 15.1116 175.7474 9.0390 0.0000 0.0000 0.0000
# 3 -1.3768 9.0390 23.5926 0.0000 0.0000 0.0000
# 4 0.0000 0.0000 0.0000 10.8931 0.0000 0.0000
# 5 0.0000 0.0000 0.0000 0.0000 17.7392 0.0000
# 6 0.0000 0.0000 0.0000 0.0000 0.0000 28.6226
#
#
#
# Elastic Compliance Matrix: (Units=1/GPa)
#
#
# Indices 1 2 3 4 5 6 
#
# 1 0.006416 -0.000582 0.000598 0.000000 0.000000 0.000000
# 2 -0.000582 0.005857 -0.002278 0.000000 0.000000 0.000000
# 3 0.000598 -0.002278 0.043294 0.000000 0.000000 0.000000
# 4 0.000000 0.000000 0.000000 0.091801 0.000000 0.000000
# 5 0.000000 0.000000 0.000000 0.000000 0.056372 0.000000
# 6 0.000000 0.000000 0.000000 0.000000 0.000000 0.034937
#
#
# Mechanical properties :
#
#
# Convention : Reuss Voigt Hill
#
# Bulk Modulus (GPa) = 19.59216 44.69513 32.14364
# Shear Modulus (GPa) = 19.21475 33.71332 26.46404
#
# Velocity S-wave (km/s) = 2.81861 3.73351 3.30785
# Velocity P-wave (km/s) = 4.32358 6.08812 5.28008
#
# Compressibility (1/GPa) = 0.05104083
#
# Stress axis : x y z
#
# Youngs Moduli (GPa) = 155.86862 170.72937 23.09802
#
# Poissons Ratio (x) = 0.09943 -0.01380
# Poissons Ratio (y) = 0.09077 0.05262
# Poissons Ratio (z) = -0.09314 0.38893
#
# Static dielectric constant tensor:
#      x y z
#    x 1.888950 0.000000 0.000000 
#    y 0.000000 2.095390 0.000000 
#    z 0.000000 0.000000 2.008400 
# 
# From -- ./inp_files/10755.got.cif
#   From: 2010.05.17/outbox.cif.g08.bks.cpg/sg54_6_cif.got.tgz:10755.got - 2010.06.03 13:09:01.
