data_PCOD9421238
_publ_section_title
;
Structure prediction by ZEFSAII (Michael W. Deem and Ramdas Pophale) SiO2 
 PCOD9421238
Probable space group: P C C A
;
_chemical_formula_sum "Si O2"
_cell_formula_units_Z 48
_cell_length_a 15.320459
_cell_length_b 9.469752
_cell_length_c 14.512716
_cell_angle_alpha 90.000000
_cell_angle_beta 90.000000
_cell_angle_gamma 90.000000
_cell_volume 2105.518585
_symmetry_space_group_name_H-M "P C C A"
_symmetry_group_IT_number 54
_symmetry_cell_setting 'orthorhombic'
loop_
_space_group_symop_operation_xyz
x,y,z
1/2-x,-y,z
1/2+x,-y,1/2-z
-x,y,1/2-z
-x,-y,-z
1/2+x,y,-z
1/2-x,y,1/2+z
x,-y,1/2+z
loop_
_atom_site_type_symbol
_atom_site_label
_atom_site_fract_x
_atom_site_fract_y
_atom_site_fract_z
Si Si1 0.438412 0.436801 0.861014
Si Si2 0.221538 0.662069 0.152418
Si Si3 0.147787 0.969018 0.813575
Si Si4 0.805563 0.734572 0.539377
Si Si5 0.908086 0.736726 0.820014
Si Si6 0.869560 0.278864 0.650635
O O1 0.355189 0.401013 0.921322
O O2 0.517081 0.328312 0.885003
O O3 0.410915 0.385113 0.758958
O O4 0.445439 0.605185 0.863019
O O5 0.250000 0.500000 0.137606
O O6 0.313049 0.741098 0.140408
O O7 0.180085 0.681760 0.252920
O O8 0.170054 0.729140 0.067629
O O9 0.158962 0.868590 0.903014
O O10 0.092624 0.881155 0.738577
O O11 0.250000 0.000000 0.784500
O O12 0.103731 0.116840 0.837607
O O13 0.704567 0.721001 0.570846
#
# Coordination Sequence:
#
# PCOD9421238 Si02
#       6
#     8   8   8   8   8   8
#     4  10  19  38  63  88 130 163 208 274 325 380
#     4  12  20  35  66  98 123 166 225 267 312 393
#     4   9  18  38  60  92 125 164 216 262 325 389
#     4  10  21  37  60  94 127 169 213 266 318 392
#     4  10  20  36  63  94 123 167 211 268 337 373
#     4  11  19  39  62  95 126 164 228 260 325 393
#
# _framework density 22.797235000000001
#
# number of rings (size 3 to 8) (size 9 to 14) (size 15 to 20)
#    0.000    1.667    6.667    1.500    0.000    0.000 
#    9.000   10.000    0.000    1.000    0.000    0.000 
#    0.000    0.000    0.000    0.000    0.000    0.000 
#
# Total GULP energy -267329.538095 kJ/mol
# GULP energy per Si atom -5569.365377 kJ/mol
# Density = 2.274535 g / cm^3
# Si number density = 22.797235 Si / 1000 Ang^3
#
#
#
# Elastic Constant Matrix: (Units=GPa)
#
#
# Indices 1 2 3 4 5 6 
#
# 1 35.0536 8.6283 5.4816 0.0000 0.0000 0.0000
# 2 8.6283 149.9759 2.3205 0.0000 0.0000 0.0000
# 3 5.4816 2.3205 68.9894 0.0000 0.0000 0.0000
# 4 0.0000 0.0000 0.0000 -26.6306 0.0000 0.0000
# 5 0.0000 0.0000 0.0000 0.0000 2.7159 0.0000
# 6 0.0000 0.0000 0.0000 0.0000 0.0000 18.8215
#
#
#
# Elastic Compliance Matrix: (Units=1/GPa)
#
#
# Indices 1 2 3 4 5 6 
#
# 1 0.029289 -0.001650 -0.002272 0.000000 0.000000 0.000000
# 2 -0.001650 0.006764 -0.000096 0.000000 0.000000 0.000000
# 3 -0.002272 -0.000096 0.014679 0.000000 0.000000 0.000000
# 4 0.000000 0.000000 0.000000 -0.037551 0.000000 0.000000
# 5 0.000000 0.000000 0.000000 0.000000 0.368199 0.000000
# 6 0.000000 0.000000 0.000000 0.000000 0.000000 0.053131
#
#
# Mechanical properties :
#
#
# Convention : Reuss Voigt Hill
#
# Bulk Modulus (GPa) = 23.42140 31.87552 27.64846
# Shear Modulus (GPa) = 10.94621 14.82060 12.88340
#
# Velocity S-wave (km/s) = 2.19362 2.55248 2.37983
# Velocity P-wave (km/s) = 4.08804 4.76439 4.43912
#
# Compressibility (1/GPa) = 0.04269600
#
# Stress axis : x y z
#
# Youngs Moduli (GPa) = 34.14239 147.83823 68.12582
#
# Poissons Ratio (x) = 0.24392 0.15476
# Poissons Ratio (y) = 0.05633 0.00657
# Poissons Ratio (z) = 0.07756 0.01426
#
# Static dielectric constant tensor:
#      x y z
#    x 2.015450 0.000000 0.000000 
#    y 0.000000 1.874010 0.000000 
#    z 0.000000 0.000000 1.908870 
# 
# From -- ./inp_files/14116.got.cif
#   From: 2010.05.17/outbox.cif.g08.bks.cpg/sg54_8_cif.got.tgz:14116.got - 2010.06.03 13:09:01.
