data_PCOD9421729
_publ_section_title
;
Structure prediction by ZEFSAII (Michael W. Deem and Ramdas Pophale) SiO2 
 PCOD9421729
Probable space group: P C C A
;
_chemical_formula_sum "Si O2"
_cell_formula_units_Z 36
_cell_length_a 12.741212
_cell_length_b 8.689876
_cell_length_c 17.933260
_cell_angle_alpha 90.000000
_cell_angle_beta 90.000000
_cell_angle_gamma 90.000000
_cell_volume 1985.562520
_symmetry_space_group_name_H-M "P C C A"
_symmetry_group_IT_number 54
_symmetry_cell_setting 'orthorhombic'
loop_
_space_group_symop_operation_xyz
x,y,z
1/2-x,-y,z
1/2+x,-y,1/2-z
-x,y,1/2-z
-x,-y,-z
1/2+x,y,-z
1/2-x,y,1/2+z
x,-y,1/2+z
loop_
_atom_site_type_symbol
_atom_site_label
_atom_site_fract_x
_atom_site_fract_y
_atom_site_fract_z
Si Si1 0.500000 0.548671 0.250000
Si Si2 0.597685 0.881710 0.806349
Si Si3 0.993706 0.642465 0.101657
Si Si4 0.677114 0.229492 0.818097
Si Si5 0.152194 0.601029 0.527816
O O1 0.532342 0.441363 0.180132
O O2 0.401460 0.655254 0.225184
O O3 0.500000 0.875665 0.750000
O O4 0.555037 0.798047 0.879854
O O5 0.704427 0.787729 0.786075
O O6 0.629440 0.058447 0.816514
O O7 0.070054 0.520023 0.062548
O O8 0.899864 0.674994 0.044812
O O9 0.682479 0.288346 0.903583
O O10 0.250000 0.500000 0.503397
#
# Coordination Sequence:
#
# PCOD9421729 Si02
#       5
#     4   8   8   8   8
#     4  10  20  38  60  92 116 160 196 260 306 352
#     4  11  21  38  60  91 119 164 202 248 304 368
#     4  10  21  35  61  86 117 151 206 247 300 358
#     4  10  22  38  61  83 130 160 198 251 308 359
#     4  10  20  38  58  87 117 161 197 246 301 364
#
# _framework density 18.130883000000001
#
# number of rings (size 3 to 8) (size 9 to 14) (size 15 to 20)
#    0.000    1.778    4.444    0.000    0.000    2.667 
#    0.000    0.000    0.000    0.000    0.000    0.000 
#    0.000    0.000    0.000    0.000    0.000    0.000 
#
# Total GULP energy -200620.370259 kJ/mol
# GULP energy per Si atom -5572.788063 kJ/mol
# Density = 1.808962 g / cm^3
# Si number density = 18.130883 Si / 1000 Ang^3
#
#
#
# Elastic Constant Matrix: (Units=GPa)
#
#
# Indices 1 2 3 4 5 6 
#
# 1 123.4442 35.6614 48.6023 0.0000 0.0000 0.0000
# 2 35.6614 48.2889 7.9806 0.0000 0.0000 0.0000
# 3 48.6023 7.9806 58.6971 0.0000 0.0000 0.0000
# 4 0.0000 0.0000 0.0000 5.8394 0.0000 0.0000
# 5 0.0000 0.0000 0.0000 0.0000 9.2250 0.0000
# 6 0.0000 0.0000 0.0000 0.0000 0.0000 29.7496
#
#
#
# Elastic Compliance Matrix: (Units=1/GPa)
#
#
# Indices 1 2 3 4 5 6 
#
# 1 0.015310 -0.009423 -0.011395 0.000000 0.000000 0.000000
# 2 -0.009423 0.026984 0.004133 0.000000 0.000000 0.000000
# 3 -0.011395 0.004133 0.025910 0.000000 0.000000 0.000000
# 4 0.000000 0.000000 0.000000 0.171252 0.000000 0.000000
# 5 0.000000 0.000000 0.000000 0.000000 0.108401 0.000000
# 6 0.000000 0.000000 0.000000 0.000000 0.000000 0.033614
#
#
# Mechanical properties :
#
#
# Convention : Reuss Voigt Hill
#
# Bulk Modulus (GPa) = 28.70716 46.10210 37.40463
# Shear Modulus (GPa) = 11.72466 18.17519 14.94992
#
# Velocity S-wave (km/s) = 2.54572 3.16957 2.87462
# Velocity P-wave (km/s) = 4.95062 6.23518 5.62966
#
# Compressibility (1/GPa) = 0.03483451
#
# Stress axis : x y z
#
# Youngs Moduli (GPa) = 65.31852 37.05845 38.59469
#
# Poissons Ratio (x) = 0.34920 0.43981
# Poissons Ratio (y) = 0.61549 -0.15953
# Poissons Ratio (z) = 0.74434 -0.15318
#
# Static dielectric constant tensor:
#      x y z
#    x 1.668870 0.000000 0.000000 
#    y 0.000000 1.606670 0.000000 
#    z 0.000000 0.000000 1.630210 
# 
# From -- ./inp_files/17063.got.cif
#   From: 2010.05.17/outbox.cif.g08.bks.cpg/sg54_9_cif.got.tgz:17063.got - 2010.06.03 13:09:01.
