data_PCOD9421709
_publ_section_title
;
Structure prediction by ZEFSAII (Michael W. Deem and Ramdas Pophale) SiO2 
 PCOD9421709
Probable space group: P C C A
;
_chemical_formula_sum "Si O2"
_cell_formula_units_Z 48
_cell_length_a 8.020200
_cell_length_b 14.920490
_cell_length_c 17.885435
_cell_angle_alpha 90.000000
_cell_angle_beta 90.000000
_cell_angle_gamma 90.000000
_cell_volume 2140.266193
_symmetry_space_group_name_H-M "P C C A"
_symmetry_group_IT_number 54
_symmetry_cell_setting 'orthorhombic'
loop_
_space_group_symop_operation_xyz
x,y,z
1/2-x,-y,z
1/2+x,-y,1/2-z
-x,y,1/2-z
-x,-y,-z
1/2+x,y,-z
1/2-x,y,1/2+z
x,-y,1/2+z
loop_
_atom_site_type_symbol
_atom_site_label
_atom_site_fract_x
_atom_site_fract_y
_atom_site_fract_z
Si Si1 0.651558 0.583422 0.613612
Si Si2 0.106838 0.738367 0.635553
Si Si3 0.238299 0.746081 0.291506
Si Si4 0.456152 0.831686 0.494917
Si Si5 0.668731 0.093792 0.109682
Si Si6 0.665458 0.364331 0.460990
O O1 0.750000 0.500000 0.648117
O O2 0.639919 0.662284 0.674473
O O3 0.767519 0.609904 0.542336
O O4 0.468854 0.571052 0.577447
O O5 0.233242 0.752659 0.703523
O O6 0.090531 0.814433 0.571828
O O7 0.175100 0.652152 0.591669
O O8 0.923260 0.733050 0.671598
O O9 0.160685 0.837571 0.322324
O O10 0.297242 0.862233 0.448868
O O11 0.503477 0.902059 0.559260
O O12 0.425639 0.733066 0.530352
O O13 0.750000 0.000000 0.131451
#
# Coordination Sequence:
#
# PCOD9421709 Si02
#       6
#     8   8   8   8   8   8
#     4  12  23  38  61  89 121 157 200 248 297 353
#     4  10  20  37  67  82 116 167 191 242 311 347
#     4  10  21  41  59  83 125 158 195 241 304 368
#     4  11  18  37  62  86 113 152 203 244 291 351
#     4  11  21  36  61  87 119 154 196 247 298 351
#     4  12  19  39  64  87 115 155 206 247 292 349
#
# _framework density 22.427116000000002
#
# number of rings (size 3 to 8) (size 9 to 14) (size 15 to 20)
#    0.000    1.000    8.333    1.000    0.000    0.667 
#    0.000    5.000   11.000    0.000    0.000    0.000 
#    0.000    0.000    0.000    0.000    0.000    0.000 
#
# Total GULP energy -268053.556067 kJ/mol
# GULP energy per Si atom -5584.449085 kJ/mol
# Density = 2.237607 g / cm^3
# Si number density = 22.427116 Si / 1000 Ang^3
#
#
#
# Elastic Constant Matrix: (Units=GPa)
#
#
# Indices 1 2 3 4 5 6 
#
# 1 39.9327 -18.8472 6.8895 0.0000 0.0000 0.0000
# 2 -18.8472 64.1881 8.1321 0.0000 0.0000 0.0000
# 3 6.8895 8.1321 85.1920 0.0000 0.0000 0.0000
# 4 0.0000 0.0000 0.0000 1.6143 0.0000 0.0000
# 5 0.0000 0.0000 0.0000 0.0000 21.9167 0.0000
# 6 0.0000 0.0000 0.0000 0.0000 0.0000 19.7235
#
#
#
# Elastic Compliance Matrix: (Units=1/GPa)
#
#
# Indices 1 2 3 4 5 6 
#
# 1 0.029962 0.009216 -0.003303 0.000000 0.000000 0.000000
# 2 0.009216 0.018605 -0.002521 0.000000 0.000000 0.000000
# 3 -0.003303 -0.002521 0.012246 0.000000 0.000000 0.000000
# 4 0.000000 0.000000 0.000000 0.619481 0.000000 0.000000
# 5 0.000000 0.000000 0.000000 0.000000 0.045627 0.000000
# 6 0.000000 0.000000 0.000000 0.000000 0.000000 0.050701
#
#
# Mechanical properties :
#
#
# Convention : Reuss Voigt Hill
#
# Bulk Modulus (GPa) = 14.79377 20.18464 17.48921
# Shear Modulus (GPa) = 6.31019 21.52680 13.91849
#
# Velocity S-wave (km/s) = 1.67921 3.10151 2.49391
# Velocity P-wave (km/s) = 3.22030 4.67392 4.01347
#
# Compressibility (1/GPa) = 0.06759604
#
# Stress axis : x y z
#
# Youngs Moduli (GPa) = 33.37604 53.75008 81.65965
#
# Poissons Ratio (x) = -0.49535 0.26970
# Poissons Ratio (y) = -0.30759 0.20588
# Poissons Ratio (z) = 0.11023 0.13552
#
# Static dielectric constant tensor:
#      x y z
#    x 1.939840 0.000000 0.000000 
#    y 0.000000 1.849010 0.000000 
#    z 0.000000 0.000000 1.799740 
# 
# From -- ./inp_files/16598.got.cif
#   From: 2010.05.17/outbox.cif.g08.bks.cpg/sg54_9_cif.got.tgz:16598.got - 2010.06.03 13:09:01.
