data_PCOD9421247
_publ_section_title
;
Structure prediction by ZEFSAII (Michael W. Deem and Ramdas Pophale) SiO2 
 PCOD9421247
Probable space group: P C C A
;
_chemical_formula_sum "Si O2"
_cell_formula_units_Z 64
_cell_length_a 17.127566
_cell_length_b 9.696844
_cell_length_c 20.080098
_cell_angle_alpha 90.000000
_cell_angle_beta 90.000000
_cell_angle_gamma 90.000000
_cell_volume 3334.969655
_symmetry_space_group_name_H-M "P C C A"
_symmetry_group_IT_number 54
_symmetry_cell_setting 'orthorhombic'
loop_
_space_group_symop_operation_xyz
x,y,z
1/2-x,-y,z
1/2+x,-y,1/2-z
-x,y,1/2-z
-x,-y,-z
1/2+x,y,-z
1/2-x,y,1/2+z
x,-y,1/2+z
loop_
_atom_site_type_symbol
_atom_site_label
_atom_site_fract_x
_atom_site_fract_y
_atom_site_fract_z
Si Si1 0.769212 0.141493 0.496505
Si Si2 0.906245 0.780461 0.900794
Si Si3 0.205218 0.640598 0.903468
Si Si4 0.796125 0.134821 0.211415
Si Si5 0.044166 0.637413 0.980033
Si Si6 0.135944 0.772588 0.098595
Si Si7 0.428375 0.985874 0.703780
Si Si8 0.763637 0.351511 0.321477
O O1 0.850646 0.155474 0.458157
O O2 0.756320 0.273893 0.542730
O O3 0.700429 0.139015 0.441187
O O4 0.750000 0.000000 0.534640
O O5 0.939915 0.896408 0.851757
O O6 0.846043 0.680239 0.859400
O O7 0.980927 0.714562 0.935099
O O8 0.250000 0.500000 0.884685
O O9 0.189661 0.749726 0.844323
O O10 0.123083 0.608270 0.938888
O O11 0.869547 0.062507 0.246082
O O12 0.755367 0.223620 0.270591
O O13 0.750000 0.000000 0.187486
O O14 0.072252 0.720633 0.045831
O O15 0.000000 0.500000 0.000000
O O16 0.192022 0.652524 0.126367
O O17 0.101899 0.857459 0.160294
O O18 0.500000 0.944603 0.750000
O O19 0.750000 0.500000 0.287876
#
# Coordination Sequence:
#
# PCOD9421247 Si02
#       8
#     8   8   8   8   8   8   8   8
#     4  10  19  38  65  89 121 162 210 259 306 372
#     4  10  21  36  64  89 124 164 209 261 316 371
#     4  11  24  41  61  93 128 163 206 254 318 383
#     4  11  22  41  66  87 125 161 209 260 311 366
#     4  11  23  41  60  90 129 164 204 259 321 382
#     4  10  21  38  62  88 124 163 208 255 303 378
#     4  11  22  40  60  91 126 159 206 261 314 369
#     4  10  20  37  66  91 117 165 217 254 304 372
#
# _framework density 19.190579
#
# number of rings (size 3 to 8) (size 9 to 14) (size 15 to 20)
#    0.000    1.500    2.500    3.000    0.000    4.000 
#    6.750    0.000    0.000    1.500    0.000    0.000 
#    0.000    0.000    0.000    0.000    0.000    0.000 
#
# Total GULP energy -356626.754771 kJ/mol
# GULP energy per Si atom -5572.293043 kJ/mol
# Density = 1.914690 g / cm^3
# Si number density = 19.190579 Si / 1000 Ang^3
#
#
#
# Elastic Constant Matrix: (Units=GPa)
#
#
# Indices 1 2 3 4 5 6 
#
# 1 84.0399 46.8990 56.3019 0.0000 0.0000 0.0000
# 2 46.8990 87.9334 25.4425 0.0000 0.0000 0.0000
# 3 56.3019 25.4425 95.7828 0.0000 0.0000 0.0000
# 4 0.0000 0.0000 0.0000 21.6522 0.0000 0.0000
# 5 0.0000 0.0000 0.0000 0.0000 5.4296 0.0000
# 6 0.0000 0.0000 0.0000 0.0000 0.0000 17.7222
#
#
#
# Elastic Compliance Matrix: (Units=1/GPa)
#
#
# Indices 1 2 3 4 5 6 
#
# 1 0.026059 -0.010255 -0.012594 0.000000 0.000000 0.000000
# 2 -0.010255 0.016354 0.001684 0.000000 0.000000 0.000000
# 3 -0.012594 0.001684 0.017396 0.000000 0.000000 0.000000
# 4 0.000000 0.000000 0.000000 0.046185 0.000000 0.000000
# 5 0.000000 0.000000 0.000000 0.000000 0.184176 0.000000
# 6 0.000000 0.000000 0.000000 0.000000 0.000000 0.056426
#
#
# Mechanical properties :
#
#
# Convention : Reuss Voigt Hill
#
# Bulk Modulus (GPa) = 57.20970 58.33807 57.77388
# Shear Modulus (GPa) = 12.66619 18.23498 15.45058
#
# Velocity S-wave (km/s) = 2.57188 3.08588 2.84053
# Velocity P-wave (km/s) = 6.22057 6.56980 6.39756
#
# Compressibility (1/GPa) = 0.01747955
#
# Stress axis : x y z
#
# Youngs Moduli (GPa) = 38.37484 61.14581 57.48533
#
# Poissons Ratio (x) = 0.62702 0.72395
# Poissons Ratio (y) = 0.39352 -0.09678
# Poissons Ratio (z) = 0.48328 -0.10294
#
# Static dielectric constant tensor:
#      x y z
#    x 1.684990 0.000000 0.000000 
#    y 0.000000 1.777250 0.000000 
#    z 0.000000 0.000000 1.730680 
# 
# From -- ./inp_files/21940.got.cif
#   From: 2010.05.17/outbox.cif.g08.bks.cpg/sg54_11_cif.got.tgz:21940.got - 2010.06.03 13:09:01.
