data_PCOD9421915
_publ_section_title
;
Structure prediction by ZEFSAII (Michael W. Deem and Ramdas Pophale) SiO2 
 PCOD9421915
Probable space group: P C C A
;
_chemical_formula_sum "Si O2"
_cell_formula_units_Z 48
_cell_length_a 16.567395
_cell_length_b 11.741553
_cell_length_c 12.431552
_cell_angle_alpha 90.000000
_cell_angle_beta 90.000000
_cell_angle_gamma 90.000000
_cell_volume 2418.271850
_symmetry_space_group_name_H-M "P C C A"
_symmetry_group_IT_number 54
_symmetry_cell_setting 'orthorhombic'
loop_
_space_group_symop_operation_xyz
x,y,z
1/2-x,-y,z
1/2+x,-y,1/2-z
-x,y,1/2-z
-x,-y,-z
1/2+x,y,-z
1/2-x,y,1/2+z
x,-y,1/2+z
loop_
_atom_site_type_symbol
_atom_site_label
_atom_site_fract_x
_atom_site_fract_y
_atom_site_fract_z
Si Si1 0.676921 0.696195 0.304647
Si Si2 0.068374 0.963330 0.155031
Si Si3 0.500000 0.727580 0.250000
Si Si4 0.780818 0.117462 0.703022
Si Si5 0.843022 0.686311 0.043802
Si Si6 0.250000 0.500000 0.840086
Si Si7 0.514109 0.822645 0.467654
O O1 0.581478 0.673131 0.293652
O O2 0.707137 0.817443 0.260570
O O3 0.700739 0.690877 0.428892
O O4 0.717285 0.599499 0.234437
O O5 0.149376 0.919422 0.212405
O O6 0.000000 0.973750 0.250000
O O7 0.073121 0.081066 0.086181
O O8 0.037038 0.876741 0.063356
O O9 0.467429 0.788857 0.358925
O O10 0.815081 0.210022 0.620019
O O11 0.750000 0.000000 0.651364
O O12 0.819957 0.563968 0.092494
O O13 0.935488 0.718779 0.018055
#
# Coordination Sequence:
#
# PCOD9421915 Si02
#       7
#     8   8   4   8   8   4   8
#     4  10  23  41  62  89 122 162 206 262 316 374
#     4  11  21  37  58  90 132 172 201 251 302 376
#     4  10  20  40  60  88 116 164 208 252 318 370
#     4  11  23  37  60  94 129 161 210 250 310 382
#     4  10  21  40  63  89 120 166 207 262 314 376
#     4  10  22  42  64  86 124 152 212 274 318 370
#     4  10  21  36  64  87 130 170 211 250 307 383
#
# _framework density 19.848886
#
# number of rings (size 3 to 8) (size 9 to 14) (size 15 to 20)
#    0.000    1.667    2.500    2.500    0.000    4.667 
#    0.000    6.667    0.000    0.000    0.000    0.000 
#    0.000    0.000    0.000    0.000    0.000    0.000 
#
# Total GULP energy -267258.905789 kJ/mol
# GULP energy per Si atom -5567.893871 kJ/mol
# Density = 1.980371 g / cm^3
# Si number density = 19.848886 Si / 1000 Ang^3
#
#
#
# Elastic Constant Matrix: (Units=GPa)
#
#
# Indices 1 2 3 4 5 6 
#
# 1 67.4577 13.7951 12.7544 0.0000 0.0000 0.0000
# 2 13.7951 88.8505 22.7538 0.0000 0.0000 0.0000
# 3 12.7544 22.7538 101.5076 0.0000 0.0000 0.0000
# 4 0.0000 0.0000 0.0000 21.6394 0.0000 0.0000
# 5 0.0000 0.0000 0.0000 0.0000 -24.3531 0.0000
# 6 0.0000 0.0000 0.0000 0.0000 0.0000 18.4133
#
#
#
# Elastic Compliance Matrix: (Units=1/GPa)
#
#
# Indices 1 2 3 4 5 6 
#
# 1 0.015521 -0.002027 -0.001496 0.000000 0.000000 0.000000
# 2 -0.002027 0.012205 -0.002481 0.000000 0.000000 0.000000
# 3 -0.001496 -0.002481 0.010596 0.000000 0.000000 0.000000
# 4 0.000000 0.000000 0.000000 0.046212 0.000000 0.000000
# 5 0.000000 0.000000 0.000000 0.000000 -0.041063 0.000000
# 6 0.000000 0.000000 0.000000 0.000000 0.000000 0.054309
#
#
# Mechanical properties :
#
#
# Convention : Reuss Voigt Hill
#
# Bulk Modulus (GPa) = 38.00235 39.60251 38.80243
# Shear Modulus (GPa) = 42.17303 17.04076 29.60689
#
# Velocity S-wave (km/s) = 4.61445 2.93324 3.86633
# Velocity P-wave (km/s) = 6.89770 5.60956 6.28671
#
# Compressibility (1/GPa) = 0.02631416
#
# Stress axis : x y z
#
# Youngs Moduli (GPa) = 64.42707 81.93392 94.37865
#
# Poissons Ratio (x) = 0.16606 0.14119
# Poissons Ratio (y) = 0.13058 0.23417
# Poissons Ratio (z) = 0.09638 0.20329
#
# Static dielectric constant tensor:
#      x y z
#    x 1.708760 0.000000 0.000000 
#    y 0.000000 1.713260 0.000000 
#    z 0.000000 0.000000 1.726130 
# 
# From -- ./inp_files/8998.got.cif
#   From: 2010.05.17/outbox.cif.g08.bks.cpg/sg54_5_cif.got.tgz:8998.got - 2010.06.03 13:09:01.
