data_PCOD9421637
_publ_section_title
;
Structure prediction by ZEFSAII (Michael W. Deem and Ramdas Pophale) SiO2 
 PCOD9421637
Probable space group: P C C A
;
_chemical_formula_sum "Si O2"
_cell_formula_units_Z 64
_cell_length_a 20.207393
_cell_length_b 16.154339
_cell_length_c 8.874623
_cell_angle_alpha 90.000000
_cell_angle_beta 90.000000
_cell_angle_gamma 90.000000
_cell_volume 2897.005990
_symmetry_space_group_name_H-M "P C C A"
_symmetry_group_IT_number 54
_symmetry_cell_setting 'orthorhombic'
loop_
_space_group_symop_operation_xyz
x,y,z
1/2-x,-y,z
1/2+x,-y,1/2-z
-x,y,1/2-z
-x,-y,-z
1/2+x,y,-z
1/2-x,y,1/2+z
x,-y,1/2+z
loop_
_atom_site_type_symbol
_atom_site_label
_atom_site_fract_x
_atom_site_fract_y
_atom_site_fract_z
Si Si1 0.106428 0.038504 0.569000
Si Si2 0.556075 0.225939 0.875409
Si Si3 0.636764 0.388287 0.892522
Si Si4 0.823844 0.527305 0.617030
Si Si5 0.664535 0.103174 0.730784
Si Si6 0.567990 0.888867 0.632080
Si Si7 0.206192 0.802484 0.309142
Si Si8 0.225239 0.686168 0.057787
O O1 0.147205 0.090603 0.446155
O O2 0.151330 0.981098 0.677435
O O3 0.067484 0.973623 0.463330
O O4 0.061797 0.088828 0.689780
O O5 0.500000 0.231171 0.750000
O O6 0.585099 0.315633 0.912512
O O7 0.613990 0.170367 0.799469
O O8 0.532973 0.179759 0.027356
O O9 0.627121 0.445064 0.747611
O O10 0.647389 0.448334 0.032162
O O11 0.708525 0.347011 0.861348
O O12 0.750000 0.500000 0.172045
O O13 0.811863 0.606740 0.509354
O O14 0.738618 0.134592 0.750599
O O15 0.643682 0.851784 0.629487
O O16 0.184624 0.740219 0.176411
O O17 0.244509 0.746608 0.431238
#
# Coordination Sequence:
#
# PCOD9421637 Si02
#       8
#     8   8   8   8   8   8   8   8
#     4   9  20  36  56  83 122 151 199 241 299 360
#     4  11  23  43  63  82 116 158 202 248 296 354
#     4  11  21  38  56  84 113 148 196 236 296 349
#     4  10  21  33  58  86 122 151 187 240 291 356
#     4  10  20  37  55  86 116 158 196 246 298 349
#     4  10  21  36  56  86 114 159 196 243 299 349
#     4  12  20  31  57  84 128 152 197 239 289 360
#     4  11  19  32  52  87 119 157 186 235 290 343
#
# _framework density 22.091773
#
# number of rings (size 3 to 8) (size 9 to 14) (size 15 to 20)
#    0.000    1.500    3.750    2.625    1.750    3.000 
#    0.000   11.250    0.000    0.000    0.000    0.000 
#    0.000    0.000    0.000    0.000    0.000    0.000 
#
# Total GULP energy -357821.729470 kJ/mol
# GULP energy per Si atom -5590.964523 kJ/mol
# Density = 2.204149 g / cm^3
# Si number density = 22.091773 Si / 1000 Ang^3
#
#
#
# Elastic Constant Matrix: (Units=GPa)
#
#
# Indices 1 2 3 4 5 6 
#
# 1 26.6678 28.9852 17.1082 0.0000 0.0000 0.0000
# 2 28.9852 120.1282 60.9505 0.0000 0.0000 0.0000
# 3 17.1082 60.9505 125.9055 0.0000 0.0000 0.0000
# 4 0.0000 0.0000 0.0000 47.7885 0.0000 0.0000
# 5 0.0000 0.0000 0.0000 0.0000 26.3555 0.0000
# 6 0.0000 0.0000 0.0000 0.0000 0.0000 19.1131
#
#
#
# Elastic Compliance Matrix: (Units=1/GPa)
#
#
# Indices 1 2 3 4 5 6 
#
# 1 0.050986 -0.011648 -0.001289 0.000000 0.000000 0.000000
# 2 -0.011648 0.013696 -0.005047 0.000000 0.000000 0.000000
# 3 -0.001289 -0.005047 0.010561 0.000000 0.000000 0.000000
# 4 0.000000 0.000000 0.000000 0.020926 0.000000 0.000000
# 5 0.000000 0.000000 0.000000 0.000000 0.037943 0.000000
# 6 0.000000 0.000000 0.000000 0.000000 0.000000 0.052320
#
#
# Mechanical properties :
#
#
# Convention : Reuss Voigt Hill
#
# Bulk Modulus (GPa) = 25.46255 54.08770 39.77513
# Shear Modulus (GPa) = 21.23221 29.69525 25.46373
#
# Velocity S-wave (km/s) = 3.10351 3.67028 3.39873
# Velocity P-wave (km/s) = 4.93895 6.51902 5.78320
#
# Compressibility (1/GPa) = 0.03927336
#
# Stress axis : x y z
#
# Youngs Moduli (GPa) = 19.61339 73.01487 94.68731
#
# Poissons Ratio (x) = 0.85047 0.12208
# Poissons Ratio (y) = 0.22846 0.47792
# Poissons Ratio (z) = 0.02529 0.36853
#
# Static dielectric constant tensor:
#      x y z
#    x 1.870020 0.000000 0.000000 
#    y 0.000000 1.831720 0.000000 
#    z 0.000000 0.000000 1.884330 
# 
# From -- ./inp_files/5307.got.cif
#   From: 2010.05.17/outbox.cif.g08.bks.cpg/sg54_3_cif.got.tgz:5307.got - 2010.06.03 13:09:01.
