data_PCOD9421446
_publ_section_title
;
Structure prediction by ZEFSAII (Michael W. Deem and Ramdas Pophale) SiO2 
 PCOD9421446
Probable space group: P C C A
;
_chemical_formula_sum "Si O2"
_cell_formula_units_Z 64
_cell_length_a 21.925901
_cell_length_b 5.990802
_cell_length_c 28.253414
_cell_angle_alpha 90.000000
_cell_angle_beta 90.000000
_cell_angle_gamma 90.000000
_cell_volume 3711.191358
_symmetry_space_group_name_H-M "P C C A"
_symmetry_group_IT_number 54
_symmetry_cell_setting 'orthorhombic'
loop_
_space_group_symop_operation_xyz
x,y,z
1/2-x,-y,z
1/2+x,-y,1/2-z
-x,y,1/2-z
-x,-y,-z
1/2+x,y,-z
1/2-x,y,1/2+z
x,-y,1/2+z
loop_
_atom_site_type_symbol
_atom_site_label
_atom_site_fract_x
_atom_site_fract_y
_atom_site_fract_z
Si Si1 0.185707 0.613260 0.259200
Si Si2 0.408810 0.120758 0.310684
Si Si3 0.533647 0.750156 0.001913
Si Si4 0.904254 0.763408 0.767954
Si Si5 0.003501 0.514221 0.170330
Si Si6 0.318972 0.926970 0.668166
Si Si7 0.075542 0.832398 0.100180
Si Si8 0.043091 0.144194 0.393988
O O1 0.250000 0.500000 0.269952
O O2 0.158038 0.789924 0.296412
O O3 0.136859 0.418250 0.257469
O O4 0.185911 0.728614 0.207195
O O5 0.460548 0.307575 0.304760
O O6 0.424716 0.936209 0.271662
O O7 0.416034 0.028326 0.363991
O O8 0.562673 0.778403 0.053866
O O9 0.500000 0.500000 0.000000
O O10 0.573525 0.754793 0.954187
O O11 0.500000 0.000000 0.000000
O O12 0.957790 0.640617 0.795385
O O13 0.859972 0.888880 0.804883
O O14 0.048824 0.645615 0.135426
O O15 0.961458 0.362167 0.137747
O O16 0.357887 0.880283 0.621066
O O17 0.250000 0.000000 0.658445
O O18 0.025385 0.033857 0.103988
#
# Coordination Sequence:
#
# PCOD9421446 Si02
#       8
#     8   8   8   8   8   8   8   8
#     4  11  22  38  56  76 111 158 205 243 291 355
#     4  10  25  35  51  85 113 158 201 243 299 356
#     4  10  20  36  61  89 119 154 194 247 306 374
#     4  11  22  37  53  81 119 154 195 239 296 357
#     4  11  20  36  55  79 123 152 193 236 303 368
#     4  11  21  36  56  83 114 150 201 245 294 361
#     4  10  20  35  56  88 113 153 193 244 308 369
#     4  10  20  36  55  82 120 150 194 248 300 369
#
# _framework density 17.245135999999999
#
# number of rings (size 3 to 8) (size 9 to 14) (size 15 to 20)
#    0.000    1.500    5.000    0.750    0.000    3.000 
#    0.000    0.000    0.000    0.000    6.500    0.000 
#    0.000    0.000    0.000    0.000    0.000    0.000 
#
# Total GULP energy -356628.359636 kJ/mol
# GULP energy per Si atom -5572.318119 kJ/mol
# Density = 1.720589 g / cm^3
# Si number density = 17.245136 Si / 1000 Ang^3
#
#
#
# Elastic Constant Matrix: (Units=GPa)
#
#
# Indices 1 2 3 4 5 6 
#
# 1 87.5840 39.6486 75.8994 0.0000 0.0000 0.0000
# 2 39.6486 93.2413 51.8544 0.0000 0.0000 0.0000
# 3 75.8994 51.8544 136.6542 0.0000 0.0000 0.0000
# 4 0.0000 0.0000 0.0000 -2.4969 0.0000 0.0000
# 5 0.0000 0.0000 0.0000 0.0000 10.1269 0.0000
# 6 0.0000 0.0000 0.0000 0.0000 0.0000 29.2180
#
#
#
# Elastic Compliance Matrix: (Units=1/GPa)
#
#
# Indices 1 2 3 4 5 6 
#
# 1 0.022816 -0.003365 -0.011396 0.000000 0.000000 0.000000
# 2 -0.003365 0.014090 -0.003478 0.000000 0.000000 0.000000
# 3 -0.011396 -0.003478 0.014967 0.000000 0.000000 0.000000
# 4 0.000000 0.000000 0.000000 -0.400493 0.000000 0.000000
# 5 0.000000 0.000000 0.000000 0.000000 0.098747 0.000000
# 6 0.000000 0.000000 0.000000 0.000000 0.000000 0.034225
#
#
# Mechanical properties :
#
#
# Convention : Reuss Voigt Hill
#
# Bulk Modulus (GPa) = 64.94938 72.47604 68.71271
# Shear Modulus (GPa) = -28.72883 17.37475 -5.67704
#
# Velocity S-wave (km/s) = -4.08598 3.17758 -1.81635
# Velocity P-wave (km/s) = 3.93495 7.45526 5.96090
#
# Compressibility (1/GPa) = 0.01539661
#
# Stress axis : x y z
#
# Youngs Moduli (GPa) = 43.82886 70.97438 66.81534
#
# Poissons Ratio (x) = 0.23879 0.76140
# Poissons Ratio (y) = 0.14746 0.23236
# Poissons Ratio (z) = 0.49946 0.24683
#
# Static dielectric constant tensor:
#      x y z
#    x 1.596230 0.000000 0.000000 
#    y 0.000000 1.677730 0.000000 
#    z 0.000000 0.000000 1.602370 
# 
# From -- ./inp_files/26722.got.cif
#   From: 2010.05.17/outbox.cif.g08.bks.cpg/sg54_14_cif.got.tgz:26722.got - 2010.06.03 13:09:01.
