data_PCOD9421756
_publ_section_title
;
Structure prediction by ZEFSAII (Michael W. Deem and Ramdas Pophale) SiO2 
 PCOD9421756
Probable space group: P C C A
;
_chemical_formula_sum "Si O2"
_cell_formula_units_Z 28
_cell_length_a 7.569912
_cell_length_b 8.449200
_cell_length_c 18.277370
_cell_angle_alpha 90.000000
_cell_angle_beta 90.000000
_cell_angle_gamma 90.000000
_cell_volume 1169.015111
_symmetry_space_group_name_H-M "P C C A"
_symmetry_group_IT_number 54
_symmetry_cell_setting 'orthorhombic'
loop_
_space_group_symop_operation_xyz
x,y,z
1/2-x,-y,z
1/2+x,-y,1/2-z
-x,y,1/2-z
-x,-y,-z
1/2+x,y,-z
1/2-x,y,1/2+z
x,-y,1/2+z
loop_
_atom_site_type_symbol
_atom_site_label
_atom_site_fract_x
_atom_site_fract_y
_atom_site_fract_z
Si Si1 0.750000 0.000000 0.963697
Si Si2 0.091309 0.154450 0.398174
Si Si3 0.045700 0.496416 0.083527
Si Si4 0.337535 0.675392 0.803475
O O1 0.920667 0.957590 0.914058
O O2 0.697914 0.865548 0.024414
O O3 0.219383 0.171617 0.326730
O O4 0.014138 0.327586 0.389165
O O5 0.250000 0.500000 0.097954
O O6 0.934647 0.631481 0.121341
O O7 0.000000 0.500000 0.000000
O O8 0.250000 0.500000 0.781059
O O9 0.500000 0.712008 0.750000
#
# Coordination Sequence:
#
# PCOD9421756 Si02
#       4
#     4   8   8   8
#     4  10  20  38  60  94 134 174 218 278 338 394
#     4  10  21  35  59  92 131 169 216 276 337 400
#     4  11  20  33  58  92 125 158 207 278 346 391
#     4  10  21  38  60  90 126 170 220 277 345 413
#
# _framework density 23.951785000000001
#
# number of rings (size 3 to 8) (size 9 to 14) (size 15 to 20)
#    0.000    1.714    0.000    6.857    0.000    2.286 
#    0.000    0.000    0.000   10.286    0.000    0.000 
#    0.000    0.000    0.000    0.000    0.000    6.000 
#
# Total GULP energy -155923.590511 kJ/mol
# GULP energy per Si atom -5568.699661 kJ/mol
# Density = 2.389727 g / cm^3
# Si number density = 23.951785 Si / 1000 Ang^3
#
#
#
# Elastic Constant Matrix: (Units=GPa)
#
#
# Indices 1 2 3 4 5 6 
#
# 1 153.2876 60.8135 46.8769 0.0000 0.0000 0.0000
# 2 60.8135 100.8154 23.9034 0.0000 0.0000 0.0000
# 3 46.8769 23.9034 99.3079 0.0000 0.0000 0.0000
# 4 0.0000 0.0000 0.0000 25.1683 0.0000 0.0000
# 5 0.0000 0.0000 0.0000 0.0000 52.5123 0.0000
# 6 0.0000 0.0000 0.0000 0.0000 0.0000 30.3519
#
#
#
# Elastic Compliance Matrix: (Units=1/GPa)
#
#
# Indices 1 2 3 4 5 6 
#
# 1 0.009492 -0.004946 -0.003290 0.000000 0.000000 0.000000
# 2 -0.004946 0.013096 -0.000818 0.000000 0.000000 0.000000
# 3 -0.003290 -0.000818 0.011820 0.000000 0.000000 0.000000
# 4 0.000000 0.000000 0.000000 0.039733 0.000000 0.000000
# 5 0.000000 0.000000 0.000000 0.000000 0.019043 0.000000
# 6 0.000000 0.000000 0.000000 0.000000 0.000000 0.032947
#
#
# Mechanical properties :
#
#
# Convention : Reuss Voigt Hill
#
# Bulk Modulus (GPa) = 61.34667 68.51094 64.92881
# Shear Modulus (GPa) = 33.40663 36.39430 34.90046
#
# Velocity S-wave (km/s) = 3.73868 3.90228 3.82136
# Velocity P-wave (km/s) = 6.65621 6.99782 6.82915
#
# Compressibility (1/GPa) = 0.01630080
#
# Stress axis : x y z
#
# Youngs Moduli (GPa) = 105.35316 76.35770 84.60533
#
# Poissons Ratio (x) = 0.37763 0.27836
# Poissons Ratio (y) = 0.52103 0.06919
# Poissons Ratio (z) = 0.34662 0.06244
#
# Static dielectric constant tensor:
#      x y z
#    x 2.827190 0.000000 0.000000 
#    y 0.000000 1.900390 0.000000 
#    z 0.000000 0.000000 1.921150 
# 
# From -- ./inp_files/16147.got.cif
#   From: 2010.05.17/outbox.cif.g08.bks.cpg/sg54_9_cif.got.tgz:16147.got - 2010.06.03 13:09:01.
