data_PCOD9421854
_publ_section_title
;
Structure prediction by ZEFSAII (Michael W. Deem and Ramdas Pophale) SiO2 
 PCOD9421854
Probable space group: P C C A
;
_chemical_formula_sum "Si O2"
_cell_formula_units_Z 64
_cell_length_a 18.099465
_cell_length_b 19.979971
_cell_length_c 10.030615
_cell_angle_alpha 90.000000
_cell_angle_beta 90.000000
_cell_angle_gamma 90.000000
_cell_volume 3627.339062
_symmetry_space_group_name_H-M "P C C A"
_symmetry_group_IT_number 54
_symmetry_cell_setting 'orthorhombic'
loop_
_space_group_symop_operation_xyz
x,y,z
1/2-x,-y,z
1/2+x,-y,1/2-z
-x,y,1/2-z
-x,-y,-z
1/2+x,y,-z
1/2-x,y,1/2+z
x,-y,1/2+z
loop_
_atom_site_type_symbol
_atom_site_label
_atom_site_fract_x
_atom_site_fract_y
_atom_site_fract_z
Si Si1 0.962657 0.093142 0.110252
Si Si2 0.335389 0.686774 0.808617
Si Si3 0.062262 0.060395 0.863226
Si Si4 0.415440 0.447346 0.287752
Si Si5 0.824346 0.180607 0.032185
Si Si6 0.185882 0.837820 0.276375
Si Si7 0.791230 0.329083 0.986030
Si Si8 0.665348 0.475017 0.482356
O O1 0.900399 0.144845 0.067082
O O2 0.000000 0.110536 0.250000
O O3 0.926094 0.019214 0.122844
O O4 0.026386 0.086417 0.999761
O O5 0.400003 0.632412 0.799605
O O6 0.353246 0.765613 0.804466
O O7 0.286494 0.673722 0.674790
O O8 0.286855 0.672183 0.939053
O O9 0.133635 0.102066 0.822174
O O10 0.000000 0.069244 0.750000
O O11 0.500000 0.459679 0.250000
O O12 0.387088 0.482467 0.421814
O O13 0.364525 0.475479 0.168186
O O14 0.761120 0.162934 0.138955
O O15 0.831536 0.261022 0.029348
O O16 0.800800 0.159552 0.882334
O O17 0.832842 0.396945 0.023632
O O18 0.750000 0.500000 0.489143
#
# Coordination Sequence:
#
# PCOD9421854 Si02
#       8
#     8   8   8   8   8   8   8   8
#     4  10  22  38  60  84 117 152 192 235 280 348
#     4   9  19  36  56  82 109 146 185 232 280 341
#     4  10  20  39  60  83 111 153 195 229 281 345
#     4  11  23  37  55  86 119 145 186 244 291 332
#     4  10  21  39  57  85 118 146 189 244 286 338
#     4  10  21  37  60  84 114 149 190 239 289 340
#     4   9  19  35  58  82 108 143 196 233 269 337
#     4  11  21  37  62  82 109 156 197 229 281 351
#
# _framework density 17.643788000000001
#
# number of rings (size 3 to 8) (size 9 to 14) (size 15 to 20)
#    0.000    2.000    2.500    0.750    3.500    1.000 
#    2.250    1.875    0.000    0.000    0.000    0.000 
#    0.000    0.000    0.000    0.000    0.000    0.000 
#
# Total GULP energy -356986.847220 kJ/mol
# GULP energy per Si atom -5577.919488 kJ/mol
# Density = 1.760363 g / cm^3
# Si number density = 17.643788 Si / 1000 Ang^3
#
#
#
# Elastic Constant Matrix: (Units=GPa)
#
#
# Indices 1 2 3 4 5 6 
#
# 1 45.8455 34.0986 12.3973 0.0000 0.0000 0.0000
# 2 34.0986 62.4647 28.3843 0.0000 0.0000 0.0000
# 3 12.3973 28.3843 79.6581 0.0000 0.0000 0.0000
# 4 0.0000 0.0000 0.0000 60.2255 0.0000 0.0000
# 5 0.0000 0.0000 0.0000 0.0000 20.4766 0.0000
# 6 0.0000 0.0000 0.0000 0.0000 0.0000 22.9466
#
#
#
# Elastic Compliance Matrix: (Units=1/GPa)
#
#
# Indices 1 2 3 4 5 6 
#
# 1 0.036917 -0.020931 0.001713 0.000000 0.000000 0.000000
# 2 -0.020931 0.030969 -0.007778 0.000000 0.000000 0.000000
# 3 0.001713 -0.007778 0.015058 0.000000 0.000000 0.000000
# 4 0.000000 0.000000 0.000000 0.016604 0.000000 0.000000
# 5 0.000000 0.000000 0.000000 0.000000 0.048836 0.000000
# 6 0.000000 0.000000 0.000000 0.000000 0.000000 0.043579
#
#
# Mechanical properties :
#
#
# Convention : Reuss Voigt Hill
#
# Bulk Modulus (GPa) = 34.53842 37.52540 36.03191
# Shear Modulus (GPa) = 19.56130 28.26895 23.91513
#
# Velocity S-wave (km/s) = 3.33330 4.00710 3.68563
# Velocity P-wave (km/s) = 5.86791 6.53633 6.21112
#
# Compressibility (1/GPa) = 0.02895327
#
# Stress axis : x y z
#
# Youngs Moduli (GPa) = 27.08782 32.29033 66.40783
#
# Poissons Ratio (x) = 0.67586 -0.11374
# Poissons Ratio (y) = 0.56697 0.51649
# Poissons Ratio (z) = -0.04639 0.25114
#
# Static dielectric constant tensor:
#      x y z
#    x 1.558960 0.000000 0.000000 
#    y 0.000000 1.620220 0.000000 
#    z 0.000000 0.000000 1.624030 
# 
# From -- ./inp_files/4393.got.cif
#   From: 2010.05.17/outbox.cif.g08.bks.cpg/sg54_3_cif.got.tgz:4393.got - 2010.06.03 13:09:01.
