data_PCOD9421030
_publ_section_title
;
Structure prediction by ZEFSAII (Michael W. Deem and Ramdas Pophale) SiO2 
 PCOD9421030
Probable space group: P C C A
;
_chemical_formula_sum "Si O2"
_cell_formula_units_Z 36
_cell_length_a 5.147562
_cell_length_b 22.656654
_cell_length_c 16.945908
_cell_angle_alpha 90.000000
_cell_angle_beta 90.000000
_cell_angle_gamma 90.000000
_cell_volume 1976.342468
_symmetry_space_group_name_H-M "P C C A"
_symmetry_group_IT_number 54
_symmetry_cell_setting 'orthorhombic'
loop_
_space_group_symop_operation_xyz
x,y,z
1/2-x,-y,z
1/2+x,-y,1/2-z
-x,y,1/2-z
-x,-y,-z
1/2+x,y,-z
1/2-x,y,1/2+z
x,-y,1/2+z
loop_
_atom_site_type_symbol
_atom_site_label
_atom_site_fract_x
_atom_site_fract_y
_atom_site_fract_z
Si Si1 0.750000 0.000000 0.806071
Si Si2 0.864706 0.355027 0.950725
Si Si3 0.123362 0.784241 0.051037
Si Si4 0.749599 0.870340 0.806745
Si Si5 0.498685 0.462128 0.155241
O O1 0.762478 0.935942 0.846469
O O2 0.500000 0.998736 0.750000
O O3 0.875571 0.285725 0.930275
O O4 0.963180 0.398277 0.882893
O O5 0.069715 0.366078 0.021753
O O6 0.207962 0.821776 0.126426
O O7 0.336502 0.796658 0.982793
O O8 0.500000 0.869063 0.750000
O O9 0.000000 0.862042 0.750000
O O10 0.250000 0.500000 0.130888
O O11 0.500000 0.456817 0.250000
O O12 0.750000 0.500000 0.131097
#
# Coordination Sequence:
#
# PCOD9421030 Si02
#       5
#     4   8   8   8   8
#     4   8  16  30  50  76 106 134 172 224 264 304
#     4  10  21  36  54  75 101 136 172 206 250 307
#     4  10  21  37  53  76 111 141 171 219 269 309
#     4  10  19  34  56  80 104 140 184 220 261 317
#     4  10  21  36  53  76 104 130 162 211 260 298
#
# _framework density 18.215465999999999
#
# number of rings (size 3 to 8) (size 9 to 14) (size 15 to 20)
#    0.000    2.222    0.000    2.667    0.000    3.556 
#    0.000    4.444    0.000    0.000    0.000    0.000 
#    0.000    0.000    0.000    0.000    0.000    0.000 
#
# Total GULP energy -200663.048372 kJ/mol
# GULP energy per Si atom -5573.973566 kJ/mol
# Density = 1.817401 g / cm^3
# Si number density = 18.215466 Si / 1000 Ang^3
#
#
#
# Elastic Constant Matrix: (Units=GPa)
#
#
# Indices 1 2 3 4 5 6 
#
# 1 124.9292 37.3220 17.9816 0.0000 0.0000 0.0000
# 2 37.3220 111.2359 56.5638 0.0000 0.0000 0.0000
# 3 17.9816 56.5638 43.3984 0.0000 0.0000 0.0000
# 4 0.0000 0.0000 0.0000 24.7111 0.0000 0.0000
# 5 0.0000 0.0000 0.0000 0.0000 10.0496 0.0000
# 6 0.0000 0.0000 0.0000 0.0000 0.0000 21.5825
#
#
#
# Elastic Compliance Matrix: (Units=1/GPa)
#
#
# Indices 1 2 3 4 5 6 
#
# 1 0.008902 -0.003295 0.000606 0.000000 0.000000 0.000000
# 2 -0.003295 0.027877 -0.034969 0.000000 0.000000 0.000000
# 3 0.000606 -0.034969 0.068368 0.000000 0.000000 0.000000
# 4 0.000000 0.000000 0.000000 0.040468 0.000000 0.000000
# 5 0.000000 0.000000 0.000000 0.000000 0.099506 0.000000
# 6 0.000000 0.000000 0.000000 0.000000 0.000000 0.046334
#
#
# Mechanical properties :
#
#
# Convention : Reuss Voigt Hill
#
# Bulk Modulus (GPa) = 33.52114 55.92205 44.72159
# Shear Modulus (GPa) = 13.27266 22.44838 17.86052
#
# Velocity S-wave (km/s) = 2.70228 3.51434 3.13471
# Velocity P-wave (km/s) = 5.30838 6.87273 6.14057
#
# Compressibility (1/GPa) = 0.02983193
#
# Stress axis : x y z
#
# Youngs Moduli (GPa) = 112.33899 35.87152 14.62664
#
# Poissons Ratio (x) = 0.11820 -0.00887
# Poissons Ratio (y) = 0.37015 0.51148
# Poissons Ratio (z) = -0.06810 1.25439
#
# Static dielectric constant tensor:
#      x y z
#    x 1.626820 0.000000 0.000000 
#    y 0.000000 1.654520 0.000000 
#    z 0.000000 0.000000 1.590810 
# 
# From -- ./inp_files/10808.got.cif
#   From: 2010.05.17/outbox.cif.g08.bks.cpg/sg54_6_cif.got.tgz:10808.got - 2010.06.03 13:09:01.
