data_PCOD9421752
_publ_section_title
;
Structure prediction by ZEFSAII (Michael W. Deem and Ramdas Pophale) SiO2 
 PCOD9421752
Probable space group: P C C A
;
_chemical_formula_sum "Si O2"
_cell_formula_units_Z 36
_cell_length_a 5.245260
_cell_length_b 11.837835
_cell_length_c 27.483149
_cell_angle_alpha 90.000000
_cell_angle_beta 90.000000
_cell_angle_gamma 90.000000
_cell_volume 1706.498045
_symmetry_space_group_name_H-M "P C C A"
_symmetry_group_IT_number 54
_symmetry_cell_setting 'orthorhombic'
loop_
_space_group_symop_operation_xyz
x,y,z
1/2-x,-y,z
1/2+x,-y,1/2-z
-x,y,1/2-z
-x,-y,-z
1/2+x,y,-z
1/2-x,y,1/2+z
x,-y,1/2+z
loop_
_atom_site_type_symbol
_atom_site_label
_atom_site_fract_x
_atom_site_fract_y
_atom_site_fract_z
Si Si1 0.000000 0.072513 0.750000
Si Si2 0.842972 0.127030 0.640627
Si Si3 0.539256 0.370968 0.980429
Si Si4 0.250823 0.365062 0.722453
Si Si5 0.326996 0.736942 0.118606
O O1 0.085273 0.126563 0.801700
O O2 0.250000 0.000000 0.735793
O O3 0.599067 0.204851 0.629057
O O4 0.096294 0.172775 0.613207
O O5 0.750000 0.000000 0.628897
O O6 0.639860 0.348831 0.926414
O O7 0.500000 0.500000 0.000000
O O8 0.759397 0.319065 0.014091
O O9 0.250000 0.500000 0.725494
O O10 0.500000 0.320131 0.750000
O O11 0.254360 0.331035 0.666845
O O12 0.000000 0.326512 0.750000
#
# Coordination Sequence:
#
# PCOD9421752 Si02
#       5
#     4   8   8   8   8
#     4  10  20  38  60  90 134 184 228 272 306 354
#     4  11  24  41  63  97 140 181 229 271 318 394
#     4  10  23  44  69  98 128 159 219 295 343 404
#     4  10  23  41  58  91 137 176 215 262 322 412
#     4  12  24  40  71  96 129 184 222 273 347 389
#
# _framework density 21.095832999999999
#
# number of rings (size 3 to 8) (size 9 to 14) (size 15 to 20)
#    0.000    1.333    0.000    6.000    7.778    0.000 
#    8.000    0.000    0.000   13.333    0.000    0.000 
#    0.000    0.000    0.000    0.000    0.000    0.000 
#
# Total GULP energy -200879.684584 kJ/mol
# GULP energy per Si atom -5579.991238 kJ/mol
# Density = 2.104782 g / cm^3
# Si number density = 21.095833 Si / 1000 Ang^3
#
#
#
# Elastic Constant Matrix: (Units=GPa)
#
#
# Indices 1 2 3 4 5 6 
#
# 1 196.1862 44.9354 59.7839 0.0000 0.0000 0.0000
# 2 44.9354 65.2545 49.8067 0.0000 0.0000 0.0000
# 3 59.7839 49.8067 145.6376 0.0000 0.0000 0.0000
# 4 0.0000 0.0000 0.0000 -41.0032 0.0000 0.0000
# 5 0.0000 0.0000 0.0000 0.0000 33.1375 0.0000
# 6 0.0000 0.0000 0.0000 0.0000 0.0000 15.0217
#
#
#
# Elastic Compliance Matrix: (Units=1/GPa)
#
#
# Indices 1 2 3 4 5 6 
#
# 1 0.006281 -0.003190 -0.001487 0.000000 0.000000 0.000000
# 2 -0.003190 0.022358 -0.006337 0.000000 0.000000 0.000000
# 3 -0.001487 -0.006337 0.009644 0.000000 0.000000 0.000000
# 4 0.000000 0.000000 0.000000 -0.024388 0.000000 0.000000
# 5 0.000000 0.000000 0.000000 0.000000 0.030177 0.000000
# 6 0.000000 0.000000 0.000000 0.000000 0.000000 0.066570
#
#
# Mechanical properties :
#
#
# Convention : Reuss Voigt Hill
#
# Bulk Modulus (GPa) = 61.52025 79.57001 70.54513
# Shear Modulus (GPa) = 36.20858 18.26802 27.23830
#
# Velocity S-wave (km/s) = 4.14742 2.94590 3.59718
# Velocity P-wave (km/s) = 7.22222 7.02648 7.12502
#
# Compressibility (1/GPa) = 0.01625481
#
# Stress axis : x y z
#
# Youngs Moduli (GPa) = 159.20754 44.72692 103.69091
#
# Poissons Ratio (x) = 0.14268 0.15423
# Poissons Ratio (y) = 0.50787 0.65706
# Poissons Ratio (z) = 0.23681 0.28342
#
# Static dielectric constant tensor:
#      x y z
#    x 1.584570 0.000000 0.000000 
#    y 0.000000 1.563630 0.000000 
#    z 0.000000 0.000000 1.726980 
# 
# From -- ./inp_files/22695.got.cif
#   From: 2010.05.17/outbox.cif.g08.bks.cpg/sg54_12_cif.got.tgz:22695.got - 2010.06.03 13:09:01.
