data_PCOD9421011
_publ_section_title
;
Structure prediction by ZEFSAII (Michael W. Deem and Ramdas Pophale) SiO2 
 PCOD9421011
Probable space group: P C C A
;
_chemical_formula_sum "Si O2"
_cell_formula_units_Z 60
_cell_length_a 18.934305
_cell_length_b 5.791593
_cell_length_c 27.420348
_cell_angle_alpha 90.000000
_cell_angle_beta 90.000000
_cell_angle_gamma 90.000000
_cell_volume 3006.909557
_symmetry_space_group_name_H-M "P C C A"
_symmetry_group_IT_number 54
_symmetry_cell_setting 'orthorhombic'
loop_
_space_group_symop_operation_xyz
x,y,z
1/2-x,-y,z
1/2+x,-y,1/2-z
-x,y,1/2-z
-x,-y,-z
1/2+x,y,-z
1/2-x,y,1/2+z
x,-y,1/2+z
loop_
_atom_site_type_symbol
_atom_site_label
_atom_site_fract_x
_atom_site_fract_y
_atom_site_fract_z
Si Si1 0.151319 0.846270 0.054085
Si Si2 0.022762 0.490832 0.055487
Si Si3 0.174074 0.118258 0.956954
Si Si4 0.583796 0.230010 0.235954
Si Si5 0.250000 0.500000 0.508354
Si Si6 0.927929 0.892051 0.877937
Si Si7 0.564103 0.210473 0.124052
Si Si8 0.580049 0.275841 0.771836
O O1 0.087843 0.665794 0.058859
O O2 0.221124 0.701796 0.042689
O O3 0.143951 0.988260 0.103880
O O4 0.142655 0.994300 0.004707
O O5 0.047988 0.246561 0.074475
O O6 0.962278 0.570350 0.093034
O O7 0.000000 0.500000 0.000000
O O8 0.121789 0.097327 0.911587
O O9 0.250000 0.000000 0.946561
O O10 0.191409 0.381059 0.973845
O O11 0.500000 0.227218 0.250000
O O12 0.592629 0.252708 0.177867
O O13 0.611923 0.473842 0.257564
O O14 0.610016 0.974958 0.253608
O O15 0.920492 0.737781 0.830332
O O16 0.992872 0.063072 0.867473
O O17 0.500000 0.279740 0.750000
#
# Coordination Sequence:
#
# PCOD9421011 Si02
#       8
#     8   8   8   8   4   8   8   8
#     4  10  21  35  55  82 116 157 194 245 292 363
#     4  11  21  32  51  85 122 155 185 234 306 366
#     4  10  22  40  57  82 117 156 208 245 295 361
#     4  10  19  35  53  85 120 159 193 243 302 373
#     4  10  20  40  58  76 116 158 206 250 288 358
#     4  11  21  33  55  87 123 154 196 245 312 375
#     4  11  21  34  57  84 121 158 196 248 310 372
#     4  10  19  34  54  81 127 153 194 241 298 371
#
# _framework density 19.954042999999999
#
# number of rings (size 3 to 8) (size 9 to 14) (size 15 to 20)
#    0.000    1.600    2.667    4.800    1.867    3.200 
#    0.000    0.000    0.000    0.000    0.000    5.600 
#    0.000    0.000    0.000    0.000    0.000    0.000 
#
# Total GULP energy -334450.670670 kJ/mol
# GULP energy per Si atom -5574.177845 kJ/mol
# Density = 1.990863 g / cm^3
# Si number density = 19.954043 Si / 1000 Ang^3
#
#
#
# Elastic Constant Matrix: (Units=GPa)
#
#
# Indices 1 2 3 4 5 6 
#
# 1 30.0267 -3.1245 16.5270 0.0000 0.0000 0.0000
# 2 -3.1245 91.5301 21.6368 0.0000 0.0000 0.0000
# 3 16.5270 21.6368 111.2287 0.0000 0.0000 0.0000
# 4 0.0000 0.0000 0.0000 26.6935 0.0000 0.0000
# 5 0.0000 0.0000 0.0000 0.0000 13.8640 0.0000
# 6 0.0000 0.0000 0.0000 0.0000 0.0000 34.0451
#
#
#
# Elastic Compliance Matrix: (Units=1/GPa)
#
#
# Indices 1 2 3 4 5 6 
#
# 1 0.036886 0.002678 -0.006002 0.000000 0.000000 0.000000
# 2 0.002678 0.011646 -0.002663 0.000000 0.000000 0.000000
# 3 -0.006002 -0.002663 0.010400 0.000000 0.000000 0.000000
# 4 0.000000 0.000000 0.000000 0.037462 0.000000 0.000000
# 5 0.000000 0.000000 0.000000 0.000000 0.072129 0.000000
# 6 0.000000 0.000000 0.000000 0.000000 0.000000 0.029373
#
#
# Mechanical properties :
#
#
# Convention : Reuss Voigt Hill
#
# Bulk Modulus (GPa) = 21.29560 33.65157 27.47359
# Shear Modulus (GPa) = 22.17060 28.10358 25.13709
#
# Velocity S-wave (km/s) = 3.33691 3.75696 3.55315
# Velocity P-wave (km/s) = 5.05392 5.97669 5.53457
#
# Compressibility (1/GPa) = 0.04695806
#
# Stress axis : x y z
#
# Youngs Moduli (GPa) = 27.11081 85.86356 96.15068
#
# Poissons Ratio (x) = -0.22993 0.57706
# Poissons Ratio (y) = -0.07260 0.25609
# Poissons Ratio (z) = 0.16271 0.22869
#
# Static dielectric constant tensor:
#      x y z
#    x 1.065490 0.000000 0.000000 
#    y 0.000000 1.787290 0.000000 
#    z 0.000000 0.000000 1.684420 
# 
# From -- ./inp_files/24787.got.cif
#   From: 2010.05.17/outbox.cif.g08.bks.cpg/sg54_13_cif.got.tgz:24787.got - 2010.06.03 13:09:01.
