data_PCOD9421911
_publ_section_title
;
Structure prediction by ZEFSAII (Michael W. Deem and Ramdas Pophale) SiO2 
 PCOD9421911
Probable space group: P C C A
;
_chemical_formula_sum "Si O2"
_cell_formula_units_Z 60
_cell_length_a 9.662293
_cell_length_b 10.523399
_cell_length_c 28.106615
_cell_angle_alpha 90.000000
_cell_angle_beta 90.000000
_cell_angle_gamma 90.000000
_cell_volume 2857.885237
_symmetry_space_group_name_H-M "P C C A"
_symmetry_group_IT_number 54
_symmetry_cell_setting 'orthorhombic'
loop_
_space_group_symop_operation_xyz
x,y,z
1/2-x,-y,z
1/2+x,-y,1/2-z
-x,y,1/2-z
-x,-y,-z
1/2+x,y,-z
1/2-x,y,1/2+z
x,-y,1/2+z
loop_
_atom_site_type_symbol
_atom_site_label
_atom_site_fract_x
_atom_site_fract_y
_atom_site_fract_z
Si Si1 0.022232 0.464300 0.937338
Si Si2 0.537925 0.764146 0.886241
Si Si3 0.582381 0.238391 0.578401
Si Si4 0.847819 0.880770 0.760159
Si Si5 0.722456 0.150562 0.163013
Si Si6 0.679144 0.141938 0.865553
Si Si7 0.617860 0.908269 0.982621
Si Si8 0.250000 0.500000 0.507302
O O1 0.026209 0.374553 0.892442
O O2 0.043147 0.613437 0.928090
O O3 0.870224 0.440320 0.960210
O O4 0.147367 0.422339 0.972360
O O5 0.440013 0.833270 0.848256
O O6 0.696804 0.760384 0.872730
O O7 0.552809 0.836686 0.936945
O O8 0.694434 0.215695 0.619801
O O9 0.444630 0.163856 0.597114
O O10 0.638162 0.185167 0.527964
O O11 0.781549 0.808226 0.714789
O O12 0.867763 0.823828 0.812353
O O13 0.000000 0.930044 0.750000
O O14 0.750000 0.000000 0.766962
O O15 0.750000 0.000000 0.160422
O O16 0.750000 0.000000 0.868349
O O17 0.750000 0.000000 0.973379
O O18 0.500000 0.000000 0.000000
#
# Coordination Sequence:
#
# PCOD9421911 Si02
#       8
#     8   8   8   8   8   8   8   4
#     4  11  24  40  62  89 122 171 227 261 312 358
#     4  12  25  40  60  92 131 169 213 264 307 387
#     4  12  23  40  64  89 130 175 211 265 310 386
#     4  10  22  40  67  99 127 160 209 266 329 390
#     4  11  23  40  65  94 126 162 209 264 333 380
#     4  11  23  40  65  93 128 163 208 265 329 379
#     4  12  24  38  57  89 129 169 207 251 320 378
#     4  10  20  40  60  82 114 160 224 276 290 344
#
# _framework density 20.994546
#
# number of rings (size 3 to 8) (size 9 to 14) (size 15 to 20)
#    0.000    0.800    1.333    8.000    5.600    2.133 
#    0.000    0.000    0.000    4.800    0.000    0.000 
#    0.000    0.000    0.000    0.000    0.000    0.000 
#
# Total GULP energy -334704.726070 kJ/mol
# GULP energy per Si atom -5578.412101 kJ/mol
# Density = 2.094676 g / cm^3
# Si number density = 20.994546 Si / 1000 Ang^3
#
#
#
# Elastic Constant Matrix: (Units=GPa)
#
#
# Indices 1 2 3 4 5 6 
#
# 1 117.9444 -0.5457 27.3724 0.0000 0.0000 0.0000
# 2 -0.5457 78.5602 25.6569 0.0000 0.0000 0.0000
# 3 27.3724 25.6569 105.5029 0.0000 0.0000 0.0000
# 4 0.0000 0.0000 0.0000 2.5067 0.0000 0.0000
# 5 0.0000 0.0000 0.0000 0.0000 30.5779 0.0000
# 6 0.0000 0.0000 0.0000 0.0000 0.0000 18.6211
#
#
#
# Elastic Compliance Matrix: (Units=1/GPa)
#
#
# Indices 1 2 3 4 5 6 
#
# 1 0.009081 0.000904 -0.002576 0.000000 0.000000 0.000000
# 2 0.000904 0.013917 -0.003619 0.000000 0.000000 0.000000
# 3 -0.002576 -0.003619 0.011027 0.000000 0.000000 0.000000
# 4 0.000000 0.000000 0.000000 0.398925 0.000000 0.000000
# 5 0.000000 0.000000 0.000000 0.000000 0.032703 0.000000
# 6 0.000000 0.000000 0.000000 0.000000 0.000000 0.053702
#
#
# Mechanical properties :
#
#
# Convention : Reuss Voigt Hill
#
# Bulk Modulus (GPa) = 42.65591 45.21941 43.93766
# Shear Modulus (GPa) = 9.29798 26.97608 18.13703
#
# Velocity S-wave (km/s) = 2.10674 3.58845 2.94239
# Velocity P-wave (km/s) = 5.12636 6.22533 5.70238
#
# Compressibility (1/GPa) = 0.02344341
#
# Stress axis : x y z
#
# Youngs Moduli (GPa) = 110.12543 71.85277 90.68789
#
# Poissons Ratio (x) = -0.06498 0.23360
# Poissons Ratio (y) = -0.09959 0.32821
# Poissons Ratio (z) = 0.28367 0.26005
#
# Static dielectric constant tensor:
#      x y z
#    x 1.798400 0.000000 0.000000 
#    y 0.000000 1.765890 0.000000 
#    z 0.000000 0.000000 3.269400 
# 
# From -- ./inp_files/25945.got.cif
#   From: 2010.05.17/outbox.cif.g08.bks.cpg/sg54_13_cif.got.tgz:25945.got - 2010.06.03 13:09:01.
