data_PCOD9421747
_publ_section_title
;
Structure prediction by ZEFSAII (Michael W. Deem and Ramdas Pophale) SiO2 
 PCOD9421747
Probable space group: P C C A
;
_chemical_formula_sum "Si O2"
_cell_formula_units_Z 64
_cell_length_a 15.356384
_cell_length_b 14.578147
_cell_length_c 12.780049
_cell_angle_alpha 90.000000
_cell_angle_beta 90.000000
_cell_angle_gamma 90.000000
_cell_volume 2861.039196
_symmetry_space_group_name_H-M "P C C A"
_symmetry_group_IT_number 54
_symmetry_cell_setting 'orthorhombic'
loop_
_space_group_symop_operation_xyz
x,y,z
1/2-x,-y,z
1/2+x,-y,1/2-z
-x,y,1/2-z
-x,-y,-z
1/2+x,y,-z
1/2-x,y,1/2+z
x,-y,1/2+z
loop_
_atom_site_type_symbol
_atom_site_label
_atom_site_fract_x
_atom_site_fract_y
_atom_site_fract_z
Si Si1 0.110252 0.270124 0.933315
Si Si2 0.397164 0.099590 0.907274
Si Si3 0.780707 0.230856 0.961196
Si Si4 0.070585 0.091465 0.837999
Si Si5 0.003126 0.262523 0.129767
Si Si6 0.953024 0.550256 0.143672
Si Si7 0.254325 0.102643 0.722562
Si Si8 0.612413 0.394662 0.507213
O O1 0.208821 0.239638 0.948131
O O2 0.050200 0.186295 0.895975
O O3 0.096666 0.352766 0.853041
O O4 0.079059 0.294966 0.051652
O O5 0.350137 0.152887 0.002034
O O6 0.484893 0.154621 0.880251
O O7 0.332027 0.105170 0.807171
O O8 0.416009 0.992171 0.917902
O O9 0.814523 0.336001 0.945758
O O10 0.738022 0.184650 0.859467
O O11 0.161788 0.110128 0.780334
O O12 0.000000 0.068199 0.750000
O O13 0.920323 0.313163 0.081200
O O14 0.000000 0.287669 0.250000
O O15 0.885777 0.480757 0.086829
O O16 0.000000 0.518549 0.250000
O O17 0.036396 0.573668 0.070841
O O18 0.250000 0.000000 0.673252
#
# Coordination Sequence:
#
# PCOD9421747 Si02
#       8
#     8   8   8   8   8   8   8   8
#     4  11  24  37  64  93 124 170 215 274 325 391
#     4  10  22  41  58  86 128 169 214 266 318 388
#     4  11  23  39  63  90 129 167 216 267 331 394
#     4  11  24  39  60  92 127 166 223 267 320 388
#     4  10  20  38  60  87 122 160 216 262 320 386
#     4  10  21  41  67  93 126 165 217 272 335 396
#     4  10  23  39  62  89 128 178 214 265 332 388
#     4   9  22  39  63  93 122 167 206 267 331 391
#
# _framework density 22.369494
#
# number of rings (size 3 to 8) (size 9 to 14) (size 15 to 20)
#    0.000    1.750    1.250    1.875    8.750    2.000 
#    0.000    0.000    0.000    4.500    0.000    0.000 
#    0.000    0.000    0.000    0.000    0.000    0.000 
#
# Total GULP energy -356749.620324 kJ/mol
# GULP energy per Si atom -5574.212818 kJ/mol
# Density = 2.231858 g / cm^3
# Si number density = 22.369494 Si / 1000 Ang^3
#
#
#
# Elastic Constant Matrix: (Units=GPa)
#
#
# Indices 1 2 3 4 5 6 
#
# 1 37.2964 5.6481 -5.3221 0.0000 0.0000 0.0000
# 2 5.6481 121.1318 16.0919 0.0000 0.0000 0.0000
# 3 -5.3221 16.0919 49.1944 0.0000 0.0000 0.0000
# 4 0.0000 0.0000 0.0000 17.2106 0.0000 0.0000
# 5 0.0000 0.0000 0.0000 0.0000 24.5376 0.0000
# 6 0.0000 0.0000 0.0000 0.0000 0.0000 29.2980
#
#
#
# Elastic Compliance Matrix: (Units=1/GPa)
#
#
# Indices 1 2 3 4 5 6 
#
# 1 0.027587 -0.001759 0.003560 0.000000 0.000000 0.000000
# 2 -0.001759 0.008743 -0.003050 0.000000 0.000000 0.000000
# 3 0.003560 -0.003050 0.021710 0.000000 0.000000 0.000000
# 4 0.000000 0.000000 0.000000 0.058104 0.000000 0.000000
# 5 0.000000 0.000000 0.000000 0.000000 0.040754 0.000000
# 6 0.000000 0.000000 0.000000 0.000000 0.000000 0.034132
#
#
# Mechanical properties :
#
#
# Convention : Reuss Voigt Hill
#
# Bulk Modulus (GPa) = 18.00475 26.71758 22.36117
# Shear Modulus (GPa) = 23.58025 26.95622 25.26824
#
# Velocity S-wave (km/s) = 3.25025 3.47514 3.36458
# Velocity P-wave (km/s) = 4.70657 5.29828 5.01117
#
# Compressibility (1/GPa) = 0.05554090
#
# Stress axis : x y z
#
# Youngs Moduli (GPa) = 36.24938 114.38116 46.06095
#
# Poissons Ratio (x) = 0.20122 -0.16397
# Poissons Ratio (y) = 0.06377 0.14049
# Poissons Ratio (z) = -0.12905 0.34888
#
# Static dielectric constant tensor:
#      x y z
#    x 1.924800 0.000000 0.000000 
#    y 0.000000 1.882510 0.000000 
#    z 0.000000 0.000000 1.868320 
# 
# From -- ./inp_files/9068.got.cif
#   From: 2010.05.17/outbox.cif.g08.bks.cpg/sg54_5_cif.got.tgz:9068.got - 2010.06.03 13:09:01.
