data_PCOD9421718
_publ_section_title
;
Structure prediction by ZEFSAII (Michael W. Deem and Ramdas Pophale) SiO2 
 PCOD9421718
Probable space group: P C C A
;
_chemical_formula_sum "Si O2"
_cell_formula_units_Z 52
_cell_length_a 8.564035
_cell_length_b 17.912208
_cell_length_c 18.381433
_cell_angle_alpha 90.000000
_cell_angle_beta 90.000000
_cell_angle_gamma 90.000000
_cell_volume 2819.726091
_symmetry_space_group_name_H-M "P C C A"
_symmetry_group_IT_number 54
_symmetry_cell_setting 'orthorhombic'
loop_
_space_group_symop_operation_xyz
x,y,z
1/2-x,-y,z
1/2+x,-y,1/2-z
-x,y,1/2-z
-x,-y,-z
1/2+x,y,-z
1/2-x,y,1/2+z
x,-y,1/2+z
loop_
_atom_site_type_symbol
_atom_site_label
_atom_site_fract_x
_atom_site_fract_y
_atom_site_fract_z
Si Si1 0.250000 0.500000 0.542542
Si Si2 0.358610 0.206689 0.305841
Si Si3 0.014801 0.760206 0.040446
Si Si4 0.518881 0.605668 0.044682
Si Si5 0.179163 0.918218 0.724149
Si Si6 0.075508 0.686560 0.818814
Si Si7 0.645285 0.197759 0.902776
O O1 0.370386 0.548843 0.496481
O O2 0.135265 0.563436 0.575457
O O3 0.500000 0.218543 0.250000
O O4 0.416156 0.216899 0.388550
O O5 0.279659 0.128305 0.283470
O O6 0.225144 0.267714 0.294340
O O7 0.194782 0.768749 0.064343
O O8 0.984001 0.676415 0.008550
O O9 0.967820 0.812817 0.972331
O O10 0.613431 0.635422 0.113521
O O11 0.184007 0.872433 0.648214
O O12 0.000000 0.921043 0.750000
O O13 0.250000 0.000000 0.715802
O O14 0.000000 0.646720 0.750000
O O15 0.947602 0.744674 0.850949
#
# Coordination Sequence:
#
# PCOD9421718 Si02
#       7
#     4   8   8   8   8   8   8
#     4  10  20  38  56  84 126 166 204 244 312 400
#     4  12  21  38  63  95 126 162 216 268 311 379
#     4  11  22  36  65  94 122 158 217 272 313 354
#     4  10  21  36  60  88 122 165 206 255 314 377
#     4  12  25  44  65  91 129 172 206 251 325 391
#     4  11  19  37  60  90 121 158 211 269 317 353
#     4  11  21  40  61  93 126 160 212 271 309 372
#
# _framework density 18.441507000000001
#
# number of rings (size 3 to 8) (size 9 to 14) (size 15 to 20)
#    0.000    0.923    4.615    5.077    0.000    0.000 
#    0.000    2.308    0.000    3.692    0.000    0.000 
#    0.000    0.000    0.000    0.000    0.000    0.000 
#
# Total GULP energy -289943.838817 kJ/mol
# GULP energy per Si atom -5575.843054 kJ/mol
# Density = 1.839953 g / cm^3
# Si number density = 18.441507 Si / 1000 Ang^3
#
#
#
# Elastic Constant Matrix: (Units=GPa)
#
#
# Indices 1 2 3 4 5 6 
#
# 1 97.1374 21.7297 23.4783 0.0000 0.0000 0.0000
# 2 21.7297 89.1334 31.4311 0.0000 0.0000 0.0000
# 3 23.4783 31.4311 107.9594 0.0000 0.0000 0.0000
# 4 0.0000 0.0000 0.0000 20.3765 0.0000 0.0000
# 5 0.0000 0.0000 0.0000 0.0000 22.9829 0.0000
# 6 0.0000 0.0000 0.0000 0.0000 0.0000 28.9040
#
#
#
# Elastic Compliance Matrix: (Units=1/GPa)
#
#
# Indices 1 2 3 4 5 6 
#
# 1 0.011203 -0.002086 -0.001829 0.000000 0.000000 0.000000
# 2 -0.002086 0.012891 -0.003299 0.000000 0.000000 0.000000
# 3 -0.001829 -0.003299 0.010621 0.000000 0.000000 0.000000
# 4 0.000000 0.000000 0.000000 0.049076 0.000000 0.000000
# 5 0.000000 0.000000 0.000000 0.000000 0.043511 0.000000
# 6 0.000000 0.000000 0.000000 0.000000 0.000000 0.034597
#
#
# Mechanical properties :
#
#
# Convention : Reuss Voigt Hill
#
# Bulk Modulus (GPa) = 49.29442 49.72314 49.50878
# Shear Modulus (GPa) = 27.30875 28.95875 28.13375
#
# Velocity S-wave (km/s) = 3.85233 3.96700 3.91009
# Velocity P-wave (km/s) = 6.82462 6.92849 6.87675
#
# Compressibility (1/GPa) = 0.02028627
#
# Stress axis : x y z
#
# Youngs Moduli (GPa) = 89.25787 77.57218 94.15221
#
# Poissons Ratio (x) = 0.16184 0.17221
# Poissons Ratio (y) = 0.18622 0.31065
# Poissons Ratio (z) = 0.16326 0.25594
#
# Static dielectric constant tensor:
#      x y z
#    x 1.667790 0.000000 0.000000 
#    y 0.000000 1.658640 0.000000 
#    z 0.000000 0.000000 1.636290 
# 
# From -- ./inp_files/16773.got.cif
#   From: 2010.05.17/outbox.cif.g08.bks.cpg/sg54_9_cif.got.tgz:16773.got - 2010.06.03 13:09:01.
