data_PCOD9421628
_publ_section_title
;
Structure prediction by ZEFSAII (Michael W. Deem and Ramdas Pophale) SiO2 
 PCOD9421628
Probable space group: P C C A
;
_chemical_formula_sum "Si O2"
_cell_formula_units_Z 40
_cell_length_a 13.681456
_cell_length_b 6.417264
_cell_length_c 19.331015
_cell_angle_alpha 90.000000
_cell_angle_beta 90.000000
_cell_angle_gamma 90.000000
_cell_volume 1697.215081
_symmetry_space_group_name_H-M "P C C A"
_symmetry_group_IT_number 54
_symmetry_cell_setting 'orthorhombic'
loop_
_space_group_symop_operation_xyz
x,y,z
1/2-x,-y,z
1/2+x,-y,1/2-z
-x,y,1/2-z
-x,-y,-z
1/2+x,y,-z
1/2-x,y,1/2+z
x,-y,1/2+z
loop_
_atom_site_type_symbol
_atom_site_label
_atom_site_fract_x
_atom_site_fract_y
_atom_site_fract_z
Si Si1 0.491882 0.510002 0.366808
Si Si2 0.250000 0.000000 0.770996
Si Si3 0.921987 0.191168 0.017961
Si Si4 0.640689 0.826493 0.603837
Si Si5 0.750000 0.500000 0.506273
Si Si6 0.850464 0.380459 0.260216
O O1 0.483445 0.648154 0.435202
O O2 0.466875 0.271370 0.384140
O O3 0.589915 0.536259 0.324907
O O4 0.410523 0.588720 0.310896
O O5 0.191260 0.151704 0.822235
O O6 0.326418 0.137353 0.729618
O O7 0.838698 0.339179 0.977681
O O8 0.856901 0.052677 0.070315
O O9 0.000000 0.000000 0.000000
O O10 0.689131 0.656413 0.554465
O O11 0.750000 0.500000 0.257681
#
# Coordination Sequence:
#
# PCOD9421628 Si02
#       6
#     8   4   8   8   4   8
#     4  10  23  39  61  97 133 162 224 273 336 414
#     4  12  18  34  68  90 120 170 218 262 326 400
#     4  11  23  40  68  95 129 175 227 285 344 410
#     4  11  19  38  67  93 120 164 222 278 320 400
#     4  10  20  36  66  98 122 158 230 286 322 402
#     4  11  22  38  62  97 128 169 210 274 336 405
#
# _framework density 23.568021000000002
#
# number of rings (size 3 to 8) (size 9 to 14) (size 15 to 20)
#    0.000    1.200    6.000    1.200    1.400    4.800 
#    0.000    0.000   22.000    0.000    0.000    0.000 
#    0.000    0.000    0.000    0.000    0.000    0.000 
#
# Total GULP energy -222852.657633 kJ/mol
# GULP energy per Si atom -5571.316441 kJ/mol
# Density = 2.351438 g / cm^3
# Si number density = 23.568021 Si / 1000 Ang^3
#
#
#
# Elastic Constant Matrix: (Units=GPa)
#
#
# Indices 1 2 3 4 5 6 
#
# 1 105.5539 42.7032 30.1086 0.0000 0.0000 0.0000
# 2 42.7032 128.2353 32.4659 0.0000 0.0000 0.0000
# 3 30.1086 32.4659 44.5360 0.0000 0.0000 0.0000
# 4 0.0000 0.0000 0.0000 12.5020 0.0000 0.0000
# 5 0.0000 0.0000 0.0000 0.0000 25.5786 0.0000
# 6 0.0000 0.0000 0.0000 0.0000 0.0000 61.9928
#
#
#
# Elastic Compliance Matrix: (Units=1/GPa)
#
#
# Indices 1 2 3 4 5 6 
#
# 1 0.012334 -0.002448 -0.006554 0.000000 0.000000 0.000000
# 2 -0.002448 0.010049 -0.005671 0.000000 0.000000 0.000000
# 3 -0.006554 -0.005671 0.031018 0.000000 0.000000 0.000000
# 4 0.000000 0.000000 0.000000 0.079987 0.000000 0.000000
# 5 0.000000 0.000000 0.000000 0.000000 0.039095 0.000000
# 6 0.000000 0.000000 0.000000 0.000000 0.000000 0.016131
#
#
# Mechanical properties :
#
#
# Convention : Reuss Voigt Hill
#
# Bulk Modulus (GPa) = 41.56906 54.32006 47.94456
# Shear Modulus (GPa) = 22.12614 31.55117 26.83866
#
# Velocity S-wave (km/s) = 3.06734 3.66283 3.37823
# Velocity P-wave (km/s) = 5.49736 6.40209 5.96690
#
# Compressibility (1/GPa) = 0.02405635
#
# Stress axis : x y z
#
# Youngs Moduli (GPa) = 81.07965 99.51242 32.23923
#
# Poissons Ratio (x) = 0.24360 0.21128
# Poissons Ratio (y) = 0.19848 0.18282
# Poissons Ratio (z) = 0.53136 0.56430
#
# Static dielectric constant tensor:
#      x y z
#    x -4.279770 0.000000 0.000000 
#    y 0.000000 1.957680 0.000000 
#    z 0.000000 0.000000 1.910680 
# 
# From -- ./inp_files/24364.got.cif
#   From: 2010.05.17/outbox.cif.g08.bks.cpg/sg54_13_cif.got.tgz:24364.got - 2010.06.03 13:09:01.
