data_PCOD9421049
_publ_section_title
;
Structure prediction by ZEFSAII (Michael W. Deem and Ramdas Pophale) SiO2 
 PCOD9421049
Probable space group: P C C A
;
_chemical_formula_sum "Si O2"
_cell_formula_units_Z 60
_cell_length_a 5.812060
_cell_length_b 17.699676
_cell_length_c 26.470718
_cell_angle_alpha 90.000000
_cell_angle_beta 90.000000
_cell_angle_gamma 90.000000
_cell_volume 2723.084555
_symmetry_space_group_name_H-M "P C C A"
_symmetry_group_IT_number 54
_symmetry_cell_setting 'orthorhombic'
loop_
_space_group_symop_operation_xyz
x,y,z
1/2-x,-y,z
1/2+x,-y,1/2-z
-x,y,1/2-z
-x,-y,-z
1/2+x,y,-z
1/2-x,y,1/2+z
x,-y,1/2+z
loop_
_atom_site_type_symbol
_atom_site_label
_atom_site_fract_x
_atom_site_fract_y
_atom_site_fract_z
Si Si1 0.038881 0.705018 0.122838
Si Si2 0.849758 0.419605 0.697499
Si Si3 0.215695 0.852029 0.864749
Si Si4 0.689126 0.203284 0.808721
Si Si5 0.444770 0.652894 0.508253
Si Si6 0.055467 0.176870 0.473769
Si Si7 0.500000 0.324087 0.750000
Si Si8 0.548990 0.052326 0.306720
O O1 0.985592 0.632884 0.158123
O O2 0.859579 0.774207 0.129104
O O3 0.266926 0.748351 0.140802
O O4 0.051283 0.679401 0.065968
O O5 0.750000 0.500000 0.679986
O O6 0.614418 0.374803 0.708469
O O7 0.000000 0.428454 0.750000
O O8 0.083252 0.858256 0.917953
O O9 0.356874 0.926040 0.847963
O O10 0.051847 0.836712 0.817225
O O11 0.697632 0.267772 0.767471
O O12 0.858465 0.136614 0.797716
O O13 0.694612 0.614415 0.499626
O O14 0.443583 0.730840 0.475271
O O15 0.301500 0.156845 0.502429
O O16 0.500000 0.021445 0.250000
O O17 0.750000 0.000000 0.328578
#
# Coordination Sequence:
#
# PCOD9421049 Si02
#       8
#     8   8   8   8   8   8   4   8
#     4  11  22  36  62  97 128 166 231 279 337 410
#     4  12  25  42  59  89 133 182 225 271 343 416
#     4  11  22  38  65  97 127 171 221 284 338 402
#     4  11  23  37  64  95 124 164 222 289 331 397
#     4  10  19  34  60  95 133 169 213 287 352 407
#     4  10  19  34  61  98 135 167 214 284 352 410
#     4  12  22  36  64  88 126 164 218 282 330 388
#     4  11  28  44  62  91 134 181 227 270 341 419
#
# _framework density 22.033836000000001
#
# number of rings (size 3 to 8) (size 9 to 14) (size 15 to 20)
#    0.000    1.067    6.000    2.400    6.533    0.000 
#    0.000    0.000    0.000    1.600    0.000    0.000 
#    0.000    0.000    0.000    0.000    0.000    0.000 
#
# Total GULP energy -334339.889704 kJ/mol
# GULP energy per Si atom -5572.331495 kJ/mol
# Density = 2.198369 g / cm^3
# Si number density = 22.033836 Si / 1000 Ang^3
#
#
#
# Elastic Constant Matrix: (Units=GPa)
#
#
# Indices 1 2 3 4 5 6 
#
# 1 114.1210 34.7874 14.1324 0.0000 0.0000 0.0000
# 2 34.7874 94.9857 21.0371 0.0000 0.0000 0.0000
# 3 14.1324 21.0371 62.4341 0.0000 0.0000 0.0000
# 4 0.0000 0.0000 0.0000 4.4633 0.0000 0.0000
# 5 0.0000 0.0000 0.0000 0.0000 29.6309 0.0000
# 6 0.0000 0.0000 0.0000 0.0000 0.0000 -35.3186
#
#
#
# Elastic Compliance Matrix: (Units=1/GPa)
#
#
# Indices 1 2 3 4 5 6 
#
# 1 0.009934 -0.003393 -0.001105 0.000000 0.000000 0.000000
# 2 -0.003393 0.012536 -0.003456 0.000000 0.000000 0.000000
# 3 -0.001105 -0.003456 0.017432 0.000000 0.000000 0.000000
# 4 0.000000 0.000000 0.000000 0.224048 0.000000 0.000000
# 5 0.000000 0.000000 0.000000 0.000000 0.033749 0.000000
# 6 0.000000 0.000000 0.000000 0.000000 0.000000 -0.028314
#
#
# Mechanical properties :
#
#
# Convention : Reuss Voigt Hill
#
# Bulk Modulus (GPa) = 41.67970 45.71718 43.69844
# Shear Modulus (GPa) = 17.04793 13.19405 15.12099
#
# Velocity S-wave (km/s) = 2.78459 2.44971 2.62250
# Velocity P-wave (km/s) = 5.41257 5.36611 5.38939
#
# Compressibility (1/GPa) = 0.02399249
#
# Stress axis : x y z
#
# Youngs Moduli (GPa) = 100.66543 79.76966 57.36737
#
# Poissons Ratio (x) = 0.27069 0.06340
# Poissons Ratio (y) = 0.34160 0.19826
# Poissons Ratio (z) = 0.11126 0.27568
#
# Static dielectric constant tensor:
#      x y z
#    x 2.030350 0.000000 0.000000 
#    y 0.000000 1.752100 0.000000 
#    z 0.000000 0.000000 1.827670 
# 
# From -- ./inp_files/25490.got.cif
#   From: 2010.05.17/outbox.cif.g08.bks.cpg/sg54_13_cif.got.tgz:25490.got - 2010.06.03 13:09:01.
