data_PCOD9421079
_publ_section_title
;
Structure prediction by ZEFSAII (Michael W. Deem and Ramdas Pophale) SiO2 
 PCOD9421079
Probable space group: P C C A
;
_chemical_formula_sum "Si O2"
_cell_formula_units_Z 52
_cell_length_a 20.799102
_cell_length_b 8.826600
_cell_length_c 15.475464
_cell_angle_alpha 90.000000
_cell_angle_beta 90.000000
_cell_angle_gamma 90.000000
_cell_volume 2841.068532
_symmetry_space_group_name_H-M "P C C A"
_symmetry_group_IT_number 54
_symmetry_cell_setting 'orthorhombic'
loop_
_space_group_symop_operation_xyz
x,y,z
1/2-x,-y,z
1/2+x,-y,1/2-z
-x,y,1/2-z
-x,-y,-z
1/2+x,y,-z
1/2-x,y,1/2+z
x,-y,1/2+z
loop_
_atom_site_type_symbol
_atom_site_label
_atom_site_fract_x
_atom_site_fract_y
_atom_site_fract_z
Si Si1 0.918075 0.578251 0.084669
Si Si2 0.371233 0.905383 0.854793
Si Si3 0.250000 0.000000 0.767032
Si Si4 0.073657 0.051801 0.519292
Si Si5 0.621521 0.095086 0.806214
Si Si6 0.927281 0.602329 0.420776
Si Si7 0.922653 0.572456 0.755984
O O1 0.895913 0.744886 0.111820
O O2 0.896965 0.467085 0.161438
O O3 0.995642 0.580251 0.082662
O O4 0.898736 0.513045 0.991791
O O5 0.296412 0.900537 0.827880
O O6 0.403250 0.975247 0.767360
O O7 0.386401 0.020244 0.932470
O O8 0.301524 0.087839 0.708419
O O9 0.080665 0.225743 0.548522
O O10 0.099572 0.954139 0.599481
O O11 0.000000 0.000000 0.500000
O O12 0.597533 0.262183 0.786011
O O13 0.902904 0.554589 0.326202
O O14 0.000000 0.570754 0.750000
#
# Coordination Sequence:
#
# PCOD9421079 Si02
#       7
#     8   8   4   8   8   8   8
#     4  10  19  35  57  83 130 155 187 248 312 373
#     4  10  21  41  63  88 119 166 211 258 299 360
#     4   8  24  44  62  84 116 168 230 252 288 348
#     4  12  23  35  66  96 123 158 200 258 317 385
#     4  10  23  40  61  87 119 163 215 255 301 362
#     4  10  21  34  52  95 129 150 190 236 325 384
#     4  10  21  33  59  88 125 162 185 256 322 374
#
# _framework density 18.302973000000001
#
# number of rings (size 3 to 8) (size 9 to 14) (size 15 to 20)
#    0.923    0.923    1.538    2.769    6.462    0.615 
#    0.000    0.769    0.000    1.846    0.000    0.000 
#    0.000    0.000    0.000    0.000    0.000    0.000 
#
# Total GULP energy -289659.822923 kJ/mol
# GULP energy per Si atom -5570.381210 kJ/mol
# Density = 1.826131 g / cm^3
# Si number density = 18.302973 Si / 1000 Ang^3
#
#
#
# Elastic Constant Matrix: (Units=GPa)
#
#
# Indices 1 2 3 4 5 6 
#
# 1 46.8939 14.1789 46.9331 0.0000 0.0000 0.0000
# 2 14.1789 53.0595 1.1266 0.0000 0.0000 0.0000
# 3 46.9331 1.1266 92.6510 0.0000 0.0000 0.0000
# 4 0.0000 0.0000 0.0000 36.0446 0.0000 0.0000
# 5 0.0000 0.0000 0.0000 0.0000 27.6104 0.0000
# 6 0.0000 0.0000 0.0000 0.0000 0.0000 -2.6386
#
#
#
# Elastic Compliance Matrix: (Units=1/GPa)
#
#
# Indices 1 2 3 4 5 6 
#
# 1 0.050946 -0.013070 -0.025648 0.000000 0.000000 0.000000
# 2 -0.013070 0.022204 0.006350 0.000000 0.000000 0.000000
# 3 -0.025648 0.006350 0.023708 0.000000 0.000000 0.000000
# 4 0.000000 0.000000 0.000000 0.027743 0.000000 0.000000
# 5 0.000000 0.000000 0.000000 0.000000 0.036218 0.000000
# 6 0.000000 0.000000 0.000000 0.000000 0.000000 -0.378983
#
#
# Mechanical properties :
#
#
# Convention : Reuss Voigt Hill
#
# Bulk Modulus (GPa) = 31.12912 35.23129 33.18020
# Shear Modulus (GPa) = -35.03374 20.89432 -7.06971
#
# Velocity S-wave (km/s) = -4.37979 3.38239 -1.96748
# Velocity P-wave (km/s) = 2.92098 5.87749 3.60643
#
# Compressibility (1/GPa) = 0.03212426
#
# Stress axis : x y z
#
# Youngs Moduli (GPa) = 19.62855 45.03606 42.17928
#
# Poissons Ratio (x) = 0.58860 1.08183
# Poissons Ratio (y) = 0.25654 -0.26786
# Poissons Ratio (z) = 0.50344 -0.28600
#
# Static dielectric constant tensor:
#      x y z
#    x 1.612850 0.000000 0.000000 
#    y 0.000000 1.652880 0.000000 
#    z 0.000000 0.000000 1.645910 
# 
# From -- ./inp_files/14932.got.cif
#   From: 2010.05.17/outbox.cif.g08.bks.cpg/sg54_8_cif.got.tgz:14932.got - 2010.06.03 13:09:01.
