data_PCOD9421834
_publ_section_title
;
Structure prediction by ZEFSAII (Michael W. Deem and Ramdas Pophale) SiO2 
 PCOD9421834
Probable space group: P C C A
;
_chemical_formula_sum "Si O2"
_cell_formula_units_Z 28
_cell_length_a 5.242567
_cell_length_b 13.907943
_cell_length_c 16.302790
_cell_angle_alpha 90.000000
_cell_angle_beta 90.000000
_cell_angle_gamma 90.000000
_cell_volume 1188.690593
_symmetry_space_group_name_H-M "P C C A"
_symmetry_group_IT_number 54
_symmetry_cell_setting 'orthorhombic'
loop_
_space_group_symop_operation_xyz
x,y,z
1/2-x,-y,z
1/2+x,-y,1/2-z
-x,y,1/2-z
-x,-y,-z
1/2+x,y,-z
1/2-x,y,1/2+z
x,-y,1/2+z
loop_
_atom_site_type_symbol
_atom_site_label
_atom_site_fract_x
_atom_site_fract_y
_atom_site_fract_z
Si Si1 0.959358 0.121521 0.946094
Si Si2 0.145771 0.292291 0.838451
Si Si3 0.000000 0.826937 0.750000
Si Si4 0.750000 0.500000 0.193226
Si Si5 0.750000 0.000000 0.179441
O O1 0.999180 0.223643 0.900484
O O2 0.031725 0.036840 0.882524
O O3 0.183537 0.116496 0.013791
O O4 0.423992 0.243745 0.823357
O O5 0.184190 0.404015 0.857219
O O6 0.000000 0.289143 0.750000
O O7 0.785356 0.907557 0.736962
O O8 0.500000 0.520327 0.250000
#
# Coordination Sequence:
#
# PCOD9421834 Si02
#       5
#     8   8   4   4   4
#     4  11  26  43  62  91 134 175 214 265 325 389
#     4  10  23  41  69  95 130 167 223 273 330 383
#     4  10  22  38  60 100 122 168 218 278 310 382
#     4  10  20  38  68 102 126 160 216 278 332 380
#     4  10  24  36  66  88 134 168 230 256 332 368
#
# _framework density 23.555332
#
# number of rings (size 3 to 8) (size 9 to 14) (size 15 to 20)
#    0.000    1.714    1.429    0.857   16.000    0.000 
#    0.000    1.429    0.000    0.000    0.000    0.000 
#    0.000    0.000    0.000    0.000    0.000    0.000 
#
# Total GULP energy -156192.161694 kJ/mol
# GULP energy per Si atom -5578.291489 kJ/mol
# Density = 2.350172 g / cm^3
# Si number density = 23.555332 Si / 1000 Ang^3
#
#
#
# Elastic Constant Matrix: (Units=GPa)
#
#
# Indices 1 2 3 4 5 6 
#
# 1 114.5268 23.6831 45.0029 0.0000 0.0000 0.0000
# 2 23.6831 200.2316 38.3949 0.0000 0.0000 0.0000
# 3 45.0029 38.3949 63.3051 0.0000 0.0000 0.0000
# 4 0.0000 0.0000 0.0000 52.3700 0.0000 0.0000
# 5 0.0000 0.0000 0.0000 0.0000 41.0893 0.0000
# 6 0.0000 0.0000 0.0000 0.0000 0.0000 20.3743
#
#
#
# Elastic Compliance Matrix: (Units=1/GPa)
#
#
# Indices 1 2 3 4 5 6 
#
# 1 0.012127 0.000248 -0.008771 0.000000 0.000000 0.000000
# 2 0.000248 0.005657 -0.003607 0.000000 0.000000 0.000000
# 3 -0.008771 -0.003607 0.024219 0.000000 0.000000 0.000000
# 4 0.000000 0.000000 0.000000 0.019095 0.000000 0.000000
# 5 0.000000 0.000000 0.000000 0.000000 0.024337 0.000000
# 6 0.000000 0.000000 0.000000 0.000000 0.000000 0.049082
#
#
# Mechanical properties :
#
#
# Convention : Reuss Voigt Hill
#
# Bulk Modulus (GPa) = 56.36244 65.80281 61.08262
# Shear Modulus (GPa) = 30.35992 40.83221 35.59606
#
# Velocity S-wave (km/s) = 3.59399 4.16800 3.89159
# Velocity P-wave (km/s) = 6.41887 7.15255 6.79562
#
# Compressibility (1/GPa) = 0.01774231
#
# Stress axis : x y z
#
# Youngs Moduli (GPa) = 82.46110 176.78679 41.28954
#
# Poissons Ratio (x) = -0.04376 0.36215
# Poissons Ratio (y) = -0.02041 0.14892
# Poissons Ratio (z) = 0.72327 0.63761
#
# Static dielectric constant tensor:
#      x y z
#    x 2.051110 0.000000 0.000000 
#    y 0.000000 1.897740 0.000000 
#    z 0.000000 0.000000 1.948770 
# 
# From -- ./inp_files/15646.got.cif
#   From: 2010.05.17/outbox.cif.g08.bks.cpg/sg54_8_cif.got.tgz:15646.got - 2010.06.03 13:09:01.
