data_PCOD9421371
_publ_section_title
;
Structure prediction by ZEFSAII (Michael W. Deem and Ramdas Pophale) SiO2 
 PCOD9421371
Probable space group: P C C A
;
_chemical_formula_sum "Si O2"
_cell_formula_units_Z 44
_cell_length_a 21.013077
_cell_length_b 6.643918
_cell_length_c 17.842005
_cell_angle_alpha 90.000000
_cell_angle_beta 90.000000
_cell_angle_gamma 90.000000
_cell_volume 2490.907340
_symmetry_space_group_name_H-M "P C C A"
_symmetry_group_IT_number 54
_symmetry_cell_setting 'orthorhombic'
loop_
_space_group_symop_operation_xyz
x,y,z
1/2-x,-y,z
1/2+x,-y,1/2-z
-x,y,1/2-z
-x,-y,-z
1/2+x,y,-z
1/2-x,y,1/2+z
x,-y,1/2+z
loop_
_atom_site_type_symbol
_atom_site_label
_atom_site_fract_x
_atom_site_fract_y
_atom_site_fract_z
Si Si1 0.048209 0.631111 0.598434
Si Si2 0.311104 0.616321 0.843504
Si Si3 0.561447 0.312370 0.076181
Si Si4 0.041047 0.944666 0.817065
Si Si5 0.750000 0.000000 0.730858
Si Si6 0.353367 0.301743 0.723941
O O1 0.061541 0.697124 0.513459
O O2 0.111797 0.628004 0.648390
O O3 0.003385 0.432846 0.596901
O O4 0.004752 0.793767 0.639699
O O5 0.250000 0.500000 0.876007
O O6 0.372509 0.590755 0.895899
O O7 0.290077 0.842774 0.820839
O O8 0.328640 0.497256 0.767530
O O9 0.562170 0.105836 0.122233
O O10 0.095760 0.814327 0.777191
O O11 0.000000 0.044847 0.750000
O O12 0.703809 0.140685 0.780346
#
# Coordination Sequence:
#
# PCOD9421371 Si02
#       6
#     8   8   8   8   4   8
#     4  10  23  36  55  89 120 147 185 243 299 344
#     4  10  21  36  58  81 110 150 202 236 279 350
#     4  11  21  37  57  83 120 152 183 239 299 347
#     4  10  20  33  58  85 113 150 190 231 286 345
#     4  10  20  38  60  84 108 156 200 242 280 342
#     4  10  20  37  59  83 113 149 198 239 283 345
#
# _framework density 17.664245000000001
#
# number of rings (size 3 to 8) (size 9 to 14) (size 15 to 20)
#    0.000    1.818    3.636    0.545    2.545    0.000 
#    0.000    3.636    0.000    0.000    0.000    0.000 
#    0.000    0.000    0.000    0.000    0.000    0.000 
#
# Total GULP energy -245147.147709 kJ/mol
# GULP energy per Si atom -5571.526084 kJ/mol
# Density = 1.762404 g / cm^3
# Si number density = 17.664245 Si / 1000 Ang^3
#
#
#
# Elastic Constant Matrix: (Units=GPa)
#
#
# Indices 1 2 3 4 5 6 
#
# 1 84.4212 15.0417 38.8273 0.0000 0.0000 0.0000
# 2 15.0417 55.3381 32.7710 0.0000 0.0000 0.0000
# 3 38.8273 32.7710 89.7997 0.0000 0.0000 0.0000
# 4 0.0000 0.0000 0.0000 20.6254 0.0000 0.0000
# 5 0.0000 0.0000 0.0000 0.0000 122.9275 0.0000
# 6 0.0000 0.0000 0.0000 0.0000 0.0000 45.1876
#
#
#
# Elastic Compliance Matrix: (Units=1/GPa)
#
#
# Indices 1 2 3 4 5 6 
#
# 1 0.014789 -0.000297 -0.006286 0.000000 0.000000 0.000000
# 2 -0.000297 0.023059 -0.008286 0.000000 0.000000 0.000000
# 3 -0.006286 -0.008286 0.016878 0.000000 0.000000 0.000000
# 4 0.000000 0.000000 0.000000 0.048484 0.000000 0.000000
# 5 0.000000 0.000000 0.000000 0.000000 0.008135 0.000000
# 6 0.000000 0.000000 0.000000 0.000000 0.000000 0.022130
#
#
# Mechanical properties :
#
#
# Convention : Reuss Voigt Hill
#
# Bulk Modulus (GPa) = 40.02184 44.75989 42.39086
# Shear Modulus (GPa) = 29.14718 47.27603 38.21161
#
# Velocity S-wave (km/s) = 4.06651 5.17898 4.65609
# Velocity P-wave (km/s) = 6.68990 7.82027 7.27707
#
# Compressibility (1/GPa) = 0.02498636
#
# Stress axis : x y z
#
# Youngs Moduli (GPa) = 67.61569 43.36755 59.24936
#
# Poissons Ratio (x) = 0.01290 0.37245
# Poissons Ratio (y) = 0.02011 0.49096
# Poissons Ratio (z) = 0.42504 0.35936
#
# Static dielectric constant tensor:
#      x y z
#    x 1.660500 0.000000 0.000000 
#    y 0.000000 1.579490 0.000000 
#    z 0.000000 0.000000 1.567110 
# 
# From -- ./inp_files/19000.got.cif
#   From: 2010.05.17/outbox.cif.g08.bks.cpg/sg54_10_cif.got.tgz:19000.got - 2010.06.03 13:09:01.
