data_PCOD9421692
_publ_section_title
;
Structure prediction by ZEFSAII (Michael W. Deem and Ramdas Pophale) SiO2 
 PCOD9421692
Probable space group: P C C A
;
_chemical_formula_sum "Si O2"
_cell_formula_units_Z 48
_cell_length_a 10.124675
_cell_length_b 8.917128
_cell_length_c 29.116167
_cell_angle_alpha 90.000000
_cell_angle_beta 90.000000
_cell_angle_gamma 90.000000
_cell_volume 2628.695573
_symmetry_space_group_name_H-M "P C C A"
_symmetry_group_IT_number 54
_symmetry_cell_setting 'orthorhombic'
loop_
_space_group_symop_operation_xyz
x,y,z
1/2-x,-y,z
1/2+x,-y,1/2-z
-x,y,1/2-z
-x,-y,-z
1/2+x,y,-z
1/2-x,y,1/2+z
x,-y,1/2+z
loop_
_atom_site_type_symbol
_atom_site_label
_atom_site_fract_x
_atom_site_fract_y
_atom_site_fract_z
Si Si1 0.510071 0.809983 0.453464
Si Si2 0.222946 0.322019 0.396960
Si Si3 0.655714 0.355214 0.802799
Si Si4 0.655290 0.644963 0.201295
Si Si5 0.023509 0.165982 0.939515
Si Si6 0.745515 0.821428 0.891402
O O1 0.407079 0.709162 0.426342
O O2 0.503871 0.784811 0.507761
O O3 0.655395 0.783798 0.433098
O O4 0.475268 0.984403 0.442498
O O5 0.250000 0.500000 0.396318
O O6 0.199303 0.269153 0.344444
O O7 0.342768 0.232745 0.419582
O O8 0.750000 0.500000 0.803999
O O9 0.499660 0.395039 0.806078
O O10 0.669088 0.282878 0.751803
O O11 0.701627 0.254859 0.845283
O O12 0.750000 0.500000 0.203237
O O13 0.902064 0.216990 0.907476
O O14 0.750000 0.000000 0.884989
#
# Coordination Sequence:
#
# PCOD9421692 Si02
#       6
#     8   8   8   8   8   8
#     4  10  20  41  59  80 110 156 192 227 274 339
#     4  11  22  36  57  87 117 142 184 241 283 326
#     4  10  20  37  63  81 110 153 189 228 279 339
#     4   9  20  37  58  85 113 146 190 226 279 342
#     4  10  22  37  61  81 112 153 194 223 275 345
#     4  10  21  36  57  85 113 143 189 238 280 326
#
# _framework density 18.260007000000002
#
# number of rings (size 3 to 8) (size 9 to 14) (size 15 to 20)
#    0.000    2.000    1.667    1.500    4.667    3.333 
#    0.000    3.333    0.000    0.000    0.000    0.000 
#    0.000    0.000    0.000    0.000    0.000    0.000 
#
# Total GULP energy -267665.836027 kJ/mol
# GULP energy per Si atom -5576.371584 kJ/mol
# Density = 1.821845 g / cm^3
# Si number density = 18.260007 Si / 1000 Ang^3
#
#
#
# Elastic Constant Matrix: (Units=GPa)
#
#
# Indices 1 2 3 4 5 6 
#
# 1 87.6738 21.0300 30.8269 0.0000 0.0000 0.0000
# 2 21.0300 11.3625 25.6021 0.0000 0.0000 0.0000
# 3 30.8269 25.6021 133.0471 0.0000 0.0000 0.0000
# 4 0.0000 0.0000 0.0000 19.8595 0.0000 0.0000
# 5 0.0000 0.0000 0.0000 0.0000 19.4501 0.0000
# 6 0.0000 0.0000 0.0000 0.0000 0.0000 24.3666
#
#
#
# Elastic Compliance Matrix: (Units=1/GPa)
#
#
# Indices 1 2 3 4 5 6 
#
# 1 0.022167 -0.052000 0.004870 0.000000 0.000000 0.000000
# 2 -0.052000 0.277364 -0.041324 0.000000 0.000000 0.000000
# 3 0.004870 -0.041324 0.014340 0.000000 0.000000 0.000000
# 4 0.000000 0.000000 0.000000 0.050354 0.000000 0.000000
# 5 0.000000 0.000000 0.000000 0.000000 0.051414 0.000000
# 6 0.000000 0.000000 0.000000 0.000000 0.000000 0.041040
#
#
# Mechanical properties :
#
#
# Convention : Reuss Voigt Hill
#
# Bulk Modulus (GPa) = 7.30131 43.00016 25.15074
# Shear Modulus (GPa) = 7.36116 23.04353 15.20235
#
# Velocity S-wave (km/s) = 2.00999 3.55627 2.88852
# Velocity P-wave (km/s) = 3.06495 6.36103 4.99283
#
# Compressibility (1/GPa) = 0.13696165
#
# Stress axis : x y z
#
# Youngs Moduli (GPa) = 45.11287 3.60537 69.73658
#
# Poissons Ratio (x) = 0.18748 -0.33965
# Poissons Ratio (y) = 2.34589 2.88182
# Poissons Ratio (z) = -0.21972 0.14899
#
# Static dielectric constant tensor:
#      x y z
#    x 1.612430 0.000000 0.000000 
#    y 0.000000 1.604840 0.000000 
#    z 0.000000 0.000000 1.641420 
# 
# From -- ./inp_files/27727.got.cif
#   From: 2010.05.17/outbox.cif.g08.bks.cpg/sg54_14_cif.got.tgz:27727.got - 2010.06.03 13:09:01.
