data_PCOD9421057
_publ_section_title
;
Structure prediction by ZEFSAII (Michael W. Deem and Ramdas Pophale) SiO2 
 PCOD9421057
Probable space group: P C C A
;
_chemical_formula_sum "Si O2"
_cell_formula_units_Z 60
_cell_length_a 14.370411
_cell_length_b 8.900388
_cell_length_c 24.329652
_cell_angle_alpha 90.000000
_cell_angle_beta 90.000000
_cell_angle_gamma 90.000000
_cell_volume 3111.816834
_symmetry_space_group_name_H-M "P C C A"
_symmetry_group_IT_number 54
_symmetry_cell_setting 'orthorhombic'
loop_
_space_group_symop_operation_xyz
x,y,z
1/2-x,-y,z
1/2+x,-y,1/2-z
-x,y,1/2-z
-x,-y,-z
1/2+x,y,-z
1/2-x,y,1/2+z
x,-y,1/2+z
loop_
_atom_site_type_symbol
_atom_site_label
_atom_site_fract_x
_atom_site_fract_y
_atom_site_fract_z
Si Si1 0.500000 0.743586 0.750000
Si Si2 0.613615 0.617714 0.536285
Si Si3 0.813667 0.287339 0.015226
Si Si4 0.518266 0.440779 0.360102
Si Si5 0.406849 0.234048 0.644501
Si Si6 0.648716 0.970228 0.789942
Si Si7 0.001477 0.148414 0.463088
Si Si8 0.803841 0.245579 0.888787
O O1 0.508675 0.642551 0.695936
O O2 0.588002 0.852927 0.756686
O O3 0.644026 0.456617 0.511299
O O4 0.712549 0.701854 0.542711
O O5 0.556201 0.590461 0.591884
O O6 0.549258 0.716091 0.496096
O O7 0.891505 0.192844 0.046335
O O8 0.803176 0.220314 0.954021
O O9 0.532071 0.617174 0.350668
O O10 0.618054 0.371264 0.377867
O O11 0.447977 0.138018 0.594023
O O12 0.301203 0.282712 0.629430
O O13 0.401160 0.127193 0.697268
O O14 0.667326 0.892682 0.849705
O O15 0.750000 0.000000 0.765149
O O16 0.000000 0.000000 0.500000
#
# Coordination Sequence:
#
# PCOD9421057 Si02
#       8
#     4   8   8   8   8   8   8   8
#     4  10  24  44  70  82 116 166 206 266 334 348
#     4  11  23  37  59  85 129 164 206 245 299 370
#     4  11  21  37  59  88 129 174 192 240 303 372
#     4  11  22  40  64  90 118 161 213 264 303 369
#     4  11  21  36  61  95 122 153 207 259 299 371
#     4   9  21  41  64  93 122 153 206 271 311 368
#     4  12  23  34  57  92 129 168 200 239 305 383
#     4  10  19  34  63  92 124 157 201 246 308 361
#
# _framework density 19.28134
#
# number of rings (size 3 to 8) (size 9 to 14) (size 15 to 20)
#    0.000    1.333    4.000    2.400    3.733    1.067 
#    0.000    1.333   17.600    0.000    0.000    0.000 
#    0.000    0.000    0.000    0.000    0.000    0.000 
#
# Total GULP energy -335111.798622 kJ/mol
# GULP energy per Si atom -5585.196644 kJ/mol
# Density = 1.923745 g / cm^3
# Si number density = 19.281340 Si / 1000 Ang^3
#
#
#
# Elastic Constant Matrix: (Units=GPa)
#
#
# Indices 1 2 3 4 5 6 
#
# 1 115.9594 37.7620 32.3318 0.0000 0.0000 0.0000
# 2 37.7620 47.1275 5.6493 0.0000 0.0000 0.0000
# 3 32.3318 5.6493 55.3569 0.0000 0.0000 0.0000
# 4 0.0000 0.0000 0.0000 15.1620 0.0000 0.0000
# 5 0.0000 0.0000 0.0000 0.0000 20.5322 0.0000
# 6 0.0000 0.0000 0.0000 0.0000 0.0000 32.7538
#
#
#
# Elastic Compliance Matrix: (Units=1/GPa)
#
#
# Indices 1 2 3 4 5 6 
#
# 1 0.013974 -0.010345 -0.007106 0.000000 0.000000 0.000000
# 2 -0.010345 0.029140 0.003068 0.000000 0.000000 0.000000
# 3 -0.007106 0.003068 0.021902 0.000000 0.000000 0.000000
# 4 0.000000 0.000000 0.000000 0.065954 0.000000 0.000000
# 5 0.000000 0.000000 0.000000 0.000000 0.048704 0.000000
# 6 0.000000 0.000000 0.000000 0.000000 0.000000 0.030531
#
#
# Mechanical properties :
#
#
# Convention : Reuss Voigt Hill
#
# Bulk Modulus (GPa) = 27.58558 41.10334 34.34446
# Shear Modulus (GPa) = 19.91604 23.20298 21.55951
#
# Velocity S-wave (km/s) = 3.21739 3.47276 3.34751
# Velocity P-wave (km/s) = 5.30472 6.11915 5.72643
#
# Compressibility (1/GPa) = 0.03625082
#
# Stress axis : x y z
#
# Youngs Moduli (GPa) = 71.56239 34.31653 45.65852
#
# Poissons Ratio (x) = 0.35501 0.32444
# Poissons Ratio (y) = 0.74032 -0.14009
# Poissons Ratio (z) = 0.50851 -0.10529
#
# Static dielectric constant tensor:
#      x y z
#    x 1.690550 0.000000 0.000000 
#    y 0.000000 1.699400 0.000000 
#    z 0.000000 0.000000 1.636160 
# 
# From -- ./inp_files/24482.got.cif
#   From: 2010.05.17/outbox.cif.g08.bks.cpg/sg54_13_cif.got.tgz:24482.got - 2010.06.03 13:09:01.
