data_PCOD9421797
_publ_section_title
;
Structure prediction by ZEFSAII (Michael W. Deem and Ramdas Pophale) SiO2 
 PCOD9421797
Probable space group: P C C A
;
_chemical_formula_sum "Si O2"
_cell_formula_units_Z 48
_cell_length_a 8.837511
_cell_length_b 14.975542
_cell_length_c 16.580895
_cell_angle_alpha 90.000000
_cell_angle_beta 90.000000
_cell_angle_gamma 90.000000
_cell_volume 2194.423705
_symmetry_space_group_name_H-M "P C C A"
_symmetry_group_IT_number 54
_symmetry_cell_setting 'orthorhombic'
loop_
_space_group_symop_operation_xyz
x,y,z
1/2-x,-y,z
1/2+x,-y,1/2-z
-x,y,1/2-z
-x,-y,-z
1/2+x,y,-z
1/2-x,y,1/2+z
x,-y,1/2+z
loop_
_atom_site_type_symbol
_atom_site_label
_atom_site_fract_x
_atom_site_fract_y
_atom_site_fract_z
Si Si1 0.363624 0.654885 0.384732
Si Si2 0.250000 0.000000 0.478120
Si Si3 0.990624 0.120167 0.927513
Si Si4 0.677308 0.418770 0.255987
Si Si5 0.788898 0.221283 0.827937
Si Si6 0.119366 0.287799 0.015157
Si Si7 0.000000 0.788335 0.750000
O O1 0.290167 0.586227 0.321632
O O2 0.503475 0.639474 0.446649
O O3 0.221498 0.682858 0.439952
O O4 0.437938 0.728805 0.324863
O O5 0.359359 0.940854 0.534322
O O6 0.142986 0.936870 0.425428
O O7 0.934921 0.162272 0.844152
O O8 0.022425 0.202932 0.986846
O O9 0.750000 0.500000 0.307227
O O10 0.500000 0.438363 0.250000
O O11 0.683605 0.316613 0.286526
O O12 0.728348 0.251465 0.915391
O O13 0.652312 0.168431 0.784380
#
# Coordination Sequence:
#
# PCOD9421797 Si02
#       7
#     8   4   8   8   8   8   4
#     4  10  21  38  63  98 127 169 230 283 336 403
#     4  10  22  32  56 106 148 158 210 286 348 400
#     4  11  19  36  59 100 138 173 214 276 333 415
#     4  11  26  43  65  93 131 180 236 286 350 417
#     4  10  20  38  64  93 129 180 233 274 341 416
#     4  11  19  35  67  96 130 169 229 279 329 410
#     4   8  20  36  60  94 128 172 238 280 328 410
#
# _framework density 21.873625000000001
#
# number of rings (size 3 to 8) (size 9 to 14) (size 15 to 20)
#    0.000    1.667    3.333    1.000    7.000    0.000 
#    0.000    1.667    0.000    0.000   10.833    1.167 
#    0.000    0.000    0.000    0.000    0.000    0.000 
#
# Total GULP energy -267479.203140 kJ/mol
# GULP energy per Si atom -5572.483399 kJ/mol
# Density = 2.182384 g / cm^3
# Si number density = 21.873625 Si / 1000 Ang^3
#
#
#
# Elastic Constant Matrix: (Units=GPa)
#
#
# Indices 1 2 3 4 5 6 
#
# 1 142.3527 46.4164 33.9149 0.0000 0.0000 0.0000
# 2 46.4164 51.8020 17.7444 0.0000 0.0000 0.0000
# 3 33.9149 17.7444 66.9904 0.0000 0.0000 0.0000
# 4 0.0000 0.0000 0.0000 10.5216 0.0000 0.0000
# 5 0.0000 0.0000 0.0000 0.0000 52.4351 0.0000
# 6 0.0000 0.0000 0.0000 0.0000 0.0000 35.9167
#
#
#
# Elastic Compliance Matrix: (Units=1/GPa)
#
#
# Indices 1 2 3 4 5 6 
#
# 1 0.010478 -0.008327 -0.003099 0.000000 0.000000 0.000000
# 2 -0.008327 0.027849 -0.003161 0.000000 0.000000 0.000000
# 3 -0.003099 -0.003161 0.017334 0.000000 0.000000 0.000000
# 4 0.000000 0.000000 0.000000 0.095042 0.000000 0.000000
# 5 0.000000 0.000000 0.000000 0.000000 0.019071 0.000000
# 6 0.000000 0.000000 0.000000 0.000000 0.000000 0.027842
#
#
# Mechanical properties :
#
#
# Convention : Reuss Voigt Hill
#
# Bulk Modulus (GPa) = 37.75529 50.81070 44.28299
# Shear Modulus (GPa) = 21.22063 30.64598 25.93331
#
# Velocity S-wave (km/s) = 3.11810 3.74712 3.44699
# Velocity P-wave (km/s) = 5.50104 6.48080 6.01092
#
# Compressibility (1/GPa) = 0.02648636
#
# Stress axis : x y z
#
# Youngs Moduli (GPa) = 95.43389 35.90844 57.69121
#
# Poissons Ratio (x) = 0.29903 0.17879
# Poissons Ratio (y) = 0.79472 0.18234
# Poissons Ratio (z) = 0.29576 0.11349
#
# Static dielectric constant tensor:
#      x y z
#    x 1.874660 0.000000 0.000000 
#    y 0.000000 1.835470 0.000000 
#    z 0.000000 0.000000 1.838960 
# 
# From -- ./inp_files/16680.got.cif
#   From: 2010.05.17/outbox.cif.g08.bks.cpg/sg54_9_cif.got.tgz:16680.got - 2010.06.03 13:09:01.
