data_PCOD9421798
_publ_section_title
;
Structure prediction by ZEFSAII (Michael W. Deem and Ramdas Pophale) SiO2 
 PCOD9421798
Probable space group: P C C A
;
_chemical_formula_sum "Si O2"
_cell_formula_units_Z 60
_cell_length_a 19.085039
_cell_length_b 17.869126
_cell_length_c 8.978798
_cell_angle_alpha 90.000000
_cell_angle_beta 90.000000
_cell_angle_gamma 90.000000
_cell_volume 3062.066118
_symmetry_space_group_name_H-M "P C C A"
_symmetry_group_IT_number 54
_symmetry_cell_setting 'orthorhombic'
loop_
_space_group_symop_operation_xyz
x,y,z
1/2-x,-y,z
1/2+x,-y,1/2-z
-x,y,1/2-z
-x,-y,-z
1/2+x,y,-z
1/2-x,y,1/2+z
x,-y,1/2+z
loop_
_atom_site_type_symbol
_atom_site_label
_atom_site_fract_x
_atom_site_fract_y
_atom_site_fract_z
Si Si1 0.750000 0.500000 0.451751
Si Si2 0.311081 0.400204 0.807004
Si Si3 0.925100 0.282307 0.174310
Si Si4 0.419166 0.073582 0.215893
Si Si5 0.572115 0.747901 0.825993
Si Si6 0.793355 0.263164 0.640771
Si Si7 0.670733 0.028293 0.996847
Si Si8 0.185279 0.181797 0.170697
O O1 0.805857 0.539319 0.561107
O O2 0.714928 0.560769 0.343561
O O3 0.384161 0.358441 0.786737
O O4 0.257995 0.333771 0.854122
O O5 0.880351 0.212587 0.237221
O O6 0.000000 0.280717 0.250000
O O7 0.926763 0.275834 0.996697
O O8 0.500000 0.048821 0.250000
O O9 0.422901 0.161956 0.184117
O O10 0.370313 0.057505 0.358488
O O11 0.379669 0.032877 0.080106
O O12 0.500000 0.724435 0.750000
O O13 0.637124 0.717678 0.731378
O O14 0.808152 0.234050 0.475672
O O15 0.753098 0.196972 0.728599
O O16 0.750000 0.000000 0.028770
O O17 0.677975 0.097393 0.882186
#
# Coordination Sequence:
#
# PCOD9421798 Si02
#       8
#     4   8   8   8   8   8   8   8
#     4  10  20  38  64  94 132 162 206 248 304 378
#     4  10  21  38  64  96 126 167 206 251 307 376
#     4  11  24  41  66  95 127 167 215 261 321 381
#     4  11  26  44  63  86 126 170 221 267 347 408
#     4  11  23  41  62  90 126 165 213 274 323 382
#     4  11  20  40  62  92 123 161 213 260 314 371
#     4  12  26  42  62  92 123 169 220 279 333 400
#     4  11  24  38  64  90 125 165 210 273 321 375
#
# _framework density 19.594612999999999
#
# number of rings (size 3 to 8) (size 9 to 14) (size 15 to 20)
#    0.000    1.067    1.333    6.400    5.600    0.533 
#    0.000    0.667    0.000    3.200    0.000    0.000 
#    0.000    0.000    0.000    0.000    0.000    0.000 
#
# Total GULP energy -335626.566770 kJ/mol
# GULP energy per Si atom -5593.776113 kJ/mol
# Density = 1.955002 g / cm^3
# Si number density = 19.594613 Si / 1000 Ang^3
#
#
#
# Elastic Constant Matrix: (Units=GPa)
#
#
# Indices 1 2 3 4 5 6 
#
# 1 133.1886 3.2273 14.9366 0.0000 0.0000 0.0000
# 2 3.2273 32.2596 -10.5990 0.0000 0.0000 0.0000
# 3 14.9366 -10.5990 68.4682 0.0000 0.0000 0.0000
# 4 0.0000 0.0000 0.0000 16.4414 0.0000 0.0000
# 5 0.0000 0.0000 0.0000 0.0000 36.3411 0.0000
# 6 0.0000 0.0000 0.0000 0.0000 0.0000 21.5443
#
#
#
# Elastic Compliance Matrix: (Units=1/GPa)
#
#
# Indices 1 2 3 4 5 6 
#
# 1 0.007756 -0.001403 -0.001909 0.000000 0.000000 0.000000
# 2 -0.001403 0.032913 0.005401 0.000000 0.000000 0.000000
# 3 -0.001909 0.005401 0.015858 0.000000 0.000000 0.000000
# 4 0.000000 0.000000 0.000000 0.060822 0.000000 0.000000
# 5 0.000000 0.000000 0.000000 0.000000 0.027517 0.000000
# 6 0.000000 0.000000 0.000000 0.000000 0.000000 0.046416
#
#
# Mechanical properties :
#
#
# Convention : Reuss Voigt Hill
#
# Bulk Modulus (GPa) = 16.47312 27.67180 22.07246
# Shear Modulus (GPa) = 24.11492 29.95546 27.03519
#
# Velocity S-wave (km/s) = 3.51193 3.91418 3.71850
# Velocity P-wave (km/s) = 4.98699 5.88052 5.45209
#
# Compressibility (1/GPa) = 0.06070495
#
# Stress axis : x y z
#
# Youngs Moduli (GPa) = 128.92789 30.38271 63.05990
#
# Poissons Ratio (x) = 0.04263 0.12040
# Poissons Ratio (y) = 0.18092 -0.34060
# Poissons Ratio (z) = 0.24616 -0.16410
#
# Static dielectric constant tensor:
#      x y z
#    x 1.648460 0.000000 0.000000 
#    y 0.000000 1.693500 0.000000 
#    z 0.000000 0.000000 1.659630 
# 
# From -- ./inp_files/4359.got.cif
#   From: 2010.05.17/outbox.cif.g08.bks.cpg/sg54_3_cif.got.tgz:4359.got - 2010.06.03 13:09:01.
