data_PCOD9421792
_publ_section_title
;
Structure prediction by ZEFSAII (Michael W. Deem and Ramdas Pophale) SiO2 
 PCOD9421792
Probable space group: P C C A
;
_chemical_formula_sum "Si O2"
_cell_formula_units_Z 48
_cell_length_a 14.187463
_cell_length_b 9.674213
_cell_length_c 14.611503
_cell_angle_alpha 90.000000
_cell_angle_beta 90.000000
_cell_angle_gamma 90.000000
_cell_volume 2005.465885
_symmetry_space_group_name_H-M "P C C A"
_symmetry_group_IT_number 54
_symmetry_cell_setting 'orthorhombic'
loop_
_space_group_symop_operation_xyz
x,y,z
1/2-x,-y,z
1/2+x,-y,1/2-z
-x,y,1/2-z
-x,-y,-z
1/2+x,y,-z
1/2-x,y,1/2+z
x,-y,1/2+z
loop_
_atom_site_type_symbol
_atom_site_label
_atom_site_fract_x
_atom_site_fract_y
_atom_site_fract_z
Si Si1 0.102443 0.810535 0.842870
Si Si2 0.859445 0.539706 0.378978
Si Si3 0.362399 0.487895 0.327599
Si Si4 0.590923 0.295242 0.003310
Si Si5 0.381274 0.105077 0.647346
Si Si6 0.892197 0.165811 0.960047
O O1 0.103030 0.643817 0.847488
O O2 0.153165 0.856438 0.748964
O O3 0.993545 0.860684 0.843678
O O4 0.144666 0.865964 0.937911
O O5 0.750000 0.500000 0.378631
O O6 0.893993 0.548944 0.275030
O O7 0.919578 0.427770 0.435611
O O8 0.862019 0.684426 0.428440
O O9 0.250000 0.500000 0.326359
O O10 0.382889 0.370546 0.402443
O O11 0.655165 0.199759 0.936657
O O12 0.504939 0.192759 0.027822
O O13 0.369920 0.949304 0.614451
#
# Coordination Sequence:
#
# PCOD9421792 Si02
#       6
#     8   8   8   8   8   8
#     4  10  20  38  64  89 130 167 210 265 338 374
#     4  11  24  41  64  95 133 169 219 270 325 388
#     4  11  24  39  65  95 128 172 219 268 323 390
#     4  11  21  40  66  96 123 166 222 266 321 383
#     4  10  23  39  64  94 133 165 206 276 327 384
#     4  11  24  40  66  99 127 170 220 266 329 393
#
# _framework density 23.934588000000002
#
# number of rings (size 3 to 8) (size 9 to 14) (size 15 to 20)
#    0.000    1.333    3.333    3.000    2.333    4.667 
#    0.000    0.833    3.667    4.000    0.000    0.000 
#    0.000    0.000    0.000    0.000    0.000    0.000 
#
# Total GULP energy -268214.173845 kJ/mol
# GULP energy per Si atom -5587.795288 kJ/mol
# Density = 2.388011 g / cm^3
# Si number density = 23.934588 Si / 1000 Ang^3
#
#
#
# Elastic Constant Matrix: (Units=GPa)
#
#
# Indices 1 2 3 4 5 6 
#
# 1 29.0611 -11.3388 -9.9754 0.0000 0.0000 0.0000
# 2 -11.3388 109.3286 22.7345 0.0000 0.0000 0.0000
# 3 -9.9754 22.7345 131.9181 0.0000 0.0000 0.0000
# 4 0.0000 0.0000 0.0000 50.7260 0.0000 0.0000
# 5 0.0000 0.0000 0.0000 0.0000 1.0982 0.0000
# 6 0.0000 0.0000 0.0000 0.0000 0.0000 3.2654
#
#
#
# Elastic Compliance Matrix: (Units=1/GPa)
#
#
# Indices 1 2 3 4 5 6 
#
# 1 0.036458 0.003327 0.002184 0.000000 0.000000 0.000000
# 2 0.003327 0.009790 -0.001436 0.000000 0.000000 0.000000
# 3 0.002184 -0.001436 0.007993 0.000000 0.000000 0.000000
# 4 0.000000 0.000000 0.000000 0.019714 0.000000 0.000000
# 5 0.000000 0.000000 0.000000 0.000000 0.910589 0.000000
# 6 0.000000 0.000000 0.000000 0.000000 0.000000 0.306244
#
#
# Mechanical properties :
#
#
# Convention : Reuss Voigt Hill
#
# Bulk Modulus (GPa) = 16.02791 30.34982 23.18886
# Shear Modulus (GPa) = 3.83602 28.94375 16.38988
#
# Velocity S-wave (km/s) = 1.26735 3.48125 2.61967
# Velocity P-wave (km/s) = 2.97534 5.37277 4.34277
#
# Compressibility (1/GPa) = 0.06239118
#
# Stress axis : x y z
#
# Youngs Moduli (GPa) = 27.42886 102.14153 125.10957
#
# Poissons Ratio (x) = -0.33984 -0.27318
# Poissons Ratio (y) = -0.09126 0.17961
# Poissons Ratio (z) = -0.05989 0.14664
#
# Static dielectric constant tensor:
#      x y z
#    x 2.033650 0.000000 0.000000 
#    y 0.000000 1.860260 0.000000 
#    z 0.000000 0.000000 1.972470 
# 
# From -- ./inp_files/14546.got.cif
#   From: 2010.05.17/outbox.cif.g08.bks.cpg/sg54_8_cif.got.tgz:14546.got - 2010.06.03 13:09:01.
