data_PCOD9421661
_publ_section_title
;
Structure prediction by ZEFSAII (Michael W. Deem and Ramdas Pophale) SiO2 
 PCOD9421661
Probable space group: P C C A
;
_chemical_formula_sum "Si O2"
_cell_formula_units_Z 64
_cell_length_a 24.130856
_cell_length_b 9.066034
_cell_length_c 15.684258
_cell_angle_alpha 90.000000
_cell_angle_beta 90.000000
_cell_angle_gamma 90.000000
_cell_volume 3431.263331
_symmetry_space_group_name_H-M "P C C A"
_symmetry_group_IT_number 54
_symmetry_cell_setting 'orthorhombic'
loop_
_space_group_symop_operation_xyz
x,y,z
1/2-x,-y,z
1/2+x,-y,1/2-z
-x,y,1/2-z
-x,-y,-z
1/2+x,y,-z
1/2-x,y,1/2+z
x,-y,1/2+z
loop_
_atom_site_type_symbol
_atom_site_label
_atom_site_fract_x
_atom_site_fract_y
_atom_site_fract_z
Si Si1 0.314990 0.676700 0.007395
Si Si2 0.378980 0.176127 0.162911
Si Si3 0.878980 0.176127 0.337088
Si Si4 0.685010 0.323301 0.492605
Si Si5 0.496959 0.174162 0.898088
Si Si6 0.503041 0.174162 0.101912
Si Si7 0.885231 0.676075 0.660328
Si Si8 0.114769 0.676075 0.339672
O O1 0.342226 0.758820 0.087022
O O2 0.250000 0.710173 0.000065
O O3 0.321049 0.500000 0.019362
O O4 0.347480 0.716339 0.920935
O O5 0.443421 0.210260 0.141569
O O6 0.364887 0.248113 0.253238
O O7 0.373480 0.000000 0.166278
O O8 0.342226 0.241180 0.087022
O O9 0.864887 0.248113 0.246761
O O10 0.943421 0.210260 0.358431
O O11 0.652520 0.283661 0.579065
O O12 0.447152 0.267519 0.859401
O O13 0.485878 0.000000 0.882918
O O14 0.500000 0.196948 1.000000
O O15 0.552848 0.267518 0.140599
O O16 0.884560 0.500000 0.669963
#
# Coordination Sequence:
#
# PCOD9421661 Si02
#       8
#     8   8   8   8   8   8   8   8
#     4  10  23  43  63  84 115 156 200 246 295 347
#     4  11  23  39  62  90 121 156 197 243 297 355
#     4  11  23  39  62  90 121 156 197 243 297 355
#     4  10  23  43  63  84 115 156 200 246 295 347
#     4  10  20  37  60  87 122 160 194 240 301 357
#     4  10  20  37  60  87 122 160 194 240 301 357
#     4  11  23  38  61  91 122 157 199 244 296 358
#     4  11  23  38  61  91 122 157 199 244 296 358
#
# _framework density 18.652023
#
# number of rings (size 3 to 8) (size 9 to 14) (size 15 to 20)
#    0.000    1.500    2.500    2.250    0.000    8.000 
#    0.000    2.500    0.000    0.000    0.000    0.000 
#    0.000    0.000    0.000    0.000    0.000    0.000 
#
# Total GULP energy -357850.704213 kJ/mol
# GULP energy per Si atom -5591.417253 kJ/mol
# Density = 1.860957 g / cm^3
# Si number density = 18.652023 Si / 1000 Ang^3
#
#
#
# Elastic Constant Matrix: (Units=GPa)
#
#
# Indices 1 2 3 4 5 6 
#
# 1 94.3281 48.2335 59.1778 0.0000 0.0000 0.0000
# 2 48.2335 44.9112 62.8111 0.0000 0.0000 0.0000
# 3 59.1778 62.8111 155.3846 0.0000 0.0000 0.0000
# 4 0.0000 0.0000 0.0000 32.6519 0.0000 0.0000
# 5 0.0000 0.0000 0.0000 0.0000 -3.2577 0.0000
# 6 0.0000 0.0000 0.0000 0.0000 0.0000 35.6335
#
#
#
# Elastic Compliance Matrix: (Units=1/GPa)
#
#
# Indices 1 2 3 4 5 6 
#
# 1 0.024090 -0.030002 0.002953 0.000000 0.000000 0.000000
# 2 -0.030002 0.088593 -0.024386 0.000000 0.000000 0.000000
# 3 0.002953 -0.024386 0.015168 0.000000 0.000000 0.000000
# 4 0.000000 0.000000 0.000000 0.030626 0.000000 0.000000
# 5 0.000000 0.000000 0.000000 0.000000 -0.306966 0.000000
# 6 0.000000 0.000000 0.000000 0.000000 0.000000 0.028063
#
#
# Mechanical properties :
#
#
# Convention : Reuss Voigt Hill
#
# Bulk Modulus (GPa) = 40.02931 70.56319 55.29625
# Shear Modulus (GPa) = -541.70275 21.29898 -260.20188
#
# Velocity S-wave (km/s) = -17.06037 3.38289 -11.82397
# Velocity P-wave (km/s) = 19.14595 7.29192 12.51789
#
# Compressibility (1/GPa) = 0.02498170
#
# Stress axis : x y z
#
# Youngs Moduli (GPa) = 41.51142 11.28763 65.92708
#
# Poissons Ratio (x) = 0.33865 -0.19470
# Poissons Ratio (y) = 1.24543 1.60767
# Poissons Ratio (z) = -0.12259 0.27526
#
# Static dielectric constant tensor:
#      x y z
#    x 1.615470 0.000000 0.000000 
#    y 0.000000 1.621750 0.000000 
#    z 0.000000 0.000000 1.630970 
# 
# From -- ./inp_files/15005.got.cif
#   From: 2010.05.17/outbox.cif.g08.bks.cpg/sg54_8_cif.got.tgz:15005.got - 2010.06.03 13:09:01.
