data_PCOD9421117
_publ_section_title
;
Structure prediction by ZEFSAII (Michael W. Deem and Ramdas Pophale) SiO2 
 PCOD9421117
Probable space group: P C C A
;
_chemical_formula_sum "Si O2"
_cell_formula_units_Z 32
_cell_length_a 5.357283
_cell_length_b 18.900518
_cell_length_c 13.107718
_cell_angle_alpha 90.000000
_cell_angle_beta 90.000000
_cell_angle_gamma 90.000000
_cell_volume 1327.227541
_symmetry_space_group_name_H-M "P C C A"
_symmetry_group_IT_number 54
_symmetry_cell_setting 'orthorhombic'
loop_
_space_group_symop_operation_xyz
x,y,z
1/2-x,-y,z
1/2+x,-y,1/2-z
-x,y,1/2-z
-x,-y,-z
1/2+x,y,-z
1/2-x,y,1/2+z
x,-y,1/2+z
loop_
_atom_site_type_symbol
_atom_site_label
_atom_site_fract_x
_atom_site_fract_y
_atom_site_fract_z
Si Si1 0.359372 0.921962 0.123947
Si Si2 0.248209 0.278767 0.316064
Si Si3 0.695299 0.424780 0.565969
Si Si4 0.139229 0.866810 0.393010
O O1 0.641282 0.911120 0.161989
O O2 0.135583 0.869971 0.155143
O O3 0.250000 0.000000 0.134766
O O4 0.396157 0.902355 0.003600
O O5 0.500000 0.278358 0.250000
O O6 0.226266 0.354968 0.367887
O O7 0.270668 0.213939 0.395772
O O8 0.000000 0.266297 0.250000
O O9 0.750000 0.500000 0.620569
O O10 0.415929 0.423671 0.519385
#
# Coordination Sequence:
#
# PCOD9421117 Si02
#       4
#     8   8   8   8
#     4  10  19  35  62  90 111 153 215 268 310 361
#     4  12  26  41  61  93 136 174 203 249 318 390
#     4  10  23  43  70  98 126 162 215 268 303 356
#     4  10  20  33  57  85 119 153 201 261 301 361
#
# _framework density 24.110410000000002
#
# number of rings (size 3 to 8) (size 9 to 14) (size 15 to 20)
#    0.000    1.500    0.000    6.750    7.000    1.000 
#    0.000    0.000    0.000   25.500    0.000    0.000 
#    0.000    0.000    0.000    0.000    0.000    0.000 
#
# Total GULP energy -179021.841555 kJ/mol
# GULP energy per Si atom -5594.432549 kJ/mol
# Density = 2.405553 g / cm^3
# Si number density = 24.110410 Si / 1000 Ang^3
#
#
#
# Elastic Constant Matrix: (Units=GPa)
#
#
# Indices 1 2 3 4 5 6 
#
# 1 186.1178 11.0306 14.7362 0.0000 0.0000 0.0000
# 2 11.0306 181.4042 5.9823 0.0000 0.0000 0.0000
# 3 14.7362 5.9823 27.4501 0.0000 0.0000 0.0000
# 4 0.0000 0.0000 0.0000 28.1569 0.0000 0.0000
# 5 0.0000 0.0000 0.0000 0.0000 35.7637 0.0000
# 6 0.0000 0.0000 0.0000 0.0000 0.0000 39.5210
#
#
#
# Elastic Compliance Matrix: (Units=1/GPa)
#
#
# Indices 1 2 3 4 5 6 
#
# 1 0.005622 -0.000244 -0.002965 0.000000 0.000000 0.000000
# 2 -0.000244 0.005563 -0.001081 0.000000 0.000000 0.000000
# 3 -0.002965 -0.001081 0.038257 0.000000 0.000000 0.000000
# 4 0.000000 0.000000 0.000000 0.035515 0.000000 0.000000
# 5 0.000000 0.000000 0.000000 0.000000 0.027961 0.000000
# 6 0.000000 0.000000 0.000000 0.000000 0.000000 0.025303
#
#
# Mechanical properties :
#
#
# Convention : Reuss Voigt Hill
#
# Bulk Modulus (GPa) = 24.47294 50.94116 37.70705
# Shear Modulus (GPa) = 31.16757 44.90319 38.03538
#
# Velocity S-wave (km/s) = 3.59932 4.32023 3.97615
# Velocity P-wave (km/s) = 5.23888 6.78675 6.06242
#
# Compressibility (1/GPa) = 0.04086146
#
# Stress axis : x y z
#
# Youngs Moduli (GPa) = 177.86741 179.75733 26.13896
#
# Poissons Ratio (x) = 0.04388 0.07750
# Poissons Ratio (y) = 0.04342 0.02827
# Poissons Ratio (z) = 0.52737 0.19438
#
# Static dielectric constant tensor:
#      x y z
#    x 1.977230 0.000000 0.000000 
#    y 0.000000 1.878380 0.000000 
#    z 0.000000 0.000000 -8.847370 
# 
# From -- ./inp_files/10756.got.cif
#   From: 2010.05.17/outbox.cif.g08.bks.cpg/sg54_6_cif.got.tgz:10756.got - 2010.06.03 13:09:01.
