data_PCOD9421589
_publ_section_title
;
Structure prediction by ZEFSAII (Michael W. Deem and Ramdas Pophale) SiO2 
 PCOD9421589
Probable space group: P C C A
;
_chemical_formula_sum "Si O2"
_cell_formula_units_Z 40
_cell_length_a 21.127238
_cell_length_b 8.399665
_cell_length_c 9.581151
_cell_angle_alpha 90.000000
_cell_angle_beta 90.000000
_cell_angle_gamma 90.000000
_cell_volume 1700.287551
_symmetry_space_group_name_H-M "P C C A"
_symmetry_group_IT_number 54
_symmetry_cell_setting 'orthorhombic'
loop_
_space_group_symop_operation_xyz
x,y,z
1/2-x,-y,z
1/2+x,-y,1/2-z
-x,y,1/2-z
-x,-y,-z
1/2+x,y,-z
1/2-x,y,1/2+z
x,-y,1/2+z
loop_
_atom_site_type_symbol
_atom_site_label
_atom_site_fract_x
_atom_site_fract_y
_atom_site_fract_z
Si Si1 0.750000 0.000000 1.000000
Si Si2 0.346102 0.253316 0.504467
Si Si3 0.153898 0.746684 0.995534
Si Si4 0.072301 0.714059 0.250000
Si Si5 0.073112 0.900075 0.750000
Si Si6 0.750000 0.500000 0.500000
O O1 0.799520 0.877378 0.069240
O O2 0.700480 0.877378 0.930759
O O3 0.389526 0.332739 0.387610
O O4 0.390153 0.166327 0.615774
O O5 0.298437 0.379735 0.574473
O O6 0.109847 0.833673 0.884226
O O7 0.110474 0.667261 0.112389
O O8 0.201563 0.620266 0.925527
O O9 0.000000 0.658201 0.250000
O O10 0.071815 0.908068 0.250000
O O11 0.000000 0.846699 0.750000
#
# Coordination Sequence:
#
# PCOD9421589 Si02
#       6
#     4   8   8   8   8   4
#     4  10  20  36  62  88 116 164 208 246 308 352
#     4  11  23  41  64  93 126 169 205 261 308 372
#     4  11  23  41  64  93 126 169 205 261 308 372
#     4  11  22  40  67  97 125 159 212 265 310 366
#     4  11  22  40  67  97 125 159 212 265 310 366
#     4  10  28  44  62  92 136 164 212 254 312 376
#
# _framework density 23.525433
#
# number of rings (size 3 to 8) (size 9 to 14) (size 15 to 20)
#    0.000    1.200    4.000    1.200    0.000   14.400 
#    0.000    6.000    0.000    0.000    0.000    0.000 
#    0.000    0.000    0.000    0.000    0.000    0.000 
#
# Total GULP energy -223062.505991 kJ/mol
# GULP energy per Si atom -5576.562650 kJ/mol
# Density = 2.347189 g / cm^3
# Si number density = 23.525433 Si / 1000 Ang^3
#
#
#
# Elastic Constant Matrix: (Units=GPa)
#
#
# Indices 1 2 3 4 5 6 
#
# 1 204.0447 50.2931 51.2640 0.0000 0.0000 0.0000
# 2 50.2931 70.1502 1.5457 0.0000 0.0000 0.0000
# 3 51.2640 1.5457 98.9079 0.0000 0.0000 0.0000
# 4 0.0000 0.0000 0.0000 765.2696 0.0000 0.0000
# 5 0.0000 0.0000 0.0000 0.0000 42.3686 0.0000
# 6 0.0000 0.0000 0.0000 0.0000 0.0000 43.2325
#
#
#
# Elastic Compliance Matrix: (Units=1/GPa)
#
#
# Indices 1 2 3 4 5 6 
#
# 1 0.007015 -0.004951 -0.003559 0.000000 0.000000 0.000000
# 2 -0.004951 0.017754 0.002289 0.000000 0.000000 0.000000
# 3 -0.003559 0.002289 0.011919 0.000000 0.000000 0.000000
# 4 0.000000 0.000000 0.000000 0.001307 0.000000 0.000000
# 5 0.000000 0.000000 0.000000 0.000000 0.023602 0.000000
# 6 0.000000 0.000000 0.000000 0.000000 0.000000 0.023131
#
#
# Mechanical properties :
#
#
# Convention : Reuss Voigt Hill
#
# Bulk Modulus (GPa) = 41.24289 64.36760 52.80525
# Shear Modulus (GPa) = 47.50461 188.17415 117.83938
#
# Velocity S-wave (km/s) = 4.49852 8.95328 7.08512
# Velocity P-wave (km/s) = 6.67469 11.58887 9.45657
#
# Compressibility (1/GPa) = 0.02424660
#
# Stress axis : x y z
#
# Youngs Moduli (GPa) = 142.54524 56.32433 83.89889
#
# Poissons Ratio (x) = 0.27887 0.29857
# Poissons Ratio (y) = 0.70576 -0.19202
# Poissons Ratio (z) = 0.50727 -0.12891
#
# Static dielectric constant tensor:
#      x y z
#    x 1.860510 0.000000 0.000000 
#    y 0.000000 1.945950 0.000000 
#    z 0.000000 0.000000 1.843760 
# 
# From -- ./inp_files/5054.got.cif
#   From: 2010.05.17/outbox.cif.g08.bks.cpg/sg54_3_cif.got.tgz:5054.got - 2010.06.03 13:09:01.
