data_PCOD9421898
_publ_section_title
;
Structure prediction by ZEFSAII (Michael W. Deem and Ramdas Pophale) SiO2 
 PCOD9421898
Probable space group: P C C A
;
_chemical_formula_sum "Si O2"
_cell_formula_units_Z 56
_cell_length_a 30.909436
_cell_length_b 5.458728
_cell_length_c 15.503356
_cell_angle_alpha 90.000000
_cell_angle_beta 90.000000
_cell_angle_gamma 90.000000
_cell_volume 2615.822403
_symmetry_space_group_name_H-M "P C C A"
_symmetry_group_IT_number 54
_symmetry_cell_setting 'orthorhombic'
loop_
_space_group_symop_operation_xyz
x,y,z
1/2-x,-y,z
1/2+x,-y,1/2-z
-x,y,1/2-z
-x,-y,-z
1/2+x,y,-z
1/2-x,y,1/2+z
x,-y,1/2+z
loop_
_atom_site_type_symbol
_atom_site_label
_atom_site_fract_x
_atom_site_fract_y
_atom_site_fract_z
Si Si1 0.689461 0.609724 0.824885
Si Si2 0.589195 0.482934 0.084111
Si Si3 0.950251 0.976188 0.524904
Si Si4 0.294145 0.127552 0.345167
Si Si5 0.673807 0.627450 0.488747
Si Si6 0.621736 0.016679 0.381769
Si Si7 0.641234 0.749786 0.219594
O O1 0.712022 0.777616 0.753380
O O2 0.701848 0.529620 0.921161
O O3 0.681465 0.365549 0.770525
O O4 0.643738 0.740152 0.844840
O O5 0.566218 0.219777 0.075781
O O6 0.615395 0.539249 0.170996
O O7 0.558495 0.718089 0.072207
O O8 0.627346 0.492270 0.012247
O O9 0.920140 0.963254 0.440104
O O10 0.000000 0.000000 0.500000
O O11 0.303930 0.323645 0.419814
O O12 0.250000 0.000000 0.371271
O O13 0.336678 0.951156 0.342271
O O14 0.658588 0.876402 0.439340
O O15 0.612604 0.863768 0.295157
#
# Coordination Sequence:
#
# PCOD9421898 Si02
#       7
#     8   8   8   8   8   8   8
#     4  10  20  40  66  91 126 177 236 277 337 421
#     4  11  21  40  70  93 128 183 238 270 341 433
#     4  11  23  40  66 101 140 175 227 300 358 404
#     4  11  24  41  64  98 140 173 227 303 361 405
#     4  10  20  39  67  93 123 183 230 273 334 428
#     4   9  20  37  65  92 128 173 229 273 333 427
#     4  10  21  39  67  90 124 179 233 278 336 422
#
# _framework density 21.408182
#
# number of rings (size 3 to 8) (size 9 to 14) (size 15 to 20)
#    0.000    1.714    2.857    2.143    2.000    0.571 
#    0.000    8.571    6.286    0.000    0.000    0.000 
#    0.000    0.000    0.000    0.000    0.000    0.000 
#
# Total GULP energy -312248.728717 kJ/mol
# GULP energy per Si atom -5575.870156 kJ/mol
# Density = 2.135946 g / cm^3
# Si number density = 21.408182 Si / 1000 Ang^3
#
#
#
# Elastic Constant Matrix: (Units=GPa)
#
#
# Indices 1 2 3 4 5 6 
#
# 1 87.0250 26.3340 24.3679 0.0000 0.0000 0.0000
# 2 26.3340 89.8524 37.0862 0.0000 0.0000 0.0000
# 3 24.3679 37.0862 101.5199 0.0000 0.0000 0.0000
# 4 0.0000 0.0000 0.0000 44.7824 0.0000 0.0000
# 5 0.0000 0.0000 0.0000 0.0000 -2.2325 0.0000
# 6 0.0000 0.0000 0.0000 0.0000 0.0000 19.6039
#
#
#
# Elastic Compliance Matrix: (Units=1/GPa)
#
#
# Indices 1 2 3 4 5 6 
#
# 1 0.012954 -0.002960 -0.002028 0.000000 0.000000 0.000000
# 2 -0.002960 0.013782 -0.004324 0.000000 0.000000 0.000000
# 3 -0.002028 -0.004324 0.011917 0.000000 0.000000 0.000000
# 4 0.000000 0.000000 0.000000 0.022330 0.000000 0.000000
# 5 0.000000 0.000000 0.000000 0.000000 -0.447928 0.000000
# 6 0.000000 0.000000 0.000000 0.000000 0.000000 0.051010
#
#
# Mechanical properties :
#
#
# Convention : Reuss Voigt Hill
#
# Bulk Modulus (GPa) = 49.92813 50.44151 50.18482
# Shear Modulus (GPa) = -16.09608 25.13803 4.52097
#
# Velocity S-wave (km/s) = -2.74499 3.43041 1.45478
# Velocity P-wave (km/s) = 3.65048 6.26923 5.12978
#
# Compressibility (1/GPa) = 0.02002879
#
# Stress axis : x y z
#
# Youngs Moduli (GPa) = 77.19342 72.56099 83.91517
#
# Poissons Ratio (x) = 0.21475 0.17021
# Poissons Ratio (y) = 0.22846 0.36286
# Poissons Ratio (z) = 0.15657 0.31376
#
# Static dielectric constant tensor:
#      x y z
#    x 1.274420 0.000000 0.000000 
#    y 0.000000 1.868000 0.000000 
#    z 0.000000 0.000000 1.812740 
# 
# From -- ./inp_files/15357.got.cif
#   From: 2010.05.17/outbox.cif.g08.bks.cpg/sg54_8_cif.got.tgz:15357.got - 2010.06.03 13:09:01.
