data_PCOD9421433
_publ_section_title
;
Structure prediction by ZEFSAII (Michael W. Deem and Ramdas Pophale) SiO2 
 PCOD9421433
Probable space group: P C C A
;
_chemical_formula_sum "Si O2"
_cell_formula_units_Z 60
_cell_length_a 23.115969
_cell_length_b 15.137284
_cell_length_c 9.060427
_cell_angle_alpha 90.000000
_cell_angle_beta 90.000000
_cell_angle_gamma 90.000000
_cell_volume 3170.361081
_symmetry_space_group_name_H-M "P C C A"
_symmetry_group_IT_number 54
_symmetry_cell_setting 'orthorhombic'
loop_
_space_group_symop_operation_xyz
x,y,z
1/2-x,-y,z
1/2+x,-y,1/2-z
-x,y,1/2-z
-x,-y,-z
1/2+x,y,-z
1/2-x,y,1/2+z
x,-y,1/2+z
loop_
_atom_site_type_symbol
_atom_site_label
_atom_site_fract_x
_atom_site_fract_y
_atom_site_fract_z
Si Si1 0.143330 0.125470 0.382649
Si Si2 0.434577 0.247108 0.031593
Si Si3 0.662143 0.005463 0.865459
Si Si4 0.781263 0.880930 0.117150
Si Si5 0.481755 0.087811 0.418387
Si Si6 0.111449 0.223648 0.865505
Si Si7 0.537080 0.622021 0.506679
Si Si8 0.000000 0.510363 0.750000
O O1 0.113714 0.218787 0.413978
O O2 0.130910 0.062281 0.523879
O O3 0.212930 0.133816 0.374678
O O4 0.124892 0.071292 0.237340
O O5 0.481032 0.168526 0.018478
O O6 0.408652 0.243087 0.197303
O O7 0.472857 0.333743 0.010268
O O8 0.696401 0.943385 0.750019
O O9 0.702296 0.066446 0.968390
O O10 0.820413 0.793275 0.123632
O O11 0.500000 0.076114 0.250000
O O12 0.417271 0.129207 0.412676
O O13 0.500000 0.000000 0.500000
O O14 0.083909 0.301788 0.962403
O O15 0.536269 0.551883 0.639862
O O16 0.540340 0.571052 0.352823
#
# Coordination Sequence:
#
# PCOD9421433 Si02
#       8
#     8   8   8   8   8   8   8   4
#     4  11  20  32  49  70  99 147 191 237 272 299
#     4  10  20  35  53  73 113 139 177 225 267 318
#     4  10  21  32  44  67 100 141 208 244 253 288
#     4  11  20  32  49  70  99 147 191 237 272 299
#     4   9  20  33  45  66  97 146 181 206 261 313
#     4  10  20  35  53  73 113 139 177 225 267 318
#     4  10  20  40  59  93 109 136 163 217 270 335
#     4  10  20  36  70  86 112 128 172 206 272 342
#
# _framework density 18.925288999999999
#
# number of rings (size 3 to 8) (size 9 to 14) (size 15 to 20)
#    0.000    1.867    2.667    4.000    3.733    1.067 
#    4.800    0.000    0.000    0.000    0.000    5.600 
#    0.000    0.000    0.000    0.000    0.000    0.000 
#
# Total GULP energy -335125.447932 kJ/mol
# GULP energy per Si atom -5585.424132 kJ/mol
# Density = 1.888221 g / cm^3
# Si number density = 18.925289 Si / 1000 Ang^3
#
#
#
# Elastic Constant Matrix: (Units=GPa)
#
#
# Indices 1 2 3 4 5 6 
#
# 1 72.2965 24.3518 9.0346 0.0000 0.0000 0.0000
# 2 24.3518 88.4545 32.6376 0.0000 0.0000 0.0000
# 3 9.0346 32.6376 90.5780 0.0000 0.0000 0.0000
# 4 0.0000 0.0000 0.0000 25.5224 0.0000 0.0000
# 5 0.0000 0.0000 0.0000 0.0000 17.4668 0.0000
# 6 0.0000 0.0000 0.0000 0.0000 0.0000 20.7836
#
#
#
# Elastic Compliance Matrix: (Units=1/GPa)
#
#
# Indices 1 2 3 4 5 6 
#
# 1 0.015246 -0.004194 -0.000010 0.000000 0.000000 0.000000
# 2 -0.004194 0.014192 -0.004696 0.000000 0.000000 0.000000
# 3 -0.000010 -0.004696 0.012733 0.000000 0.000000 0.000000
# 4 0.000000 0.000000 0.000000 0.039181 0.000000 0.000000
# 5 0.000000 0.000000 0.000000 0.000000 0.057251 0.000000
# 6 0.000000 0.000000 0.000000 0.000000 0.000000 0.048115
#
#
# Mechanical properties :
#
#
# Convention : Reuss Voigt Hill
#
# Bulk Modulus (GPa) = 41.02818 42.59746 41.81282
# Shear Modulus (GPa) = 23.51383 25.10822 24.31103
#
# Velocity S-wave (km/s) = 3.52867 3.64634 3.58799
# Velocity P-wave (km/s) = 6.19097 6.34703 6.26949
#
# Compressibility (1/GPa) = 0.02437349
#
# Stress axis : x y z
#
# Youngs Moduli (GPa) = 65.59231 70.46057 78.53550
#
# Poissons Ratio (x) = 0.29549 0.00075
# Poissons Ratio (y) = 0.27507 0.36877
# Poissons Ratio (z) = 0.00063 0.33085
#
# Static dielectric constant tensor:
#      x y z
#    x 1.754320 0.000000 0.000000 
#    y 0.000000 1.663620 0.000000 
#    z 0.000000 0.000000 1.705580 
# 
# From -- ./inp_files/5285.got.cif
#   From: 2010.05.17/outbox.cif.g08.bks.cpg/sg54_3_cif.got.tgz:5285.got - 2010.06.03 13:09:01.
