data_PCOD9421553
_publ_section_title
;
Structure prediction by ZEFSAII (Michael W. Deem and Ramdas Pophale) SiO2 
 PCOD9421553
Probable space group: P C C A
;
_chemical_formula_sum "Si O2"
_cell_formula_units_Z 32
_cell_length_a 8.543164
_cell_length_b 5.484168
_cell_length_c 30.685469
_cell_angle_alpha 90.000000
_cell_angle_beta 90.000000
_cell_angle_gamma 90.000000
_cell_volume 1437.680093
_symmetry_space_group_name_H-M "P C C A"
_symmetry_group_IT_number 54
_symmetry_cell_setting 'orthorhombic'
loop_
_space_group_symop_operation_xyz
x,y,z
1/2-x,-y,z
1/2+x,-y,1/2-z
-x,y,1/2-z
-x,-y,-z
1/2+x,y,-z
1/2-x,y,1/2+z
x,-y,1/2+z
loop_
_atom_site_type_symbol
_atom_site_label
_atom_site_fract_x
_atom_site_fract_y
_atom_site_fract_z
Si Si1 0.750000 0.000000 0.215792
Si Si2 0.000000 0.650649 0.750000
Si Si3 0.433592 0.547733 0.929500
Si Si4 0.649384 0.754612 0.483260
Si Si5 0.422437 0.629526 0.833763
O O1 0.841922 0.193484 0.244651
O O2 0.617356 0.104118 0.183829
O O3 0.986985 0.496902 0.794323
O O4 0.250000 0.500000 0.924049
O O5 0.520874 0.305849 0.946584
O O6 0.493261 0.623766 0.881962
O O7 0.434901 0.741294 0.969378
O O8 0.750000 0.500000 0.481697
O O9 0.750000 0.000000 0.478582
O O10 0.250000 0.500000 0.834862
#
# Coordination Sequence:
#
# PCOD9421553 Si02
#       5
#     4   4   8   8   8
#     4  10  20  36  60  86 112 164 200 260 320 382
#     4  10  20  38  58  86 122 152 204 260 318 378
#     4   9  20  38  62  90 120 172 215 265 316 399
#     4  10  22  41  61  92 134 169 211 273 334 382
#     4   9  19  37  58  87 118 156 212 254 309 383
#
# _framework density 22.25808
#
# number of rings (size 3 to 8) (size 9 to 14) (size 15 to 20)
#    0.000    2.500    0.000    0.750    1.750    9.000 
#   11.250    3.750    0.000    0.000    0.000    0.000 
#    0.000    0.000    0.000    0.000    0.000    0.000 
#
# Total GULP energy -178447.171117 kJ/mol
# GULP energy per Si atom -5576.474097 kJ/mol
# Density = 2.220742 g / cm^3
# Si number density = 22.258080 Si / 1000 Ang^3
#
#
#
# Elastic Constant Matrix: (Units=GPa)
#
#
# Indices 1 2 3 4 5 6 
#
# 1 64.1288 52.9749 59.2718 0.0000 0.0000 0.0000
# 2 52.9749 126.8101 67.6368 0.0000 0.0000 0.0000
# 3 59.2718 67.6368 214.0910 0.0000 0.0000 0.0000
# 4 0.0000 0.0000 0.0000 -2.8996 0.0000 0.0000
# 5 0.0000 0.0000 0.0000 0.0000 20.4915 0.0000
# 6 0.0000 0.0000 0.0000 0.0000 0.0000 43.5672
#
#
#
# Elastic Compliance Matrix: (Units=1/GPa)
#
#
# Indices 1 2 3 4 5 6 
#
# 1 0.027327 -0.008876 -0.004761 0.000000 0.000000 0.000000
# 2 -0.008876 0.012367 -0.001450 0.000000 0.000000 0.000000
# 3 -0.004761 -0.001450 0.006447 0.000000 0.000000 0.000000
# 4 0.000000 0.000000 0.000000 -0.344881 0.000000 0.000000
# 5 0.000000 0.000000 0.000000 0.000000 0.048801 0.000000
# 6 0.000000 0.000000 0.000000 0.000000 0.000000 0.022953
#
#
# Mechanical properties :
#
#
# Convention : Reuss Voigt Hill
#
# Bulk Modulus (GPa) = 62.63105 84.97743 73.80424
# Shear Modulus (GPa) = -26.11099 27.24160 0.56531
#
# Velocity S-wave (km/s) = -3.42877 3.50222 0.50451
# Velocity P-wave (km/s) = 3.53898 7.39021 5.79394
#
# Compressibility (1/GPa) = 0.01596652
#
# Stress axis : x y z
#
# Youngs Moduli (GPa) = 36.59443 80.86023 155.10931
#
# Poissons Ratio (x) = 0.71773 0.73851
# Poissons Ratio (y) = 0.32482 0.22486
# Poissons Ratio (z) = 0.17424 0.11722
#
# Static dielectric constant tensor:
#      x y z
#    x 1.859090 0.000000 0.000000 
#    y 0.000000 1.955140 0.000000 
#    z 0.000000 0.000000 1.825800 
# 
# From -- ./inp_files/27398.got.cif
#   From: 2010.05.17/outbox.cif.g08.bks.cpg/sg54_14_cif.got.tgz:27398.got - 2010.06.03 13:09:01.
