data_PCOD9421184
_publ_section_title
;
Structure prediction by ZEFSAII (Michael W. Deem and Ramdas Pophale) SiO2 
 PCOD9421184
Probable space group: P C C A
;
_chemical_formula_sum "Si O2"
_cell_formula_units_Z 64
_cell_length_a 23.887244
_cell_length_b 12.108318
_cell_length_c 11.476975
_cell_angle_alpha 90.000000
_cell_angle_beta 90.000000
_cell_angle_gamma 90.000000
_cell_volume 3319.535364
_symmetry_space_group_name_H-M "P C C A"
_symmetry_group_IT_number 54
_symmetry_cell_setting 'orthorhombic'
loop_
_space_group_symop_operation_xyz
x,y,z
1/2-x,-y,z
1/2+x,-y,1/2-z
-x,y,1/2-z
-x,-y,-z
1/2+x,y,-z
1/2-x,y,1/2+z
x,-y,1/2+z
loop_
_atom_site_type_symbol
_atom_site_label
_atom_site_fract_x
_atom_site_fract_y
_atom_site_fract_z
Si Si1 0.512113 0.381568 0.557897
Si Si2 0.316498 0.971048 0.867123
Si Si3 0.812209 0.052311 0.379832
Si Si4 0.180748 0.722261 0.284948
Si Si5 0.084327 0.604931 0.709684
Si Si6 0.298864 0.697114 0.168240
Si Si7 0.808699 0.465232 0.544675
Si Si8 0.888471 0.374441 0.912572
O O1 0.500000 0.500000 0.500000
O O2 0.452392 0.339016 0.605251
O O3 0.548305 0.396485 0.674374
O O4 0.555133 0.324997 0.468578
O O5 0.324567 0.841844 0.840710
O O6 0.250000 0.000000 0.873651
O O7 0.338245 0.030079 0.748616
O O8 0.338245 0.993276 0.998975
O O9 0.805174 0.183656 0.391018
O O10 0.750000 0.000000 0.372495
O O11 0.245706 0.705156 0.251454
O O12 0.162770 0.624030 0.371558
O O13 0.146064 0.709580 0.166043
O O14 0.142842 0.665446 0.728027
O O15 0.095107 0.480101 0.667063
O O16 0.291567 0.602177 0.071603
O O17 0.750000 0.500000 0.600477
O O18 0.847921 0.566766 0.507930
#
# Coordination Sequence:
#
# PCOD9421184 Si02
#       8
#     8   8   8   8   8   8   8   8
#     4   9  18  38  55  73 105 146 203 247 273 335
#     4  10  20  36  55  75 111 154 199 240 290 348
#     4  10  19  37  54  77 111 152 195 241 295 353
#     4  12  22  33  51  80 118 155 191 237 288 367
#     4   9  20  34  55  77 107 150 195 238 293 331
#     4  11  21  35  51  81 113 153 190 237 297 354
#     4  11  23  32  46  74 120 157 182 223 281 357
#     4  10  21  34  51  79 111 154 191 231 291 345
#
# _framework density 19.279806000000001
#
# number of rings (size 3 to 8) (size 9 to 14) (size 15 to 20)
#    0.000    1.750    5.000    0.750    5.250    0.000 
#    2.250    0.000    0.000    0.000    0.000    0.875 
#    0.000    0.000    0.000    0.000    0.000    0.000 
#
# Total GULP energy -356633.720873 kJ/mol
# GULP energy per Si atom -5572.401889 kJ/mol
# Density = 1.923592 g / cm^3
# Si number density = 19.279806 Si / 1000 Ang^3
#
#
#
# Elastic Constant Matrix: (Units=GPa)
#
#
# Indices 1 2 3 4 5 6 
#
# 1 41.4018 -5.8159 3.1075 0.0000 0.0000 0.0000
# 2 -5.8159 35.3563 16.4538 0.0000 0.0000 0.0000
# 3 3.1075 16.4538 74.7825 0.0000 0.0000 0.0000
# 4 0.0000 0.0000 0.0000 20.6137 0.0000 0.0000
# 5 0.0000 0.0000 0.0000 0.0000 -18.9400 0.0000
# 6 0.0000 0.0000 0.0000 0.0000 0.0000 4.7219
#
#
#
# Elastic Compliance Matrix: (Units=1/GPa)
#
#
# Indices 1 2 3 4 5 6 
#
# 1 0.025037 0.005128 -0.002169 0.000000 0.000000 0.000000
# 2 0.005128 0.032560 -0.007377 0.000000 0.000000 0.000000
# 3 -0.002169 -0.007377 0.015085 0.000000 0.000000 0.000000
# 4 0.000000 0.000000 0.000000 0.048511 0.000000 0.000000
# 5 0.000000 0.000000 0.000000 0.000000 -0.052798 0.000000
# 6 0.000000 0.000000 0.000000 0.000000 0.000000 0.211778
#
#
# Mechanical properties :
#
#
# Convention : Reuss Voigt Hill
#
# Bulk Modulus (GPa) = 15.66270 19.89237 17.77754
# Shear Modulus (GPa) = 16.11392 10.46547 13.28969
#
# Velocity S-wave (km/s) = 2.89414 2.33238 2.62831
# Velocity P-wave (km/s) = 4.39427 4.19445 4.29552
#
# Compressibility (1/GPa) = 0.06384595
#
# Stress axis : x y z
#
# Youngs Moduli (GPa) = 39.94154 30.71258 66.28965
#
# Poissons Ratio (x) = -0.15748 0.14375
# Poissons Ratio (y) = -0.20480 0.48902
# Poissons Ratio (z) = 0.08661 0.22657
#
# Static dielectric constant tensor:
#      x y z
#    x 1.665800 0.000000 0.000000 
#    y 0.000000 1.702880 0.000000 
#    z 0.000000 0.000000 1.760110 
# 
# From -- ./inp_files/10077.got.cif
#   From: 2010.05.17/outbox.cif.g08.bks.cpg/sg54_6_cif.got.tgz:10077.got - 2010.06.03 13:09:01.
