data_PCOD9421007
_publ_section_title
;
Structure prediction by ZEFSAII (Michael W. Deem and Ramdas Pophale) SiO2 
 PCOD9421007
Probable space group: P C C A
;
_chemical_formula_sum "Si O2"
_cell_formula_units_Z 64
_cell_length_a 16.541009
_cell_length_b 11.920426
_cell_length_c 15.733121
_cell_angle_alpha 90.000000
_cell_angle_beta 90.000000
_cell_angle_gamma 90.000000
_cell_volume 3102.191880
_symmetry_space_group_name_H-M "P C C A"
_symmetry_group_IT_number 54
_symmetry_cell_setting 'orthorhombic'
loop_
_space_group_symop_operation_xyz
x,y,z
1/2-x,-y,z
1/2+x,-y,1/2-z
-x,y,1/2-z
-x,-y,-z
1/2+x,y,-z
1/2-x,y,1/2+z
x,-y,1/2+z
loop_
_atom_site_type_symbol
_atom_site_label
_atom_site_fract_x
_atom_site_fract_y
_atom_site_fract_z
Si Si1 0.280103 0.741353 0.625289
Si Si2 0.611412 0.844014 0.413407
Si Si3 0.782197 0.766143 0.180501
Si Si4 0.049724 0.120157 0.834883
Si Si5 0.126381 0.110147 0.279718
Si Si6 0.397289 0.910769 0.547926
Si Si7 0.196146 0.610709 0.960222
Si Si8 0.558804 0.738808 0.093056
O O1 0.191559 0.771238 0.590527
O O2 0.282838 0.710428 0.724774
O O3 0.331725 0.855478 0.611084
O O4 0.310038 0.649450 0.558414
O O5 0.609124 0.898840 0.319637
O O6 0.534566 0.763628 0.425102
O O7 0.615572 0.957410 0.469413
O O8 0.872661 0.800483 0.154950
O O9 0.720409 0.869637 0.198637
O O10 0.742719 0.694736 0.104836
O O11 0.000000 0.152753 0.750000
O O12 0.983947 0.110811 0.908870
O O13 0.087037 0.997675 0.820915
O O14 0.080988 0.221630 0.312636
O O15 0.395724 0.833327 0.464722
O O16 0.250000 0.500000 0.956046
O O17 0.102883 0.622041 0.927729
#
# Coordination Sequence:
#
# PCOD9421007 Si02
#       8
#     8   8   8   8   8   8   8   8
#     4  10  22  38  58  87 117 153 192 240 288 352
#     4  11  19  33  56  84 122 156 191 223 280 348
#     4  10  22  37  60  86 115 153 195 235 287 347
#     4  12  19  31  56  86 125 161 187 219 272 344
#     4  10  19  34  52  83 122 162 188 219 273 345
#     4  11  21  32  52  87 127 161 184 220 276 348
#     4  10  24  45  63  79 108 146 201 260 308 341
#     4  10  21  35  55  83 113 152 195 239 283 343
#
# _framework density 20.630572999999998
#
# number of rings (size 3 to 8) (size 9 to 14) (size 15 to 20)
#    0.000    1.500    3.750    1.500    1.750    2.500 
#    0.000    4.375    0.000    3.000    0.000    0.000 
#    0.000    0.000    0.000    0.000    0.000    0.000 
#
# Total GULP energy -357044.211781 kJ/mol
# GULP energy per Si atom -5578.815809 kJ/mol
# Density = 2.058362 g / cm^3
# Si number density = 20.630573 Si / 1000 Ang^3
#
#
#
# Elastic Constant Matrix: (Units=GPa)
#
#
# Indices 1 2 3 4 5 6 
#
# 1 88.6800 18.8206 -15.5109 0.0000 0.0000 0.0000
# 2 18.8206 47.8516 2.1901 0.0000 0.0000 0.0000
# 3 -15.5109 2.1901 59.0850 0.0000 0.0000 0.0000
# 4 0.0000 0.0000 0.0000 10.2403 0.0000 0.0000
# 5 0.0000 0.0000 0.0000 0.0000 23.2983 0.0000
# 6 0.0000 0.0000 0.0000 0.0000 0.0000 32.7279
#
#
#
# Elastic Compliance Matrix: (Units=1/GPa)
#
#
# Indices 1 2 3 4 5 6 
#
# 1 0.013032 -0.005291 0.003617 0.000000 0.000000 0.000000
# 2 -0.005291 0.023082 -0.002245 0.000000 0.000000 0.000000
# 3 0.003617 -0.002245 0.017958 0.000000 0.000000 0.000000
# 4 0.000000 0.000000 0.000000 0.097653 0.000000 0.000000
# 5 0.000000 0.000000 0.000000 0.000000 0.042922 0.000000
# 6 0.000000 0.000000 0.000000 0.000000 0.000000 0.030555
#
#
# Mechanical properties :
#
#
# Convention : Reuss Voigt Hill
#
# Bulk Modulus (GPa) = 21.62892 22.95735 22.29314
# Shear Modulus (GPa) = 20.12477 25.92774 23.02626
#
# Velocity S-wave (km/s) = 3.12666 3.54893 3.34447
# Velocity P-wave (km/s) = 4.85194 5.28632 5.07378
#
# Compressibility (1/GPa) = 0.04623440
#
# Stress axis : x y z
#
# Youngs Moduli (GPa) = 76.73326 43.32416 55.68684
#
# Poissons Ratio (x) = 0.22924 -0.20144
# Poissons Ratio (y) = 0.40602 0.12499
# Poissons Ratio (z) = -0.27757 0.09725
#
# Static dielectric constant tensor:
#      x y z
#    x 1.802550 0.000000 0.000000 
#    y 0.000000 1.730980 0.000000 
#    z 0.000000 0.000000 1.804730 
# 
# From -- ./inp_files/18262.got.cif
#   From: 2010.05.17/outbox.cif.g08.bks.cpg/sg54_10_cif.got.tgz:18262.got - 2010.06.03 13:09:01.
