data_PCOD9421325
_publ_section_title
;
Structure prediction by ZEFSAII (Michael W. Deem and Ramdas Pophale) SiO2 
 PCOD9421325
Probable space group: P C C A
;
_chemical_formula_sum "Si O2"
_cell_formula_units_Z 40
_cell_length_a 5.292067
_cell_length_b 14.385241
_cell_length_c 29.615723
_cell_angle_alpha 90.000000
_cell_angle_beta 90.000000
_cell_angle_gamma 90.000000
_cell_volume 2254.575667
_symmetry_space_group_name_H-M "P C C A"
_symmetry_group_IT_number 54
_symmetry_cell_setting 'orthorhombic'
loop_
_space_group_symop_operation_xyz
x,y,z
1/2-x,-y,z
1/2+x,-y,1/2-z
-x,y,1/2-z
-x,-y,-z
1/2+x,y,-z
1/2-x,y,1/2+z
x,-y,1/2+z
loop_
_atom_site_type_symbol
_atom_site_label
_atom_site_fract_x
_atom_site_fract_y
_atom_site_fract_z
Si Si1 0.000585 0.938630 0.696498
Si Si2 0.423791 0.259700 0.658529
Si Si3 0.521355 0.605385 0.519301
Si Si4 0.436478 0.638820 0.875793
Si Si5 0.750000 0.500000 0.689205
Si Si6 0.500000 0.349874 0.750000
O O1 0.016671 0.848941 0.664326
O O2 0.000000 0.911509 0.750000
O O3 0.250000 0.000000 0.689568
O O4 0.750000 0.000000 0.688722
O O5 0.671419 0.311771 0.638268
O O6 0.374161 0.291219 0.710477
O O7 0.173565 0.293252 0.632565
O O8 0.500000 0.500000 0.500000
O O9 0.756142 0.650668 0.493678
O O10 0.567418 0.607386 0.572419
O O11 0.454449 0.546555 0.844288
O O12 0.681154 0.417292 0.722487
#
# Coordination Sequence:
#
# PCOD9421325 Si02
#       6
#     8   8   8   8   4   4
#     4  10  20  36  58  82 108 147 189 230 287 345
#     4  11  22  37  53  80 115 142 191 232 275 325
#     4  10  20  35  55  76 104 142 183 229 278 331
#     4  11  23  35  55  79 110 150 187 238 273 321
#     4  10  20  34  48  72 106 154 204 222 262 320
#     4  10  20  32  48  70 104 156 186 228 256 300
#
# _framework density 17.741696999999998
#
# number of rings (size 3 to 8) (size 9 to 14) (size 15 to 20)
#    0.000    1.600    1.000    4.800    0.000    9.600 
#    0.000    0.000    0.000    0.000    0.000    0.000 
#    0.000   56.000    0.000    0.000    0.000    0.000 
#
# Total GULP energy -222988.855293 kJ/mol
# GULP energy per Si atom -5574.721382 kJ/mol
# Density = 1.770132 g / cm^3
# Si number density = 17.741697 Si / 1000 Ang^3
#
#
#
# Elastic Constant Matrix: (Units=GPa)
#
#
# Indices 1 2 3 4 5 6 
#
# 1 140.1139 37.3795 38.9970 0.0000 0.0000 0.0000
# 2 37.3795 84.4824 35.6794 0.0000 0.0000 0.0000
# 3 38.9970 35.6794 129.5707 0.0000 0.0000 0.0000
# 4 0.0000 0.0000 0.0000 19.3905 0.0000 0.0000
# 5 0.0000 0.0000 0.0000 0.0000 18.4384 0.0000
# 6 0.0000 0.0000 0.0000 0.0000 0.0000 15.8902
#
#
#
# Elastic Compliance Matrix: (Units=1/GPa)
#
#
# Indices 1 2 3 4 5 6 
#
# 1 0.008413 -0.003002 -0.001705 0.000000 0.000000 0.000000
# 2 -0.003002 0.014466 -0.003080 0.000000 0.000000 0.000000
# 3 -0.001705 -0.003080 0.009079 0.000000 0.000000 0.000000
# 4 0.000000 0.000000 0.000000 0.051572 0.000000 0.000000
# 5 0.000000 0.000000 0.000000 0.000000 0.054235 0.000000
# 6 0.000000 0.000000 0.000000 0.000000 0.000000 0.062932
#
#
# Mechanical properties :
#
#
# Convention : Reuss Voigt Hill
#
# Bulk Modulus (GPa) = 61.03829 64.25319 62.64574
# Shear Modulus (GPa) = 22.54984 26.88455 24.71720
#
# Velocity S-wave (km/s) = 3.56899 3.89695 3.73657
# Velocity P-wave (km/s) = 7.17371 7.51950 7.34864
#
# Compressibility (1/GPa) = 0.01638316
#
# Stress axis : x y z
#
# Youngs Moduli (GPa) = 118.87029 69.12892 110.14271
#
# Poissons Ratio (x) = 0.20752 0.18783
# Poissons Ratio (y) = 0.35684 0.33923
# Poissons Ratio (z) = 0.20271 0.21291
#
# Static dielectric constant tensor:
#      x y z
#    x 2.423170 0.000000 0.000000 
#    y 0.000000 1.607340 0.000000 
#    z 0.000000 0.000000 1.601140 
# 
# From -- ./inp_files/25286.got.cif
#   From: 2010.05.17/outbox.cif.g08.bks.cpg/sg54_13_cif.got.tgz:25286.got - 2010.06.03 13:09:01.
