data_PCOD9421034
_publ_section_title
;
Structure prediction by ZEFSAII (Michael W. Deem and Ramdas Pophale) SiO2 
 PCOD9421034
Probable space group: P C C A
;
_chemical_formula_sum "Si O2"
_cell_formula_units_Z 56
_cell_length_a 16.000606
_cell_length_b 4.901909
_cell_length_c 33.060410
_cell_angle_alpha 90.000000
_cell_angle_beta 90.000000
_cell_angle_gamma 90.000000
_cell_volume 2593.044149
_symmetry_space_group_name_H-M "P C C A"
_symmetry_group_IT_number 54
_symmetry_cell_setting 'orthorhombic'
loop_
_space_group_symop_operation_xyz
x,y,z
1/2-x,-y,z
1/2+x,-y,1/2-z
-x,y,1/2-z
-x,-y,-z
1/2+x,y,-z
1/2-x,y,1/2+z
x,-y,1/2+z
loop_
_atom_site_type_symbol
_atom_site_label
_atom_site_fract_x
_atom_site_fract_y
_atom_site_fract_z
Si Si1 0.008392 0.462302 0.952460
Si Si2 0.400372 0.948883 0.641620
Si Si3 0.590766 0.361756 0.231439
Si Si4 0.841343 0.866688 0.771837
Si Si5 0.192523 0.759317 0.344791
Si Si6 0.069717 0.971682 0.905324
Si Si7 0.843077 0.552877 0.902906
O O1 0.045487 0.169683 0.941982
O O2 0.915056 0.487505 0.934639
O O3 0.063142 0.673938 0.925285
O O4 0.000000 0.500000 0.000000
O O5 0.495596 0.988721 0.627720
O O6 0.367529 0.642193 0.635242
O O7 0.383284 0.070499 0.685223
O O8 0.349684 0.135829 0.610411
O O9 0.500000 0.434390 0.250000
O O10 0.652672 0.557610 0.256864
O O11 0.620739 0.369225 0.184775
O O12 0.604783 0.045228 0.240905
O O13 0.750000 0.000000 0.773425
O O14 0.250000 0.500000 0.355595
O O15 0.150805 0.917720 0.382383
O O16 0.250000 0.000000 0.324555
O O17 0.750000 0.500000 0.916880
#
# Coordination Sequence:
#
# PCOD9421034 Si02
#       7
#     8   8   8   8   8   8   8
#     4  10  21  39  64  93 126 161 200 253 313 376
#     4  10  21  36  58  85 117 152 193 243 301 372
#     4  12  26  42  61  86 120 164 215 265 321 372
#     4  12  23  38  59  88 120 154 199 258 316 366
#     4  12  25  44  66  90 126 171 219 273 320 377
#     4  10  22  41  65  90 120 163 209 247 308 384
#     4  10  19  34  56  86 118 155 193 237 300 371
#
# _framework density 21.596240000000002
#
# number of rings (size 3 to 8) (size 9 to 14) (size 15 to 20)
#    0.000    1.143    0.000    7.286    0.000    3.429 
#    0.000    2.143    0.000    1.714    0.000    0.000 
#    0.000    0.000    0.000    0.000    0.000    0.000 
#
# Total GULP energy -312774.432709 kJ/mol
# GULP energy per Si atom -5585.257727 kJ/mol
# Density = 2.154709 g / cm^3
# Si number density = 21.596240 Si / 1000 Ang^3
#
#
#
# Elastic Constant Matrix: (Units=GPa)
#
#
# Indices 1 2 3 4 5 6 
#
# 1 86.3609 18.7817 19.9511 0.0000 0.0000 0.0000
# 2 18.7817 69.4341 -11.5559 0.0000 0.0000 0.0000
# 3 19.9511 -11.5559 78.2949 0.0000 0.0000 0.0000
# 4 0.0000 0.0000 0.0000 121.5742 0.0000 0.0000
# 5 0.0000 0.0000 0.0000 0.0000 0.8891 0.0000
# 6 0.0000 0.0000 0.0000 0.0000 0.0000 35.5057
#
#
#
# Elastic Compliance Matrix: (Units=1/GPa)
#
#
# Indices 1 2 3 4 5 6 
#
# 1 0.013458 -0.004317 -0.004066 0.000000 0.000000 0.000000
# 2 -0.004317 0.016150 0.003484 0.000000 0.000000 0.000000
# 3 -0.004066 0.003484 0.014323 0.000000 0.000000 0.000000
# 4 0.000000 0.000000 0.000000 0.008225 0.000000 0.000000
# 5 0.000000 0.000000 0.000000 0.000000 1.124726 0.000000
# 6 0.000000 0.000000 0.000000 0.000000 0.000000 0.028164
#
#
# Mechanical properties :
#
#
# Convention : Reuss Voigt Hill
#
# Bulk Modulus (GPa) = 29.29948 32.04930 30.67439
# Shear Modulus (GPa) = 4.07757 45.38801 24.73279
#
# Velocity S-wave (km/s) = 1.37557 4.58936 3.38780
# Velocity P-wave (km/s) = 4.01489 6.55404 5.43483
#
# Compressibility (1/GPa) = 0.03413030
#
# Stress axis : x y z
#
# Youngs Moduli (GPa) = 74.30746 61.92079 69.81976
#
# Poissons Ratio (x) = 0.26731 0.28392
# Poissons Ratio (y) = 0.32079 -0.24323
# Poissons Ratio (z) = 0.30217 -0.21571
#
# Static dielectric constant tensor:
#      x y z
#    x 1.878950 0.000000 0.000000 
#    y 0.000000 1.781670 0.000000 
#    z 0.000000 0.000000 1.802150 
# 
# From -- ./inp_files/28252.got.cif
#   From: 2010.05.17/outbox.cif.g08.bks.cpg/sg54_15_cif.got.tgz:28252.got - 2010.06.03 13:09:01.
