data_PCOD9421518
_publ_section_title
;
Structure prediction by ZEFSAII (Michael W. Deem and Ramdas Pophale) SiO2 
 PCOD9421518
Probable space group: P C C A
;
_chemical_formula_sum "Si O2"
_cell_formula_units_Z 60
_cell_length_a 5.610188
_cell_length_b 15.750156
_cell_length_c 29.488236
_cell_angle_alpha 90.000000
_cell_angle_beta 90.000000
_cell_angle_gamma 90.000000
_cell_volume 2605.619935
_symmetry_space_group_name_H-M "P C C A"
_symmetry_group_IT_number 54
_symmetry_cell_setting 'orthorhombic'
loop_
_space_group_symop_operation_xyz
x,y,z
1/2-x,-y,z
1/2+x,-y,1/2-z
-x,y,1/2-z
-x,-y,-z
1/2+x,y,-z
1/2-x,y,1/2+z
x,-y,1/2+z
loop_
_atom_site_type_symbol
_atom_site_label
_atom_site_fract_x
_atom_site_fract_y
_atom_site_fract_z
Si Si1 0.567740 0.166082 0.523261
Si Si2 0.499737 0.178722 0.625618
Si Si3 0.107579 0.283053 0.665301
Si Si4 0.732375 0.634504 0.120840
Si Si5 0.916274 0.626246 0.522292
Si Si6 0.928578 0.425794 0.301356
Si Si7 0.886020 0.923422 0.794625
Si Si8 0.500000 0.798253 0.750000
O O1 0.325880 0.139199 0.496692
O O2 0.535777 0.140829 0.575976
O O3 0.574762 0.269927 0.521530
O O4 0.636801 0.268190 0.624473
O O5 0.558121 0.119568 0.668542
O O6 0.226866 0.206604 0.637311
O O7 0.010518 0.348639 0.627877
O O8 0.927855 0.255822 0.705538
O O9 0.300220 0.334882 0.694266
O O10 0.638509 0.599957 0.073784
O O11 0.640248 0.582375 0.163219
O O12 0.678616 0.599663 0.494559
O O13 0.750000 0.500000 0.314951
O O14 0.000000 0.441499 0.250000
O O15 0.712782 0.853656 0.771432
O O16 0.000000 0.964336 0.750000
O O17 0.750000 0.000000 0.818893
#
# Coordination Sequence:
#
# PCOD9421518 Si02
#       8
#     8   8   8   8   8   8   8   4
#     4   9  18  32  54  86 122 155 197 252 312 361
#     4   9  21  34  55  88 116 154 199 249 299 367
#     4  10  21  36  59  84 115 150 201 244 308 357
#     4  10  21  37  60  87 119 156 197 254 307 364
#     4   9  19  32  58  90 125 156 198 255 313 369
#     4  11  26  40  58  85 118 158 203 246 303 371
#     4  11  21  37  55  81 118 156 202 242 304 360
#     4  10  20  36  58  82 112 152 194 252 294 362
#
# _framework density 23.027149999999999
#
# number of rings (size 3 to 8) (size 9 to 14) (size 15 to 20)
#    0.000    2.133    0.667    1.600   14.000    3.733 
#    0.000    0.000    0.000    1.600    0.000    0.000 
#    0.000    0.000    0.000    0.000    0.000    0.000 
#
# Total GULP energy -334693.531392 kJ/mol
# GULP energy per Si atom -5578.225523 kJ/mol
# Density = 2.297474 g / cm^3
# Si number density = 23.027150 Si / 1000 Ang^3
#
#
#
# Elastic Constant Matrix: (Units=GPa)
#
#
# Indices 1 2 3 4 5 6 
#
# 1 72.1530 1.7832 43.3822 0.0000 0.0000 0.0000
# 2 1.7832 38.6140 14.3082 0.0000 0.0000 0.0000
# 3 43.3822 14.3082 147.5828 0.0000 0.0000 0.0000
# 4 0.0000 0.0000 0.0000 29.0278 0.0000 0.0000
# 5 0.0000 0.0000 0.0000 0.0000 28.4924 0.0000
# 6 0.0000 0.0000 0.0000 0.0000 0.0000 28.6727
#
#
#
# Elastic Compliance Matrix: (Units=1/GPa)
#
#
# Indices 1 2 3 4 5 6 
#
# 1 0.016880 0.001098 -0.005068 0.000000 0.000000 0.000000
# 2 0.001098 0.026934 -0.002934 0.000000 0.000000 0.000000
# 3 -0.005068 -0.002934 0.008550 0.000000 0.000000 0.000000
# 4 0.000000 0.000000 0.000000 0.034450 0.000000 0.000000
# 5 0.000000 0.000000 0.000000 0.000000 0.035097 0.000000
# 6 0.000000 0.000000 0.000000 0.000000 0.000000 0.034876
#
#
# Mechanical properties :
#
#
# Convention : Reuss Voigt Hill
#
# Bulk Modulus (GPa) = 25.93646 41.92188 33.92917
# Shear Modulus (GPa) = 27.25589 30.49699 28.87644
#
# Velocity S-wave (km/s) = 3.44414 3.64317 3.54505
# Velocity P-wave (km/s) = 5.20615 5.99515 5.61453
#
# Compressibility (1/GPa) = 0.03855576
#
# Stress axis : x y z
#
# Youngs Moduli (GPa) = 59.24308 37.12798 116.95695
#
# Poissons Ratio (x) = -0.04079 0.59277
# Poissons Ratio (y) = -0.06508 0.34317
# Poissons Ratio (z) = 0.30026 0.10894
#
# Static dielectric constant tensor:
#      x y z
#    x 2.014290 0.000000 0.000000 
#    y 0.000000 1.903730 0.000000 
#    z 0.000000 0.000000 1.863860 
# 
# From -- ./inp_files/25499.got.cif
#   From: 2010.05.17/outbox.cif.g08.bks.cpg/sg54_13_cif.got.tgz:25499.got - 2010.06.03 13:09:01.
