data_PCOD9421916
_publ_section_title
;
Structure prediction by ZEFSAII (Michael W. Deem and Ramdas Pophale) SiO2 
 PCOD9421916
Probable space group: P C C A
;
_chemical_formula_sum "Si O2"
_cell_formula_units_Z 56
_cell_length_a 9.125156
_cell_length_b 20.796145
_cell_length_c 13.604588
_cell_angle_alpha 90.000000
_cell_angle_beta 90.000000
_cell_angle_gamma 90.000000
_cell_volume 2581.716371
_symmetry_space_group_name_H-M "P C C A"
_symmetry_group_IT_number 54
_symmetry_cell_setting 'orthorhombic'
loop_
_space_group_symop_operation_xyz
x,y,z
1/2-x,-y,z
1/2+x,-y,1/2-z
-x,y,1/2-z
-x,-y,-z
1/2+x,y,-z
1/2-x,y,1/2+z
x,-y,1/2+z
loop_
_atom_site_type_symbol
_atom_site_label
_atom_site_fract_x
_atom_site_fract_y
_atom_site_fract_z
Si Si1 0.751335 0.616918 0.295515
Si Si2 0.750000 0.500000 0.191082
Si Si3 0.330957 0.080722 0.544141
Si Si4 0.107110 0.769544 0.547761
Si Si5 0.500000 0.709839 0.250000
Si Si6 0.896500 0.691341 0.443573
Si Si7 0.018775 0.033645 0.632997
Si Si8 0.994676 0.434707 0.063809
O O1 0.828613 0.554838 0.252246
O O2 0.639566 0.662909 0.236317
O O3 0.873508 0.663986 0.336353
O O4 0.643628 0.585127 0.379520
O O5 0.866015 0.456346 0.135975
O O6 0.349302 0.156837 0.548272
O O7 0.166963 0.064469 0.583526
O O8 0.381587 0.056449 0.434780
O O9 0.444997 0.041805 0.614057
O O10 0.238409 0.719713 0.530394
O O11 0.031969 0.750264 0.651838
O O12 0.999117 0.751749 0.460005
O O13 0.947668 0.629366 0.505514
O O14 0.000000 0.046337 0.750000
O O15 0.000000 0.500000 0.000000
#
# Coordination Sequence:
#
# PCOD9421916 Si02
#       8
#     8   4   8   8   4   8   8   8
#     4  11  21  40  58  87 123 164 216 284 346 411
#     4  12  22  36  64  86 120 160 220 286 338 424
#     4  10  23  44  72 108 151 195 244 308 361 434
#     4  11  23  42  71  96 133 185 228 279 349 427
#     4  10  20  40  60  88 128 168 222 272 340 422
#     4  11  22  42  65  90 130 171 224 279 345 420
#     4  10  23  45  73 112 155 195 248 305 364 436
#     4  12  23  39  60  90 120 168 218 283 351 411
#
# _framework density 21.690998
#
# number of rings (size 3 to 8) (size 9 to 14) (size 15 to 20)
#    0.000    1.143    4.286    2.571    1.000    4.571 
#    2.571    0.000    3.143    0.000    0.000    0.000 
#    0.000    0.000    0.000    0.000    0.000    0.000 
#
# Total GULP energy -312297.538699 kJ/mol
# GULP energy per Si atom -5576.741762 kJ/mol
# Density = 2.164163 g / cm^3
# Si number density = 21.690998 Si / 1000 Ang^3
#
#
#
# Elastic Constant Matrix: (Units=GPa)
#
#
# Indices 1 2 3 4 5 6 
#
# 1 75.6258 40.8082 48.5209 0.0000 0.0000 0.0000
# 2 40.8082 148.1254 37.7126 0.0000 0.0000 0.0000
# 3 48.5209 37.7126 74.4413 0.0000 0.0000 0.0000
# 4 0.0000 0.0000 0.0000 29.9771 0.0000 0.0000
# 5 0.0000 0.0000 0.0000 0.0000 45.9138 0.0000
# 6 0.0000 0.0000 0.0000 0.0000 0.0000 445.0938
#
#
#
# Elastic Compliance Matrix: (Units=1/GPa)
#
#
# Indices 1 2 3 4 5 6 
#
# 1 0.023833 -0.002998 -0.014016 0.000000 0.000000 0.000000
# 2 -0.002998 0.008128 -0.002164 0.000000 0.000000 0.000000
# 3 -0.014016 -0.002164 0.023665 0.000000 0.000000 0.000000
# 4 0.000000 0.000000 0.000000 0.033359 0.000000 0.000000
# 5 0.000000 0.000000 0.000000 0.000000 0.021780 0.000000
# 6 0.000000 0.000000 0.000000 0.000000 0.000000 0.002247
#
#
# Mechanical properties :
#
#
# Convention : Reuss Voigt Hill
#
# Bulk Modulus (GPa) = 57.89849 61.36399 59.63124
# Shear Modulus (GPa) = 31.82236 115.60700 73.71468
#
# Velocity S-wave (km/s) = 3.83440 7.30841 5.83590
# Velocity P-wave (km/s) = 6.80837 9.97841 8.54174
#
# Compressibility (1/GPa) = 0.01727161
#
# Stress axis : x y z
#
# Youngs Moduli (GPa) = 41.95898 123.03533 42.25642
#
# Poissons Ratio (x) = 0.36880 0.59225
# Poissons Ratio (y) = 0.12577 0.09144
# Poissons Ratio (z) = 0.58808 0.26623
#
# Static dielectric constant tensor:
#      x y z
#    x 1.933990 0.000000 0.000000 
#    y 0.000000 1.822640 0.000000 
#    z 0.000000 0.000000 -1.489330 
# 
# From -- ./inp_files/11907.got.cif
#   From: 2010.05.17/outbox.cif.g08.bks.cpg/sg54_6_cif.got.tgz:11907.got - 2010.06.03 13:09:01.
