data_PCOD9421162
_publ_section_title
;
Structure prediction by ZEFSAII (Michael W. Deem and Ramdas Pophale) SiO2 
 PCOD9421162
Probable space group: P C C A
;
_chemical_formula_sum "Si O2"
_cell_formula_units_Z 36
_cell_length_a 9.844797
_cell_length_b 7.538122
_cell_length_c 23.840599
_cell_angle_alpha 90.000000
_cell_angle_beta 90.000000
_cell_angle_gamma 90.000000
_cell_volume 1769.241388
_symmetry_space_group_name_H-M "P C C A"
_symmetry_group_IT_number 54
_symmetry_cell_setting 'orthorhombic'
loop_
_space_group_symop_operation_xyz
x,y,z
1/2-x,-y,z
1/2+x,-y,1/2-z
-x,y,1/2-z
-x,-y,-z
1/2+x,y,-z
1/2-x,y,1/2+z
x,-y,1/2+z
loop_
_atom_site_type_symbol
_atom_site_label
_atom_site_fract_x
_atom_site_fract_y
_atom_site_fract_z
Si Si1 0.247485 0.789623 0.059348
Si Si2 0.152885 0.332364 0.679146
Si Si3 0.159273 0.676558 0.305384
Si Si4 0.954667 0.821106 0.531619
Si Si5 0.250000 0.000000 0.881556
O O1 0.189417 0.767086 0.121885
O O2 0.404610 0.729338 0.051507
O O3 0.250000 0.000000 0.049476
O O4 0.143145 0.717190 0.012100
O O5 0.250000 0.500000 0.677142
O O6 0.177276 0.253669 0.741295
O O7 0.994784 0.380758 0.681860
O O8 0.250000 0.500000 0.313151
O O9 0.187839 0.842764 0.344821
O O10 0.862278 0.897465 0.581498
O O11 0.000000 0.000000 0.500000
#
# Coordination Sequence:
#
# PCOD9421162 Si02
#       5
#     8   8   8   8   4
#     4  10  20  36  63  88 124 165 212 261 315 380
#     4  10  23  44  62  92 132 168 211 269 322 377
#     4  10  24  44  65  95 132 169 214 267 318 383
#     4  10  19  36  61  92 126 162 213 264 313 379
#     4  12  22  40  70  96 126 170 216 262 326 384
#
# _framework density 20.347702999999999
#
# number of rings (size 3 to 8) (size 9 to 14) (size 15 to 20)
#    0.000    1.778    3.333    2.667    4.667    0.000 
#    0.000    2.222    0.000    0.000    0.000    0.000 
#    0.000    0.000    0.000    0.000    0.000    0.000 
#
# Total GULP energy -200570.420498 kJ/mol
# GULP energy per Si atom -5571.400569 kJ/mol
# Density = 2.030139 g / cm^3
# Si number density = 20.347703 Si / 1000 Ang^3
#
#
#
# Elastic Constant Matrix: (Units=GPa)
#
#
# Indices 1 2 3 4 5 6 
#
# 1 164.7826 30.6405 82.0118 0.0000 0.0000 0.0000
# 2 30.6405 35.3155 27.5408 0.0000 0.0000 0.0000
# 3 82.0118 27.5408 128.8096 0.0000 0.0000 0.0000
# 4 0.0000 0.0000 0.0000 4.9665 0.0000 0.0000
# 5 0.0000 0.0000 0.0000 0.0000 35.1271 0.0000
# 6 0.0000 0.0000 0.0000 0.0000 0.0000 19.6215
#
#
#
# Elastic Compliance Matrix: (Units=1/GPa)
#
#
# Indices 1 2 3 4 5 6 
#
# 1 0.009369 -0.004173 -0.005073 0.000000 0.000000 0.000000
# 2 -0.004173 0.035841 -0.005006 0.000000 0.000000 0.000000
# 3 -0.005073 -0.005006 0.012064 0.000000 0.000000 0.000000
# 4 0.000000 0.000000 0.000000 0.201349 0.000000 0.000000
# 5 0.000000 0.000000 0.000000 0.000000 0.028468 0.000000
# 6 0.000000 0.000000 0.000000 0.000000 0.000000 0.050965
#
#
# Mechanical properties :
#
#
# Convention : Reuss Voigt Hill
#
# Bulk Modulus (GPa) = 34.75924 67.69931 51.22928
# Shear Modulus (GPa) = 13.29258 24.52400 18.90829
#
# Velocity S-wave (km/s) = 2.55869 3.47543 3.05168
# Velocity P-wave (km/s) = 5.08418 7.03195 6.13585
#
# Compressibility (1/GPa) = 0.02876933
#
# Stress axis : x y z
#
# Youngs Moduli (GPa) = 106.72981 27.90123 82.89200
#
# Poissons Ratio (x) = 0.11643 0.42053
# Poissons Ratio (y) = 0.44536 0.41499
# Poissons Ratio (z) = 0.54147 0.13968
#
# Static dielectric constant tensor:
#      x y z
#    x 1.780320 0.000000 0.000000 
#    y 0.000000 1.672010 0.000000 
#    z 0.000000 0.000000 1.894040 
# 
# From -- ./inp_files/20147.got.cif
#   From: 2010.05.17/outbox.cif.g08.bks.cpg/sg54_11_cif.got.tgz:20147.got - 2010.06.03 13:09:01.
