data_PCOD9421206
_publ_section_title
;
Structure prediction by ZEFSAII (Michael W. Deem and Ramdas Pophale) SiO2 
 PCOD9421206
Probable space group: P C C A
;
_chemical_formula_sum "Si O2"
_cell_formula_units_Z 40
_cell_length_a 8.334121
_cell_length_b 16.499327
_cell_length_c 13.905972
_cell_angle_alpha 90.000000
_cell_angle_beta 90.000000
_cell_angle_gamma 90.000000
_cell_volume 1912.173882
_symmetry_space_group_name_H-M "P C C A"
_symmetry_group_IT_number 54
_symmetry_cell_setting 'orthorhombic'
loop_
_space_group_symop_operation_xyz
x,y,z
1/2-x,-y,z
1/2+x,-y,1/2-z
-x,y,1/2-z
-x,-y,-z
1/2+x,y,-z
1/2-x,y,1/2+z
x,-y,1/2+z
loop_
_atom_site_type_symbol
_atom_site_label
_atom_site_fract_x
_atom_site_fract_y
_atom_site_fract_z
Si Si1 0.121318 0.558016 0.058531
Si Si2 0.370920 0.185024 0.569733
Si Si3 0.305085 0.907415 0.405072
Si Si4 0.151725 0.669508 0.426671
Si Si5 0.810775 0.779920 0.238247
O O1 0.250000 0.500000 0.111395
O O2 0.227612 0.612584 0.986063
O O3 0.000000 0.500000 0.000000
O O4 0.000128 0.618280 0.111509
O O5 0.251978 0.131977 0.505080
O O6 0.512018 0.123844 0.600923
O O7 0.414399 0.260056 0.498639
O O8 0.284315 0.221005 0.662890
O O9 0.218337 0.864615 0.315679
O O10 0.250000 0.000000 0.405792
O O11 0.242267 0.712539 0.339034
O O12 0.000000 0.770276 0.250000
#
# Coordination Sequence:
#
# PCOD9421206 Si02
#       5
#     8   8   8   8   8
#     4   9  18  33  60  89 117 157 197 244 307 361
#     4  11  22  40  63  88 120 163 209 253 309 370
#     4  11  24  40  60  89 121 159 205 258 312 366
#     4  10  19  37  61  87 119 159 206 251 301 367
#     4  11  23  38  60  91 122 162 209 254 306 366
#
# _framework density 20.918600999999999
#
# number of rings (size 3 to 8) (size 9 to 14) (size 15 to 20)
#    0.000    1.600    0.000    7.200    0.000    2.400 
#    0.000    0.000    0.000   45.600    0.000    0.000 
#    0.000    0.000    0.000    0.000    0.000    0.000 
#
# Total GULP energy -223234.690698 kJ/mol
# GULP energy per Si atom -5580.867267 kJ/mol
# Density = 2.087099 g / cm^3
# Si number density = 20.918601 Si / 1000 Ang^3
#
#
#
# Elastic Constant Matrix: (Units=GPa)
#
#
# Indices 1 2 3 4 5 6 
#
# 1 78.1263 31.4484 4.4294 0.0000 0.0000 0.0000
# 2 31.4484 110.5149 30.8501 0.0000 0.0000 0.0000
# 3 4.4294 30.8501 78.0555 0.0000 0.0000 0.0000
# 4 0.0000 0.0000 0.0000 -41.4672 0.0000 0.0000
# 5 0.0000 0.0000 0.0000 0.0000 27.7131 0.0000
# 6 0.0000 0.0000 0.0000 0.0000 0.0000 30.4078
#
#
#
# Elastic Compliance Matrix: (Units=1/GPa)
#
#
# Indices 1 2 3 4 5 6 
#
# 1 0.014513 -0.004384 0.000909 0.000000 0.000000 0.000000
# 2 -0.004384 0.011495 -0.004294 0.000000 0.000000 0.000000
# 3 0.000909 -0.004294 0.014457 0.000000 0.000000 0.000000
# 4 0.000000 0.000000 0.000000 -0.024115 0.000000 0.000000
# 5 0.000000 0.000000 0.000000 0.000000 0.036084 0.000000
# 6 0.000000 0.000000 0.000000 0.000000 0.000000 0.032886
#
#
# Mechanical properties :
#
#
# Convention : Reuss Voigt Hill
#
# Bulk Modulus (GPa) = 40.11755 44.46138 42.28947
# Shear Modulus (GPa) = 45.80178 16.66200 31.23189
#
# Velocity S-wave (km/s) = 4.68431 2.82532 3.86815
# Velocity P-wave (km/s) = 6.96251 5.65189 6.34115
#
# Compressibility (1/GPa) = 0.02492675
#
# Stress axis : x y z
#
# Youngs Moduli (GPa) = 68.90487 86.99659 69.17025
#
# Poissons Ratio (x) = 0.38135 -0.06287
# Poissons Ratio (y) = 0.30205 0.29704
# Poissons Ratio (z) = -0.06263 0.37359
#
# Static dielectric constant tensor:
#      x y z
#    x 1.815410 0.000000 0.000000 
#    y 0.000000 1.787910 0.000000 
#    z 0.000000 0.000000 1.724890 
# 
# From -- ./inp_files/11461.got.cif
#   From: 2010.05.17/outbox.cif.g08.bks.cpg/sg54_6_cif.got.tgz:11461.got - 2010.06.03 13:09:01.
