data_PCOD9421352
_publ_section_title
;
Structure prediction by ZEFSAII (Michael W. Deem and Ramdas Pophale) SiO2 
 PCOD9421352
Probable space group: P C C A
;
_chemical_formula_sum "Si O2"
_cell_formula_units_Z 64
_cell_length_a 9.369544
_cell_length_b 16.698635
_cell_length_c 22.211888
_cell_angle_alpha 90.000000
_cell_angle_beta 90.000000
_cell_angle_gamma 90.000000
_cell_volume 3475.240797
_symmetry_space_group_name_H-M "P C C A"
_symmetry_group_IT_number 54
_symmetry_cell_setting 'orthorhombic'
loop_
_space_group_symop_operation_xyz
x,y,z
1/2-x,-y,z
1/2+x,-y,1/2-z
-x,y,1/2-z
-x,-y,-z
1/2+x,y,-z
1/2-x,y,1/2+z
x,-y,1/2+z
loop_
_atom_site_type_symbol
_atom_site_label
_atom_site_fract_x
_atom_site_fract_y
_atom_site_fract_z
Si Si1 0.420061 0.269659 0.810109
Si Si2 0.568459 0.426039 0.397215
Si Si3 0.492384 0.189376 0.399513
Si Si4 0.083913 0.315663 0.809966
Si Si5 0.381072 0.058776 0.025151
Si Si6 0.672122 0.811041 0.077226
Si Si7 0.541080 0.319613 0.505011
Si Si8 0.887198 0.613036 0.884596
O O1 0.500000 0.242437 0.750000
O O2 0.252676 0.295504 0.802288
O O3 0.419898 0.202525 0.862783
O O4 0.515807 0.343009 0.835341
O O5 0.441231 0.384402 0.360172
O O6 0.571410 0.398872 0.466878
O O7 0.565868 0.521093 0.391892
O O8 0.718673 0.391400 0.371310
O O9 0.499938 0.238357 0.337666
O O10 0.585879 0.112741 0.416142
O O11 0.328645 0.164426 0.403403
O O12 0.510312 0.254290 0.453316
O O13 0.000000 0.339581 0.750000
O O14 0.250000 0.000000 0.035130
O O15 0.369385 0.124165 0.971909
O O16 0.500000 0.000000 0.000000
O O17 0.663409 0.723245 0.045113
O O18 0.417418 0.339444 0.553010
#
# Coordination Sequence:
#
# PCOD9421352 Si02
#       8
#     8   8   8   8   8   8   8   8
#     4  10  21  38  57  77 102 141 190 233 274 322
#     4  10  20  33  51  77 109 144 183 231 283 329
#     4   9  18  33  53  80 110 140 175 213 265 320
#     4  10  21  38  57  77 102 141 188 235 274 319
#     4  11  20  34  57  88 120 143 167 207 264 322
#     4   9  18  33  53  80 110 140 173 216 261 320
#     4   9  17  30  51  78 110 140 180 220 272 323
#     4  10  20  33  51  77 109 144 183 231 281 333
#
# _framework density 18.415991000000002
#
# number of rings (size 3 to 8) (size 9 to 14) (size 15 to 20)
#    0.000    2.250    1.250    1.875    0.000    2.000 
#    4.500    0.000    0.000    0.750    0.000    0.000 
#    0.000    0.000    0.000    0.000    0.000    0.000 
#
# Total GULP energy -356281.080979 kJ/mol
# GULP energy per Si atom -5566.891890 kJ/mol
# Density = 1.837407 g / cm^3
# Si number density = 18.415991 Si / 1000 Ang^3
#
#
#
# Elastic Constant Matrix: (Units=GPa)
#
#
# Indices 1 2 3 4 5 6 
#
# 1 58.5102 18.1347 16.8727 0.0000 0.0000 0.0000
# 2 18.1347 66.5175 13.9237 0.0000 0.0000 0.0000
# 3 16.8727 13.9237 77.5120 0.0000 0.0000 0.0000
# 4 0.0000 0.0000 0.0000 18.2502 0.0000 0.0000
# 5 0.0000 0.0000 0.0000 0.0000 26.9694 0.0000
# 6 0.0000 0.0000 0.0000 0.0000 0.0000 25.9829
#
#
#
# Elastic Compliance Matrix: (Units=1/GPa)
#
#
# Indices 1 2 3 4 5 6 
#
# 1 0.019503 -0.004602 -0.003419 0.000000 0.000000 0.000000
# 2 -0.004602 0.016707 -0.001999 0.000000 0.000000 0.000000
# 3 -0.003419 -0.001999 0.014005 0.000000 0.000000 0.000000
# 4 0.000000 0.000000 0.000000 0.054794 0.000000 0.000000
# 5 0.000000 0.000000 0.000000 0.000000 0.037079 0.000000
# 6 0.000000 0.000000 0.000000 0.000000 0.000000 0.038487
#
#
# Mechanical properties :
#
#
# Convention : Reuss Voigt Hill
#
# Bulk Modulus (GPa) = 33.14013 33.37798 33.25905
# Shear Modulus (GPa) = 23.73355 24.48106 24.10731
#
# Velocity S-wave (km/s) = 3.59381 3.64996 3.62199
# Velocity P-wave (km/s) = 5.93759 5.99389 5.96581
#
# Compressibility (1/GPa) = 0.03017490
#
# Stress axis : x y z
#
# Youngs Moduli (GPa) = 51.27380 59.85632 71.40514
#
# Poissons Ratio (x) = 0.27543 0.24412
# Poissons Ratio (y) = 0.23594 0.14277
# Poissons Ratio (z) = 0.17530 0.11968
#
# Static dielectric constant tensor:
#      x y z
#    x 1.663890 0.000000 0.000000 
#    y 0.000000 1.642070 0.000000 
#    z 0.000000 0.000000 2.597960 
# 
# From -- ./inp_files/23713.got.cif
#   From: 2010.05.17/outbox.cif.g08.bks.cpg/sg54_12_cif.got.tgz:23713.got - 2010.06.03 13:09:01.
