data_PCOD9421417
_publ_section_title
;
Structure prediction by ZEFSAII (Michael W. Deem and Ramdas Pophale) SiO2 
 PCOD9421417
Probable space group: P C C A
;
_chemical_formula_sum "Si O2"
_cell_formula_units_Z 32
_cell_length_a 16.043341
_cell_length_b 9.106325
_cell_length_c 8.782965
_cell_angle_alpha 90.000000
_cell_angle_beta 90.000000
_cell_angle_gamma 90.000000
_cell_volume 1283.154976
_symmetry_space_group_name_H-M "P C C A"
_symmetry_group_IT_number 54
_symmetry_cell_setting 'orthorhombic'
loop_
_space_group_symop_operation_xyz
x,y,z
1/2-x,-y,z
1/2+x,-y,1/2-z
-x,y,1/2-z
-x,-y,-z
1/2+x,y,-z
1/2-x,y,1/2+z
x,-y,1/2+z
loop_
_atom_site_type_symbol
_atom_site_label
_atom_site_fract_x
_atom_site_fract_y
_atom_site_fract_z
Si Si1 0.159647 0.527097 0.669400
Si Si2 0.863105 0.090958 0.129445
Si Si3 0.186981 0.826022 0.525797
Si Si4 0.439077 0.635699 0.456606
O O1 0.250000 0.500000 0.736452
O O2 0.168676 0.653306 0.540472
O O3 0.125298 0.381307 0.594810
O O4 0.099360 0.585203 0.797248
O O5 0.835391 0.116067 0.304228
O O6 0.942560 0.189637 0.077565
O O7 0.781142 0.144540 0.032509
O O8 0.869797 0.919685 0.089591
O O9 0.500000 0.500000 0.500000
#
# Coordination Sequence:
#
# PCOD9421417 Si02
#       4
#     8   8   8   8
#     4  11  22  39  64  93 123 168 221 271 322 391
#     4  10  20  36  59  94 128 163 208 272 325 386
#     4  10  20  34  60  93 120 158 215 264 318 375
#     4  11  24  40  61  92 133 172 213 270 338 391
#
# _framework density 24.938533
#
# number of rings (size 3 to 8) (size 9 to 14) (size 15 to 20)
#    0.000    1.500    2.500    4.500    3.500    2.000 
#    0.000    1.250    0.000    3.000    0.000    0.000 
#    0.000    0.000    0.000    0.000    0.000    0.000 
#
# Total GULP energy -178489.913719 kJ/mol
# GULP energy per Si atom -5577.809804 kJ/mol
# Density = 2.488177 g / cm^3
# Si number density = 24.938533 Si / 1000 Ang^3
#
#
#
# Elastic Constant Matrix: (Units=GPa)
#
#
# Indices 1 2 3 4 5 6 
#
# 1 54.7397 2.9683 -1.7677 0.0000 0.0000 0.0000
# 2 2.9683 63.3762 -5.7377 0.0000 0.0000 0.0000
# 3 -1.7677 -5.7377 75.6037 0.0000 0.0000 0.0000
# 4 0.0000 0.0000 0.0000 44.6747 0.0000 0.0000
# 5 0.0000 0.0000 0.0000 0.0000 19.5620 0.0000
# 6 0.0000 0.0000 0.0000 0.0000 0.0000 40.5954
#
#
#
# Elastic Compliance Matrix: (Units=1/GPa)
#
#
# Indices 1 2 3 4 5 6 
#
# 1 0.018325 -0.000825 0.000366 0.000000 0.000000 0.000000
# 2 -0.000825 0.015925 0.001189 0.000000 0.000000 0.000000
# 3 0.000366 0.001189 0.013326 0.000000 0.000000 0.000000
# 4 0.000000 0.000000 0.000000 0.022384 0.000000 0.000000
# 5 0.000000 0.000000 0.000000 0.000000 0.051119 0.000000
# 6 0.000000 0.000000 0.000000 0.000000 0.000000 0.024633
#
#
# Mechanical properties :
#
#
# Convention : Reuss Voigt Hill
#
# Bulk Modulus (GPa) = 20.39334 20.51614 20.45474
# Shear Modulus (GPa) = 31.13369 34.18353 32.65861
#
# Velocity S-wave (km/s) = 3.53713 3.70633 3.62272
# Velocity P-wave (km/s) = 4.98767 5.15368 5.07135
#
# Compressibility (1/GPa) = 0.04903562
#
# Stress axis : x y z
#
# Youngs Moduli (GPa) = 54.57073 62.79393 75.04305
#
# Poissons Ratio (x) = 0.05181 -0.02745
# Poissons Ratio (y) = 0.04503 -0.08925
# Poissons Ratio (z) = -0.01996 -0.07468
#
# Static dielectric constant tensor:
#      x y z
#    x 2.135200 0.000000 0.000000 
#    y 0.000000 2.065880 0.000000 
#    z 0.000000 0.000000 1.929790 
# 
# From -- ./inp_files/3247.got.cif
#   From: 2010.05.17/outbox.cif.g08.bks.cpg/sg54_2_cif.got.tgz:3247.got - 2010.06.03 13:09:01.
