data_PCOD9421254
_publ_section_title
;
Structure prediction by ZEFSAII (Michael W. Deem and Ramdas Pophale) SiO2 
 PCOD9421254
Probable space group: P C C A
;
_chemical_formula_sum "Si O2"
_cell_formula_units_Z 40
_cell_length_a 15.826518
_cell_length_b 10.155380
_cell_length_c 9.854873
_cell_angle_alpha 90.000000
_cell_angle_beta 90.000000
_cell_angle_gamma 90.000000
_cell_volume 1583.917608
_symmetry_space_group_name_H-M "P C C A"
_symmetry_group_IT_number 54
_symmetry_cell_setting 'orthorhombic'
loop_
_space_group_symop_operation_xyz
x,y,z
1/2-x,-y,z
1/2+x,-y,1/2-z
-x,y,1/2-z
-x,-y,-z
1/2+x,y,-z
1/2-x,y,1/2+z
x,-y,1/2+z
loop_
_atom_site_type_symbol
_atom_site_label
_atom_site_fract_x
_atom_site_fract_y
_atom_site_fract_z
Si Si1 0.618429 0.200950 0.825765
Si Si2 0.917125 0.445882 0.155554
Si Si3 0.327713 0.926079 0.657889
Si Si4 0.350171 0.727799 0.879975
Si Si5 0.472580 0.765454 0.524223
O O1 0.628370 0.321947 0.725428
O O2 0.523524 0.196978 0.888522
O O3 0.634238 0.055779 0.770266
O O4 0.670628 0.240195 0.963761
O O5 0.857555 0.572271 0.144465
O O6 0.942577 0.383618 0.009056
O O7 0.000000 0.471880 0.250000
O O8 0.303802 0.816141 0.769059
O O9 0.396334 0.858685 0.562571
O O10 0.250000 0.000000 0.585626
O O11 0.550250 0.769307 0.628872
#
# Coordination Sequence:
#
# PCOD9421254 Si02
#       5
#     8   8   8   8   8
#     4   9  24  39  64  99 132 171 228 274 341 398
#     4  10  19  38  69 103 130 164 222 289 340 395
#     4  12  25  42  64  93 138 181 225 269 335 404
#     4  10  23  39  70  97 135 172 223 275 345 398
#     4   9  21  39  70  96 132 167 226 282 334 395
#
# _framework density 25.253838999999999
#
# number of rings (size 3 to 8) (size 9 to 14) (size 15 to 20)
#    1.200    0.800    0.000    3.000    5.600    4.000 
#    0.000    1.000    0.000    0.000    0.000    0.000 
#    0.000    0.000    0.000    0.000    0.000    0.000 
#
# Total GULP energy -223196.912345 kJ/mol
# GULP energy per Si atom -5579.922809 kJ/mol
# Density = 2.519636 g / cm^3
# Si number density = 25.253839 Si / 1000 Ang^3
#
#
#
# Elastic Constant Matrix: (Units=GPa)
#
#
# Indices 1 2 3 4 5 6 
#
# 1 62.8118 51.2331 5.6272 0.0000 0.0000 0.0000
# 2 51.2331 204.6258 16.5665 0.0000 0.0000 0.0000
# 3 5.6272 16.5665 43.2247 0.0000 0.0000 0.0000
# 4 0.0000 0.0000 0.0000 37.0784 0.0000 0.0000
# 5 0.0000 0.0000 0.0000 0.0000 11.8951 0.0000
# 6 0.0000 0.0000 0.0000 0.0000 0.0000 44.1254
#
#
#
# Elastic Compliance Matrix: (Units=1/GPa)
#
#
# Indices 1 2 3 4 5 6 
#
# 1 0.020027 -0.004957 -0.000707 0.000000 0.000000 0.000000
# 2 -0.004957 0.006270 -0.001758 0.000000 0.000000 0.000000
# 3 -0.000707 -0.001758 0.023901 0.000000 0.000000 0.000000
# 4 0.000000 0.000000 0.000000 0.026970 0.000000 0.000000
# 5 0.000000 0.000000 0.000000 0.000000 0.084068 0.000000
# 6 0.000000 0.000000 0.000000 0.000000 0.000000 0.022663
#
#
# Mechanical properties :
#
#
# Convention : Reuss Voigt Hill
#
# Bulk Modulus (GPa) = 28.28558 50.83512 39.56035
# Shear Modulus (GPa) = 23.74978 34.43546 29.09262
#
# Velocity S-wave (km/s) = 3.06999 3.69667 3.39781
# Velocity P-wave (km/s) = 4.87763 6.19627 5.57607
#
# Compressibility (1/GPa) = 0.03535370
#
# Stress axis : x y z
#
# Youngs Moduli (GPa) = 49.93211 159.47942 41.83968
#
# Poissons Ratio (x) = 0.79054 0.02960
# Poissons Ratio (y) = 0.24751 0.07355
# Poissons Ratio (z) = 0.03532 0.28035
#
# Static dielectric constant tensor:
#      x y z
#    x 2.165530 0.000000 0.000000 
#    y 0.000000 1.956400 0.000000 
#    z 0.000000 0.000000 2.008640 
# 
# From -- ./inp_files/9408.got.cif
#   From: 2010.05.17/outbox.cif.g08.bks.cpg/sg54_5_cif.got.tgz:9408.got - 2010.06.03 13:09:01.
