data_PCOD9421913
_publ_section_title
;
Structure prediction by ZEFSAII (Michael W. Deem and Ramdas Pophale) SiO2 
 PCOD9421913
Probable space group: P C C A
;
_chemical_formula_sum "Si O2"
_cell_formula_units_Z 64
_cell_length_a 18.955920
_cell_length_b 10.823196
_cell_length_c 15.624105
_cell_angle_alpha 90.000000
_cell_angle_beta 90.000000
_cell_angle_gamma 90.000000
_cell_volume 3205.498215
_symmetry_space_group_name_H-M "P C C A"
_symmetry_group_IT_number 54
_symmetry_cell_setting 'orthorhombic'
loop_
_space_group_symop_operation_xyz
x,y,z
1/2-x,-y,z
1/2+x,-y,1/2-z
-x,y,1/2-z
-x,-y,-z
1/2+x,y,-z
1/2-x,y,1/2+z
x,-y,1/2+z
loop_
_atom_site_type_symbol
_atom_site_label
_atom_site_fract_x
_atom_site_fract_y
_atom_site_fract_z
Si Si1 0.837429 0.771010 0.705613
Si Si2 0.535958 0.134127 0.163278
Si Si3 0.935047 0.892535 0.575265
Si Si4 0.548308 0.717437 0.332744
Si Si5 0.080473 0.482959 0.027148
Si Si6 0.904103 0.248883 0.907820
Si Si7 0.826277 0.250564 0.738293
Si Si8 0.168365 0.505956 0.361943
O O1 0.870047 0.866681 0.639183
O O2 0.884030 0.783647 0.791143
O O3 0.754135 0.783332 0.718501
O O4 0.851636 0.631783 0.668760
O O5 0.500000 0.078808 0.250000
O O6 0.481419 0.241648 0.136863
O O7 0.613726 0.181360 0.183973
O O8 0.540670 0.031859 0.089921
O O9 0.908947 0.850058 0.483115
O O10 0.998214 0.803613 0.608985
O O11 0.500000 0.679195 0.250000
O O12 0.577796 0.609130 0.392805
O O13 0.108842 0.616620 0.054235
O O14 0.123349 0.446562 0.942305
O O15 0.000000 0.500000 0.000000
O O16 0.846550 0.223775 0.835863
O O17 0.835910 0.395623 0.715067
O O18 0.250000 0.500000 0.388788
#
# Coordination Sequence:
#
# PCOD9421913 Si02
#       8
#     8   8   8   8   8   8   8   8
#     4  10  20  40  60  85 119 160 193 240 299 362
#     4  10  22  39  61  86 115 159 202 248 299 352
#     4  11  21  40  61  85 120 154 200 251 300 343
#     4  10  21  35  59  88 121 160 193 243 302 359
#     4  12  20  34  59  91 121 150 201 246 294 353
#     4  11  22  38  60  89 120 154 198 251 297 356
#     4  10  23  39  61  87 121 158 201 240 301 362
#     4  10  21  38  58  85 124 158 192 238 304 365
#
# _framework density 19.965695
#
# number of rings (size 3 to 8) (size 9 to 14) (size 15 to 20)
#    0.000    1.500    2.500    3.750    0.000    3.000 
#    0.000    0.000    0.000    4.500    0.000    0.000 
#    0.000    0.000    0.000    0.000    0.000    0.000 
#
# Total GULP energy -357396.191752 kJ/mol
# GULP energy per Si atom -5584.315496 kJ/mol
# Density = 1.992025 g / cm^3
# Si number density = 19.965695 Si / 1000 Ang^3
#
#
#
# Elastic Constant Matrix: (Units=GPa)
#
#
# Indices 1 2 3 4 5 6 
#
# 1 113.9393 11.6745 31.9809 0.0000 0.0000 0.0000
# 2 11.6745 35.8262 5.5779 0.0000 0.0000 0.0000
# 3 31.9809 5.5779 92.3325 0.0000 0.0000 0.0000
# 4 0.0000 0.0000 0.0000 24.1614 0.0000 0.0000
# 5 0.0000 0.0000 0.0000 0.0000 20.2367 0.0000
# 6 0.0000 0.0000 0.0000 0.0000 0.0000 15.2912
#
#
#
# Elastic Compliance Matrix: (Units=1/GPa)
#
#
# Indices 1 2 3 4 5 6 
#
# 1 0.009981 -0.002740 -0.003292 0.000000 0.000000 0.000000
# 2 -0.002740 0.028930 -0.000799 0.000000 0.000000 0.000000
# 3 -0.003292 -0.000799 0.012019 0.000000 0.000000 0.000000
# 4 0.000000 0.000000 0.000000 0.041388 0.000000 0.000000
# 5 0.000000 0.000000 0.000000 0.000000 0.049415 0.000000
# 6 0.000000 0.000000 0.000000 0.000000 0.000000 0.065397
#
#
# Mechanical properties :
#
#
# Convention : Reuss Voigt Hill
#
# Bulk Modulus (GPa) = 26.83181 37.84052 32.33616
# Shear Modulus (GPa) = 21.43952 24.79550 23.11751
#
# Velocity S-wave (km/s) = 3.28047 3.52789 3.40643
# Velocity P-wave (km/s) = 5.27416 5.96562 5.63051
#
# Compressibility (1/GPa) = 0.03726920
#
# Stress axis : x y z
#
# Youngs Moduli (GPa) = 100.18760 34.56643 83.20302
#
# Poissons Ratio (x) = 0.09471 0.27388
# Poissons Ratio (y) = 0.27452 0.06645
# Poissons Ratio (z) = 0.32978 0.02760
#
# Static dielectric constant tensor:
#      x y z
#    x 1.657480 0.000000 0.000000 
#    y 0.000000 1.742600 0.000000 
#    z 0.000000 0.000000 1.760390 
# 
# From -- ./inp_files/14354.got.cif
#   From: 2010.05.17/outbox.cif.g08.bks.cpg/sg54_8_cif.got.tgz:14354.got - 2010.06.03 13:09:01.
