data_PCOD9421873
_publ_section_title
;
Structure prediction by ZEFSAII (Michael W. Deem and Ramdas Pophale) SiO2 
 PCOD9421873
Probable space group: P C C A
;
_chemical_formula_sum "Si O2"
_cell_formula_units_Z 56
_cell_length_a 13.247674
_cell_length_b 5.579956
_cell_length_c 31.259386
_cell_angle_alpha 90.000000
_cell_angle_beta 90.000000
_cell_angle_gamma 90.000000
_cell_volume 2310.738765
_symmetry_space_group_name_H-M "P C C A"
_symmetry_group_IT_number 54
_symmetry_cell_setting 'orthorhombic'
loop_
_space_group_symop_operation_xyz
x,y,z
1/2-x,-y,z
1/2+x,-y,1/2-z
-x,y,1/2-z
-x,-y,-z
1/2+x,y,-z
1/2-x,y,1/2+z
x,-y,1/2+z
loop_
_atom_site_type_symbol
_atom_site_label
_atom_site_fract_x
_atom_site_fract_y
_atom_site_fract_z
Si Si1 0.643779 0.874967 0.346119
Si Si2 0.121207 0.633827 0.740054
Si Si3 0.609237 0.148595 0.226857
Si Si4 0.527696 0.200131 0.139060
Si Si5 0.127828 0.000323 0.943757
Si Si6 0.870453 0.500184 0.513321
Si Si7 0.871267 0.533897 0.912716
O O1 0.637926 0.672962 0.310496
O O2 0.619752 0.801666 0.394947
O O3 0.750000 0.000000 0.344226
O O4 0.554083 0.048730 0.335181
O O5 0.162893 0.369480 0.749690
O O6 0.000000 0.616296 0.750000
O O7 0.150211 0.877994 0.766026
O O8 0.500000 0.133855 0.250000
O O9 0.603184 0.250522 0.178065
O O10 0.587286 0.049473 0.103553
O O11 0.456615 0.390819 0.114043
O O12 0.095267 0.238823 0.970131
O O13 0.250000 0.000000 0.943981
O O14 0.093707 0.743179 0.962914
O O15 0.750000 0.500000 0.520017
O O16 0.886260 0.513605 0.462486
O O17 0.750000 0.500000 0.903120
#
# Coordination Sequence:
#
# PCOD9421873 Si02
#       7
#     8   8   8   8   8   8   8
#     4  12  25  41  65 102 144 185 226 283 353 431
#     4  10  20  39  64  85 126 171 220 263 324 401
#     4  10  20  39  64  89 122 171 220 267 334 396
#     4  12  25  41  70  99 137 181 226 296 347 421
#     4  10  24  46  69  96 130 181 238 293 348 403
#     4   9  22  44  68  93 137 181 228 291 347 413
#     4  11  24  40  65  99 141 183 226 279 354 432
#
# _framework density 24.234674999999999
#
# number of rings (size 3 to 8) (size 9 to 14) (size 15 to 20)
#    0.000    1.429    4.286    1.714    4.000    1.714 
#    0.000    0.714    0.000    0.000    0.000    0.000 
#    0.000    0.000    0.000    0.000    0.000    0.000 
#
# Total GULP energy -312529.750388 kJ/mol
# GULP energy per Si atom -5580.888400 kJ/mol
# Density = 2.417952 g / cm^3
# Si number density = 24.234675 Si / 1000 Ang^3
#
#
#
# Elastic Constant Matrix: (Units=GPa)
#
#
# Indices 1 2 3 4 5 6 
#
# 1 61.4375 29.2001 -4.5906 0.0000 0.0000 0.0000
# 2 29.2001 155.7050 49.2855 0.0000 0.0000 0.0000
# 3 -4.5906 49.2855 142.3360 0.0000 0.0000 0.0000
# 4 0.0000 0.0000 0.0000 43.9237 0.0000 0.0000
# 5 0.0000 0.0000 0.0000 0.0000 49.5716 0.0000
# 6 0.0000 0.0000 0.0000 0.0000 0.0000 36.5663
#
#
#
# Elastic Compliance Matrix: (Units=1/GPa)
#
#
# Indices 1 2 3 4 5 6 
#
# 1 0.018365 -0.004079 0.002005 0.000000 0.000000 0.000000
# 2 -0.004079 0.008119 -0.002943 0.000000 0.000000 0.000000
# 3 0.002005 -0.002943 0.008109 0.000000 0.000000 0.000000
# 4 0.000000 0.000000 0.000000 0.022767 0.000000 0.000000
# 5 0.000000 0.000000 0.000000 0.000000 0.020173 0.000000
# 6 0.000000 0.000000 0.000000 0.000000 0.000000 0.027348
#
#
# Mechanical properties :
#
#
# Convention : Reuss Voigt Hill
#
# Bulk Modulus (GPa) = 40.71759 56.36318 48.54039
# Shear Modulus (GPa) = 40.61734 45.05121 42.83427
#
# Velocity S-wave (km/s) = 4.09834 4.31624 4.20870
# Velocity P-wave (km/s) = 6.26363 6.93885 6.60987
#
# Compressibility (1/GPa) = 0.02455941
#
# Stress axis : x y z
#
# Youngs Moduli (GPa) = 54.45155 123.17165 123.31600
#
# Poissons Ratio (x) = 0.50237 -0.24719
# Poissons Ratio (y) = 0.22208 0.36289
# Poissons Ratio (z) = -0.10915 0.36246
#
# Static dielectric constant tensor:
#      x y z
#    x 1.977380 0.000000 0.000000 
#    y 0.000000 1.965610 0.000000 
#    z 0.000000 0.000000 1.893750 
# 
# From -- ./inp_files/28212.got.cif
#   From: 2010.05.17/outbox.cif.g08.bks.cpg/sg54_15_cif.got.tgz:28212.got - 2010.06.03 13:09:01.
