data_PCOD9421154
_publ_section_title
;
Structure prediction by ZEFSAII (Michael W. Deem and Ramdas Pophale) SiO2 
 PCOD9421154
Probable space group: P C C A
;
_chemical_formula_sum "Si O2"
_cell_formula_units_Z 60
_cell_length_a 15.662381
_cell_length_b 11.238121
_cell_length_c 18.269024
_cell_angle_alpha 90.000000
_cell_angle_beta 90.000000
_cell_angle_gamma 90.000000
_cell_volume 3215.635647
_symmetry_space_group_name_H-M "P C C A"
_symmetry_group_IT_number 54
_symmetry_cell_setting 'orthorhombic'
loop_
_space_group_symop_operation_xyz
x,y,z
1/2-x,-y,z
1/2+x,-y,1/2-z
-x,y,1/2-z
-x,-y,-z
1/2+x,y,-z
1/2-x,y,1/2+z
x,-y,1/2+z
loop_
_atom_site_type_symbol
_atom_site_label
_atom_site_fract_x
_atom_site_fract_y
_atom_site_fract_z
Si Si1 0.908706 0.919743 0.756255
Si Si2 0.918482 0.348471 0.296324
Si Si3 0.896141 0.626355 0.520027
Si Si4 0.257493 0.793662 0.531404
Si Si5 0.288523 0.127437 0.869519
Si Si6 0.794398 0.374720 0.168099
Si Si7 0.088631 0.637703 0.534959
Si Si8 0.250000 0.000000 0.150819
O O1 0.922995 0.795244 0.798915
O O2 0.876725 0.880006 0.675678
O O3 0.000000 0.982407 0.750000
O O4 0.834071 0.987428 0.798968
O O5 0.836760 0.379890 0.247519
O O6 0.914685 0.392135 0.378653
O O7 0.000000 0.391138 0.250000
O O8 0.829251 0.690663 0.466225
O O9 0.863520 0.643454 0.603205
O O10 0.894347 0.485697 0.506131
O O11 0.992423 0.675141 0.512985
O O12 0.284704 0.861062 0.456809
O O13 0.164802 0.731411 0.522539
O O14 0.256379 0.884156 0.598790
O O15 0.244123 0.248756 0.838841
O O16 0.250000 0.000000 0.851599
O O17 0.750000 0.500000 0.153135
#
# Coordination Sequence:
#
# PCOD9421154 Si02
#       8
#     8   8   8   8   8   8   8   4
#     4  10  22  40  64  86 118 167 210 249 302 370
#     4  10  19  36  60  87 115 153 211 249 296 370
#     4  10  22  39  60  86 123 162 203 248 309 378
#     4  11  23  38  60  94 122 157 205 258 307 368
#     4  10  20  39  61  86 122 160 203 245 303 365
#     4  10  20  35  60  88 116 158 203 250 304 366
#     4  11  21  39  63  87 124 163 198 256 313 367
#     4  12  22  40  62  92 126 154 208 264 302 370
#
# _framework density 18.658829999999998
#
# number of rings (size 3 to 8) (size 9 to 14) (size 15 to 20)
#    0.000    1.600    4.000    2.000    1.867    1.067 
#    2.400    1.333    0.000    1.600    0.000    0.000 
#    0.000    0.000    0.000    0.000    0.000    0.000 
#
# Total GULP energy -334250.565911 kJ/mol
# GULP energy per Si atom -5570.842765 kJ/mol
# Density = 1.861636 g / cm^3
# Si number density = 18.658830 Si / 1000 Ang^3
#
#
#
# Elastic Constant Matrix: (Units=GPa)
#
#
# Indices 1 2 3 4 5 6 
#
# 1 120.3939 47.0297 31.2867 0.0000 0.0000 0.0000
# 2 47.0297 84.0191 7.2234 0.0000 0.0000 0.0000
# 3 31.2867 7.2234 84.6044 0.0000 0.0000 0.0000
# 4 0.0000 0.0000 0.0000 7.4769 0.0000 0.0000
# 5 0.0000 0.0000 0.0000 0.0000 19.6680 0.0000
# 6 0.0000 0.0000 0.0000 0.0000 0.0000 13.5933
#
#
#
# Elastic Compliance Matrix: (Units=1/GPa)
#
#
# Indices 1 2 3 4 5 6 
#
# 1 0.011733 -0.006240 -0.003806 0.000000 0.000000 0.000000
# 2 -0.006240 0.015309 0.001001 0.000000 0.000000 0.000000
# 3 -0.003806 0.001001 0.013142 0.000000 0.000000 0.000000
# 4 0.000000 0.000000 0.000000 0.133745 0.000000 0.000000
# 5 0.000000 0.000000 0.000000 0.000000 0.050844 0.000000
# 6 0.000000 0.000000 0.000000 0.000000 0.000000 0.073565
#
#
# Mechanical properties :
#
#
# Convention : Reuss Voigt Hill
#
# Bulk Modulus (GPa) = 45.26477 51.12190 48.19333
# Shear Modulus (GPa) = 15.44194 21.71281 18.57738
#
# Velocity S-wave (km/s) = 2.87991 3.41497 3.15879
# Velocity P-wave (km/s) = 5.94730 6.55798 6.26009
#
# Compressibility (1/GPa) = 0.02209224
#
# Stress axis : x y z
#
# Youngs Moduli (GPa) = 85.23141 65.32109 76.09333
#
# Poissons Ratio (x) = 0.40762 0.28961
# Poissons Ratio (y) = 0.53186 -0.07614
# Poissons Ratio (z) = 0.32439 -0.06536
#
# Static dielectric constant tensor:
#      x y z
#    x 1.671350 0.000000 0.000000 
#    y 0.000000 1.680770 0.000000 
#    z 0.000000 0.000000 1.630020 
# 
# From -- ./inp_files/18210.got.cif
#   From: 2010.05.17/outbox.cif.g08.bks.cpg/sg54_10_cif.got.tgz:18210.got - 2010.06.03 13:09:01.
