data_PCOD9421733
_publ_section_title
;
Structure prediction by ZEFSAII (Michael W. Deem and Ramdas Pophale) SiO2 
 PCOD9421733
Probable space group: P C C A
;
_chemical_formula_sum "Si O2"
_cell_formula_units_Z 32
_cell_length_a 8.353523
_cell_length_b 5.403940
_cell_length_c 34.102292
_cell_angle_alpha 90.000000
_cell_angle_beta 90.000000
_cell_angle_gamma 90.000000
_cell_volume 1539.443520
_symmetry_space_group_name_H-M "P C C A"
_symmetry_group_IT_number 54
_symmetry_cell_setting 'orthorhombic'
loop_
_space_group_symop_operation_xyz
x,y,z
1/2-x,-y,z
1/2+x,-y,1/2-z
-x,y,1/2-z
-x,-y,-z
1/2+x,y,-z
1/2-x,y,1/2+z
x,-y,1/2+z
loop_
_atom_site_type_symbol
_atom_site_label
_atom_site_fract_x
_atom_site_fract_y
_atom_site_fract_z
Si Si1 0.557303 0.004429 0.586787
Si Si2 0.940767 0.506506 0.455288
Si Si3 0.569100 0.111634 0.173593
Si Si4 0.500000 0.848677 0.250000
Si Si5 0.750000 0.500000 0.712210
O O1 0.498743 0.765876 0.562841
O O2 0.500815 0.959701 0.631635
O O3 0.750000 0.000000 0.586896
O O4 0.503044 0.265222 0.568363
O O5 0.750000 0.500000 0.454618
O O6 0.000000 0.500000 0.500000
O O7 0.611199 0.394650 0.183670
O O8 0.750000 0.000000 0.174383
O O9 0.475925 0.009399 0.210985
O O10 0.343299 0.688816 0.259884
#
# Coordination Sequence:
#
# PCOD9421733 Si02
#       5
#     8   8   8   4   4
#     4  11  24  43  73 102 133 180 228 280 336 406
#     4  12  26  47  70 102 139 176 220 278 343 410
#     4   9  21  37  62  91 127 170 228 265 330 392
#     4  10  20  38  58  96 122 176 216 274 316 396
#     4  10  20  38  64  86 130 168 228 268 330 388
#
# _framework density 20.786733000000002
#
# number of rings (size 3 to 8) (size 9 to 14) (size 15 to 20)
#    0.000    1.500    0.000    4.500   10.500    0.000 
#    2.250    7.500    0.000    0.000    0.000    0.000 
#    0.000    0.000    0.000    0.000    0.000    0.000 
#
# Total GULP energy -178670.767744 kJ/mol
# GULP energy per Si atom -5583.461492 kJ/mol
# Density = 2.073942 g / cm^3
# Si number density = 20.786733 Si / 1000 Ang^3
#
#
#
# Elastic Constant Matrix: (Units=GPa)
#
#
# Indices 1 2 3 4 5 6 
#
# 1 74.4657 12.5564 14.0268 0.0000 0.0000 0.0000
# 2 12.5564 73.3122 11.6333 0.0000 0.0000 0.0000
# 3 14.0268 11.6333 121.7854 0.0000 0.0000 0.0000
# 4 0.0000 0.0000 0.0000 17.2236 0.0000 0.0000
# 5 0.0000 0.0000 0.0000 0.0000 31.3140 0.0000
# 6 0.0000 0.0000 0.0000 0.0000 0.0000 38.8206
#
#
#
# Elastic Compliance Matrix: (Units=1/GPa)
#
#
# Indices 1 2 3 4 5 6 
#
# 1 0.014063 -0.002185 -0.001411 0.000000 0.000000 0.000000
# 2 -0.002185 0.014190 -0.001104 0.000000 0.000000 0.000000
# 3 -0.001411 -0.001104 0.008479 0.000000 0.000000 0.000000
# 4 0.000000 0.000000 0.000000 0.058060 0.000000 0.000000
# 5 0.000000 0.000000 0.000000 0.000000 0.031935 0.000000
# 6 0.000000 0.000000 0.000000 0.000000 0.000000 0.025760
#
#
# Mechanical properties :
#
#
# Convention : Reuss Voigt Hill
#
# Bulk Modulus (GPa) = 36.58611 38.44400 37.51506
# Shear Modulus (GPa) = 29.24044 32.89476 31.06760
#
# Velocity S-wave (km/s) = 3.75465 3.98237 3.87018
# Velocity P-wave (km/s) = 6.03618 6.29923 6.16911
#
# Compressibility (1/GPa) = 0.02733277
#
# Stress axis : x y z
#
# Youngs Moduli (GPa) = 71.10769 70.47395 117.93669
#
# Poissons Ratio (x) = 0.15397 0.16641
# Poissons Ratio (y) = 0.15535 0.13018
# Poissons Ratio (z) = 0.10034 0.07779
#
# Static dielectric constant tensor:
#      x y z
#    x 1.737450 0.000000 0.000000 
#    y 0.000000 1.903430 0.000000 
#    z 0.000000 0.000000 1.756820 
# 
# From -- ./inp_files/27412.got.cif
#   From: 2010.05.17/outbox.cif.g08.bks.cpg/sg54_14_cif.got.tgz:27412.got - 2010.06.03 13:09:01.
