data_PCOD9421568
_publ_section_title
;
Structure prediction by ZEFSAII (Michael W. Deem and Ramdas Pophale) SiO2 
 PCOD9421568
Probable space group: P C C A
;
_chemical_formula_sum "Si O2"
_cell_formula_units_Z 48
_cell_length_a 22.891840
_cell_length_b 6.689210
_cell_length_c 12.307925
_cell_angle_alpha 90.000000
_cell_angle_beta 90.000000
_cell_angle_gamma 90.000000
_cell_volume 1884.691940
_symmetry_space_group_name_H-M "P C C A"
_symmetry_group_IT_number 54
_symmetry_cell_setting 'orthorhombic'
loop_
_space_group_symop_operation_xyz
x,y,z
1/2-x,-y,z
1/2+x,-y,1/2-z
-x,y,1/2-z
-x,-y,-z
1/2+x,y,-z
1/2-x,y,1/2+z
x,-y,1/2+z
loop_
_atom_site_type_symbol
_atom_site_label
_atom_site_fract_x
_atom_site_fract_y
_atom_site_fract_z
Si Si1 0.592574 0.268688 0.895366
Si Si2 0.673756 0.169868 0.709017
Si Si3 0.923110 0.635929 0.271501
Si Si4 0.815556 0.412567 0.001486
Si Si5 0.702635 0.258058 0.269558
Si Si6 0.003665 0.717279 0.440491
O O1 0.630318 0.145437 0.810460
O O2 0.559999 0.415526 0.810197
O O3 0.638911 0.411224 0.963632
O O4 0.543858 0.168774 0.971663
O O5 0.657303 0.277460 0.597474
O O6 0.729528 0.297069 0.750380
O O7 0.692525 0.940226 0.697502
O O8 0.855295 0.619847 0.242139
O O9 0.955982 0.708864 0.166329
O O10 0.941604 0.756871 0.381083
O O11 0.750000 0.500000 0.028660
O O12 0.803048 0.264093 0.900185
O O13 0.000000 0.500000 0.500000
#
# Coordination Sequence:
#
# PCOD9421568 Si02
#       6
#     8   8   8   8   8   8
#     4  10  20  36  60  90 120 158 210 263 305 373
#     4  11  24  38  60  92 127 168 204 256 325 383
#     4   9  19  35  59  84 119 163 208 258 310 372
#     4  11  23  38  63  90 124 163 212 257 309 384
#     4  10  24  41  57  88 133 164 206 254 324 382
#     4   9  18  34  58  89 116 154 208 265 315 353
#
# _framework density 25.468351999999999
#
# number of rings (size 3 to 8) (size 9 to 14) (size 15 to 20)
#    0.000    2.000    1.667    1.000    7.000    4.000 
#    0.000    0.833    0.000   18.000    0.000    0.000 
#    0.000    0.000    0.000    0.000    0.000    0.000 
#
# Total GULP energy -267216.148768 kJ/mol
# GULP energy per Si atom -5567.003099 kJ/mol
# Density = 2.541038 g / cm^3
# Si number density = 25.468352 Si / 1000 Ang^3
#
#
#
# Elastic Constant Matrix: (Units=GPa)
#
#
# Indices 1 2 3 4 5 6 
#
# 1 95.6691 -5.8019 -11.6211 0.0000 0.0000 0.0000
# 2 -5.8019 28.7908 7.8991 0.0000 0.0000 0.0000
# 3 -11.6211 7.8991 86.6244 0.0000 0.0000 0.0000
# 4 0.0000 0.0000 0.0000 12.8338 0.0000 0.0000
# 5 0.0000 0.0000 0.0000 0.0000 35.2687 0.0000
# 6 0.0000 0.0000 0.0000 0.0000 0.0000 19.5082
#
#
#
# Elastic Compliance Matrix: (Units=1/GPa)
#
#
# Indices 1 2 3 4 5 6 
#
# 1 0.010717 0.001811 0.001273 0.000000 0.000000 0.000000
# 2 0.001811 0.035930 -0.003034 0.000000 0.000000 0.000000
# 3 0.001273 -0.003034 0.011991 0.000000 0.000000 0.000000
# 4 0.000000 0.000000 0.000000 0.077919 0.000000 0.000000
# 5 0.000000 0.000000 0.000000 0.000000 0.028354 0.000000
# 6 0.000000 0.000000 0.000000 0.000000 0.000000 0.051260
#
#
# Mechanical properties :
#
#
# Convention : Reuss Voigt Hill
#
# Bulk Modulus (GPa) = 17.02469 21.33740 19.18104
# Shear Modulus (GPa) = 21.21768 28.22936 24.72352
#
# Velocity S-wave (km/s) = 2.88948 3.33289 3.11907
# Velocity P-wave (km/s) = 4.22271 4.81737 4.52981
#
# Compressibility (1/GPa) = 0.05873822
#
# Stress axis : x y z
#
# Youngs Moduli (GPa) = 93.30892 27.83158 83.39279
#
# Poissons Ratio (x) = -0.05039 -0.10613
# Poissons Ratio (y) = -0.16894 0.25297
# Poissons Ratio (z) = -0.11875 0.08443
#
# Static dielectric constant tensor:
#      x y z
#    x 2.221600 0.000000 0.000000 
#    y 0.000000 2.162920 0.000000 
#    z 0.000000 0.000000 2.026910 
# 
# From -- ./inp_files/9890.got.cif
#   From: 2010.05.17/outbox.cif.g08.bks.cpg/sg54_5_cif.got.tgz:9890.got - 2010.06.03 13:09:01.
