data_PCOD9421042
_publ_section_title
;
Structure prediction by ZEFSAII (Michael W. Deem and Ramdas Pophale) SiO2 
 PCOD9421042
Probable space group: P C C A
;
_chemical_formula_sum "Si O2"
_cell_formula_units_Z 48
_cell_length_a 13.594851
_cell_length_b 8.703629
_cell_length_c 18.273177
_cell_angle_alpha 90.000000
_cell_angle_beta 90.000000
_cell_angle_gamma 90.000000
_cell_volume 2162.165252
_symmetry_space_group_name_H-M "P C C A"
_symmetry_group_IT_number 54
_symmetry_cell_setting 'orthorhombic'
loop_
_space_group_symop_operation_xyz
x,y,z
1/2-x,-y,z
1/2+x,-y,1/2-z
-x,y,1/2-z
-x,-y,-z
1/2+x,y,-z
1/2-x,y,1/2+z
x,-y,1/2+z
loop_
_atom_site_type_symbol
_atom_site_label
_atom_site_fract_x
_atom_site_fract_y
_atom_site_fract_z
Si Si1 0.418350 0.220672 0.884773
Si Si2 0.645412 0.913251 0.563168
Si Si3 0.395151 0.569872 0.522187
Si Si4 0.869386 0.254745 0.419281
Si Si5 0.805143 0.333727 0.835767
Si Si6 0.226308 0.321680 0.824664
O O1 0.375260 0.310184 0.957038
O O2 0.529387 0.280718 0.875247
O O3 0.336328 0.248986 0.823393
O O4 0.423039 0.039826 0.899896
O O5 0.611001 0.865177 0.483208
O O6 0.664507 0.765280 0.613493
O O7 0.750000 0.000000 0.556496
O O8 0.500000 0.500000 0.500000
O O9 0.337682 0.410106 0.536663
O O10 0.387303 0.652189 0.601274
O O11 0.778111 0.220371 0.367531
O O12 0.750000 0.500000 0.829351
O O13 0.829071 0.299019 0.752292
O O14 0.250000 0.500000 0.839928
#
# Coordination Sequence:
#
# PCOD9421042 Si02
#       6
#     8   8   8   8   8   8
#     4  10  20  34  54  83 113 147 190 239 296 355
#     4  10  20  34  53  79 110 151 195 241 298 362
#     4   9  18  34  59  87 111 141 190 245 290 345
#     4  10  19  34  58  82 109 145 192 245 292 351
#     4   9  18  33  55  83 109 142 189 238 292 352
#     4  10  20  35  55  78 111 153 195 240 295 358
#
# _framework density 22.199968999999999
#
# number of rings (size 3 to 8) (size 9 to 14) (size 15 to 20)
#    0.000    2.333    0.000    3.500    0.000    2.000 
#    0.000    7.500    0.000   18.000    0.000    0.000 
#    0.000    0.000    0.000    0.000    0.000    0.000 
#
# Total GULP energy -267529.637095 kJ/mol
# GULP energy per Si atom -5573.534106 kJ/mol
# Density = 2.214944 g / cm^3
# Si number density = 22.199969 Si / 1000 Ang^3
#
#
#
# Elastic Constant Matrix: (Units=GPa)
#
#
# Indices 1 2 3 4 5 6 
#
# 1 60.9307 1.2414 20.0284 0.0000 0.0000 0.0000
# 2 1.2414 69.1898 11.7096 0.0000 0.0000 0.0000
# 3 20.0284 11.7096 92.6953 0.0000 0.0000 0.0000
# 4 0.0000 0.0000 0.0000 -2.5444 0.0000 0.0000
# 5 0.0000 0.0000 0.0000 0.0000 19.5501 0.0000
# 6 0.0000 0.0000 0.0000 0.0000 0.0000 20.6434
#
#
#
# Elastic Compliance Matrix: (Units=1/GPa)
#
#
# Indices 1 2 3 4 5 6 
#
# 1 0.017675 0.000336 -0.003861 0.000000 0.000000 0.000000
# 2 0.000336 0.014775 -0.001939 0.000000 0.000000 0.000000
# 3 -0.003861 -0.001939 0.011867 0.000000 0.000000 0.000000
# 4 0.000000 0.000000 0.000000 -0.393016 0.000000 0.000000
# 5 0.000000 0.000000 0.000000 0.000000 0.051151 0.000000
# 6 0.000000 0.000000 0.000000 0.000000 0.000000 0.048442
#
#
# Mechanical properties :
#
#
# Convention : Reuss Voigt Hill
#
# Bulk Modulus (GPa) = 29.95023 32.08605 31.01814
# Shear Modulus (GPa) = -22.02165 20.18557 -0.91804
#
# Velocity S-wave (km/s) = -3.15297 3.01867 -0.64376
# Velocity P-wave (km/s) = 0.51522 5.16085 3.66741
#
# Compressibility (1/GPa) = 0.03338872
#
# Stress axis : x y z
#
# Youngs Moduli (GPa) = 56.57868 67.68126 84.26514
#
# Poissons Ratio (x) = -0.02277 0.32538
# Poissons Ratio (y) = -0.01903 0.16340
# Poissons Ratio (z) = 0.21847 0.13124
#
# Static dielectric constant tensor:
#      x y z
#    x 1.916770 0.000000 0.000000 
#    y 0.000000 1.875780 0.000000 
#    z 0.000000 0.000000 1.845970 
# 
# From -- ./inp_files/18516.got.cif
#   From: 2010.05.17/outbox.cif.g08.bks.cpg/sg54_10_cif.got.tgz:18516.got - 2010.06.03 13:09:01.
