data_PCOD9421341
_publ_section_title
;
Structure prediction by ZEFSAII (Michael W. Deem and Ramdas Pophale) SiO2 
 PCOD9421341
Probable space group: P C C A
;
_chemical_formula_sum "Si O2"
_cell_formula_units_Z 60
_cell_length_a 11.879806
_cell_length_b 8.615870
_cell_length_c 32.165788
_cell_angle_alpha 90.000000
_cell_angle_beta 90.000000
_cell_angle_gamma 90.000000
_cell_volume 3292.324860
_symmetry_space_group_name_H-M "P C C A"
_symmetry_group_IT_number 54
_symmetry_cell_setting 'orthorhombic'
loop_
_space_group_symop_operation_xyz
x,y,z
1/2-x,-y,z
1/2+x,-y,1/2-z
-x,y,1/2-z
-x,-y,-z
1/2+x,y,-z
1/2-x,y,1/2+z
x,-y,1/2+z
loop_
_atom_site_type_symbol
_atom_site_label
_atom_site_fract_x
_atom_site_fract_y
_atom_site_fract_z
Si Si1 0.038988 0.824915 0.703281
Si Si2 0.380702 0.032370 0.865268
Si Si3 0.440814 0.775190 0.623388
Si Si4 0.250000 0.000000 0.162669
Si Si5 0.880675 0.847879 0.461108
Si Si6 0.024255 0.164098 0.449624
Si Si7 0.680954 0.345162 0.931078
Si Si8 0.130867 0.542982 0.661458
O O1 0.158025 0.906785 0.690293
O O2 0.059076 0.646030 0.692073
O O3 0.000000 0.853255 0.750000
O O4 0.940992 0.881841 0.672643
O O5 0.407683 0.128199 0.907543
O O6 0.250000 0.000000 0.860512
O O7 0.447948 0.870439 0.867300
O O8 0.333764 0.888195 0.635546
O O9 0.441904 0.743569 0.573984
O O10 0.427244 0.615232 0.647208
O O11 0.899765 0.820519 0.509610
O O12 0.754214 0.800348 0.448186
O O13 0.940772 0.014361 0.453756
O O14 0.944114 0.313650 0.446967
O O15 0.750000 0.500000 0.943437
O O16 0.663515 0.361807 0.881015
O O17 0.250000 0.500000 0.681429
#
# Coordination Sequence:
#
# PCOD9421341 Si02
#       8
#     8   8   8   4   8   8   8   8
#     4  11  23  39  65  92 123 155 203 257 308 365
#     4  10  23  42  61  84 124 170 199 246 306 368
#     4  10  20  36  65  90 121 158 205 247 299 354
#     4  10  20  38  64  96 114 156 204 258 302 340
#     4  10  20  32  56  87 115 154 203 252 284 341
#     4  10  22  36  56  85 120 157 204 245 297 355
#     4  11  20  34  58  84 118 153 193 251 300 350
#     4  11  19  38  63  93 121 152 198 256 311 360
#
# _framework density 18.224204
#
# number of rings (size 3 to 8) (size 9 to 14) (size 15 to 20)
#    0.000    1.600    5.333    0.400    4.667    3.733 
#    0.000    4.667    0.000    0.000    0.000    0.000 
#    0.000    0.000    0.000    0.000    0.000    0.000 
#
# Total GULP energy -334066.490017 kJ/mol
# GULP energy per Si atom -5567.774834 kJ/mol
# Density = 1.818272 g / cm^3
# Si number density = 18.224204 Si / 1000 Ang^3
#
#
#
# Elastic Constant Matrix: (Units=GPa)
#
#
# Indices 1 2 3 4 5 6 
#
# 1 134.3242 37.0568 54.4409 0.0000 0.0000 0.0000
# 2 37.0568 57.5602 34.3611 0.0000 0.0000 0.0000
# 3 54.4409 34.3611 124.6856 0.0000 0.0000 0.0000
# 4 0.0000 0.0000 0.0000 18.9103 0.0000 0.0000
# 5 0.0000 0.0000 0.0000 0.0000 -30.7052 0.0000
# 6 0.0000 0.0000 0.0000 0.0000 0.0000 19.8500
#
#
#
# Elastic Compliance Matrix: (Units=1/GPa)
#
#
# Indices 1 2 3 4 5 6 
#
# 1 0.009956 -0.004566 -0.003089 0.000000 0.000000 0.000000
# 2 -0.004566 0.022888 -0.004314 0.000000 0.000000 0.000000
# 3 -0.003089 -0.004314 0.010558 0.000000 0.000000 0.000000
# 4 0.000000 0.000000 0.000000 0.052881 0.000000 0.000000
# 5 0.000000 0.000000 0.000000 0.000000 -0.032568 0.000000
# 6 0.000000 0.000000 0.000000 0.000000 0.000000 0.050378
#
#
# Mechanical properties :
#
#
# Convention : Reuss Voigt Hill
#
# Bulk Modulus (GPa) = 51.37562 63.14307 57.25935
# Shear Modulus (GPa) = 34.59776 14.32512 24.46144
#
# Velocity S-wave (km/s) = 4.36185 2.80670 3.66765
# Velocity P-wave (km/s) = 7.32255 6.72507 7.03016
#
# Compressibility (1/GPa) = 0.01946448
#
# Stress axis : x y z
#
# Youngs Moduli (GPa) = 100.44035 43.69156 94.71769
#
# Poissons Ratio (x) = 0.19948 0.29257
# Poissons Ratio (y) = 0.45859 0.40860
# Poissons Ratio (z) = 0.31025 0.18848
#
# Static dielectric constant tensor:
#      x y z
#    x 1.635790 0.000000 0.000000 
#    y 0.000000 1.690280 0.000000 
#    z 0.000000 0.000000 1.620430 
# 
# From -- ./inp_files/28103.got.cif
#   From: 2010.05.17/outbox.cif.g08.bks.cpg/sg54_15_cif.got.tgz:28103.got - 2010.06.03 13:09:01.
