data_PCOD9421707
_publ_section_title
;
Structure prediction by ZEFSAII (Michael W. Deem and Ramdas Pophale) SiO2 
 PCOD9421707
Probable space group: P C C A
;
_chemical_formula_sum "Si O2"
_cell_formula_units_Z 64
_cell_length_a 28.794456
_cell_length_b 8.742909
_cell_length_c 10.994303
_cell_angle_alpha 90.000000
_cell_angle_beta 90.000000
_cell_angle_gamma 90.000000
_cell_volume 2767.786189
_symmetry_space_group_name_H-M "P C C A"
_symmetry_group_IT_number 54
_symmetry_cell_setting 'orthorhombic'
loop_
_space_group_symop_operation_xyz
x,y,z
1/2-x,-y,z
1/2+x,-y,1/2-z
-x,y,1/2-z
-x,-y,-z
1/2+x,y,-z
1/2-x,y,1/2+z
x,-y,1/2+z
loop_
_atom_site_type_symbol
_atom_site_label
_atom_site_fract_x
_atom_site_fract_y
_atom_site_fract_z
Si Si1 0.971494 0.594001 0.398269
Si Si2 0.390448 0.272316 0.946206
Si Si3 0.967427 0.858958 0.035398
Si Si4 0.926686 0.679163 0.806196
Si Si5 0.325282 0.685779 0.082286
Si Si6 0.288592 0.876473 0.298630
Si Si7 0.708082 0.411606 0.575040
Si Si8 0.133384 0.046687 0.921623
O O1 0.923385 0.645810 0.459895
O O2 0.954556 0.479328 0.293726
O O3 0.000000 0.500000 0.500000
O O4 0.002821 0.742612 0.384025
O O5 0.420510 0.244090 0.824402
O O6 0.347126 0.376781 0.901674
O O7 0.373895 0.109542 0.000301
O O8 0.918680 0.896490 0.100635
O O9 0.952342 0.781208 0.906984
O O10 0.000000 0.000000 0.000000
O O11 0.875587 0.648109 0.860994
O O12 0.294864 0.762425 0.187167
O O13 0.299691 0.535883 0.031977
O O14 0.337571 0.816478 0.982513
O O15 0.276956 0.767239 0.415080
O O16 0.250000 0.000000 0.278730
O O17 0.336271 0.971332 0.315070
O O18 0.750000 0.500000 0.646159
#
# Coordination Sequence:
#
# PCOD9421707 Si02
#       8
#     8   8   8   8   8   8   8   8
#     4  10  21  38  65  91 130 175 225 286 342 425
#     4  11  21  42  67  91 130 186 227 283 360 422
#     4  10  20  37  65  96 133 172 230 291 348 425
#     4  10  21  40  67  91 131 179 225 277 357 424
#     4  11  22  43  70 100 135 184 231 283 358 430
#     4  11  25  47  72 103 141 190 240 295 364 436
#     4  11  24  42  69 102 138 177 235 293 357 423
#     4  10  22  41  69  96 140 180 228 295 358 420
#
# _framework density 23.123172
#
# number of rings (size 3 to 8) (size 9 to 14) (size 15 to 20)
#    0.000    1.500    5.000    0.750    0.000    5.000 
#    0.000    6.250    8.250    0.000    0.000    0.000 
#    0.000    0.000    0.000    0.000    0.000    0.000 
#
# Total GULP energy -356653.471426 kJ/mol
# GULP energy per Si atom -5572.710491 kJ/mol
# Density = 2.307054 g / cm^3
# Si number density = 23.123172 Si / 1000 Ang^3
#
#
#
# Elastic Constant Matrix: (Units=GPa)
#
#
# Indices 1 2 3 4 5 6 
#
# 1 139.4658 77.5336 21.8660 0.0000 0.0000 0.0000
# 2 77.5336 133.1708 41.4505 0.0000 0.0000 0.0000
# 3 21.8660 41.4505 57.3349 0.0000 0.0000 0.0000
# 4 0.0000 0.0000 0.0000 35.6618 0.0000 0.0000
# 5 0.0000 0.0000 0.0000 0.0000 23.7761 0.0000
# 6 0.0000 0.0000 0.0000 0.0000 0.0000 64.3339
#
#
#
# Elastic Compliance Matrix: (Units=1/GPa)
#
#
# Indices 1 2 3 4 5 6 
#
# 1 0.010615 -0.006349 0.000542 0.000000 0.000000 0.000000
# 2 -0.006349 0.013487 -0.007329 0.000000 0.000000 0.000000
# 3 0.000542 -0.007329 0.022533 0.000000 0.000000 0.000000
# 4 0.000000 0.000000 0.000000 0.028041 0.000000 0.000000
# 5 0.000000 0.000000 0.000000 0.000000 0.042059 0.000000
# 6 0.000000 0.000000 0.000000 0.000000 0.000000 0.015544
#
#
# Mechanical properties :
#
#
# Convention : Reuss Voigt Hill
#
# Bulk Modulus (GPa) = 49.10958 67.96352 58.53655
# Shear Modulus (GPa) = 30.24105 37.36246 33.80176
#
# Velocity S-wave (km/s) = 3.62031 4.02406 3.82751
# Velocity P-wave (km/s) = 6.22574 7.14469 6.70099
#
# Compressibility (1/GPa) = 0.02036263
#
# Stress axis : x y z
#
# Youngs Moduli (GPa) = 94.20919 74.14796 44.37864
#
# Poissons Ratio (x) = 0.47073 -0.02403
# Poissons Ratio (y) = 0.59809 0.32525
# Poissons Ratio (z) = -0.05102 0.54343
#
# Static dielectric constant tensor:
#      x y z
#    x 1.922040 0.000000 0.000000 
#    y 0.000000 1.866670 0.000000 
#    z 0.000000 0.000000 1.906210 
# 
# From -- ./inp_files/10562.got.cif
#   From: 2010.05.17/outbox.cif.g08.bks.cpg/sg54_6_cif.got.tgz:10562.got - 2010.06.03 13:09:01.
