data_PCOD9421246
_publ_section_title
;
Structure prediction by ZEFSAII (Michael W. Deem and Ramdas Pophale) SiO2 
 PCOD9421246
Probable space group: P C C A
;
_chemical_formula_sum "Si O2"
_cell_formula_units_Z 64
_cell_length_a 11.882239
_cell_length_b 13.447891
_cell_length_c 18.064288
_cell_angle_alpha 90.000000
_cell_angle_beta 90.000000
_cell_angle_gamma 90.000000
_cell_volume 2886.511636
_symmetry_space_group_name_H-M "P C C A"
_symmetry_group_IT_number 54
_symmetry_cell_setting 'orthorhombic'
loop_
_space_group_symop_operation_xyz
x,y,z
1/2-x,-y,z
1/2+x,-y,1/2-z
-x,y,1/2-z
-x,-y,-z
1/2+x,y,-z
1/2-x,y,1/2+z
x,-y,1/2+z
loop_
_atom_site_type_symbol
_atom_site_label
_atom_site_fract_x
_atom_site_fract_y
_atom_site_fract_z
Si Si1 0.230318 0.608602 0.837721
Si Si2 0.797187 0.829176 0.118134
Si Si3 0.657625 0.086725 0.963915
Si Si4 0.242095 0.611255 0.167546
Si Si5 0.374466 0.944437 0.739252
Si Si6 0.934205 0.139920 0.059495
Si Si7 0.844630 0.803454 0.397092
Si Si8 0.009183 0.697198 0.669813
O O1 0.250000 0.500000 0.872661
O O2 0.274166 0.710602 0.875828
O O3 0.285119 0.607659 0.755466
O O4 0.095724 0.621239 0.828988
O O5 0.853854 0.873061 0.190263
O O6 0.676097 0.883725 0.107013
O O7 0.857352 0.858125 0.042033
O O8 0.533065 0.059048 0.938281
O O9 0.715432 0.161355 0.907103
O O10 0.750000 0.000000 0.970706
O O11 0.250000 0.500000 0.137389
O O12 0.160092 0.688587 0.126600
O O13 0.369287 0.650451 0.164076
O O14 0.500000 0.994728 0.750000
O O15 0.388646 0.873665 0.667706
O O16 0.250000 0.000000 0.730293
O O17 0.985900 0.233479 0.100874
O O18 0.896353 0.173270 0.977586
O O19 0.000000 0.750941 0.750000
#
# Coordination Sequence:
#
# PCOD9421246 Si02
#       8
#     8   8   8   8   8   8   8   8
#     4   9  18  37  64  99 133 174 224 280 343 411
#     4  10  22  41  68  95 135 173 226 289 336 414
#     4  11  23  40  63  91 130 179 229 282 355 422
#     4  10  19  38  64  96 136 175 229 282 344 421
#     4  12  27  48  69 104 139 180 237 296 360 417
#     4  10  22  40  67  96 133 178 221 285 349 413
#     4  11  23  42  64  97 136 176 225 285 352 415
#     4   9  18  37  65  97 127 175 235 276 336 413
#
# _framework density 22.172091000000002
#
# number of rings (size 3 to 8) (size 9 to 14) (size 15 to 20)
#    0.000    1.750    2.500    1.500    0.000    4.000 
#    4.500    6.250    0.000    2.250    0.000    0.000 
#    0.000    0.000    0.000    0.000    0.000    0.000 
#
# Total GULP energy -356984.552803 kJ/mol
# GULP energy per Si atom -5577.883638 kJ/mol
# Density = 2.212163 g / cm^3
# Si number density = 22.172091 Si / 1000 Ang^3
#
#
#
# Elastic Constant Matrix: (Units=GPa)
#
#
# Indices 1 2 3 4 5 6 
#
# 1 121.9175 32.3942 32.5779 0.0000 0.0000 0.0000
# 2 32.3942 124.1338 37.3295 0.0000 0.0000 0.0000
# 3 32.5779 37.3295 96.7534 0.0000 0.0000 0.0000
# 4 0.0000 0.0000 0.0000 22.4868 0.0000 0.0000
# 5 0.0000 0.0000 0.0000 0.0000 9.3674 0.0000
# 6 0.0000 0.0000 0.0000 0.0000 0.0000 17.8599
#
#
#
# Elastic Compliance Matrix: (Units=1/GPa)
#
#
# Indices 1 2 3 4 5 6 
#
# 1 0.009314 -0.001683 -0.002487 0.000000 0.000000 0.000000
# 2 -0.001683 0.009417 -0.003067 0.000000 0.000000 0.000000
# 3 -0.002487 -0.003067 0.012356 0.000000 0.000000 0.000000
# 4 0.000000 0.000000 0.000000 0.044470 0.000000 0.000000
# 5 0.000000 0.000000 0.000000 0.000000 0.106753 0.000000
# 6 0.000000 0.000000 0.000000 0.000000 0.000000 0.055991
#
#
# Mechanical properties :
#
#
# Convention : Reuss Voigt Hill
#
# Bulk Modulus (GPa) = 60.18828 60.82309 60.50568
# Shear Modulus (GPa) = 19.35636 25.97638 22.66637
#
# Velocity S-wave (km/s) = 2.95787 3.42655 3.20080
# Velocity P-wave (km/s) = 6.23460 6.56862 6.40379
#
# Compressibility (1/GPa) = 0.01661453
#
# Stress axis : x y z
#
# Youngs Moduli (GPa) = 107.36645 106.18891 80.93157
#
# Poissons Ratio (x) = 0.17869 0.20127
# Poissons Ratio (y) = 0.18067 0.24820
# Poissons Ratio (z) = 0.26700 0.32566
#
# Static dielectric constant tensor:
#      x y z
#    x 1.896540 0.000000 0.000000 
#    y 0.000000 1.843440 0.000000 
#    z 0.000000 0.000000 1.822160 
# 
# From -- ./inp_files/17458.got.cif
#   From: 2010.05.17/outbox.cif.g08.bks.cpg/sg54_9_cif.got.tgz:17458.got - 2010.06.03 13:09:01.
