data_PCOD9421052
_publ_section_title
;
Structure prediction by ZEFSAII (Michael W. Deem and Ramdas Pophale) SiO2 
 PCOD9421052
Probable space group: P C C A
;
_chemical_formula_sum "Si O2"
_cell_formula_units_Z 44
_cell_length_a 16.618963
_cell_length_b 7.741562
_cell_length_c 17.346176
_cell_angle_alpha 90.000000
_cell_angle_beta 90.000000
_cell_angle_gamma 90.000000
_cell_volume 2231.702324
_symmetry_space_group_name_H-M "P C C A"
_symmetry_group_IT_number 54
_symmetry_cell_setting 'orthorhombic'
loop_
_space_group_symop_operation_xyz
x,y,z
1/2-x,-y,z
1/2+x,-y,1/2-z
-x,y,1/2-z
-x,-y,-z
1/2+x,y,-z
1/2-x,y,1/2+z
x,-y,1/2+z
loop_
_atom_site_type_symbol
_atom_site_label
_atom_site_fract_x
_atom_site_fract_y
_atom_site_fract_z
Si Si1 0.750000 0.000000 0.763943
Si Si2 0.520041 0.338135 0.111691
Si Si3 0.511520 0.300989 0.928648
Si Si4 0.188695 0.793868 0.370441
Si Si5 0.660760 0.158896 0.546585
Si Si6 0.105189 0.959880 0.120118
O O1 0.763209 0.163140 0.707486
O O2 0.670876 0.000849 0.815850
O O3 0.477038 0.523097 0.118472
O O4 0.610051 0.319179 0.144063
O O5 0.461008 0.186518 0.139677
O O6 0.533206 0.318930 0.019002
O O7 0.416319 0.266453 0.928926
O O8 0.557641 0.134756 0.898598
O O9 0.256589 0.743416 0.432852
O O10 0.159033 0.979285 0.405159
O O11 0.649884 0.107848 0.457390
#
# Coordination Sequence:
#
# PCOD9421052 Si02
#       6
#     4   8   8   8   8   8
#     4  10  24  34  62  80 118 168 198 226 304 344
#     4  10  20  35  62  88 120 139 197 246 296 349
#     4  10  19  34  61  95 107 150 190 247 302 344
#     4  10  19  37  57  86 114 159 192 232 289 361
#     4   9  17  33  61  86 111 146 192 240 298 337
#     4  11  19  38  60  86 114 153 194 249 285 351
#
# _framework density 19.715890999999999
#
# number of rings (size 3 to 8) (size 9 to 14) (size 15 to 20)
#    0.000    2.182    3.636    2.182    0.000    1.455 
#    0.000    0.909   24.000    0.000    0.000    0.000 
#    0.000    0.000    0.000    0.000    0.000    0.000 
#
# Total GULP energy -245349.731503 kJ/mol
# GULP energy per Si atom -5576.130261 kJ/mol
# Density = 1.967102 g / cm^3
# Si number density = 19.715891 Si / 1000 Ang^3
#
#
#
# Elastic Constant Matrix: (Units=GPa)
#
#
# Indices 1 2 3 4 5 6 
#
# 1 127.1542 41.7632 46.4925 0.0000 0.0000 0.0000
# 2 41.7632 78.3461 20.2803 0.0000 0.0000 0.0000
# 3 46.4925 20.2803 46.8866 0.0000 0.0000 0.0000
# 4 0.0000 0.0000 0.0000 0.5580 0.0000 0.0000
# 5 0.0000 0.0000 0.0000 0.0000 52.6087 0.0000
# 6 0.0000 0.0000 0.0000 0.0000 0.0000 7.7333
#
#
#
# Elastic Compliance Matrix: (Units=1/GPa)
#
#
# Indices 1 2 3 4 5 6 
#
# 1 0.013457 -0.004188 -0.011532 0.000000 0.000000 0.000000
# 2 -0.004188 0.015677 -0.002628 0.000000 0.000000 0.000000
# 3 -0.011532 -0.002628 0.033900 0.000000 0.000000 0.000000
# 4 0.000000 0.000000 0.000000 1.792219 0.000000 0.000000
# 5 0.000000 0.000000 0.000000 0.000000 0.019008 0.000000
# 6 0.000000 0.000000 0.000000 0.000000 0.000000 0.129312
#
#
# Mechanical properties :
#
#
# Convention : Reuss Voigt Hill
#
# Bulk Modulus (GPa) = 37.96928 52.16213 45.06570
# Shear Modulus (GPa) = 2.44016 21.77004 12.10510
#
# Velocity S-wave (km/s) = 1.11371 3.32654 2.48054
# Velocity P-wave (km/s) = 4.57753 6.42408 5.57775
#
# Compressibility (1/GPa) = 0.02633708
#
# Stress axis : x y z
#
# Youngs Moduli (GPa) = 74.31338 63.78934 29.49879
#
# Poissons Ratio (x) = 0.26715 0.34018
# Poissons Ratio (y) = 0.31123 0.07752
# Poissons Ratio (z) = 0.85698 0.16763
#
# Static dielectric constant tensor:
#      x y z
#    x 1.701850 0.000000 0.000000 
#    y 0.000000 1.621870 0.000000 
#    z 0.000000 0.000000 1.709240 
# 
# From -- ./inp_files/14036.got.cif
#   From: 2010.05.17/outbox.cif.g08.bks.cpg/sg54_8_cif.got.tgz:14036.got - 2010.06.03 13:09:01.
