data_PCOD9421277
_publ_section_title
;
Structure prediction by ZEFSAII (Michael W. Deem and Ramdas Pophale) SiO2 
 PCOD9421277
Probable space group: P C C A
;
_chemical_formula_sum "Si O2"
_cell_formula_units_Z 52
_cell_length_a 18.105201
_cell_length_b 7.766901
_cell_length_c 17.843639
_cell_angle_alpha 90.000000
_cell_angle_beta 90.000000
_cell_angle_gamma 90.000000
_cell_volume 2509.195780
_symmetry_space_group_name_H-M "P C C A"
_symmetry_group_IT_number 54
_symmetry_cell_setting 'orthorhombic'
loop_
_space_group_symop_operation_xyz
x,y,z
1/2-x,-y,z
1/2+x,-y,1/2-z
-x,y,1/2-z
-x,-y,-z
1/2+x,y,-z
1/2-x,y,1/2+z
x,-y,1/2+z
loop_
_atom_site_type_symbol
_atom_site_label
_atom_site_fract_x
_atom_site_fract_y
_atom_site_fract_z
Si Si1 0.509488 0.865689 0.405979
Si Si2 0.699057 0.336491 0.811369
Si Si3 0.750000 0.000000 0.720818
Si Si4 0.324819 0.104936 0.561701
Si Si5 0.498595 0.663435 0.946113
Si Si6 0.453514 0.477066 0.682474
Si Si7 0.123195 0.878093 0.391869
O O1 0.593843 0.939129 0.403139
O O2 0.493331 0.814211 0.492914
O O3 0.509199 0.688939 0.357921
O O4 0.445075 0.990617 0.379493
O O5 0.750000 0.500000 0.800305
O O6 0.690107 0.289554 0.899633
O O7 0.620230 0.399995 0.783892
O O8 0.721826 0.160551 0.770444
O O9 0.684576 0.918679 0.669859
O O10 0.338711 0.099468 0.473106
O O11 0.250000 0.000000 0.577084
O O12 0.557330 0.621098 0.881609
O O13 0.421299 0.697814 0.902597
O O14 0.500000 0.500000 0.000000
O O15 0.500000 0.551062 0.750000
#
# Coordination Sequence:
#
# PCOD9421277 Si02
#       7
#     8   8   4   8   8   8   8
#     4   9  20  38  65  94 128 169 220 283 333 398
#     4  11  26  44  67  93 142 185 222 280 340 404
#     4  12  26  46  66 100 148 182 232 284 344 430
#     4  10  19  40  66  97 131 172 227 276 338 409
#     4   9  19  37  63  92 127 157 215 282 333 397
#     4  10  21  40  62  93 128 172 223 272 332 410
#     4  11  22  41  68 101 129 178 227 284 352 398
#
# _framework density 20.723770999999999
#
# number of rings (size 3 to 8) (size 9 to 14) (size 15 to 20)
#    0.000    1.846    1.538    3.692    2.154    2.462 
#    0.000    1.538    0.000    0.000    0.000    0.000 
#    0.000    0.000    0.000    0.000    0.000    0.000 
#
# Total GULP energy -289579.691711 kJ/mol
# GULP energy per Si atom -5568.840225 kJ/mol
# Density = 2.067660 g / cm^3
# Si number density = 20.723771 Si / 1000 Ang^3
#
#
#
# Elastic Constant Matrix: (Units=GPa)
#
#
# Indices 1 2 3 4 5 6 
#
# 1 101.8013 45.8467 43.2551 0.0000 0.0000 0.0000
# 2 45.8467 89.2514 23.1553 0.0000 0.0000 0.0000
# 3 43.2551 23.1553 71.7860 0.0000 0.0000 0.0000
# 4 0.0000 0.0000 0.0000 13.3815 0.0000 0.0000
# 5 0.0000 0.0000 0.0000 0.0000 16.1418 0.0000
# 6 0.0000 0.0000 0.0000 0.0000 0.0000 35.1134
#
#
#
# Elastic Compliance Matrix: (Units=1/GPa)
#
#
# Indices 1 2 3 4 5 6 
#
# 1 0.015798 -0.006161 -0.007532 0.000000 0.000000 0.000000
# 2 -0.006161 0.014630 -0.001007 0.000000 0.000000 0.000000
# 3 -0.007532 -0.001007 0.018793 0.000000 0.000000 0.000000
# 4 0.000000 0.000000 0.000000 0.074730 0.000000 0.000000
# 5 0.000000 0.000000 0.000000 0.000000 0.061951 0.000000
# 6 0.000000 0.000000 0.000000 0.000000 0.000000 0.028479
#
#
# Mechanical properties :
#
#
# Convention : Reuss Voigt Hill
#
# Bulk Modulus (GPa) = 50.44815 54.15031 52.29923
# Shear Modulus (GPa) = 19.96895 22.96612 21.46753
#
# Velocity S-wave (km/s) = 3.10752 3.33258 3.22202
# Velocity P-wave (km/s) = 6.10504 6.40269 6.25564
#
# Compressibility (1/GPa) = 0.01982233
#
# Stress axis : x y z
#
# Youngs Moduli (GPa) = 63.29923 68.35119 53.21014
#
# Poissons Ratio (x) = 0.42112 0.40077
# Poissons Ratio (y) = 0.38999 0.05357
# Poissons Ratio (z) = 0.47676 0.06881
#
# Static dielectric constant tensor:
#      x y z
#    x 2.111230 0.000000 0.000000 
#    y 0.000000 1.801310 0.000000 
#    z 0.000000 0.000000 1.756220 
# 
# From -- ./inp_files/18621.got.cif
#   From: 2010.05.17/outbox.cif.g08.bks.cpg/sg54_10_cif.got.tgz:18621.got - 2010.06.03 13:09:01.
