data_PCOD9421979
_publ_section_title
;
Structure prediction by ZEFSAII (Michael W. Deem and Ramdas Pophale) SiO2 
 PCOD9421979
Probable space group: P C C A
;
_chemical_formula_sum "Si O2"
_cell_formula_units_Z 32
_cell_length_a 8.304114
_cell_length_b 13.156050
_cell_length_c 13.155868
_cell_angle_alpha 90.000000
_cell_angle_beta 90.000000
_cell_angle_gamma 90.000000
_cell_volume 1437.269883
_symmetry_space_group_name_H-M "P C C A"
_symmetry_group_IT_number 54
_symmetry_cell_setting 'orthorhombic'
loop_
_space_group_symop_operation_xyz
x,y,z
1/2-x,-y,z
1/2+x,-y,1/2-z
-x,y,1/2-z
-x,-y,-z
1/2+x,y,-z
1/2-x,y,1/2+z
x,-y,1/2+z
loop_
_atom_site_type_symbol
_atom_site_label
_atom_site_fract_x
_atom_site_fract_y
_atom_site_fract_z
Si Si1 0.195658 0.827390 0.371943
Si Si2 0.750000 0.000000 0.771320
Si Si3 0.918922 0.824020 0.899586
Si Si4 0.230528 0.653914 0.225836
Si Si5 0.500000 0.492487 0.750000
O O1 0.116403 0.830852 0.481397
O O2 0.390247 0.821597 0.381554
O O3 0.151371 0.728908 0.307167
O O4 0.155463 0.926352 0.306087
O O5 0.848103 0.922308 0.841850
O O6 0.825349 0.726033 0.853022
O O7 0.362623 0.585254 0.285794
O O8 0.103315 0.571895 0.182052
#
# Coordination Sequence:
#
# PCOD9421979 Si02
#       5
#     8   4   8   8   4
#     4  11  24  42  64  96 130 164 209 261 312 377
#     4  10  22  42  66  88 122 170 204 254 308 376
#     4  11  24  42  64  96 130 164 209 261 312 377
#     4  10  21  43  64  93 126 169 207 263 310 375
#     4  10  20  40  72  86 124 170 214 254 322 364
#
# _framework density 22.264433
#
# number of rings (size 3 to 8) (size 9 to 14) (size 15 to 20)
#    0.000    1.500    2.500    3.000    3.500    6.000 
#    9.000    7.500    0.000    0.000    0.000    0.000 
#    0.000    0.000    0.000    0.000    0.000    0.000 
#
# Total GULP energy -178596.930958 kJ/mol
# GULP energy per Si atom -5581.154092 kJ/mol
# Density = 2.221376 g / cm^3
# Si number density = 22.264433 Si / 1000 Ang^3
#
#
#
# Elastic Constant Matrix: (Units=GPa)
#
#
# Indices 1 2 3 4 5 6 
#
# 1 89.7937 52.8449 29.8369 0.0000 0.0000 0.0000
# 2 52.8449 170.0463 45.1797 0.0000 0.0000 0.0000
# 3 29.8369 45.1797 116.2091 0.0000 0.0000 0.0000
# 4 0.0000 0.0000 0.0000 -0.9760 0.0000 0.0000
# 5 0.0000 0.0000 0.0000 0.0000 34.9853 0.0000
# 6 0.0000 0.0000 0.0000 0.0000 0.0000 60.4260
#
#
#
# Elastic Compliance Matrix: (Units=1/GPa)
#
#
# Indices 1 2 3 4 5 6 
#
# 1 0.014089 -0.003811 -0.002136 0.000000 0.000000 0.000000
# 2 -0.003811 0.007589 -0.001972 0.000000 0.000000 0.000000
# 3 -0.002136 -0.001972 0.009920 0.000000 0.000000 0.000000
# 4 0.000000 0.000000 0.000000 -1.024609 0.000000 0.000000
# 5 0.000000 0.000000 0.000000 0.000000 0.028583 0.000000
# 6 0.000000 0.000000 0.000000 0.000000 0.000000 0.016549
#
#
# Mechanical properties :
#
#
# Convention : Reuss Voigt Hill
#
# Bulk Modulus (GPa) = 63.44825 70.19690 66.82257
# Shear Modulus (GPa) = -5.39499 35.43291 15.01896
#
# Velocity S-wave (km/s) = -1.55833 3.99364 2.60007
# Velocity P-wave (km/s) = 5.03206 7.27067 6.25237
#
# Compressibility (1/GPa) = 0.01576088
#
# Stress axis : x y z
#
# Youngs Moduli (GPa) = 70.97660 131.76927 100.80442
#
# Poissons Ratio (x) = 0.50217 0.21530
# Poissons Ratio (y) = 0.27049 0.19878
# Poissons Ratio (z) = 0.15159 0.25985
#
# Static dielectric constant tensor:
#      x y z
#    x 1.916200 0.000000 0.000000 
#    y 0.000000 1.825420 0.000000 
#    z 0.000000 0.000000 1.746220 
# 
# From -- ./inp_files/3295.got.cif
#   From: 2010.05.17/outbox.cif.g08.bks.cpg/sg54_2_cif.got.tgz:3295.got - 2010.06.03 13:09:01.
