data_PCOD9421059
_publ_section_title
;
Structure prediction by ZEFSAII (Michael W. Deem and Ramdas Pophale) SiO2 
 PCOD9421059
Probable space group: P C C A
;
_chemical_formula_sum "Si O2"
_cell_formula_units_Z 48
_cell_length_a 8.152951
_cell_length_b 9.603549
_cell_length_c 31.542483
_cell_angle_alpha 90.000000
_cell_angle_beta 90.000000
_cell_angle_gamma 90.000000
_cell_volume 2469.690132
_symmetry_space_group_name_H-M "P C C A"
_symmetry_group_IT_number 54
_symmetry_cell_setting 'orthorhombic'
loop_
_space_group_symop_operation_xyz
x,y,z
1/2-x,-y,z
1/2+x,-y,1/2-z
-x,y,1/2-z
-x,-y,-z
1/2+x,y,-z
1/2-x,y,1/2+z
x,-y,1/2+z
loop_
_atom_site_type_symbol
_atom_site_label
_atom_site_fract_x
_atom_site_fract_y
_atom_site_fract_z
Si Si1 0.962786 0.441787 0.850336
Si Si2 0.500000 0.299812 0.750000
Si Si3 0.250000 0.500000 0.493321
Si Si4 0.966276 0.640500 0.446299
Si Si5 0.439684 0.046898 0.453474
Si Si6 0.250000 0.000000 0.108879
Si Si7 0.675499 0.263918 0.831345
Si Si8 0.750000 0.500000 0.701740
O O1 0.933427 0.388348 0.897496
O O2 0.836748 0.355491 0.821442
O O3 0.934168 0.608981 0.850761
O O4 0.137304 0.412447 0.830228
O O5 0.583383 0.217476 0.788626
O O6 0.636223 0.401771 0.729875
O O7 0.404146 0.471156 0.463716
O O8 0.196614 0.376275 0.525227
O O9 0.052410 0.786810 0.452425
O O10 0.250000 0.000000 0.445440
O O11 0.500000 0.000000 0.500000
O O12 0.584535 0.005546 0.420071
O O13 0.223715 0.136876 0.138246
#
# Coordination Sequence:
#
# PCOD9421059 Si02
#       8
#     8   4   4   8   8   4   8   4
#     4  10  20  37  66  92 127 164 221 271 335 397
#     4  10  20  38  62  96 132 162 216 270 344 406
#     4  10  23  34  61  86 132 158 216 280 341 377
#     4  11  22  40  58  96 123 173 219 281 330 394
#     4  12  26  43  68  95 135 187 234 271 338 411
#     4  12  26  46  70  94 138 182 224 282 338 406
#     4  10  22  41  65  94 129 174 212 278 338 404
#     4  10  19  34  65 100 124 164 208 276 337 411
#
# _framework density 19.435637
#
# number of rings (size 3 to 8) (size 9 to 14) (size 15 to 20)
#    0.000    1.333    2.500    4.500    0.000    5.333 
#    0.000    1.667    0.000    0.000    0.000    0.000 
#    0.000    0.000    0.000    0.000    0.000    0.000 
#
# Total GULP energy -267493.562481 kJ/mol
# GULP energy per Si atom -5572.782552 kJ/mol
# Density = 1.939140 g / cm^3
# Si number density = 19.435637 Si / 1000 Ang^3
#
#
#
# Elastic Constant Matrix: (Units=GPa)
#
#
# Indices 1 2 3 4 5 6 
#
# 1 120.5768 18.6377 47.6382 0.0000 0.0000 0.0000
# 2 18.6377 81.8744 36.1321 0.0000 0.0000 0.0000
# 3 47.6382 36.1321 110.4348 0.0000 0.0000 0.0000
# 4 0.0000 0.0000 0.0000 24.6499 0.0000 0.0000
# 5 0.0000 0.0000 0.0000 0.0000 39.0590 0.0000
# 6 0.0000 0.0000 0.0000 0.0000 0.0000 27.4100
#
#
#
# Elastic Compliance Matrix: (Units=1/GPa)
#
#
# Indices 1 2 3 4 5 6 
#
# 1 0.010011 -0.000436 -0.004176 0.000000 0.000000 0.000000
# 2 -0.000436 0.014294 -0.004489 0.000000 0.000000 0.000000
# 3 -0.004176 -0.004489 0.012325 0.000000 0.000000 0.000000
# 4 0.000000 0.000000 0.000000 0.040568 0.000000 0.000000
# 5 0.000000 0.000000 0.000000 0.000000 0.025602 0.000000
# 6 0.000000 0.000000 0.000000 0.000000 0.000000 0.036483
#
#
# Mechanical properties :
#
#
# Convention : Reuss Voigt Hill
#
# Bulk Modulus (GPa) = 54.26236 57.52242 55.89239
# Shear Modulus (GPa) = 30.55740 32.25564 31.40652
#
# Velocity S-wave (km/s) = 3.96944 4.07825 4.02422
# Velocity P-wave (km/s) = 6.99916 7.19978 7.10018
#
# Compressibility (1/GPa) = 0.01842898
#
# Stress axis : x y z
#
# Youngs Moduli (GPa) = 99.89420 69.95956 81.13637
#
# Poissons Ratio (x) = 0.03051 0.33879
# Poissons Ratio (y) = 0.04356 0.36419
# Poissons Ratio (z) = 0.41712 0.31402
#
# Static dielectric constant tensor:
#      x y z
#    x 1.754340 0.000000 0.000000 
#    y 0.000000 1.690590 0.000000 
#    z 0.000000 0.000000 1.703990 
# 
# From -- ./inp_files/27853.got.cif
#   From: 2010.05.17/outbox.cif.g08.bks.cpg/sg54_14_cif.got.tgz:27853.got - 2010.06.03 13:09:01.
