data_PCOD9421333
_publ_section_title
;
Structure prediction by ZEFSAII (Michael W. Deem and Ramdas Pophale) SiO2 
 PCOD9421333
Probable space group: P C C A
;
_chemical_formula_sum "Si O2"
_cell_formula_units_Z 40
_cell_length_a 8.678847
_cell_length_b 8.879486
_cell_length_c 25.968097
_cell_angle_alpha 90.000000
_cell_angle_beta 90.000000
_cell_angle_gamma 90.000000
_cell_volume 2001.197648
_symmetry_space_group_name_H-M "P C C A"
_symmetry_group_IT_number 54
_symmetry_cell_setting 'orthorhombic'
loop_
_space_group_symop_operation_xyz
x,y,z
1/2-x,-y,z
1/2+x,-y,1/2-z
-x,y,1/2-z
-x,-y,-z
1/2+x,y,-z
1/2-x,y,1/2+z
x,-y,1/2+z
loop_
_atom_site_type_symbol
_atom_site_label
_atom_site_fract_x
_atom_site_fract_y
_atom_site_fract_z
Si Si1 0.135211 0.216099 0.328792
Si Si2 0.606130 0.389276 0.350454
Si Si3 0.518353 0.109681 0.188730
Si Si4 0.000000 0.560638 0.750000
Si Si5 0.477614 0.595732 0.426365
Si Si6 0.250000 0.500000 0.511261
O O1 0.314537 0.172081 0.329279
O O2 0.115751 0.328420 0.280187
O O3 0.074325 0.293972 0.380913
O O4 0.030233 0.068312 0.320817
O O5 0.750000 0.500000 0.360577
O O6 0.608511 0.210541 0.341312
O O7 0.555872 0.454131 0.295351
O O8 0.489611 0.434993 0.396225
O O9 0.500000 0.128857 0.250000
O O10 0.359277 0.592258 0.473080
O O11 0.643329 0.608789 0.454200
#
# Coordination Sequence:
#
# PCOD9421333 Si02
#       6
#     8   8   8   4   8   4
#     4  10  22  38  58  90 127 167 207 248 317 374
#     4  11  21  35  57  92 122 159 206 248 308 367
#     4  11  21  37  59  87 131 176 199 243 302 382
#     4  10  20  32  52  84 124 154 206 242 288 376
#     4  10  21  39  65  93 118 163 208 281 315 392
#     4  10  20  40  68  90 118 152 224 272 346 362
#
# _framework density 19.988029999999998
#
# number of rings (size 3 to 8) (size 9 to 14) (size 15 to 20)
#    0.000    1.600    3.000    2.400    0.000    1.600 
#    0.000    0.000    0.000   21.600    0.000    0.000 
#    0.000    0.000    0.000    0.000    0.000    0.000 
#
# Total GULP energy -222846.865340 kJ/mol
# GULP energy per Si atom -5571.171633 kJ/mol
# Density = 1.994254 g / cm^3
# Si number density = 19.988030 Si / 1000 Ang^3
#
#
#
# Elastic Constant Matrix: (Units=GPa)
#
#
# Indices 1 2 3 4 5 6 
#
# 1 68.3145 11.4113 35.6048 0.0000 0.0000 0.0000
# 2 11.4113 64.0199 12.2382 0.0000 0.0000 0.0000
# 3 35.6048 12.2382 122.5634 0.0000 0.0000 0.0000
# 4 0.0000 0.0000 0.0000 31.7685 0.0000 0.0000
# 5 0.0000 0.0000 0.0000 0.0000 36.9489 0.0000
# 6 0.0000 0.0000 0.0000 0.0000 0.0000 22.3050
#
#
#
# Elastic Compliance Matrix: (Units=1/GPa)
#
#
# Indices 1 2 3 4 5 6 
#
# 1 0.017547 -0.002195 -0.004878 0.000000 0.000000 0.000000
# 2 -0.002195 0.016199 -0.000980 0.000000 0.000000 0.000000
# 3 -0.004878 -0.000980 0.009674 0.000000 0.000000 0.000000
# 4 0.000000 0.000000 0.000000 0.031478 0.000000 0.000000
# 5 0.000000 0.000000 0.000000 0.000000 0.027064 0.000000
# 6 0.000000 0.000000 0.000000 0.000000 0.000000 0.044833
#
#
# Mechanical properties :
#
#
# Convention : Reuss Voigt Hill
#
# Bulk Modulus (GPa) = 36.61186 41.48960 39.05073
# Shear Modulus (GPa) = 29.06868 31.24738 30.15803
#
# Velocity S-wave (km/s) = 3.81767 3.95815 3.88855
# Velocity P-wave (km/s) = 6.14731 6.45690 6.30401
#
# Compressibility (1/GPa) = 0.02731355
#
# Stress axis : x y z
#
# Youngs Moduli (GPa) = 56.98842 61.73329 103.36938
#
# Poissons Ratio (x) = 0.13552 0.50427
# Poissons Ratio (y) = 0.12510 0.10128
# Poissons Ratio (z) = 0.27801 0.06048
#
# Static dielectric constant tensor:
#      x y z
#    x 1.897780 0.000000 0.000000 
#    y 0.000000 1.716620 0.000000 
#    z 0.000000 0.000000 1.695040 
# 
# From -- ./inp_files/23300.got.cif
#   From: 2010.05.17/outbox.cif.g08.bks.cpg/sg54_12_cif.got.tgz:23300.got - 2010.06.03 13:09:01.
