data_PCOD9421765
_publ_section_title
;
Structure prediction by ZEFSAII (Michael W. Deem and Ramdas Pophale) SiO2 
 PCOD9421765
Probable space group: P C C A
;
_chemical_formula_sum "Si O2"
_cell_formula_units_Z 40
_cell_length_a 10.680599
_cell_length_b 8.762367
_cell_length_c 16.607020
_cell_angle_alpha 90.000000
_cell_angle_beta 90.000000
_cell_angle_gamma 90.000000
_cell_volume 1554.206631
_symmetry_space_group_name_H-M "P C C A"
_symmetry_group_IT_number 54
_symmetry_cell_setting 'orthorhombic'
loop_
_space_group_symop_operation_xyz
x,y,z
1/2-x,-y,z
1/2+x,-y,1/2-z
-x,y,1/2-z
-x,-y,-z
1/2+x,y,-z
1/2-x,y,1/2+z
x,-y,1/2+z
loop_
_atom_site_type_symbol
_atom_site_label
_atom_site_fract_x
_atom_site_fract_y
_atom_site_fract_z
Si Si1 0.500000 0.693410 0.250000
Si Si2 0.886382 0.494325 0.385254
Si Si3 0.500000 0.861742 0.750000
Si Si4 0.813420 0.232737 0.506941
Si Si5 0.436056 0.155652 0.077312
Si Si6 0.253790 0.817639 0.318616
O O1 0.519101 0.591896 0.328224
O O2 0.375069 0.787341 0.266267
O O3 0.750000 0.500000 0.342873
O O4 0.855527 0.386164 0.461500
O O5 0.936993 0.661101 0.404125
O O6 0.538143 0.931157 0.837971
O O7 0.627028 0.774260 0.727735
O O8 0.703428 0.148576 0.457800
O O9 0.752875 0.260232 0.594467
O O10 0.941072 0.137373 0.521281
O O11 0.250000 0.000000 0.332785
#
# Coordination Sequence:
#
# PCOD9421765 Si02
#       6
#     4   8   4   8   8   8
#     4  12  24  40  68  98 120 160 220 256 300 382
#     4  10  21  38  60  94 129 158 193 248 312 376
#     4  10  22  42  64  88 126 162 200 254 318 370
#     4  10  21  37  59  87 121 159 203 244 298 369
#     4  10  20  38  61  90 125 160 192 243 308 373
#     4  11  24  43  63  88 121 164 213 266 309 351
#
# _framework density 25.736604
#
# number of rings (size 3 to 8) (size 9 to 14) (size 15 to 20)
#    0.000    1.600    0.000    5.400    0.000    4.800 
#    0.000   13.000    0.000    0.000    0.000    0.000 
#    0.000    0.000    0.000    0.000    0.000    0.000 
#
# Total GULP energy -223793.850628 kJ/mol
# GULP energy per Si atom -5594.846266 kJ/mol
# Density = 2.567803 g / cm^3
# Si number density = 25.736604 Si / 1000 Ang^3
#
#
#
# Elastic Constant Matrix: (Units=GPa)
#
#
# Indices 1 2 3 4 5 6 
#
# 1 182.8324 37.5120 66.9783 0.0000 0.0000 0.0000
# 2 37.5120 87.0695 36.9645 0.0000 0.0000 0.0000
# 3 66.9783 36.9645 120.3628 0.0000 0.0000 0.0000
# 4 0.0000 0.0000 0.0000 134.0459 0.0000 0.0000
# 5 0.0000 0.0000 0.0000 0.0000 60.3121 0.0000
# 6 0.0000 0.0000 0.0000 0.0000 0.0000 20.4213
#
#
#
# Elastic Compliance Matrix: (Units=1/GPa)
#
#
# Indices 1 2 3 4 5 6 
#
# 1 0.007054 -0.001578 -0.003440 0.000000 0.000000 0.000000
# 2 -0.001578 0.013560 -0.003286 0.000000 0.000000 0.000000
# 3 -0.003440 -0.003286 0.011232 0.000000 0.000000 0.000000
# 4 0.000000 0.000000 0.000000 0.007460 0.000000 0.000000
# 5 0.000000 0.000000 0.000000 0.000000 0.016580 0.000000
# 6 0.000000 0.000000 0.000000 0.000000 0.000000 0.048968
#
#
# Mechanical properties :
#
#
# Convention : Reuss Voigt Hill
#
# Bulk Modulus (GPa) = 65.63435 74.79716 70.21576
# Shear Modulus (GPa) = 39.51218 59.54320 49.52769
#
# Velocity S-wave (km/s) = 3.92248 4.81517 4.39156
# Velocity P-wave (km/s) = 6.78765 7.74855 7.28396
#
# Compressibility (1/GPa) = 0.01523592
#
# Stress axis : x y z
#
# Youngs Moduli (GPa) = 141.76995 73.74536 89.03184
#
# Poissons Ratio (x) = 0.11639 0.30631
# Poissons Ratio (y) = 0.22376 0.29257
# Poissons Ratio (z) = 0.48775 0.24234
#
# Static dielectric constant tensor:
#      x y z
#    x 1.993020 0.000000 0.000000 
#    y 0.000000 2.023600 0.000000 
#    z 0.000000 0.000000 2.043850 
# 
# From -- ./inp_files/17130.got.cif
#   From: 2010.05.17/outbox.cif.g08.bks.cpg/sg54_9_cif.got.tgz:17130.got - 2010.06.03 13:09:01.
