data_PCOD9421682
_publ_section_title
;
Structure prediction by ZEFSAII (Michael W. Deem and Ramdas Pophale) SiO2 
 PCOD9421682
Probable space group: P C C A
;
_chemical_formula_sum "Si O2"
_cell_formula_units_Z 64
_cell_length_a 17.811546
_cell_length_b 11.158009
_cell_length_c 16.420322
_cell_angle_alpha 90.000000
_cell_angle_beta 90.000000
_cell_angle_gamma 90.000000
_cell_volume 3263.397628
_symmetry_space_group_name_H-M "P C C A"
_symmetry_group_IT_number 54
_symmetry_cell_setting 'orthorhombic'
loop_
_space_group_symop_operation_xyz
x,y,z
1/2-x,-y,z
1/2+x,-y,1/2-z
-x,y,1/2-z
-x,-y,-z
1/2+x,y,-z
1/2-x,y,1/2+z
x,-y,1/2+z
loop_
_atom_site_type_symbol
_atom_site_label
_atom_site_fract_x
_atom_site_fract_y
_atom_site_fract_z
Si Si1 0.661958 0.466389 0.364861
Si Si2 0.905151 0.888431 0.368952
Si Si3 0.688733 0.743066 0.983763
Si Si4 0.569847 0.164949 0.070962
Si Si5 0.670172 0.935101 0.109993
Si Si6 0.322414 0.085948 0.698512
Si Si7 0.413679 0.307657 0.266717
Si Si8 0.350834 0.717128 0.074229
O O1 0.750000 0.500000 0.859554
O O2 0.650789 0.369616 0.437895
O O3 0.635879 0.407425 0.279657
O O4 0.622968 0.588756 0.393217
O O5 0.835373 0.851281 0.424412
O O6 0.900906 0.812098 0.286394
O O7 0.981853 0.856436 0.413683
O O8 0.894259 0.023468 0.342870
O O9 0.776480 0.711532 0.982885
O O10 0.665482 0.804757 0.067764
O O11 0.595646 0.262379 0.140437
O O12 0.610316 0.036606 0.084129
O O13 0.589297 0.216249 0.982412
O O14 0.666567 0.910399 0.205657
O O15 0.750000 0.000000 0.090631
O O16 0.319059 0.211126 0.652373
O O17 0.250000 0.000000 0.686627
O O18 0.500000 0.343154 0.250000
#
# Coordination Sequence:
#
# PCOD9421682 Si02
#       8
#     8   8   8   8   8   8   8   8
#     4   9  21  40  64  86 122 166 215 246 303 369
#     4  10  20  37  62  87 117 162 199 241 317 372
#     4  10  20  39  59  84 121 159 199 252 301 355
#     4  11  22  37  63  91 120 158 209 249 302 383
#     4  11  22  34  57  93 122 152 199 250 314 368
#     4  11  22  36  60  89 127 159 195 252 318 371
#     4   9  19  40  64  87 120 166 203 248 303 368
#     4  11  22  39  60  90 121 163 205 255 300 364
#
# _framework density 19.611463000000001
#
# number of rings (size 3 to 8) (size 9 to 14) (size 15 to 20)
#    0.000    1.750    3.750    0.750    0.000    2.000 
#    2.250    6.250    2.750    0.000    0.000    0.000 
#    0.000    0.000    0.000    0.000    0.000    0.000 
#
# Total GULP energy -356601.743585 kJ/mol
# GULP energy per Si atom -5571.902244 kJ/mol
# Density = 1.956683 g / cm^3
# Si number density = 19.611463 Si / 1000 Ang^3
#
#
#
# Elastic Constant Matrix: (Units=GPa)
#
#
# Indices 1 2 3 4 5 6 
#
# 1 27.9802 3.5505 10.3030 0.0000 0.0000 0.0000
# 2 3.5505 93.0186 46.8090 0.0000 0.0000 0.0000
# 3 10.3030 46.8090 55.5605 0.0000 0.0000 0.0000
# 4 0.0000 0.0000 0.0000 25.4527 0.0000 0.0000
# 5 0.0000 0.0000 0.0000 0.0000 21.4800 0.0000
# 6 0.0000 0.0000 0.0000 0.0000 0.0000 16.3551
#
#
#
# Elastic Compliance Matrix: (Units=1/GPa)
#
#
# Indices 1 2 3 4 5 6 
#
# 1 0.039095 0.003743 -0.010403 0.000000 0.000000 0.000000
# 2 0.003743 0.019021 -0.016719 0.000000 0.000000 0.000000
# 3 -0.010403 -0.016719 0.034013 0.000000 0.000000 0.000000
# 4 0.000000 0.000000 0.000000 0.039289 0.000000 0.000000
# 5 0.000000 0.000000 0.000000 0.000000 0.046555 0.000000
# 6 0.000000 0.000000 0.000000 0.000000 0.000000 0.061143
#
#
# Mechanical properties :
#
#
# Convention : Reuss Voigt Hill
#
# Bulk Modulus (GPa) = 22.04057 33.09826 27.56942
# Shear Modulus (GPa) = 16.61141 20.38400 18.49770
#
# Velocity S-wave (km/s) = 2.91353 3.22746 3.07450
# Velocity P-wave (km/s) = 4.75197 5.54998 5.16641
#
# Compressibility (1/GPa) = 0.04537087
#
# Stress axis : x y z
#
# Youngs Moduli (GPa) = 25.57857 52.57328 29.40050
#
# Poissons Ratio (x) = -0.19677 0.30585
# Poissons Ratio (y) = -0.09573 0.49155
# Poissons Ratio (z) = 0.26609 0.87897
#
# Static dielectric constant tensor:
#      x y z
#    x 1.717200 0.000000 0.000000 
#    y 0.000000 1.711300 0.000000 
#    z 0.000000 0.000000 1.725080 
# 
# From -- ./inp_files/14346.got.cif
#   From: 2010.05.17/outbox.cif.g08.bks.cpg/sg54_8_cif.got.tgz:14346.got - 2010.06.03 13:09:01.
