data_PCOD9421881
_publ_section_title
;
Structure prediction by ZEFSAII (Michael W. Deem and Ramdas Pophale) SiO2 
 PCOD9421881
Probable space group: P C C A
;
_chemical_formula_sum "Si O2"
_cell_formula_units_Z 48
_cell_length_a 28.131246
_cell_length_b 9.252805
_cell_length_c 8.423449
_cell_angle_alpha 90.000000
_cell_angle_beta 90.000000
_cell_angle_gamma 90.000000
_cell_volume 2192.564252
_symmetry_space_group_name_H-M "P C C A"
_symmetry_group_IT_number 54
_symmetry_cell_setting 'orthorhombic'
loop_
_space_group_symop_operation_xyz
x,y,z
1/2-x,-y,z
1/2+x,-y,1/2-z
-x,y,1/2-z
-x,-y,-z
1/2+x,y,-z
1/2-x,y,1/2+z
x,-y,1/2+z
loop_
_atom_site_type_symbol
_atom_site_label
_atom_site_fract_x
_atom_site_fract_y
_atom_site_fract_z
Si Si1 0.599477 0.932677 0.682384
Si Si2 0.575484 0.522787 0.185758
Si Si3 0.500000 0.084208 0.750000
Si Si4 0.873939 0.328055 0.905101
Si Si5 0.750000 0.000000 0.821897
Si Si6 0.453827 0.721552 0.022765
Si Si7 0.314181 0.861587 0.418493
O O1 0.614921 0.823969 0.821539
O O2 0.588585 0.829144 0.530599
O O3 0.548482 0.996597 0.730879
O O4 0.639091 0.053176 0.645548
O O5 0.621706 0.444105 0.263424
O O6 0.556881 0.625877 0.322674
O O7 0.587773 0.616537 0.032258
O O8 0.542056 0.392064 0.121894
O O9 0.504545 0.177326 0.912524
O O10 0.828505 0.294483 0.014057
O O11 0.773039 0.875544 0.712876
O O12 0.708190 0.945296 0.933120
#
# Coordination Sequence:
#
# PCOD9421881 Si02
#       7
#     8   8   4   8   4   8   8
#     4  11  23  39  65  94 132 168 209 273 336 381
#     4   9  21  40  62  89 119 183 215 255 310 372
#     4  12  24  38  60 100 130 176 216 276 334 392
#     4  10  20  39  65  90 129 167 213 260 312 388
#     4  10  24  38  68 102 130 156 210 254 354 386
#     4  10  22  39  59  89 125 168 219 261 304 388
#     4  11  21  42  64 103 124 166 200 273 329 394
#
# _framework density 21.892175000000002
#
# number of rings (size 3 to 8) (size 9 to 14) (size 15 to 20)
#    0.000    1.667    1.667    2.500    2.333    2.000 
#    0.000    5.833    0.000    3.000    0.000    0.000 
#    0.000    0.000    0.000    0.000    0.000    0.000 
#
# Total GULP energy -267785.610755 kJ/mol
# GULP energy per Si atom -5578.866891 kJ/mol
# Density = 2.184235 g / cm^3
# Si number density = 21.892175 Si / 1000 Ang^3
#
#
#
# Elastic Constant Matrix: (Units=GPa)
#
#
# Indices 1 2 3 4 5 6 
#
# 1 83.1843 20.3111 21.8932 0.0000 0.0000 0.0000
# 2 20.3111 48.5469 19.3665 0.0000 0.0000 0.0000
# 3 21.8932 19.3665 102.5950 0.0000 0.0000 0.0000
# 4 0.0000 0.0000 0.0000 34.0151 0.0000 0.0000
# 5 0.0000 0.0000 0.0000 0.0000 28.0505 0.0000
# 6 0.0000 0.0000 0.0000 0.0000 0.0000 21.6910
#
#
#
# Elastic Compliance Matrix: (Units=1/GPa)
#
#
# Indices 1 2 3 4 5 6 
#
# 1 0.013759 -0.004958 -0.002000 0.000000 0.000000 0.000000
# 2 -0.004958 0.024063 -0.003484 0.000000 0.000000 0.000000
# 3 -0.002000 -0.003484 0.010832 0.000000 0.000000 0.000000
# 4 0.000000 0.000000 0.000000 0.029399 0.000000 0.000000
# 5 0.000000 0.000000 0.000000 0.000000 0.035650 0.000000
# 6 0.000000 0.000000 0.000000 0.000000 0.000000 0.046102
#
#
# Mechanical properties :
#
#
# Convention : Reuss Voigt Hill
#
# Bulk Modulus (GPa) = 36.01284 39.71865 37.86574
# Shear Modulus (GPa) = 26.32337 28.26836 27.29587
#
# Velocity S-wave (km/s) = 3.47134 3.59730 3.53488
# Velocity P-wave (km/s) = 5.70550 5.95284 5.83048
#
# Compressibility (1/GPa) = 0.02776788
#
# Stress axis : x y z
#
# Youngs Moduli (GPa) = 72.68190 41.55737 92.32291
#
# Poissons Ratio (x) = 0.20606 0.18465
# Poissons Ratio (y) = 0.36039 0.32167
# Poissons Ratio (z) = 0.14536 0.14479
#
# Static dielectric constant tensor:
#      x y z
#    x 1.816580 0.000000 0.000000 
#    y 0.000000 1.861970 0.000000 
#    z 0.000000 0.000000 1.856580 
# 
# From -- ./inp_files/5882.got.cif
#   From: 2010.05.17/outbox.cif.g08.bks.cpg/sg54_3_cif.got.tgz:5882.got - 2010.06.03 13:09:01.
