data_PCOD9421768
_publ_section_title
;
Structure prediction by ZEFSAII (Michael W. Deem and Ramdas Pophale) SiO2 
 PCOD9421768
Probable space group: P C C A
;
_chemical_formula_sum "Si O2"
_cell_formula_units_Z 36
_cell_length_a 18.393605
_cell_length_b 9.636332
_cell_length_c 8.505130
_cell_angle_alpha 90.000000
_cell_angle_beta 90.000000
_cell_angle_gamma 90.000000
_cell_volume 1507.507794
_symmetry_space_group_name_H-M "P C C A"
_symmetry_group_IT_number 54
_symmetry_cell_setting 'orthorhombic'
loop_
_space_group_symop_operation_xyz
x,y,z
1/2-x,-y,z
1/2+x,-y,1/2-z
-x,y,1/2-z
-x,-y,-z
1/2+x,y,-z
1/2-x,y,1/2+z
x,-y,1/2+z
loop_
_atom_site_type_symbol
_atom_site_label
_atom_site_fract_x
_atom_site_fract_y
_atom_site_fract_z
Si Si1 0.130260 0.134089 0.911569
Si Si2 0.000000 0.304516 0.750000
Si Si3 0.688971 0.615304 0.701545
Si Si4 0.086402 0.148058 0.269561
Si Si5 0.102612 0.409766 0.492751
O O1 0.198521 0.227669 0.856769
O O2 0.062558 0.202592 0.816108
O O3 0.125835 0.973715 0.866221
O O4 0.118878 0.153022 0.095865
O O5 0.033916 0.395857 0.609407
O O6 0.750000 0.500000 0.683417
O O7 0.623751 0.550646 0.594954
O O8 0.667242 0.619363 0.883581
O O9 0.094994 0.291914 0.361674
O O10 0.000000 0.119498 0.250000
#
# Coordination Sequence:
#
# PCOD9421768 Si02
#       5
#     8   4   8   8   8
#     4  11  22  39  69 103 143 187 227 282 361 419
#     4  10  20  38  62 104 138 180 222 282 358 428
#     4  11  25  47  67  94 137 192 248 297 337 410
#     4  12  22  41  68 109 149 180 220 291 359 443
#     4  11  24  41  68  99 140 185 235 289 367 418
#
# _framework density 23.880475000000001
#
# number of rings (size 3 to 8) (size 9 to 14) (size 15 to 20)
#    0.000    0.889    3.333    5.333    0.000    3.556 
#   10.000    2.222    0.000    8.000    0.000    0.000 
#    0.000    0.000    0.000    0.000    0.000    0.000 
#
# Total GULP energy -201496.664004 kJ/mol
# GULP energy per Si atom -5597.129556 kJ/mol
# Density = 2.382612 g / cm^3
# Si number density = 23.880475 Si / 1000 Ang^3
#
#
#
# Elastic Constant Matrix: (Units=GPa)
#
#
# Indices 1 2 3 4 5 6 
#
# 1 47.0147 -5.5401 -9.6473 0.0000 0.0000 0.0000
# 2 -5.5401 92.9640 15.5295 0.0000 0.0000 0.0000
# 3 -9.6473 15.5295 147.4614 0.0000 0.0000 0.0000
# 4 0.0000 0.0000 0.0000 16.5085 0.0000 0.0000
# 5 0.0000 0.0000 0.0000 0.0000 11.7964 0.0000
# 6 0.0000 0.0000 0.0000 0.0000 0.0000 26.3769
#
#
#
# Elastic Compliance Matrix: (Units=1/GPa)
#
#
# Indices 1 2 3 4 5 6 
#
# 1 0.021664 0.001073 0.001304 0.000000 0.000000 0.000000
# 2 0.001073 0.011003 -0.001089 0.000000 0.000000 0.000000
# 3 0.001304 -0.001089 0.006981 0.000000 0.000000 0.000000
# 4 0.000000 0.000000 0.000000 0.060575 0.000000 0.000000
# 5 0.000000 0.000000 0.000000 0.000000 0.084772 0.000000
# 6 0.000000 0.000000 0.000000 0.000000 0.000000 0.037912
#
#
# Mechanical properties :
#
#
# Convention : Reuss Voigt Hill
#
# Bulk Modulus (GPa) = 23.68209 32.01381 27.84795
# Shear Modulus (GPa) = 21.33069 30.07622 25.70346
#
# Velocity S-wave (km/s) = 2.99193 3.55272 3.28432
# Velocity P-wave (km/s) = 4.67697 5.50128 5.10578
#
# Compressibility (1/GPa) = 0.04222600
#
# Stress axis : x y z
#
# Youngs Moduli (GPa) = 46.15941 90.88732 143.23774
#
# Poissons Ratio (x) = -0.09754 -0.18682
# Poissons Ratio (y) = -0.04954 0.15591
# Poissons Ratio (z) = -0.06021 0.09893
#
# Static dielectric constant tensor:
#      x y z
#    x 2.076160 0.000000 0.000000 
#    y 0.000000 1.864200 0.000000 
#    z 0.000000 0.000000 1.836930 
# 
# From -- ./inp_files/4535.got.cif
#   From: 2010.05.17/outbox.cif.g08.bks.cpg/sg54_3_cif.got.tgz:4535.got - 2010.06.03 13:09:01.
