data_PCOD9421086
_publ_section_title
;
Structure prediction by ZEFSAII (Michael W. Deem and Ramdas Pophale) SiO2 
 PCOD9421086
Probable space group: P C C A
;
_chemical_formula_sum "Si O2"
_cell_formula_units_Z 56
_cell_length_a 19.158711
_cell_length_b 8.886453
_cell_length_c 14.775796
_cell_angle_alpha 90.000000
_cell_angle_beta 90.000000
_cell_angle_gamma 90.000000
_cell_volume 2515.623372
_symmetry_space_group_name_H-M "P C C A"
_symmetry_group_IT_number 54
_symmetry_cell_setting 'orthorhombic'
loop_
_space_group_symop_operation_xyz
x,y,z
1/2-x,-y,z
1/2+x,-y,1/2-z
-x,y,1/2-z
-x,-y,-z
1/2+x,y,-z
1/2-x,y,1/2+z
x,-y,1/2+z
loop_
_atom_site_type_symbol
_atom_site_label
_atom_site_fract_x
_atom_site_fract_y
_atom_site_fract_z
Si Si1 0.374047 0.755604 0.008494
Si Si2 0.483054 0.945305 0.101111
Si Si3 0.107691 0.810714 0.198573
Si Si4 0.133908 0.981079 0.862184
Si Si5 0.866634 0.421970 0.656986
Si Si6 0.252658 0.180345 0.118185
Si Si7 0.286888 0.284155 0.817490
O O1 0.397026 0.621718 0.941306
O O2 0.368266 0.898431 0.941508
O O3 0.427106 0.811747 0.086890
O O4 0.297422 0.733806 0.049199
O O5 0.557368 0.905132 0.144034
O O6 0.452967 0.091339 0.153470
O O7 0.500000 0.000000 0.000000
O O8 0.093461 0.665993 0.261930
O O9 0.166256 0.773227 0.123901
O O10 0.143209 0.928047 0.269132
O O11 0.192513 0.858454 0.876920
O O12 0.848832 0.594506 0.674539
O O13 0.787951 0.351936 0.657831
O O14 0.220856 0.225591 0.215407
O O15 0.250000 0.000000 0.103547
#
# Coordination Sequence:
#
# PCOD9421086 Si02
#       7
#     8   8   8   8   8   8   8
#     4  10  21  34  55  86 113 145 189 245 297 336
#     4  10  20  32  52  84 111 141 192 251 283 327
#     4  10  19  35  58  82 108 151 193 238 294 347
#     4  10  20  33  58  81 113 151 197 240 283 344
#     4   9  22  37  57  81 122 156 189 238 298 377
#     4  11  19  32  59  88 110 139 191 249 289 343
#     4  10  20  38  55  86 115 153 192 232 298 365
#
# _framework density 22.260884000000001
#
# number of rings (size 3 to 8) (size 9 to 14) (size 15 to 20)
#    0.000    2.000    2.857    0.429    2.000    0.000 
#    0.000    9.286    0.000   18.857    0.000    0.000 
#    0.000    0.000    0.000    0.000    0.000    0.000 
#
# Total GULP energy -312534.581481 kJ/mol
# GULP energy per Si atom -5580.974669 kJ/mol
# Density = 2.221022 g / cm^3
# Si number density = 22.260884 Si / 1000 Ang^3
#
#
#
# Elastic Constant Matrix: (Units=GPa)
#
#
# Indices 1 2 3 4 5 6 
#
# 1 62.9637 3.1165 16.5960 0.0000 0.0000 0.0000
# 2 3.1165 61.3610 4.6194 0.0000 0.0000 0.0000
# 3 16.5960 4.6194 53.9603 0.0000 0.0000 0.0000
# 4 0.0000 0.0000 0.0000 10.4319 0.0000 0.0000
# 5 0.0000 0.0000 0.0000 0.0000 31.4715 0.0000
# 6 0.0000 0.0000 0.0000 0.0000 0.0000 19.6287
#
#
#
# Elastic Compliance Matrix: (Units=1/GPa)
#
#
# Indices 1 2 3 4 5 6 
#
# 1 0.017297 -0.000481 -0.005279 0.000000 0.000000 0.000000
# 2 -0.000481 0.016416 -0.001257 0.000000 0.000000 0.000000
# 3 -0.005279 -0.001257 0.020263 0.000000 0.000000 0.000000
# 4 0.000000 0.000000 0.000000 0.095860 0.000000 0.000000
# 5 0.000000 0.000000 0.000000 0.000000 0.031775 0.000000
# 6 0.000000 0.000000 0.000000 0.000000 0.000000 0.050946
#
#
# Mechanical properties :
#
#
# Convention : Reuss Voigt Hill
#
# Bulk Modulus (GPa) = 25.03616 25.21654 25.12635
# Shear Modulus (GPa) = 19.23771 22.56995 20.90383
#
# Velocity S-wave (km/s) = 2.94291 3.18761 3.06770
# Velocity P-wave (km/s) = 4.77689 4.99000 4.88461
#
# Compressibility (1/GPa) = 0.03994223
#
# Stress axis : x y z
#
# Youngs Moduli (GPa) = 57.81233 60.91584 49.35024
#
# Poissons Ratio (x) = 0.02931 0.26051
# Poissons Ratio (y) = 0.02782 0.06205
# Poissons Ratio (z) = 0.30518 0.07659
#
# Static dielectric constant tensor:
#      x y z
#    x 1.904300 0.000000 0.000000 
#    y 0.000000 1.825970 0.000000 
#    z 0.000000 0.000000 1.875930 
# 
# From -- ./inp_files/14678.got.cif
#   From: 2010.05.17/outbox.cif.g08.bks.cpg/sg54_8_cif.got.tgz:14678.got - 2010.06.03 13:09:01.
