data_PCOD9421617
_publ_section_title
;
Structure prediction by ZEFSAII (Michael W. Deem and Ramdas Pophale) SiO2 
 PCOD9421617
Probable space group: P C C A
;
_chemical_formula_sum "Si O2"
_cell_formula_units_Z 52
_cell_length_a 8.242546
_cell_length_b 10.787848
_cell_length_c 30.416877
_cell_angle_alpha 90.000000
_cell_angle_beta 90.000000
_cell_angle_gamma 90.000000
_cell_volume 2704.648426
_symmetry_space_group_name_H-M "P C C A"
_symmetry_group_IT_number 54
_symmetry_cell_setting 'orthorhombic'
loop_
_space_group_symop_operation_xyz
x,y,z
1/2-x,-y,z
1/2+x,-y,1/2-z
-x,y,1/2-z
-x,-y,-z
1/2+x,y,-z
1/2-x,y,1/2+z
x,-y,1/2+z
loop_
_atom_site_type_symbol
_atom_site_label
_atom_site_fract_x
_atom_site_fract_y
_atom_site_fract_z
Si Si1 0.343175 0.704557 0.161414
Si Si2 0.250000 0.500000 0.302913
Si Si3 0.094621 0.907500 0.588061
Si Si4 0.248504 0.223986 0.006736
Si Si5 0.500000 0.667796 0.250000
Si Si6 0.250000 0.000000 0.939084
Si Si7 0.473305 0.393323 0.464110
Si Si8 0.979249 0.568996 0.361799
O O1 0.396459 0.812891 0.128666
O O2 0.405129 0.735942 0.210494
O O3 0.422594 0.570873 0.149739
O O4 0.154001 0.669211 0.153926
O O5 0.366226 0.580184 0.272409
O O6 0.356224 0.413176 0.334753
O O7 0.125321 0.821318 0.544827
O O8 0.250000 0.000000 0.588863
O O9 0.922818 0.981649 0.585963
O O10 0.199658 0.340992 0.977248
O O11 0.253947 0.114657 0.972257
O O12 0.410000 0.273153 0.029911
O O13 0.500000 0.500000 0.500000
O O14 0.495342 0.430997 0.413967
#
# Coordination Sequence:
#
# PCOD9421617 Si02
#       8
#     8   4   8   8   4   4   8   8
#     4  10  22  41  65  90 126 162 203 271 329 401
#     4  10  20  36  64  96 128 166 204 254 318 418
#     4  12  24  44  65  90 124 170 227 279 325 371
#     4  12  23  41  60  86 130 173 227 267 307 375
#     4  10  20  40  66  92 126 154 204 260 334 404
#     4  12  26  42  66  92 120 178 242 276 304 374
#     4  12  25  36  58  93 137 178 207 261 324 386
#     4  10  22  37  60  96 132 165 209 250 326 394
#
# _framework density 19.226158000000002
#
# number of rings (size 3 to 8) (size 9 to 14) (size 15 to 20)
#    0.000    0.923    3.846    4.615    4.308    1.231 
#    0.000    0.000    1.692    0.000    0.000    0.000 
#    0.000    0.000    0.000    0.000    0.000    0.000 
#
# Total GULP energy -289985.237921 kJ/mol
# GULP energy per Si atom -5576.639191 kJ/mol
# Density = 1.918240 g / cm^3
# Si number density = 19.226158 Si / 1000 Ang^3
#
#
#
# Elastic Constant Matrix: (Units=GPa)
#
#
# Indices 1 2 3 4 5 6 
#
# 1 120.8584 23.1808 60.2707 0.0000 0.0000 0.0000
# 2 23.1808 66.6390 38.5662 0.0000 0.0000 0.0000
# 3 60.2707 38.5662 147.1279 0.0000 0.0000 0.0000
# 4 0.0000 0.0000 0.0000 24.0176 0.0000 0.0000
# 5 0.0000 0.0000 0.0000 0.0000 26.7602 0.0000
# 6 0.0000 0.0000 0.0000 0.0000 0.0000 28.9638
#
#
#
# Elastic Compliance Matrix: (Units=1/GPa)
#
#
# Indices 1 2 3 4 5 6 
#
# 1 0.010504 -0.001372 -0.003943 0.000000 0.000000 0.000000
# 2 -0.001372 0.017869 -0.004122 0.000000 0.000000 0.000000
# 3 -0.003943 -0.004122 0.009493 0.000000 0.000000 0.000000
# 4 0.000000 0.000000 0.000000 0.041636 0.000000 0.000000
# 5 0.000000 0.000000 0.000000 0.000000 0.037369 0.000000
# 6 0.000000 0.000000 0.000000 0.000000 0.000000 0.034526
#
#
# Mechanical properties :
#
#
# Convention : Reuss Voigt Hill
#
# Bulk Modulus (GPa) = 52.65560 64.29564 58.47562
# Shear Modulus (GPa) = 28.31249 30.12217 29.21733
#
# Velocity S-wave (km/s) = 3.84161 3.96249 3.90252
# Velocity P-wave (km/s) = 6.86471 7.37898 7.12649
#
# Compressibility (1/GPa) = 0.01899133
#
# Stress axis : x y z
#
# Youngs Moduli (GPa) = 95.20455 55.96308 105.34460
#
# Poissons Ratio (x) = 0.07676 0.41540
# Poissons Ratio (y) = 0.13059 0.43423
# Poissons Ratio (z) = 0.37542 0.23068
#
# Static dielectric constant tensor:
#      x y z
#    x 1.762580 0.000000 0.000000 
#    y 0.000000 1.631310 0.000000 
#    z 0.000000 0.000000 1.706430 
# 
# From -- ./inp_files/25913.got.cif
#   From: 2010.05.17/outbox.cif.g08.bks.cpg/sg54_13_cif.got.tgz:25913.got - 2010.06.03 13:09:01.
