data_PCOD9421902
_publ_section_title
;
Structure prediction by ZEFSAII (Michael W. Deem and Ramdas Pophale) SiO2 
 PCOD9421902
Probable space group: P C C A
;
_chemical_formula_sum "Si O2"
_cell_formula_units_Z 52
_cell_length_a 16.286548
_cell_length_b 8.897693
_cell_length_c 19.314429
_cell_angle_alpha 90.000000
_cell_angle_beta 90.000000
_cell_angle_gamma 90.000000
_cell_volume 2798.906135
_symmetry_space_group_name_H-M "P C C A"
_symmetry_group_IT_number 54
_symmetry_cell_setting 'orthorhombic'
loop_
_space_group_symop_operation_xyz
x,y,z
1/2-x,-y,z
1/2+x,-y,1/2-z
-x,y,1/2-z
-x,-y,-z
1/2+x,y,-z
1/2-x,y,1/2+z
x,-y,1/2+z
loop_
_atom_site_type_symbol
_atom_site_label
_atom_site_fract_x
_atom_site_fract_y
_atom_site_fract_z
Si Si1 0.827148 0.905297 0.470273
Si Si2 0.668205 0.599187 0.222600
Si Si3 0.876560 0.086995 0.603366
Si Si4 0.242851 0.332713 0.424446
Si Si5 0.056302 0.848387 0.155824
Si Si6 0.162074 0.940055 0.752047
Si Si7 0.500000 0.421212 0.250000
O O1 0.795554 0.769808 0.517091
O O2 0.880899 0.848207 0.407466
O O3 0.750000 0.000000 0.443046
O O4 0.869377 0.012358 0.527945
O O5 0.750000 0.500000 0.243947
O O6 0.687488 0.642098 0.143248
O O7 0.659902 0.761231 0.259484
O O8 0.580456 0.515747 0.227363
O O9 0.824517 0.242676 0.600946
O O10 0.970010 0.105692 0.623601
O O11 0.842349 0.983594 0.666088
O O12 0.250000 0.500000 0.453444
O O13 0.037855 0.690205 0.192299
O O14 0.091971 0.966467 0.212077
O O15 0.250000 0.000000 0.727762
#
# Coordination Sequence:
#
# PCOD9421902 Si02
#       7
#     8   8   8   8   8   8   4
#     4  10  22  41  63  92 121 163 214 265 317 377
#     4  11  23  40  63  95 125 170 219 266 317 387
#     4  11  20  41  65  93 116 167 220 263 310 387
#     4  10  20  39  68  86 120 163 219 252 321 386
#     4  12  24  40  61  94 135 162 210 268 326 372
#     4  12  21  39  67  93 121 170 218 265 320 380
#     4  12  26  40  60  96 142 170 208 262 336 388
#
# _framework density 18.578686000000001
#
# number of rings (size 3 to 8) (size 9 to 14) (size 15 to 20)
#    0.000    0.923    4.615    4.154    2.154    0.000 
#    0.000    8.462    0.000    0.000    0.000    0.000 
#    0.000    0.000    0.000    0.000    0.000    0.000 
#
# Total GULP energy -290057.587449 kJ/mol
# GULP energy per Si atom -5578.030528 kJ/mol
# Density = 1.853640 g / cm^3
# Si number density = 18.578686 Si / 1000 Ang^3
#
#
#
# Elastic Constant Matrix: (Units=GPa)
#
#
# Indices 1 2 3 4 5 6 
#
# 1 160.8563 75.9666 53.1980 0.0000 0.0000 0.0000
# 2 75.9666 140.7690 22.8996 0.0000 0.0000 0.0000
# 3 53.1980 22.8996 71.4497 0.0000 0.0000 0.0000
# 4 0.0000 0.0000 0.0000 537.3671 0.0000 0.0000
# 5 0.0000 0.0000 0.0000 0.0000 5.8413 0.0000
# 6 0.0000 0.0000 0.0000 0.0000 0.0000 -203.1433
#
#
#
# Elastic Compliance Matrix: (Units=1/GPa)
#
#
# Indices 1 2 3 4 5 6 
#
# 1 0.010501 -0.004637 -0.006332 0.000000 0.000000 0.000000
# 2 -0.004637 0.009542 0.000394 0.000000 0.000000 0.000000
# 3 -0.006332 0.000394 0.018584 0.000000 0.000000 0.000000
# 4 0.000000 0.000000 0.000000 0.001861 0.000000 0.000000
# 5 0.000000 0.000000 0.000000 0.000000 0.171194 0.000000
# 6 0.000000 0.000000 0.000000 0.000000 0.000000 -0.004923
#
#
# Mechanical properties :
#
#
# Convention : Reuss Voigt Hill
#
# Bulk Modulus (GPa) = 57.21755 75.24482 66.23118
# Shear Modulus (GPa) = 21.39181 82.74709 52.06945
#
# Velocity S-wave (km/s) = 3.39693 6.68097 5.29974
# Velocity P-wave (km/s) = 6.80072 10.00512 8.55430
#
# Compressibility (1/GPa) = 0.01747716
#
# Stress axis : x y z
#
# Youngs Moduli (GPa) = 95.23260 104.80085 53.80901
#
# Poissons Ratio (x) = 0.48592 0.34073
# Poissons Ratio (y) = 0.44156 -0.02120
# Poissons Ratio (z) = 0.60303 -0.04129
#
# Static dielectric constant tensor:
#      x y z
#    x 1.657350 0.000000 0.000000 
#    y 0.000000 1.707450 0.000000 
#    z 0.000000 0.000000 1.639790 
# 
# From -- ./inp_files/21517.got.cif
#   From: 2010.05.17/outbox.cif.g08.bks.cpg/sg54_11_cif.got.tgz:21517.got - 2010.06.03 13:09:01.
