data_PCOD9421315
_publ_section_title
;
Structure prediction by ZEFSAII (Michael W. Deem and Ramdas Pophale) SiO2 
 PCOD9421315
Probable space group: P C C A
;
_chemical_formula_sum "Si O2"
_cell_formula_units_Z 44
_cell_length_a 19.691100
_cell_length_b 6.323005
_cell_length_c 17.383438
_cell_angle_alpha 90.000000
_cell_angle_beta 90.000000
_cell_angle_gamma 90.000000
_cell_volume 2164.358390
_symmetry_space_group_name_H-M "P C C A"
_symmetry_group_IT_number 54
_symmetry_cell_setting 'orthorhombic'
loop_
_space_group_symop_operation_xyz
x,y,z
1/2-x,-y,z
1/2+x,-y,1/2-z
-x,y,1/2-z
-x,-y,-z
1/2+x,y,-z
1/2-x,y,1/2+z
x,-y,1/2+z
loop_
_atom_site_type_symbol
_atom_site_label
_atom_site_fract_x
_atom_site_fract_y
_atom_site_fract_z
Si Si1 0.804222 0.189724 0.416076
Si Si2 0.285486 0.208128 0.339281
Si Si3 0.570239 0.147467 0.174006
Si Si4 0.250000 0.500000 0.963553
Si Si5 0.936246 0.911021 0.834907
Si Si6 0.000000 0.470350 0.250000
Si Si7 0.750000 0.500000 0.787450
O O1 0.801030 0.375245 0.480285
O O2 0.877590 0.093271 0.397737
O O3 0.783077 0.320571 0.339808
O O4 0.750000 0.000000 0.431293
O O5 0.359636 0.152770 0.371514
O O6 0.235473 0.312163 0.402507
O O7 0.298353 0.374314 0.271087
O O8 0.250000 0.000000 0.308379
O O9 0.542164 0.378777 0.193545
O O10 0.507744 0.014286 0.139479
O O11 0.584521 0.041696 0.258052
O O12 0.952932 0.679377 0.801883
#
# Coordination Sequence:
#
# PCOD9421315 Si02
#       7
#     8   8   8   4   8   4   4
#     4  11  21  38  57  82 114 146 188 237 278 334
#     4  11  21  38  57  82 114 146 188 237 278 334
#     4   9  18  31  54  84 110 140 175 228 290 332
#     4  10  26  38  54  78 114 162 196 226 286 330
#     4   9  18  31  54  84 110 140 175 228 290 332
#     4   8  16  32  52  86 122 136 170 228 278 346
#     4  10  20  30  60  90 102 138 186 228 286 336
#
# _framework density 20.329350000000002
#
# number of rings (size 3 to 8) (size 9 to 14) (size 15 to 20)
#    0.000    2.545    0.000    4.364    0.000    8.727 
#    0.000    0.909    0.000    3.273    0.000    0.000 
#    0.000    0.000    0.000    0.000    0.000    0.000 
#
# Total GULP energy -244947.279439 kJ/mol
# GULP energy per Si atom -5566.983624 kJ/mol
# Density = 2.028308 g / cm^3
# Si number density = 20.329350 Si / 1000 Ang^3
#
#
#
# Elastic Constant Matrix: (Units=GPa)
#
#
# Indices 1 2 3 4 5 6 
#
# 1 98.6012 41.0865 7.4152 0.0000 0.0000 0.0000
# 2 41.0865 107.2932 16.5278 0.0000 0.0000 0.0000
# 3 7.4152 16.5278 52.8294 0.0000 0.0000 0.0000
# 4 0.0000 0.0000 0.0000 6.5900 0.0000 0.0000
# 5 0.0000 0.0000 0.0000 0.0000 -3.6320 0.0000
# 6 0.0000 0.0000 0.0000 0.0000 0.0000 17.1727
#
#
#
# Elastic Compliance Matrix: (Units=1/GPa)
#
#
# Indices 1 2 3 4 5 6 
#
# 1 0.012071 -0.004582 -0.000261 0.000000 0.000000 0.000000
# 2 -0.004582 0.011532 -0.002965 0.000000 0.000000 0.000000
# 3 -0.000261 -0.002965 0.019893 0.000000 0.000000 0.000000
# 4 0.000000 0.000000 0.000000 0.151745 0.000000 0.000000
# 5 0.000000 0.000000 0.000000 0.000000 -0.275327 0.000000
# 6 0.000000 0.000000 0.000000 0.000000 0.000000 0.058232
#
#
# Mechanical properties :
#
#
# Convention : Reuss Voigt Hill
#
# Bulk Modulus (GPa) = 35.86743 43.19809 39.53276
# Shear Modulus (GPa) = 1637.25475 16.93910 827.09692
#
# Velocity S-wave (km/s) = 28.40974 2.88971 20.19237
# Velocity P-wave (km/s) = 33.07314 5.69466 23.73038
#
# Compressibility (1/GPa) = 0.02788045
#
# Stress axis : x y z
#
# Youngs Moduli (GPa) = 82.84427 86.71819 50.26921
#
# Poissons Ratio (x) = 0.39736 0.01311
# Poissons Ratio (y) = 0.37961 0.14902
# Poissons Ratio (z) = 0.02160 0.25708
#
# Static dielectric constant tensor:
#      x y z
#    x 1.779280 0.000000 0.000000 
#    y 0.000000 1.732520 0.000000 
#    z 0.000000 0.000000 1.744300 
# 
# From -- ./inp_files/19037.got.cif
#   From: 2010.05.17/outbox.cif.g08.bks.cpg/sg54_10_cif.got.tgz:19037.got - 2010.06.03 13:09:01.
