data_PCOD9421451
_publ_section_title
;
Structure prediction by ZEFSAII (Michael W. Deem and Ramdas Pophale) SiO2 
 PCOD9421451
Probable space group: P C C A
;
_chemical_formula_sum "Si O2"
_cell_formula_units_Z 48
_cell_length_a 20.274993
_cell_length_b 5.250488
_cell_length_c 23.031477
_cell_angle_alpha 90.000000
_cell_angle_beta 90.000000
_cell_angle_gamma 90.000000
_cell_volume 2451.783811
_symmetry_space_group_name_H-M "P C C A"
_symmetry_group_IT_number 54
_symmetry_cell_setting 'orthorhombic'
loop_
_space_group_symop_operation_xyz
x,y,z
1/2-x,-y,z
1/2+x,-y,1/2-z
-x,y,1/2-z
-x,-y,-z
1/2+x,y,-z
1/2-x,y,1/2+z
x,-y,1/2+z
loop_
_atom_site_type_symbol
_atom_site_label
_atom_site_fract_x
_atom_site_fract_y
_atom_site_fract_z
Si Si1 0.429278 0.901415 0.057453
Si Si2 0.420708 0.075167 0.754118
Si Si3 0.175700 0.455010 0.080907
Si Si4 0.910049 0.406955 0.011777
Si Si5 0.961191 0.702563 0.634870
Si Si6 0.583949 0.431713 0.315824
O O1 0.355584 0.830434 0.080038
O O2 0.482801 0.894232 0.108653
O O3 0.444239 0.647345 0.019605
O O4 0.431374 0.141000 0.016403
O O5 0.500000 0.086435 0.750000
O O6 0.403863 0.803813 0.726819
O O7 0.412855 0.150435 0.821397
O O8 0.393839 0.308225 0.715838
O O9 0.250000 0.500000 0.098657
O O10 0.125317 0.595626 0.125047
O O11 0.163265 0.554824 0.015290
O O12 0.921810 0.405747 0.079925
O O13 0.006980 0.487310 0.666614
#
# Coordination Sequence:
#
# PCOD9421451 Si02
#       6
#     8   8   8   8   8   8
#     4   9  21  33  53  88 114 140 181 221 288 348
#     4  10  21  34  51  82 112 148 181 220 275 342
#     4   9  22  38  59  81 110 149 195 245 277 326
#     4  10  21  34  55  86 114 145 183 222 293 348
#     4  10  20  35  58  82 124 147 173 232 291 349
#     4  10  22  34  53  83 113 146 192 224 279 334
#
# _framework density 19.577580999999999
#
# number of rings (size 3 to 8) (size 9 to 14) (size 15 to 20)
#    1.000    1.333    0.000    2.500    7.000    6.000 
#    0.000    0.000    0.000    1.000    4.333    0.000 
#    0.000    0.000    0.000    0.000    0.000    0.000 
#
# Total GULP energy -267229.908873 kJ/mol
# GULP energy per Si atom -5567.289768 kJ/mol
# Density = 1.953302 g / cm^3
# Si number density = 19.577581 Si / 1000 Ang^3
#
#
#
# Elastic Constant Matrix: (Units=GPa)
#
#
# Indices 1 2 3 4 5 6 
#
# 1 53.3892 12.0026 15.7574 0.0000 0.0000 0.0000
# 2 12.0026 136.0239 49.8513 0.0000 0.0000 0.0000
# 3 15.7574 49.8513 127.7984 0.0000 0.0000 0.0000
# 4 0.0000 0.0000 0.0000 26.5738 0.0000 0.0000
# 5 0.0000 0.0000 0.0000 0.0000 13.2949 0.0000
# 6 0.0000 0.0000 0.0000 0.0000 0.0000 9.8676
#
#
#
# Elastic Compliance Matrix: (Units=1/GPa)
#
#
# Indices 1 2 3 4 5 6 
#
# 1 0.019549 -0.000982 -0.002027 0.000000 0.000000 0.000000
# 2 -0.000982 0.008627 -0.003244 0.000000 0.000000 0.000000
# 3 -0.002027 -0.003244 0.009340 0.000000 0.000000 0.000000
# 4 0.000000 0.000000 0.000000 0.037631 0.000000 0.000000
# 5 0.000000 0.000000 0.000000 0.000000 0.075217 0.000000
# 6 0.000000 0.000000 0.000000 0.000000 0.000000 0.101341
#
#
# Mechanical properties :
#
#
# Convention : Reuss Voigt Hill
#
# Bulk Modulus (GPa) = 39.98424 52.49268 46.23846
# Shear Modulus (GPa) = 18.34524 25.92062 22.13293
#
# Velocity S-wave (km/s) = 3.06445 3.64262 3.36597
# Velocity P-wave (km/s) = 5.74360 6.67551 6.22702
#
# Compressibility (1/GPa) = 0.02500985
#
# Stress axis : x y z
#
# Youngs Moduli (GPa) = 51.15223 115.91143 107.06294
#
# Poissons Ratio (x) = 0.11383 0.21706
# Poissons Ratio (y) = 0.05023 0.34734
# Poissons Ratio (z) = 0.10370 0.37604
#
# Static dielectric constant tensor:
#      x y z
#    x 1.713260 0.000000 0.000000 
#    y 0.000000 1.760910 0.000000 
#    z 0.000000 0.000000 1.791630 
# 
# From -- ./inp_files/22087.got.cif
#   From: 2010.05.17/outbox.cif.g08.bks.cpg/sg54_12_cif.got.tgz:22087.got - 2010.06.03 13:09:01.
