data_PCOD9421816
_publ_section_title
;
Structure prediction by ZEFSAII (Michael W. Deem and Ramdas Pophale) SiO2 
 PCOD9421816
Probable space group: P C C A
;
_chemical_formula_sum "Si O2"
_cell_formula_units_Z 36
_cell_length_a 9.184516
_cell_length_b 17.717676
_cell_length_c 11.796897
_cell_angle_alpha 90.000000
_cell_angle_beta 90.000000
_cell_angle_gamma 90.000000
_cell_volume 1919.688743
_symmetry_space_group_name_H-M "P C C A"
_symmetry_group_IT_number 54
_symmetry_cell_setting 'orthorhombic'
loop_
_space_group_symop_operation_xyz
x,y,z
1/2-x,-y,z
1/2+x,-y,1/2-z
-x,y,1/2-z
-x,-y,-z
1/2+x,y,-z
1/2-x,y,1/2+z
x,-y,1/2+z
loop_
_atom_site_type_symbol
_atom_site_label
_atom_site_fract_x
_atom_site_fract_y
_atom_site_fract_z
Si Si1 0.537952 0.271387 0.883269
Si Si2 0.998973 0.904342 0.615877
Si Si3 0.174867 0.641938 0.054543
Si Si4 0.500000 0.555834 0.750000
Si Si5 0.750000 0.500000 0.594606
Si Si6 0.750000 0.000000 0.502451
O O1 0.500000 0.281411 0.750000
O O2 0.517218 0.183504 0.914332
O O3 0.700983 0.300705 0.904810
O O4 0.433526 0.318562 0.966043
O O5 0.000000 0.909125 0.750000
O O6 0.849639 0.941701 0.572441
O O7 0.865544 0.951831 0.931244
O O8 0.090648 0.607362 0.162409
O O9 0.246260 0.572655 0.985803
O O10 0.609527 0.505724 0.675264
#
# Coordination Sequence:
#
# PCOD9421816 Si02
#       6
#     8   8   8   4   4   4
#     4  11  25  42  66  92 133 169 211 266 321 383
#     4  10  21  39  63  95 125 167 207 255 311 369
#     4  12  25  45  63  94 126 169 216 267 324 383
#     4  12  26  42  68  92 122 166 220 272 326 384
#     4  12  26  44  66  94 124 164 220 264 328 384
#     4  10  20  38  66  92 130 162 210 254 304 374
#
# _framework density 18.753039999999999
#
# number of rings (size 3 to 8) (size 9 to 14) (size 15 to 20)
#    0.000    0.889    2.222    4.667    4.667    0.000 
#    0.000    0.000    4.889    0.000    0.000    0.000 
#    0.000    0.000    0.000    0.000    0.000    0.000 
#
# Total GULP energy -201313.310511 kJ/mol
# GULP energy per Si atom -5592.036403 kJ/mol
# Density = 1.871036 g / cm^3
# Si number density = 18.753040 Si / 1000 Ang^3
#
#
#
# Elastic Constant Matrix: (Units=GPa)
#
#
# Indices 1 2 3 4 5 6 
#
# 1 109.4136 35.4737 27.4176 0.0000 0.0000 0.0000
# 2 35.4737 100.0601 39.4130 0.0000 0.0000 0.0000
# 3 27.4176 39.4130 75.0291 0.0000 0.0000 0.0000
# 4 0.0000 0.0000 0.0000 11.0515 0.0000 0.0000
# 5 0.0000 0.0000 0.0000 0.0000 25.4308 0.0000
# 6 0.0000 0.0000 0.0000 0.0000 0.0000 34.7510
#
#
#
# Elastic Compliance Matrix: (Units=1/GPa)
#
#
# Indices 1 2 3 4 5 6 
#
# 1 0.010661 -0.002831 -0.002409 0.000000 0.000000 0.000000
# 2 -0.002831 0.013353 -0.005980 0.000000 0.000000 0.000000
# 3 -0.002409 -0.005980 0.017350 0.000000 0.000000 0.000000
# 4 0.000000 0.000000 0.000000 0.090486 0.000000 0.000000
# 5 0.000000 0.000000 0.000000 0.000000 0.039322 0.000000
# 6 0.000000 0.000000 0.000000 0.000000 0.000000 0.028776
#
#
# Mechanical properties :
#
#
# Convention : Reuss Voigt Hill
#
# Bulk Modulus (GPa) = 52.84102 54.34571 53.59337
# Shear Modulus (GPa) = 21.86316 26.39322 24.12819
#
# Velocity S-wave (km/s) = 3.41815 3.75562 3.59085
# Velocity P-wave (km/s) = 6.61943 6.91728 6.76999
#
# Compressibility (1/GPa) = 0.01892469
#
# Stress axis : x y z
#
# Youngs Moduli (GPa) = 93.79960 74.88937 57.63795
#
# Poissons Ratio (x) = 0.21200 0.13884
# Poissons Ratio (y) = 0.26553 0.34467
# Poissons Ratio (z) = 0.22594 0.44783
#
# Static dielectric constant tensor:
#      x y z
#    x 1.616290 0.000000 0.000000 
#    y 0.000000 1.637990 0.000000 
#    z 0.000000 0.000000 1.613520 
# 
# From -- ./inp_files/2506.got.cif
#   From: 2010.05.17/outbox.cif.g08.bks.cpg/sg54_2_cif.got.tgz:2506.got - 2010.06.03 13:09:01.
