data_PCOD9421966
_publ_section_title
;
Structure prediction by ZEFSAII (Michael W. Deem and Ramdas Pophale) SiO2 
 PCOD9421966
Probable space group: P C C A
;
_chemical_formula_sum "Si O2"
_cell_formula_units_Z 56
_cell_length_a 27.221772
_cell_length_b 5.329546
_cell_length_c 15.653938
_cell_angle_alpha 90.000000
_cell_angle_beta 90.000000
_cell_angle_gamma 90.000000
_cell_volume 2271.068411
_symmetry_space_group_name_H-M "P C C A"
_symmetry_group_IT_number 54
_symmetry_cell_setting 'orthorhombic'
loop_
_space_group_symop_operation_xyz
x,y,z
1/2-x,-y,z
1/2+x,-y,1/2-z
-x,y,1/2-z
-x,-y,-z
1/2+x,y,-z
1/2-x,y,1/2+z
x,-y,1/2+z
loop_
_atom_site_type_symbol
_atom_site_label
_atom_site_fract_x
_atom_site_fract_y
_atom_site_fract_z
Si Si1 0.472055 0.899079 0.919185
Si Si2 0.454649 0.877992 0.201105
Si Si3 0.878733 0.431412 0.406768
Si Si4 0.264333 0.244359 0.323415
Si Si5 0.276391 0.247046 0.631218
Si Si6 0.913382 0.405938 0.087036
Si Si7 0.874531 0.735617 0.240003
O O1 0.511846 0.914795 0.844806
O O2 0.430217 0.117365 0.911518
O O3 0.455492 0.614685 0.927847
O O4 0.500000 0.000000 0.000000
O O5 0.500000 0.735245 0.250000
O O6 0.427098 0.708249 0.130713
O O7 0.413069 0.035649 0.251968
O O8 0.832683 0.247683 0.395670
O O9 0.881457 0.539950 0.502086
O O10 0.868490 0.643965 0.336605
O O11 0.250000 0.500000 0.368526
O O12 0.231519 0.249749 0.235291
O O13 0.320758 0.213035 0.296980
O O14 0.250000 0.000000 0.374841
O O15 0.250000 0.500000 0.601138
O O16 0.250000 0.000000 0.600090
O O17 0.893038 0.508934 0.178041
#
# Coordination Sequence:
#
# PCOD9421966 Si02
#       7
#     8   8   8   8   8   8   8
#     4  12  25  50  67 100 151 197 239 303 359 426
#     4  12  25  41  72 103 143 197 245 295 364 438
#     4  12  26  45  76 104 146 201 240 308 378 437
#     4  10  20  40  69  99 139 183 230 302 368 429
#     4  10  20  40  69 102 135 181 236 294 364 438
#     4  12  29  47  72 108 152 188 252 305 359 439
#     4  12  26  45  74 110 144 197 249 308 369 449
#
# _framework density 24.657999
#
# number of rings (size 3 to 8) (size 9 to 14) (size 15 to 20)
#    0.000    0.571    5.714    3.857    2.000    0.571 
#    0.000    1.429    0.000    0.000    0.000    1.000 
#    0.000    0.000    0.000    0.000    0.000    0.000 
#
# Total GULP energy -312942.818550 kJ/mol
# GULP energy per Si atom -5588.264617 kJ/mol
# Density = 2.460188 g / cm^3
# Si number density = 24.657999 Si / 1000 Ang^3
#
#
#
# Elastic Constant Matrix: (Units=GPa)
#
#
# Indices 1 2 3 4 5 6 
#
# 1 111.1579 26.7226 5.9618 0.0000 0.0000 0.0000
# 2 26.7226 102.4164 4.0805 0.0000 0.0000 0.0000
# 3 5.9618 4.0805 96.2225 0.0000 0.0000 0.0000
# 4 0.0000 0.0000 0.0000 4.5624 0.0000 0.0000
# 5 0.0000 0.0000 0.0000 0.0000 -12.3053 0.0000
# 6 0.0000 0.0000 0.0000 0.0000 0.0000 35.4483
#
#
#
# Elastic Compliance Matrix: (Units=1/GPa)
#
#
# Indices 1 2 3 4 5 6 
#
# 1 0.009621 -0.002491 -0.000490 0.000000 0.000000 0.000000
# 2 -0.002491 0.010425 -0.000288 0.000000 0.000000 0.000000
# 3 -0.000490 -0.000288 0.010435 0.000000 0.000000 0.000000
# 4 0.000000 0.000000 0.000000 0.219185 0.000000 0.000000
# 5 0.000000 0.000000 0.000000 0.000000 -0.081266 0.000000
# 6 0.000000 0.000000 0.000000 0.000000 0.000000 0.028210
#
#
# Mechanical properties :
#
#
# Convention : Reuss Voigt Hill
#
# Bulk Modulus (GPa) = 41.76471 42.59186 42.17828
# Shear Modulus (GPa) = 23.68202 23.74319 23.71261
#
# Velocity S-wave (km/s) = 3.10243 3.10643 3.10443
# Velocity P-wave (km/s) = 5.45965 5.49337 5.47653
#
# Compressibility (1/GPa) = 0.02394366
#
# Stress axis : x y z
#
# Youngs Moduli (GPa) = 103.93574 95.91909 95.82971
#
# Poissons Ratio (x) = 0.23892 0.04700
# Poissons Ratio (y) = 0.25889 0.02758
# Poissons Ratio (z) = 0.05098 0.02760
#
# Static dielectric constant tensor:
#      x y z
#    x 1.986320 0.000000 0.000000 
#    y 0.000000 2.078190 0.000000 
#    z 0.000000 0.000000 2.039980 
# 
# From -- ./inp_files/15349.got.cif
#   From: 2010.05.17/outbox.cif.g08.bks.cpg/sg54_8_cif.got.tgz:15349.got - 2010.06.03 13:09:01.
