data_PCOD9421753
_publ_section_title
;
Structure prediction by ZEFSAII (Michael W. Deem and Ramdas Pophale) SiO2 
 PCOD9421753
Probable space group: P C C A
;
_chemical_formula_sum "Si O2"
_cell_formula_units_Z 52
_cell_length_a 5.644480
_cell_length_b 20.966571
_cell_length_c 18.443715
_cell_angle_alpha 90.000000
_cell_angle_beta 90.000000
_cell_angle_gamma 90.000000
_cell_volume 2182.728657
_symmetry_space_group_name_H-M "P C C A"
_symmetry_group_IT_number 54
_symmetry_cell_setting 'orthorhombic'
loop_
_space_group_symop_operation_xyz
x,y,z
1/2-x,-y,z
1/2+x,-y,1/2-z
-x,y,1/2-z
-x,-y,-z
1/2+x,y,-z
1/2-x,y,1/2+z
x,-y,1/2+z
loop_
_atom_site_type_symbol
_atom_site_label
_atom_site_fract_x
_atom_site_fract_y
_atom_site_fract_z
Si Si1 0.003932 0.524746 0.917208
Si Si2 0.562494 0.333920 0.628396
Si Si3 0.723185 0.923719 0.021989
Si Si4 0.500000 0.823587 0.750000
Si Si5 0.073475 0.706692 0.152652
Si Si6 0.032012 0.230925 0.497791
Si Si7 0.331250 0.073568 0.819003
O O1 0.750000 0.500000 0.886274
O O2 0.041689 0.600597 0.915938
O O3 0.250000 0.500000 0.882176
O O4 0.000000 0.500000 0.000000
O O5 0.815888 0.324943 0.668206
O O6 0.542588 0.273329 0.574557
O O7 0.310407 0.332582 0.669360
O O8 0.588458 0.911753 0.099484
O O9 0.750000 0.000000 0.010787
O O10 0.504980 0.906953 0.967695
O O11 0.613603 0.773520 0.806250
O O12 0.351816 0.871070 0.799441
O O13 0.048457 0.721777 0.066676
O O14 0.781856 0.195494 0.500801
O O15 0.500000 0.077168 0.750000
O O16 0.250000 0.000000 0.820846
#
# Coordination Sequence:
#
# PCOD9421753 Si02
#       7
#     8   8   8   4   8   8   8
#     4  10  21  28  53  97 139 164 213 273 343 425
#     4  10  20  38  60  91 136 170 217 271 360 412
#     4   9  20  39  67 102 139 183 228 275 359 449
#     4  12  28  46  66 104 130 178 266 294 344 458
#     4  10  23  38  62  84 126 180 216 284 330 403
#     4   8  16  30  56  78 116 161 207 252 336 395
#     4  11  25  45  77 106 149 190 239 316 387 449
#
# _framework density 23.823391999999998
#
# number of rings (size 3 to 8) (size 9 to 14) (size 15 to 20)
#    0.000    2.154    0.769    0.923   17.231    0.615 
#    0.000    4.615    0.000    0.000    0.000   10.769 
#    0.000    0.000    0.000    0.000    0.000    0.000 
#
# Total GULP energy -289486.752920 kJ/mol
# GULP energy per Si atom -5567.052941 kJ/mol
# Density = 2.376917 g / cm^3
# Si number density = 23.823392 Si / 1000 Ang^3
#
#
#
# Elastic Constant Matrix: (Units=GPa)
#
#
# Indices 1 2 3 4 5 6 
#
# 1 224.9562 40.8659 -0.1733 0.0000 0.0000 0.0000
# 2 40.8659 84.1002 -11.8310 0.0000 0.0000 0.0000
# 3 -0.1733 -11.8310 53.2422 0.0000 0.0000 0.0000
# 4 0.0000 0.0000 0.0000 50.9231 0.0000 0.0000
# 5 0.0000 0.0000 0.0000 0.0000 12.2924 0.0000
# 6 0.0000 0.0000 0.0000 0.0000 0.0000 32.7172
#
#
#
# Elastic Compliance Matrix: (Units=1/GPa)
#
#
# Indices 1 2 3 4 5 6 
#
# 1 0.004890 -0.002451 -0.000529 0.000000 0.000000 0.000000
# 2 -0.002451 0.013502 0.002992 0.000000 0.000000 0.000000
# 3 -0.000529 0.002992 0.019445 0.000000 0.000000 0.000000
# 4 0.000000 0.000000 0.000000 0.019637 0.000000 0.000000
# 5 0.000000 0.000000 0.000000 0.000000 0.081351 0.000000
# 6 0.000000 0.000000 0.000000 0.000000 0.000000 0.030565
#
#
# Mechanical properties :
#
#
# Convention : Reuss Voigt Hill
#
# Bulk Modulus (GPa) = 26.41024 46.66907 36.53966
# Shear Modulus (GPa) = 27.47461 41.41567 34.44514
#
# Velocity S-wave (km/s) = 3.39966 4.17399 3.80656
# Velocity P-wave (km/s) = 5.14977 6.54689 5.88990
#
# Compressibility (1/GPa) = 0.03786410
#
# Stress axis : x y z
#
# Youngs Moduli (GPa) = 204.49596 74.06143 51.42632
#
# Poissons Ratio (x) = 0.18149 0.02718
# Poissons Ratio (y) = 0.50113 -0.15389
# Poissons Ratio (z) = 0.10810 -0.22162
#
# Static dielectric constant tensor:
#      x y z
#    x 2.030780 0.000000 0.000000 
#    y 0.000000 1.979500 0.000000 
#    z 0.000000 0.000000 2.011600 
# 
# From -- ./inp_files/19812.got.cif
#   From: 2010.05.17/outbox.cif.g08.bks.cpg/sg54_10_cif.got.tgz:19812.got - 2010.06.03 13:09:01.
