data_PCOD9421977
_publ_section_title
;
Structure prediction by ZEFSAII (Michael W. Deem and Ramdas Pophale) SiO2 
 PCOD9421977
Probable space group: P C C A
;
_chemical_formula_sum "Si O2"
_cell_formula_units_Z 32
_cell_length_a 5.248786
_cell_length_b 10.960258
_cell_length_c 21.759857
_cell_angle_alpha 90.000000
_cell_angle_beta 90.000000
_cell_angle_gamma 90.000000
_cell_volume 1251.802114
_symmetry_space_group_name_H-M "P C C A"
_symmetry_group_IT_number 54
_symmetry_cell_setting 'orthorhombic'
loop_
_space_group_symop_operation_xyz
x,y,z
1/2-x,-y,z
1/2+x,-y,1/2-z
-x,y,1/2-z
-x,-y,-z
1/2+x,y,-z
1/2-x,y,1/2+z
x,-y,1/2+z
loop_
_atom_site_type_symbol
_atom_site_label
_atom_site_fract_x
_atom_site_fract_y
_atom_site_fract_z
Si Si1 0.134907 0.118794 0.813125
Si Si2 0.679062 0.334254 0.362953
Si Si3 0.000000 0.691996 0.750000
Si Si4 0.962944 0.741308 0.527028
Si Si5 0.250000 0.500000 0.934503
O O1 0.339503 0.217037 0.791814
O O2 0.000000 0.074575 0.750000
O O3 0.951747 0.203996 0.851220
O O4 0.250000 0.000000 0.844404
O O5 0.901696 0.290406 0.408765
O O6 0.469107 0.430892 0.391270
O O7 0.807193 0.372001 0.297735
O O8 0.185867 0.801104 0.485672
O O9 0.855392 0.603207 0.519754
#
# Coordination Sequence:
#
# PCOD9421977 Si02
#       5
#     8   8   4   8   4
#     4  10  20  40  71  99 129 178 238 291 347 422
#     4  11  25  40  72 102 144 185 232 291 356 416
#     4  10  22  42  68 100 138 184 232 284 352 424
#     4  12  25  44  74 104 137 188 250 297 340 413
#     4  12  24  44  70 104 140 192 238 290 352 416
#
# _framework density 25.563144000000001
#
# number of rings (size 3 to 8) (size 9 to 14) (size 15 to 20)
#    0.000    1.000    3.750    3.000    0.000    0.000 
#    0.000    0.000  123.750    1.500    0.000    0.000 
#    0.000    0.000    0.000    0.000    0.000    0.000 
#
# Total GULP energy -178189.969680 kJ/mol
# GULP energy per Si atom -5568.436552 kJ/mol
# Density = 2.550496 g / cm^3
# Si number density = 25.563144 Si / 1000 Ang^3
#
#
#
# Elastic Constant Matrix: (Units=GPa)
#
#
# Indices 1 2 3 4 5 6 
#
# 1 191.2319 29.7630 67.5055 0.0000 0.0000 0.0000
# 2 29.7630 73.1974 30.6037 0.0000 0.0000 0.0000
# 3 67.5055 30.6037 118.5701 0.0000 0.0000 0.0000
# 4 0.0000 0.0000 0.0000 -4.1280 0.0000 0.0000
# 5 0.0000 0.0000 0.0000 0.0000 65.8440 0.0000
# 6 0.0000 0.0000 0.0000 0.0000 0.0000 -80.6513
#
#
#
# Elastic Compliance Matrix: (Units=1/GPa)
#
#
# Indices 1 2 3 4 5 6 
#
# 1 0.006646 -0.001256 -0.003460 0.000000 0.000000 0.000000
# 2 -0.001256 0.015552 -0.003299 0.000000 0.000000 0.000000
# 3 -0.003460 -0.003299 0.011255 0.000000 0.000000 0.000000
# 4 0.000000 0.000000 0.000000 -0.242249 0.000000 0.000000
# 5 0.000000 0.000000 0.000000 0.000000 0.015187 0.000000
# 6 0.000000 0.000000 0.000000 0.000000 0.000000 -0.012399
#
#
# Mechanical properties :
#
#
# Convention : Reuss Voigt Hill
#
# Bulk Modulus (GPa) = 57.39316 70.97152 64.18234
# Shear Modulus (GPa) = -27.14866 13.22143 -6.96362
#
# Velocity S-wave (km/s) = -3.26241 2.27669 -1.65227
# Velocity P-wave (km/s) = 2.88257 5.89360 4.63917
#
# Compressibility (1/GPa) = 0.01742368
#
# Stress axis : x y z
#
# Youngs Moduli (GPa) = 150.46726 64.30198 88.84971
#
# Poissons Ratio (x) = 0.08076 0.30738
# Poissons Ratio (y) = 0.18897 0.29311
# Poissons Ratio (z) = 0.52056 0.21213
#
# Static dielectric constant tensor:
#      x y z
#    x 2.176740 0.000000 0.000000 
#    y 0.000000 1.990890 0.000000 
#    z 0.000000 0.000000 2.434910 
# 
# From -- ./inp_files/22661.got.cif
#   From: 2010.05.17/outbox.cif.g08.bks.cpg/sg54_12_cif.got.tgz:22661.got - 2010.06.03 13:09:01.
