data_PCOD9421376
_publ_section_title
;
Structure prediction by ZEFSAII (Michael W. Deem and Ramdas Pophale) SiO2 
 PCOD9421376
Probable space group: P C C A
;
_chemical_formula_sum "Si O2"
_cell_formula_units_Z 48
_cell_length_a 5.458076
_cell_length_b 21.583946
_cell_length_c 21.200939
_cell_angle_alpha 90.000000
_cell_angle_beta 90.000000
_cell_angle_gamma 90.000000
_cell_volume 2497.615155
_symmetry_space_group_name_H-M "P C C A"
_symmetry_group_IT_number 54
_symmetry_cell_setting 'orthorhombic'
loop_
_space_group_symop_operation_xyz
x,y,z
1/2-x,-y,z
1/2+x,-y,1/2-z
-x,y,1/2-z
-x,-y,-z
1/2+x,y,-z
1/2-x,y,1/2+z
x,-y,1/2+z
loop_
_atom_site_type_symbol
_atom_site_label
_atom_site_fract_x
_atom_site_fract_y
_atom_site_fract_z
Si Si1 0.499998 0.965501 0.327009
Si Si2 0.250000 0.500000 0.390707
Si Si3 0.697631 0.630932 0.539168
Si Si4 0.604226 0.829014 0.321861
Si Si5 0.348273 0.292509 0.843914
Si Si6 0.000000 0.221712 0.750000
Si Si7 0.500000 0.606398 0.250000
Si Si8 0.250000 0.500000 0.191063
O O1 0.500000 0.964102 0.250000
O O2 0.519464 0.894155 0.348764
O O3 0.250000 0.000000 0.346229
O O4 0.750000 0.000000 0.346042
O O5 0.275202 0.437926 0.431928
O O6 0.503616 0.501875 0.350828
O O7 0.437288 0.638428 0.504799
O O8 0.716105 0.680914 0.595303
O O9 0.500000 0.825804 0.250000
O O10 0.519399 0.767011 0.356982
O O11 0.888945 0.822263 0.304470
O O12 0.482112 0.350063 0.810910
O O13 0.173998 0.267342 0.788570
O O14 0.275867 0.560338 0.235231
#
# Coordination Sequence:
#
# PCOD9421376 Si02
#       8
#     8   4   8   8   8   4   4   4
#     4   9  18  28  47  74 119 165 201 230 274 344
#     4  12  25  47  68  86 122 153 207 256 310 380
#     4  12  28  47  66  87 118 160 210 253 310 374
#     4   9  19  33  52  87 118 163 202 244 300 360
#     4  11  24  39  63  88 123 159 201 257 315 370
#     4  10  20  33  64  87 126 158 204 254 314 372
#     4  12  24  43  60  97 124 158 198 264 322 380
#     4  12  27  41  66  96 124 153 201 258 318 378
#
# _framework density 19.218335
#
# number of rings (size 3 to 8) (size 9 to 14) (size 15 to 20)
#    0.000    1.333    4.167    2.000   12.833    0.000 
#    0.000    0.000    0.000    0.000    0.000    0.000 
#    0.000    4.000    0.000    0.000    0.000    0.000 
#
# Total GULP energy -267660.495313 kJ/mol
# GULP energy per Si atom -5576.260319 kJ/mol
# Density = 1.917459 g / cm^3
# Si number density = 19.218335 Si / 1000 Ang^3
#
#
#
# Elastic Constant Matrix: (Units=GPa)
#
#
# Indices 1 2 3 4 5 6 
#
# 1 101.5617 43.9946 17.7392 0.0000 0.0000 0.0000
# 2 43.9946 153.3893 23.6526 0.0000 0.0000 0.0000
# 3 17.7392 23.6526 37.4592 0.0000 0.0000 0.0000
# 4 0.0000 0.0000 0.0000 5.6247 0.0000 0.0000
# 5 0.0000 0.0000 0.0000 0.0000 27.8208 0.0000
# 6 0.0000 0.0000 0.0000 0.0000 0.0000 18.8272
#
#
#
# Elastic Compliance Matrix: (Units=1/GPa)
#
#
# Indices 1 2 3 4 5 6 
#
# 1 0.011710 -0.002774 -0.003794 0.000000 0.000000 0.000000
# 2 -0.002774 0.007880 -0.003662 0.000000 0.000000 0.000000
# 3 -0.003794 -0.003662 0.030805 0.000000 0.000000 0.000000
# 4 0.000000 0.000000 0.000000 0.177787 0.000000 0.000000
# 5 0.000000 0.000000 0.000000 0.000000 0.035944 0.000000
# 6 0.000000 0.000000 0.000000 0.000000 0.000000 0.053115
#
#
# Mechanical properties :
#
#
# Convention : Reuss Voigt Hill
#
# Bulk Modulus (GPa) = 33.40547 51.46475 42.43511
# Shear Modulus (GPa) = 14.38112 24.25615 19.31863
#
# Velocity S-wave (km/s) = 2.73848 3.55651 3.17396
# Velocity P-wave (km/s) = 5.23630 6.61076 5.96326
#
# Compressibility (1/GPa) = 0.02993522
#
# Stress axis : x y z
#
# Youngs Moduli (GPa) = 85.39380 126.91080 32.46258
#
# Poissons Ratio (x) = 0.35201 0.12317
# Poissons Ratio (y) = 0.23686 0.11887
# Poissons Ratio (z) = 0.32400 0.46473
#
# Static dielectric constant tensor:
#      x y z
#    x 1.849440 0.000000 0.000000 
#    y 0.000000 1.697850 0.000000 
#    z 0.000000 0.000000 1.674870 
# 
# From -- ./inp_files/22988.got.cif
#   From: 2010.05.17/outbox.cif.g08.bks.cpg/sg54_12_cif.got.tgz:22988.got - 2010.06.03 13:09:01.
