data_PCOD9421424
_publ_section_title
;
Structure prediction by ZEFSAII (Michael W. Deem and Ramdas Pophale) SiO2 
 PCOD9421424
Probable space group: P C C A
;
_chemical_formula_sum "Si O2"
_cell_formula_units_Z 24
_cell_length_a 4.953556
_cell_length_b 7.837070
_cell_length_c 29.033686
_cell_angle_alpha 90.000000
_cell_angle_beta 90.000000
_cell_angle_gamma 90.000000
_cell_volume 1127.127325
_symmetry_space_group_name_H-M "P C C A"
_symmetry_group_IT_number 54
_symmetry_cell_setting 'orthorhombic'
loop_
_space_group_symop_operation_xyz
x,y,z
1/2-x,-y,z
1/2+x,-y,1/2-z
-x,y,1/2-z
-x,-y,-z
1/2+x,y,-z
1/2-x,y,1/2+z
x,-y,1/2+z
loop_
_atom_site_type_symbol
_atom_site_label
_atom_site_fract_x
_atom_site_fract_y
_atom_site_fract_z
Si Si1 0.250000 0.500000 0.033948
Si Si2 0.282868 0.191608 0.604848
Si Si3 0.279906 0.704318 0.840207
Si Si4 0.500000 0.378102 0.750000
O O1 0.264184 0.335319 0.066797
O O2 0.500000 0.500000 0.000000
O O3 0.584066 0.209036 0.623489
O O4 0.077900 0.232533 0.647329
O O5 0.250000 0.000000 0.587696
O O6 0.250000 0.500000 0.846758
O O7 0.150279 0.728559 0.789631
O O8 0.750000 0.500000 0.767744
#
# Coordination Sequence:
#
# PCOD9421424 Si02
#       4
#     4   8   8   4
#     4  12  26  46  72  98 132 172 220 280 346 410
#     4  12  25  43  69 102 133 176 220 276 336 402
#     4  11  20  41  67  96 137 181 225 269 326 392
#     4  10  20  34  64 104 132 180 234 272 318 384
#
# _framework density 21.293068999999999
#
# number of rings (size 3 to 8) (size 9 to 14) (size 15 to 20)
#    0.000    0.667    3.333    7.000    0.000    1.333 
#    0.000    3.333    0.000    2.000    0.000    0.000 
#    0.000    0.000    0.000    0.000    0.000    0.000 
#
# Total GULP energy -134138.185686 kJ/mol
# GULP energy per Si atom -5589.091070 kJ/mol
# Density = 2.124460 g / cm^3
# Si number density = 21.293069 Si / 1000 Ang^3
#
#
#
# Elastic Constant Matrix: (Units=GPa)
#
#
# Indices 1 2 3 4 5 6 
#
# 1 97.5135 -2.4405 11.7867 0.0000 0.0000 0.0000
# 2 -2.4405 138.5380 43.7118 0.0000 0.0000 0.0000
# 3 11.7867 43.7118 109.2005 0.0000 0.0000 0.0000
# 4 0.0000 0.0000 0.0000 -41.1516 0.0000 0.0000
# 5 0.0000 0.0000 0.0000 0.0000 11.2771 0.0000
# 6 0.0000 0.0000 0.0000 0.0000 0.0000 27.8875
#
#
#
# Elastic Compliance Matrix: (Units=1/GPa)
#
#
# Indices 1 2 3 4 5 6 
#
# 1 0.010436 0.000617 -0.001374 0.000000 0.000000 0.000000
# 2 0.000617 0.008298 -0.003388 0.000000 0.000000 0.000000
# 3 -0.001374 -0.003388 0.010662 0.000000 0.000000 0.000000
# 4 0.000000 0.000000 0.000000 -0.024300 0.000000 0.000000
# 5 0.000000 0.000000 0.000000 0.000000 0.088675 0.000000
# 6 0.000000 0.000000 0.000000 0.000000 0.000000 0.035858
#
#
# Mechanical properties :
#
#
# Convention : Reuss Voigt Hill
#
# Bulk Modulus (GPa) = 47.37664 50.15201 48.76433
# Shear Modulus (GPa) = 34.49345 19.08219 26.78782
#
# Velocity S-wave (km/s) = 4.02921 2.99686 3.55075
# Velocity P-wave (km/s) = 6.62904 5.96483 6.30569
#
# Compressibility (1/GPa) = 0.02110745
#
# Stress axis : x y z
#
# Youngs Moduli (GPa) = 95.81791 120.50813 93.79085
#
# Poissons Ratio (x) = -0.07438 0.12883
# Poissons Ratio (y) = -0.05914 0.31779
# Poissons Ratio (z) = 0.13161 0.40832
#
# Static dielectric constant tensor:
#      x y z
#    x 1.743040 0.000000 0.000000 
#    y 0.000000 1.829380 0.000000 
#    z 0.000000 0.000000 1.778690 
# 
# From -- ./inp_files/24998.got.cif
#   From: 2010.05.17/outbox.cif.g08.bks.cpg/sg54_13_cif.got.tgz:24998.got - 2010.06.03 13:09:01.
