data_PCOD9421658
_publ_section_title
;
Structure prediction by ZEFSAII (Michael W. Deem and Ramdas Pophale) SiO2 
 PCOD9421658
Probable space group: P C C A
;
_chemical_formula_sum "Si O2"
_cell_formula_units_Z 48
_cell_length_a 12.812683
_cell_length_b 18.444840
_cell_length_c 9.599804
_cell_angle_alpha 90.000000
_cell_angle_beta 90.000000
_cell_angle_gamma 90.000000
_cell_volume 2268.701404
_symmetry_space_group_name_H-M "P C C A"
_symmetry_group_IT_number 54
_symmetry_cell_setting 'orthorhombic'
loop_
_space_group_symop_operation_xyz
x,y,z
1/2-x,-y,z
1/2+x,-y,1/2-z
-x,y,1/2-z
-x,-y,-z
1/2+x,y,-z
1/2-x,y,1/2+z
x,-y,1/2+z
loop_
_atom_site_type_symbol
_atom_site_label
_atom_site_fract_x
_atom_site_fract_y
_atom_site_fract_z
Si Si1 0.739727 0.284569 0.376411
Si Si2 0.227932 0.383534 0.378958
Si Si3 0.131057 0.843083 0.550722
Si Si4 0.731698 0.916926 0.722230
Si Si5 0.575548 0.511528 0.629819
Si Si6 0.068675 0.840219 0.116445
O O1 0.756728 0.315223 0.222567
O O2 0.708602 0.352891 0.468266
O O3 0.842314 0.241879 0.429455
O O4 0.651035 0.224252 0.397491
O O5 0.332480 0.430970 0.389708
O O6 0.134581 0.436322 0.332648
O O7 0.172082 0.881945 0.691526
O O8 0.196936 0.873805 0.417122
O O9 0.010242 0.853195 0.509884
O O10 0.635809 0.909010 0.832199
O O11 0.750000 0.000000 0.686901
O O12 0.500000 0.537313 0.750000
O O13 0.500000 0.500000 0.500000
O O14 0.000000 0.819478 0.250000
#
# Coordination Sequence:
#
# PCOD9421658 Si02
#       6
#     8   8   8   8   8   8
#     4  11  22  39  61  86 118 156 196 244 296 348
#     4  11  24  40  62  90 119 157 201 244 295 355
#     4  10  21  39  58  85 120 154 198 247 295 354
#     4  10  20  37  60  85 117 157 197 244 298 353
#     4  11  24  42  62  89 123 156 198 247 294 352
#     4   9  20  37  58  84 117 155 194 240 297 357
#
# _framework density 21.157478000000001
#
# number of rings (size 3 to 8) (size 9 to 14) (size 15 to 20)
#    0.000    1.667    0.000    5.500    0.000    9.333 
#    0.000   11.667    0.000    0.000    0.000    0.000 
#    0.000    0.000    0.000    0.000    0.000    0.000 
#
# Total GULP energy -268045.415783 kJ/mol
# GULP energy per Si atom -5584.279495 kJ/mol
# Density = 2.110932 g / cm^3
# Si number density = 21.157478 Si / 1000 Ang^3
#
#
#
# Elastic Constant Matrix: (Units=GPa)
#
#
# Indices 1 2 3 4 5 6 
#
# 1 87.0343 19.1622 17.9269 0.0000 0.0000 0.0000
# 2 19.1622 71.5586 0.2688 0.0000 0.0000 0.0000
# 3 17.9269 0.2688 58.3395 0.0000 0.0000 0.0000
# 4 0.0000 0.0000 0.0000 41.0239 0.0000 0.0000
# 5 0.0000 0.0000 0.0000 0.0000 32.9188 0.0000
# 6 0.0000 0.0000 0.0000 0.0000 0.0000 13.0688
#
#
#
# Elastic Compliance Matrix: (Units=1/GPa)
#
#
# Indices 1 2 3 4 5 6 
#
# 1 0.013082 -0.003488 -0.004004 0.000000 0.000000 0.000000
# 2 -0.003488 0.014905 0.001003 0.000000 0.000000 0.000000
# 3 -0.004004 0.001003 0.018367 0.000000 0.000000 0.000000
# 4 0.000000 0.000000 0.000000 0.024376 0.000000 0.000000
# 5 0.000000 0.000000 0.000000 0.000000 0.030378 0.000000
# 6 0.000000 0.000000 0.000000 0.000000 0.000000 0.076518
#
#
# Mechanical properties :
#
#
# Convention : Reuss Voigt Hill
#
# Bulk Modulus (GPa) = 29.96153 32.40534 31.18344
# Shear Modulus (GPa) = 24.78569 29.37395 27.07982
#
# Velocity S-wave (km/s) = 3.42641 3.73010 3.58147
# Velocity P-wave (km/s) = 5.46312 5.82246 5.64565
#
# Compressibility (1/GPa) = 0.03337613
#
# Stress axis : x y z
#
# Youngs Moduli (GPa) = 76.43840 67.09218 54.44616
#
# Poissons Ratio (x) = 0.23403 0.21800
# Poissons Ratio (y) = 0.26663 -0.05462
# Poissons Ratio (z) = 0.30606 -0.06731
#
# Static dielectric constant tensor:
#      x y z
#    x 1.764730 0.000000 0.000000 
#    y 0.000000 1.782350 0.000000 
#    z 0.000000 0.000000 1.753740 
# 
# From -- ./inp_files/7580.got.cif
#   From: 2010.05.17/outbox.cif.g08.bks.cpg/sg54_4_cif.got.tgz:7580.got - 2010.06.03 13:09:01.
