data_PCOD9421701
_publ_section_title
;
Structure prediction by ZEFSAII (Michael W. Deem and Ramdas Pophale) SiO2 
 PCOD9421701
Probable space group: P C C A
;
_chemical_formula_sum "Si O2"
_cell_formula_units_Z 52
_cell_length_a 8.220746
_cell_length_b 12.631793
_cell_length_c 24.934594
_cell_angle_alpha 90.000000
_cell_angle_beta 90.000000
_cell_angle_gamma 90.000000
_cell_volume 2589.277105
_symmetry_space_group_name_H-M "P C C A"
_symmetry_group_IT_number 54
_symmetry_cell_setting 'orthorhombic'
loop_
_space_group_symop_operation_xyz
x,y,z
1/2-x,-y,z
1/2+x,-y,1/2-z
-x,y,1/2-z
-x,-y,-z
1/2+x,y,-z
1/2-x,y,1/2+z
x,-y,1/2+z
loop_
_atom_site_type_symbol
_atom_site_label
_atom_site_fract_x
_atom_site_fract_y
_atom_site_fract_z
Si Si1 0.408493 0.435052 0.161772
Si Si2 0.558569 0.796318 0.809064
Si Si3 0.719845 0.874094 0.630331
Si Si4 0.688605 0.880449 0.248373
Si Si5 0.242964 0.378843 0.049567
Si Si6 0.630135 0.303934 0.558389
Si Si7 0.750000 0.500000 0.124192
O O1 0.250000 0.500000 0.182384
O O2 0.455809 0.328672 0.191817
O O3 0.346785 0.391915 0.103721
O O4 0.578156 0.497608 0.155751
O O5 0.500000 0.838751 0.750000
O O6 0.471876 0.848463 0.860199
O O7 0.746733 0.823287 0.801566
O O8 0.773338 0.833291 0.689585
O O9 0.814155 0.805070 0.586524
O O10 0.750000 0.000000 0.625206
O O11 0.500000 0.884025 0.250000
O O12 0.750000 0.000000 0.248819
O O13 0.250000 0.500000 0.027542
O O14 0.059898 0.338782 0.062024
O O15 0.322812 0.306576 0.004206
O O16 0.736163 0.394753 0.588127
#
# Coordination Sequence:
#
# PCOD9421701 Si02
#       7
#     8   8   8   8   8   8   4
#     4  11  23  40  61  93 127 162 212 253 312 381
#     4  10  22  41  61  88 125 164 206 257 310 370
#     4  10  22  41  64  91 123 163 209 260 314 371
#     4  10  20  37  64  89 117 159 213 259 303 365
#     4  11  22  37  60  92 122 161 218 256 305 377
#     4  12  22  37  64  91 123 165 207 261 316 367
#     4  12  20  38  64  90 122 166 200 266 310 362
#
# _framework density 20.082825
#
# number of rings (size 3 to 8) (size 9 to 14) (size 15 to 20)
#    0.000    1.231    5.385    3.692    2.154    0.000 
#    1.385    0.769    0.000    0.000    0.000    0.000 
#    0.000    0.000    0.000    0.000    0.000    0.000 
#
# Total GULP energy -289599.652264 kJ/mol
# GULP energy per Si atom -5569.224082 kJ/mol
# Density = 2.003712 g / cm^3
# Si number density = 20.082825 Si / 1000 Ang^3
#
#
#
# Elastic Constant Matrix: (Units=GPa)
#
#
# Indices 1 2 3 4 5 6 
#
# 1 117.2832 22.7141 15.7209 0.0000 0.0000 0.0000
# 2 22.7141 98.7022 28.5302 0.0000 0.0000 0.0000
# 3 15.7209 28.5302 50.8966 0.0000 0.0000 0.0000
# 4 0.0000 0.0000 0.0000 0.3828 0.0000 0.0000
# 5 0.0000 0.0000 0.0000 0.0000 13.4656 0.0000
# 6 0.0000 0.0000 0.0000 0.0000 0.0000 25.0524
#
#
#
# Elastic Compliance Matrix: (Units=1/GPa)
#
#
# Indices 1 2 3 4 5 6 
#
# 1 0.009083 -0.001527 -0.001950 0.000000 0.000000 0.000000
# 2 -0.001527 0.012347 -0.006450 0.000000 0.000000 0.000000
# 3 -0.001950 -0.006450 0.023865 0.000000 0.000000 0.000000
# 4 0.000000 0.000000 0.000000 2.612614 0.000000 0.000000
# 5 0.000000 0.000000 0.000000 0.000000 0.074263 0.000000
# 6 0.000000 0.000000 0.000000 0.000000 0.000000 0.039916
#
#
# Mechanical properties :
#
#
# Convention : Reuss Voigt Hill
#
# Bulk Modulus (GPa) = 39.30293 44.53471 41.91882
# Shear Modulus (GPa) = 1.78544 21.10794 11.44669
#
# Velocity S-wave (km/s) = 0.94391 3.24550 2.39000
# Velocity P-wave (km/s) = 4.56080 6.02229 5.34176
#
# Compressibility (1/GPa) = 0.02544339
#
# Stress axis : x y z
#
# Youngs Moduli (GPa) = 110.09076 80.99063 41.90185
#
# Poissons Ratio (x) = 0.12365 0.08170
# Poissons Ratio (y) = 0.16808 0.27025
# Poissons Ratio (z) = 0.21466 0.52236
#
# Static dielectric constant tensor:
#      x y z
#    x 2.116670 0.000000 0.000000 
#    y 0.000000 1.696700 0.000000 
#    z 0.000000 0.000000 1.777680 
# 
# From -- ./inp_files/25883.got.cif
#   From: 2010.05.17/outbox.cif.g08.bks.cpg/sg54_13_cif.got.tgz:25883.got - 2010.06.03 13:09:01.
