data_PCOD9421220
_publ_section_title
;
Structure prediction by ZEFSAII (Michael W. Deem and Ramdas Pophale) SiO2 
 PCOD9421220
Probable space group: P C C A
;
_chemical_formula_sum "Si O2"
_cell_formula_units_Z 48
_cell_length_a 11.287518
_cell_length_b 8.593241
_cell_length_c 23.289201
_cell_angle_alpha 90.000000
_cell_angle_beta 90.000000
_cell_angle_gamma 90.000000
_cell_volume 2258.967782
_symmetry_space_group_name_H-M "P C C A"
_symmetry_group_IT_number 54
_symmetry_cell_setting 'orthorhombic'
loop_
_space_group_symop_operation_xyz
x,y,z
1/2-x,-y,z
1/2+x,-y,1/2-z
-x,y,1/2-z
-x,-y,-z
1/2+x,y,-z
1/2-x,y,1/2+z
x,-y,1/2+z
loop_
_atom_site_type_symbol
_atom_site_label
_atom_site_fract_x
_atom_site_fract_y
_atom_site_fract_z
Si Si1 0.494485 0.647873 0.680393
Si Si2 0.218459 0.181986 0.855587
Si Si3 0.934168 0.307542 0.190368
Si Si4 0.062460 0.105086 0.100011
Si Si5 0.684439 0.230832 0.404075
Si Si6 0.333067 0.847444 0.473226
O O1 0.500000 0.662922 0.750000
O O2 0.583588 0.775466 0.654129
O O3 0.543046 0.477249 0.664568
O O4 0.369998 0.668150 0.647368
O O5 0.294920 0.274527 0.808652
O O6 0.264971 0.227964 0.919021
O O7 0.250000 0.000000 0.850722
O O8 0.000000 0.307105 0.250000
O O9 0.989745 0.167848 0.153951
O O10 0.173676 0.221369 0.094972
O O11 0.963055 0.105277 0.050148
O O12 0.125022 0.939150 0.106031
O O13 0.652654 0.259484 0.470915
O O14 0.250000 0.000000 0.487854
#
# Coordination Sequence:
#
# PCOD9421220 Si02
#       6
#     8   8   8   8   8   8
#     4  11  25  42  63  91 127 174 213 258 328 387
#     4  10  22  40  67  95 120 160 215 268 316 378
#     4  10  23  43  64  85 128 171 209 264 322 390
#     4  10  22  37  61  98 124 163 215 264 318 366
#     4  11  22  36  64  96 128 162 212 269 308 383
#     4  10  19  37  65  94 126 168 204 265 322 375
#
# _framework density 21.248643000000001
#
# number of rings (size 3 to 8) (size 9 to 14) (size 15 to 20)
#    0.000    1.667    1.667    4.000    4.667    3.333 
#    0.000    3.333    7.333    0.000    0.000    0.000 
#    0.000    0.000    0.000    0.000    0.000    0.000 
#
# Total GULP energy -267694.324950 kJ/mol
# GULP energy per Si atom -5576.965103 kJ/mol
# Density = 2.120028 g / cm^3
# Si number density = 21.248643 Si / 1000 Ang^3
#
#
#
# Elastic Constant Matrix: (Units=GPa)
#
#
# Indices 1 2 3 4 5 6 
#
# 1 134.1988 13.8695 27.3389 0.0000 0.0000 0.0000
# 2 13.8695 40.5760 19.3878 0.0000 0.0000 0.0000
# 3 27.3389 19.3878 75.4475 0.0000 0.0000 0.0000
# 4 0.0000 0.0000 0.0000 43.8858 0.0000 0.0000
# 5 0.0000 0.0000 0.0000 0.0000 20.8536 0.0000
# 6 0.0000 0.0000 0.0000 0.0000 0.0000 22.6966
#
#
#
# Elastic Compliance Matrix: (Units=1/GPa)
#
#
# Indices 1 2 3 4 5 6 
#
# 1 0.008132 -0.001564 -0.002545 0.000000 0.000000 0.000000
# 2 -0.001564 0.028395 -0.006730 0.000000 0.000000 0.000000
# 3 -0.002545 -0.006730 0.015906 0.000000 0.000000 0.000000
# 4 0.000000 0.000000 0.000000 0.022786 0.000000 0.000000
# 5 0.000000 0.000000 0.000000 0.000000 0.047953 0.000000
# 6 0.000000 0.000000 0.000000 0.000000 0.000000 0.044060
#
#
# Mechanical properties :
#
#
# Convention : Reuss Voigt Hill
#
# Bulk Modulus (GPa) = 32.51428 41.26829 36.89128
# Shear Modulus (GPa) = 25.10532 30.12895 27.61714
#
# Velocity S-wave (km/s) = 3.44103 3.76962 3.60906
# Velocity P-wave (km/s) = 5.57876 6.19762 5.89631
#
# Compressibility (1/GPa) = 0.03075572
#
# Stress axis : x y z
#
# Youngs Moduli (GPa) = 122.97631 35.21705 62.87010
#
# Poissons Ratio (x) = 0.05507 0.15999
# Poissons Ratio (y) = 0.19228 0.42313
# Poissons Ratio (z) = 0.31294 0.23702
#
# Static dielectric constant tensor:
#      x y z
#    x 1.843300 0.000000 0.000000 
#    y 0.000000 1.798130 0.000000 
#    z 0.000000 0.000000 1.803880 
# 
# From -- ./inp_files/24082.got.cif
#   From: 2010.05.17/outbox.cif.g08.bks.cpg/sg54_13_cif.got.tgz:24082.got - 2010.06.03 13:09:01.
