data_PCOD9421725
_publ_section_title
;
Structure prediction by ZEFSAII (Michael W. Deem and Ramdas Pophale) SiO2 
 PCOD9421725
Probable space group: P C C A
;
_chemical_formula_sum "Si O2"
_cell_formula_units_Z 28
_cell_length_a 5.100235
_cell_length_b 11.182358
_cell_length_c 25.484038
_cell_angle_alpha 90.000000
_cell_angle_beta 90.000000
_cell_angle_gamma 90.000000
_cell_volume 1453.422313
_symmetry_space_group_name_H-M "P C C A"
_symmetry_group_IT_number 54
_symmetry_cell_setting 'orthorhombic'
loop_
_space_group_symop_operation_xyz
x,y,z
1/2-x,-y,z
1/2+x,-y,1/2-z
-x,y,1/2-z
-x,-y,-z
1/2+x,y,-z
1/2-x,y,1/2+z
x,-y,1/2+z
loop_
_atom_site_type_symbol
_atom_site_label
_atom_site_fract_x
_atom_site_fract_y
_atom_site_fract_z
Si Si1 0.750000 0.000000 0.213033
Si Si2 0.096724 0.257695 0.810262
Si Si3 0.828253 0.363825 0.477596
Si Si4 0.108064 0.373986 0.143771
O O1 0.804288 0.877739 0.182717
O O2 0.500000 0.977206 0.250000
O O3 0.338066 0.344426 0.826245
O O4 0.000000 0.273455 0.750000
O O5 0.835235 0.279939 0.843157
O O6 0.750000 0.500000 0.493705
O O7 0.543014 0.306122 0.484573
O O8 0.935259 0.370495 0.418720
O O9 0.250000 0.500000 0.157331
#
# Coordination Sequence:
#
# PCOD9421725 Si02
#       4
#     4   8   8   8
#     4  10  20  38  58  74  96 136 194 238 254 286
#     4  11  22  37  55  78 108 145 182 221 262 310
#     4   9  17  31  51  75 104 138 176 218 257 302
#     4  11  22  35  54  83 115 143 175 212 269 336
#
# _framework density 19.264876999999998
#
# number of rings (size 3 to 8) (size 9 to 14) (size 15 to 20)
#    0.000    1.714    0.000    6.857    0.000    6.857 
#    0.000    1.429    0.000    0.000    0.000   20.000 
#    0.000    0.000    0.000    0.000    0.000    0.000 
#
# Total GULP energy -156068.263721 kJ/mol
# GULP energy per Si atom -5573.866561 kJ/mol
# Density = 1.922103 g / cm^3
# Si number density = 19.264877 Si / 1000 Ang^3
#
#
#
# Elastic Constant Matrix: (Units=GPa)
#
#
# Indices 1 2 3 4 5 6 
#
# 1 145.2745 18.2273 39.5702 0.0000 0.0000 0.0000
# 2 18.2273 48.2859 26.7047 0.0000 0.0000 0.0000
# 3 39.5702 26.7047 65.3750 0.0000 0.0000 0.0000
# 4 0.0000 0.0000 0.0000 -13.7533 0.0000 0.0000
# 5 0.0000 0.0000 0.0000 0.0000 34.3846 0.0000
# 6 0.0000 0.0000 0.0000 0.0000 0.0000 33.5090
#
#
#
# Elastic Compliance Matrix: (Units=1/GPa)
#
#
# Indices 1 2 3 4 5 6 
#
# 1 0.008250 -0.000455 -0.004808 0.000000 0.000000 0.000000
# 2 -0.000455 0.026779 -0.010663 0.000000 0.000000 0.000000
# 3 -0.004808 -0.010663 0.022562 0.000000 0.000000 0.000000
# 4 0.000000 0.000000 0.000000 -0.072710 0.000000 0.000000
# 5 0.000000 0.000000 0.000000 0.000000 0.029083 0.000000
# 6 0.000000 0.000000 0.000000 0.000000 0.000000 0.029843
#
#
# Mechanical properties :
#
#
# Convention : Reuss Voigt Hill
#
# Bulk Modulus (GPa) = 38.85172 47.54888 43.20030
# Shear Modulus (GPa) = 59.35438 22.45692 40.90565
#
# Velocity S-wave (km/s) = 5.55666 3.41793 4.61296
# Velocity P-wave (km/s) = 7.83451 6.34914 7.13061
#
# Compressibility (1/GPa) = 0.02573889
#
# Stress axis : x y z
#
# Youngs Moduli (GPa) = 121.20952 37.34226 44.32204
#
# Poissons Ratio (x) = 0.01701 0.21308
# Poissons Ratio (y) = 0.05521 0.47262
# Poissons Ratio (z) = 0.58273 0.39819
#
# Static dielectric constant tensor:
#      x y z
#    x 1.772520 0.000000 0.000000 
#    y 0.000000 1.723290 0.000000 
#    z 0.000000 0.000000 1.692450 
# 
# From -- ./inp_files/25097.got.cif
#   From: 2010.05.17/outbox.cif.g08.bks.cpg/sg54_13_cif.got.tgz:25097.got - 2010.06.03 13:09:01.
