data_PCOD9421139
_publ_section_title
;
Structure prediction by ZEFSAII (Michael W. Deem and Ramdas Pophale) SiO2 
 PCOD9421139
Probable space group: P C C A
;
_chemical_formula_sum "Si O2"
_cell_formula_units_Z 60
_cell_length_a 9.215869
_cell_length_b 12.746787
_cell_length_c 27.760310
_cell_angle_alpha 90.000000
_cell_angle_beta 90.000000
_cell_angle_gamma 90.000000
_cell_volume 3261.079101
_symmetry_space_group_name_H-M "P C C A"
_symmetry_group_IT_number 54
_symmetry_cell_setting 'orthorhombic'
loop_
_space_group_symop_operation_xyz
x,y,z
1/2-x,-y,z
1/2+x,-y,1/2-z
-x,y,1/2-z
-x,-y,-z
1/2+x,y,-z
1/2-x,y,1/2+z
x,-y,1/2+z
loop_
_atom_site_type_symbol
_atom_site_label
_atom_site_fract_x
_atom_site_fract_y
_atom_site_fract_z
Si Si1 0.175501 0.614124 0.953841
Si Si2 0.460893 0.975055 0.694035
Si Si3 0.511260 0.254195 0.192643
Si Si4 0.426986 0.204351 0.697303
Si Si5 0.250000 0.000000 0.368075
Si Si6 0.268843 0.375288 0.154061
Si Si7 0.293594 0.774207 0.368347
Si Si8 0.173616 0.386074 0.048429
O O1 0.250000 0.500000 0.947994
O O2 0.210330 0.683993 0.907665
O O3 0.000094 0.606024 0.958301
O O4 0.248499 0.663614 0.001899
O O5 0.500000 0.965689 0.750000
O O6 0.428901 0.855143 0.679768
O O7 0.371320 0.083581 0.689796
O O8 0.608985 0.998526 0.665549
O O9 0.500000 0.271859 0.250000
O O10 0.435569 0.346442 0.162977
O O11 0.674365 0.240808 0.173634
O O12 0.500000 0.205758 0.750000
O O13 0.316337 0.300392 0.691388
O O14 0.551352 0.223446 0.657601
O O15 0.259955 0.887169 0.393158
O O16 0.250000 0.500000 0.160505
O O17 0.213557 0.341892 0.100945
O O18 0.250000 0.500000 0.050142
#
# Coordination Sequence:
#
# PCOD9421139 Si02
#       8
#     8   8   8   8   4   8   8   8
#     4  11  22  37  64  88 105 139 187 235 287 335
#     4   8  16  30  54  79 103 139 191 242 271 306
#     4  10  21  36  55  83 114 152 193 230 273 322
#     4  10  19  36  57  81 113 149 189 229 275 326
#     4   8  16  32  48  78 112 140 176 228 278 328
#     4  11  24  37  52  79 121 150 180 233 276 329
#     4  10  20  34  59  82 109 150 187 224 280 339
#     4  10  22  39  59  86 112 138 182 239 285 324
#
# _framework density 18.398817999999999
#
# number of rings (size 3 to 8) (size 9 to 14) (size 15 to 20)
#    0.000    2.133    1.333    2.400    5.600    4.267 
#    0.000    1.333    0.000    2.400    0.000    0.000 
#    0.000    0.000    0.000    0.000    0.000    0.000 
#
# Total GULP energy -334052.624268 kJ/mol
# GULP energy per Si atom -5567.543738 kJ/mol
# Density = 1.835694 g / cm^3
# Si number density = 18.398818 Si / 1000 Ang^3
#
#
#
# Elastic Constant Matrix: (Units=GPa)
#
#
# Indices 1 2 3 4 5 6 
#
# 1 73.8690 15.9929 10.7156 0.0000 0.0000 0.0000
# 2 15.9929 96.3701 28.7967 0.0000 0.0000 0.0000
# 3 10.7156 28.7967 78.2516 0.0000 0.0000 0.0000
# 4 0.0000 0.0000 0.0000 183.1182 0.0000 0.0000
# 5 0.0000 0.0000 0.0000 0.0000 -104.1834 0.0000
# 6 0.0000 0.0000 0.0000 0.0000 0.0000 31.1292
#
#
#
# Elastic Compliance Matrix: (Units=1/GPa)
#
#
# Indices 1 2 3 4 5 6 
#
# 1 0.014142 -0.001987 -0.001206 0.000000 0.000000 0.000000
# 2 -0.001987 0.011938 -0.004121 0.000000 0.000000 0.000000
# 3 -0.001206 -0.004121 0.014461 0.000000 0.000000 0.000000
# 4 0.000000 0.000000 0.000000 0.005461 0.000000 0.000000
# 5 0.000000 0.000000 0.000000 0.000000 -0.009598 0.000000
# 6 0.000000 0.000000 0.000000 0.000000 0.000000 0.032124
#
#
# Mechanical properties :
#
#
# Convention : Reuss Voigt Hill
#
# Bulk Modulus (GPa) = 38.58838 39.94458 39.26648
# Shear Modulus (GPa) = 54.47055 34.87850 44.67453
#
# Velocity S-wave (km/s) = 5.44699 4.35868 4.93294
# Velocity P-wave (km/s) = 7.78322 6.86209 7.33712
#
# Compressibility (1/GPa) = 0.02591454
#
# Stress axis : x y z
#
# Youngs Moduli (GPa) = 70.70890 83.76749 69.15190
#
# Poissons Ratio (x) = 0.16643 0.08336
# Poissons Ratio (y) = 0.14048 0.28498
# Poissons Ratio (z) = 0.08524 0.34521
#
# Static dielectric constant tensor:
#      x y z
#    x 1.695410 0.000000 0.000000 
#    y 0.000000 1.659540 0.000000 
#    z 0.000000 0.000000 1.621490 
# 
# From -- ./inp_files/27921.got.cif
#   From: 2010.05.17/outbox.cif.g08.bks.cpg/sg54_14_cif.got.tgz:27921.got - 2010.06.03 13:09:01.
