data_PCOD9421399
_publ_section_title
;
Structure prediction by ZEFSAII (Michael W. Deem and Ramdas Pophale) SiO2 
 PCOD9421399
Probable space group: P C C A
;
_chemical_formula_sum "Si O2"
_cell_formula_units_Z 64
_cell_length_a 26.597522
_cell_length_b 13.981548
_cell_length_c 9.722328
_cell_angle_alpha 90.000000
_cell_angle_beta 90.000000
_cell_angle_gamma 90.000000
_cell_volume 3615.486161
_symmetry_space_group_name_H-M "P C C A"
_symmetry_group_IT_number 54
_symmetry_cell_setting 'orthorhombic'
loop_
_space_group_symop_operation_xyz
x,y,z
1/2-x,-y,z
1/2+x,-y,1/2-z
-x,y,1/2-z
-x,-y,-z
1/2+x,y,-z
1/2-x,y,1/2+z
x,-y,1/2+z
loop_
_atom_site_type_symbol
_atom_site_label
_atom_site_fract_x
_atom_site_fract_y
_atom_site_fract_z
Si Si1 0.692852 0.575226 0.098935
Si Si2 0.635722 0.852594 0.435264
Si Si3 0.650455 0.078527 0.395738
Si Si4 0.040283 0.094860 0.642244
Si Si5 0.204345 0.802693 0.309913
Si Si6 0.203156 0.592602 0.225871
Si Si7 0.478377 0.133396 0.608851
Si Si8 0.322973 0.213835 0.855944
O O1 0.703601 0.561745 0.935242
O O2 0.671788 0.481082 0.177259
O O3 0.742922 0.592600 0.193568
O O4 0.664455 0.675937 0.109707
O O5 0.668574 0.812152 0.559102
O O6 0.575965 0.831603 0.442568
O O7 0.656006 0.810525 0.293117
O O8 0.645675 0.966987 0.429656
O O9 0.598122 0.108848 0.323326
O O10 0.694566 0.109065 0.292943
O O11 0.655752 0.139361 0.534033
O O12 0.000000 0.131490 0.750000
O O13 0.023393 0.139405 0.499054
O O14 0.032040 0.980324 0.630882
O O15 0.189487 0.704362 0.232257
O O16 0.262388 0.798554 0.354605
O O17 0.500000 0.174405 0.750000
#
# Coordination Sequence:
#
# PCOD9421399 Si02
#       8
#     8   8   8   8   8   8   8   8
#     4  10  20  34  56  77 100 132 176 223 278 305
#     4  11  23  33  53  73 107 149 182 215 251 307
#     4  11  21  37  49  75 107 145 184 216 254 305
#     4   9  17  30  53  70  96 127 169 226 277 305
#     4  11  23  35  50  74 110 143 187 211 250 303
#     4  10  20  34  56  77 100 133 173 228 270 313
#     4   9  17  32  49  74  94 127 173 223 274 308
#     4  11  23  35  50  74 108 149 179 218 247 301
#
# _framework density 17.701630999999999
#
# number of rings (size 3 to 8) (size 9 to 14) (size 15 to 20)
#    0.000    1.750    1.250    4.500    7.000    7.000 
#    0.000    0.000    0.000    0.000    0.000    0.000 
#    0.000   20.000    0.000    0.000    0.000    0.000 
#
# Total GULP energy -356544.289938 kJ/mol
# GULP energy per Si atom -5571.004530 kJ/mol
# Density = 1.766134 g / cm^3
# Si number density = 17.701631 Si / 1000 Ang^3
#
#
#
# Elastic Constant Matrix: (Units=GPa)
#
#
# Indices 1 2 3 4 5 6 
#
# 1 45.5444 6.0636 -12.3487 0.0000 0.0000 0.0000
# 2 6.0636 62.8584 7.1561 0.0000 0.0000 0.0000
# 3 -12.3487 7.1561 76.3763 0.0000 0.0000 0.0000
# 4 0.0000 0.0000 0.0000 24.7794 0.0000 0.0000
# 5 0.0000 0.0000 0.0000 0.0000 23.5699 0.0000
# 6 0.0000 0.0000 0.0000 0.0000 0.0000 -4.5716
#
#
#
# Elastic Compliance Matrix: (Units=1/GPa)
#
#
# Indices 1 2 3 4 5 6 
#
# 1 0.023414 -0.002719 0.004040 0.000000 0.000000 0.000000
# 2 -0.002719 0.016396 -0.001976 0.000000 0.000000 0.000000
# 3 0.004040 -0.001976 0.013931 0.000000 0.000000 0.000000
# 4 0.000000 0.000000 0.000000 0.040356 0.000000 0.000000
# 5 0.000000 0.000000 0.000000 0.000000 0.042427 0.000000
# 6 0.000000 0.000000 0.000000 0.000000 0.000000 -0.218744
#
#
# Mechanical properties :
#
#
# Convention : Reuss Voigt Hill
#
# Bulk Modulus (GPa) = 19.07182 20.72457 19.89819
# Shear Modulus (GPa) = -78.82317 21.01607 -28.90355
#
# Velocity S-wave (km/s) = -6.68023 3.44937 -4.04520
# Velocity P-wave (km/s) = 6.97876 5.25332 3.24852
#
# Compressibility (1/GPa) = 0.05243339
#
# Stress axis : x y z
#
# Youngs Moduli (GPa) = 42.70943 60.99063 71.78012
#
# Poissons Ratio (x) = 0.16581 -0.29002
# Poissons Ratio (y) = 0.11611 0.14182
# Poissons Ratio (z) = -0.17256 0.12050
#
# Static dielectric constant tensor:
#      x y z
#    x 1.595340 0.000000 0.000000 
#    y 0.000000 1.640190 0.000000 
#    z 0.000000 0.000000 3.810600 
# 
# From -- ./inp_files/6011.got.cif
#   From: 2010.05.17/outbox.cif.g08.bks.cpg/sg54_4_cif.got.tgz:6011.got - 2010.06.03 13:09:01.
