data_PCOD9421146
_publ_section_title
;
Structure prediction by ZEFSAII (Michael W. Deem and Ramdas Pophale) SiO2 
 PCOD9421146
Probable space group: P C C A
;
_chemical_formula_sum "Si O2"
_cell_formula_units_Z 44
_cell_length_a 14.396295
_cell_length_b 8.324855
_cell_length_c 14.695514
_cell_angle_alpha 90.000000
_cell_angle_beta 90.000000
_cell_angle_gamma 90.000000
_cell_volume 1761.214272
_symmetry_space_group_name_H-M "P C C A"
_symmetry_group_IT_number 54
_symmetry_cell_setting 'orthorhombic'
loop_
_space_group_symop_operation_xyz
x,y,z
1/2-x,-y,z
1/2+x,-y,1/2-z
-x,y,1/2-z
-x,-y,-z
1/2+x,y,-z
1/2-x,y,1/2+z
x,-y,1/2+z
loop_
_atom_site_type_symbol
_atom_site_label
_atom_site_fract_x
_atom_site_fract_y
_atom_site_fract_z
Si Si1 0.818716 0.786706 0.214955
Si Si2 0.931379 0.521472 0.323300
Si Si3 0.250000 0.500000 0.900178
Si Si4 0.638792 0.018981 0.048117
Si Si5 0.302621 0.228179 0.617347
Si Si6 0.386227 0.675681 0.509836
O O1 0.887160 0.668374 0.267999
O O2 0.743139 0.842623 0.290436
O O3 0.760455 0.664465 0.153107
O O4 0.878182 0.897252 0.145806
O O5 0.859254 0.384682 0.352752
O O6 0.958955 0.607765 0.417675
O O7 0.000000 0.445259 0.250000
O O8 0.152178 0.530221 0.949584
O O9 0.636896 0.118147 0.952103
O O10 0.750000 0.000000 0.058207
O O11 0.589717 0.845899 0.036230
O O12 0.211127 0.280730 0.561253
#
# Coordination Sequence:
#
# PCOD9421146 Si02
#       6
#     8   8   4   8   8   8
#     4  11  20  34  60  89 111 149 204 249 295 356
#     4  11  22  38  58  85 122 167 202 237 290 357
#     4  12  16  34  64  84 112 142 200 240 308 330
#     4  10  20  34  58  91 118 146 192 253 312 341
#     4  10  19  36  58  85 116 150 199 260 290 339
#     4  10  19  37  60  86 121 151 188 262 295 344
#
# _framework density 24.982764
#
# number of rings (size 3 to 8) (size 9 to 14) (size 15 to 20)
#    0.000    1.455    7.273    1.091    0.000    3.636 
#    0.000    5.455    0.000    0.000    0.000    1.273 
#    0.000    0.000    0.000    0.000    0.000    0.000 
#
# Total GULP energy -245347.815297 kJ/mol
# GULP energy per Si atom -5576.086711 kJ/mol
# Density = 2.492590 g / cm^3
# Si number density = 24.982764 Si / 1000 Ang^3
#
#
#
# Elastic Constant Matrix: (Units=GPa)
#
#
# Indices 1 2 3 4 5 6 
#
# 1 49.4217 19.3694 24.6078 0.0000 0.0000 0.0000
# 2 19.3694 130.3274 64.1303 0.0000 0.0000 0.0000
# 3 24.6078 64.1303 130.0558 0.0000 0.0000 0.0000
# 4 0.0000 0.0000 0.0000 -33.3583 0.0000 0.0000
# 5 0.0000 0.0000 0.0000 0.0000 19.5048 0.0000
# 6 0.0000 0.0000 0.0000 0.0000 0.0000 2.8555
#
#
#
# Elastic Compliance Matrix: (Units=1/GPa)
#
#
# Indices 1 2 3 4 5 6 
#
# 1 0.022606 -0.001657 -0.003460 0.000000 0.000000 0.000000
# 2 -0.001657 0.010253 -0.004742 0.000000 0.000000 0.000000
# 3 -0.003460 -0.004742 0.010682 0.000000 0.000000 0.000000
# 4 0.000000 0.000000 0.000000 -0.029978 0.000000 0.000000
# 5 0.000000 0.000000 0.000000 0.000000 0.051269 0.000000
# 6 0.000000 0.000000 0.000000 0.000000 0.000000 0.350205
#
#
# Mechanical properties :
#
#
# Convention : Reuss Voigt Hill
#
# Bulk Modulus (GPa) = 41.97745 58.44665 50.21205
# Shear Modulus (GPa) = 11.29439 11.24690 11.27065
#
# Velocity S-wave (km/s) = 2.12854 2.12406 2.12630
# Velocity P-wave (km/s) = 4.78330 5.42781 5.11571
#
# Compressibility (1/GPa) = 0.02382231
#
# Stress axis : x y z
#
# Youngs Moduli (GPa) = 44.23536 97.53548 93.61544
#
# Poissons Ratio (x) = 0.16163 0.32393
# Poissons Ratio (y) = 0.07330 0.44393
# Poissons Ratio (z) = 0.15306 0.46252
#
# Static dielectric constant tensor:
#      x y z
#    x 2.021970 0.000000 0.000000 
#    y 0.000000 2.029340 0.000000 
#    z 0.000000 0.000000 2.186590 
# 
# From -- ./inp_files/14021.got.cif
#   From: 2010.05.17/outbox.cif.g08.bks.cpg/sg54_8_cif.got.tgz:14021.got - 2010.06.03 13:09:01.
