data_PCOD9421779
_publ_section_title
;
Structure prediction by ZEFSAII (Michael W. Deem and Ramdas Pophale) SiO2 
 PCOD9421779
Probable space group: P C C A
;
_chemical_formula_sum "Si O2"
_cell_formula_units_Z 56
_cell_length_a 8.986658
_cell_length_b 14.381419
_cell_length_c 21.891700
_cell_angle_alpha 90.000000
_cell_angle_beta 90.000000
_cell_angle_gamma 90.000000
_cell_volume 2829.302882
_symmetry_space_group_name_H-M "P C C A"
_symmetry_group_IT_number 54
_symmetry_cell_setting 'orthorhombic'
loop_
_space_group_symop_operation_xyz
x,y,z
1/2-x,-y,z
1/2+x,-y,1/2-z
-x,y,1/2-z
-x,-y,-z
1/2+x,y,-z
1/2-x,y,1/2+z
x,-y,1/2+z
loop_
_atom_site_type_symbol
_atom_site_label
_atom_site_fract_x
_atom_site_fract_y
_atom_site_fract_z
Si Si1 0.823642 0.601767 0.757282
Si Si2 0.386524 0.365569 0.535270
Si Si3 0.288629 0.277341 0.136014
Si Si4 0.908898 0.515383 0.086649
Si Si5 0.605084 0.312036 0.156525
Si Si6 0.198189 0.103911 0.561533
Si Si7 0.385367 0.190749 0.458274
O O1 0.750000 0.500000 0.765537
O O2 0.807586 0.667316 0.816008
O O3 0.727427 0.657277 0.705257
O O4 0.000000 0.588155 0.750000
O O5 0.238341 0.337874 0.572714
O O6 0.371629 0.435649 0.478178
O O7 0.499478 0.422377 0.577851
O O8 0.444724 0.270672 0.505032
O O9 0.448526 0.261279 0.169235
O O10 0.240266 0.176116 0.112078
O O11 0.750000 0.500000 0.116452
O O12 0.973273 0.593737 0.130059
O O13 0.669528 0.250908 0.100153
O O14 0.262676 0.135189 0.495725
O O15 0.021693 0.124155 0.559472
O O16 0.250000 0.000000 0.573659
#
# Coordination Sequence:
#
# PCOD9421779 Si02
#       7
#     8   8   8   8   8   8   8
#     4  12  27  42  60  84 117 165 211 253 296 354
#     4   9  21  32  50  83 117 161 195 240 304 350
#     4  10  23  39  59  80 117 159 202 258 297 360
#     4  10  21  28  51  79 120 155 197 242 283 361
#     4  10  22  38  55  83 118 158 206 241 298 349
#     4  10  20  38  63  92 120 155 195 246 311 368
#     4   9  20  35  59  89 125 154 190 246 301 369
#
# _framework density 19.792863000000001
#
# number of rings (size 3 to 8) (size 9 to 14) (size 15 to 20)
#    0.000    2.000    0.000    2.143   18.000    1.143 
#    0.000    0.000    0.000    4.286    0.000    0.000 
#    0.000    0.000    0.000    0.000    0.000    0.000 
#
# Total GULP energy -311752.265616 kJ/mol
# GULP energy per Si atom -5567.004743 kJ/mol
# Density = 1.974781 g / cm^3
# Si number density = 19.792863 Si / 1000 Ang^3
#
#
#
# Elastic Constant Matrix: (Units=GPa)
#
#
# Indices 1 2 3 4 5 6 
#
# 1 77.1200 30.0092 26.5977 0.0000 0.0000 0.0000
# 2 30.0092 95.0006 39.4862 0.0000 0.0000 0.0000
# 3 26.5977 39.4862 78.3107 0.0000 0.0000 0.0000
# 4 0.0000 0.0000 0.0000 17.8705 0.0000 0.0000
# 5 0.0000 0.0000 0.0000 0.0000 31.7686 0.0000
# 6 0.0000 0.0000 0.0000 0.0000 0.0000 24.8869
#
#
#
# Elastic Compliance Matrix: (Units=1/GPa)
#
#
# Indices 1 2 3 4 5 6 
#
# 1 0.015524 -0.003431 -0.003542 0.000000 0.000000 0.000000
# 2 -0.003431 0.014076 -0.005932 0.000000 0.000000 0.000000
# 3 -0.003542 -0.005932 0.016964 0.000000 0.000000 0.000000
# 4 0.000000 0.000000 0.000000 0.055958 0.000000 0.000000
# 5 0.000000 0.000000 0.000000 0.000000 0.031478 0.000000
# 6 0.000000 0.000000 0.000000 0.000000 0.000000 0.040182
#
#
# Mechanical properties :
#
#
# Convention : Reuss Voigt Hill
#
# Bulk Modulus (GPa) = 48.18805 49.17973 48.68389
# Shear Modulus (GPa) = 24.16518 25.19442 24.67980
#
# Velocity S-wave (km/s) = 3.49793 3.57165 3.53498
# Velocity P-wave (km/s) = 6.38068 6.47380 6.42741
#
# Compressibility (1/GPa) = 0.02075203
#
# Stress axis : x y z
#
# Youngs Moduli (GPa) = 64.41749 71.04447 58.94903
#
# Poissons Ratio (x) = 0.24378 0.20882
# Poissons Ratio (y) = 0.22104 0.34968
# Poissons Ratio (z) = 0.22819 0.42143
#
# Static dielectric constant tensor:
#      x y z
#    x 1.787740 0.000000 0.000000 
#    y 0.000000 1.719120 0.000000 
#    z 0.000000 0.000000 1.784460 
# 
# From -- ./inp_files/20568.got.cif
#   From: 2010.05.17/outbox.cif.g08.bks.cpg/sg54_11_cif.got.tgz:20568.got - 2010.06.03 13:09:01.
