data_PCOD9421232
_publ_section_title
;
Structure prediction by ZEFSAII (Michael W. Deem and Ramdas Pophale) SiO2 
 PCOD9421232
Probable space group: P C C A
;
_chemical_formula_sum "Si O2"
_cell_formula_units_Z 56
_cell_length_a 8.373286
_cell_length_b 19.101520
_cell_length_c 16.741873
_cell_angle_alpha 90.000000
_cell_angle_beta 90.000000
_cell_angle_gamma 90.000000
_cell_volume 2677.736855
_symmetry_space_group_name_H-M "P C C A"
_symmetry_group_IT_number 54
_symmetry_cell_setting 'orthorhombic'
loop_
_space_group_symop_operation_xyz
x,y,z
1/2-x,-y,z
1/2+x,-y,1/2-z
-x,y,1/2-z
-x,-y,-z
1/2+x,y,-z
1/2-x,y,1/2+z
x,-y,1/2+z
loop_
_atom_site_type_symbol
_atom_site_label
_atom_site_fract_x
_atom_site_fract_y
_atom_site_fract_z
Si Si1 0.786893 0.426544 0.382222
Si Si2 0.722211 0.292373 0.089704
Si Si3 0.188112 0.870524 0.408801
Si Si4 0.336369 0.074062 0.067588
Si Si5 0.690969 0.304005 0.264603
Si Si6 0.038413 0.375469 0.497282
Si Si7 0.808764 0.857401 0.267104
O O1 0.750000 0.500000 0.340195
O O2 0.749798 0.360189 0.327292
O O3 0.957466 0.415176 0.423556
O O4 0.661559 0.423113 0.455395
O O5 0.655518 0.213434 0.090971
O O6 0.770351 0.313336 0.178620
O O7 0.592459 0.346876 0.058253
O O8 0.871899 0.305574 0.033037
O O9 0.296853 0.884998 0.485682
O O10 0.260265 0.881741 0.319191
O O11 0.027654 0.916809 0.420256
O O12 0.267906 0.102053 0.152264
O O13 0.250000 0.000000 0.056277
O O14 0.500000 0.310293 0.250000
O O15 0.725653 0.223669 0.286342
O O16 0.000000 0.862069 0.250000
#
# Coordination Sequence:
#
# PCOD9421232 Si02
#       7
#     8   8   8   8   8   8   8
#     4  11  23  40  59  88 124 163 201 254 320 375
#     4  10  20  38  62  89 113 155 208 256 301 363
#     4  10  21  38  62  87 123 160 202 252 308 360
#     4  11  22  37  60  92 122 160 203 246 309 378
#     4  10  19  38  60  86 115 157 208 250 309 369
#     4  10  22  37  61  87 118 156 202 260 303 370
#     4   8  19  37  60  85 117 161 204 251 301 369
#
# _framework density 20.913183
#
# number of rings (size 3 to 8) (size 9 to 14) (size 15 to 20)
#    0.000    2.000    1.429    2.571    4.000    1.143 
#    2.571    2.857    0.000    0.000    0.000    0.000 
#    0.000    0.000    0.000    0.000    0.000    0.000 
#
# Total GULP energy -312265.477926 kJ/mol
# GULP energy per Si atom -5576.169249 kJ/mol
# Density = 2.086558 g / cm^3
# Si number density = 20.913183 Si / 1000 Ang^3
#
#
#
# Elastic Constant Matrix: (Units=GPa)
#
#
# Indices 1 2 3 4 5 6 
#
# 1 24.8989 13.6800 12.1370 0.0000 0.0000 0.0000
# 2 13.6800 69.0476 35.0538 0.0000 0.0000 0.0000
# 3 12.1370 35.0538 118.7151 0.0000 0.0000 0.0000
# 4 0.0000 0.0000 0.0000 19.9818 0.0000 0.0000
# 5 0.0000 0.0000 0.0000 0.0000 16.8633 0.0000
# 6 0.0000 0.0000 0.0000 0.0000 0.0000 14.8832
#
#
#
# Elastic Compliance Matrix: (Units=1/GPa)
#
#
# Indices 1 2 3 4 5 6 
#
# 1 0.045617 -0.007846 -0.002347 0.000000 0.000000 0.000000
# 2 -0.007846 0.018386 -0.004627 0.000000 0.000000 0.000000
# 3 -0.002347 -0.004627 0.010030 0.000000 0.000000 0.000000
# 4 0.000000 0.000000 0.000000 0.050046 0.000000 0.000000
# 5 0.000000 0.000000 0.000000 0.000000 0.059300 0.000000
# 6 0.000000 0.000000 0.000000 0.000000 0.000000 0.067190
#
#
# Mechanical properties :
#
#
# Convention : Reuss Voigt Hill
#
# Bulk Modulus (GPa) = 22.52609 37.15592 29.84100
# Shear Modulus (GPa) = 16.94875 20.46506 18.70691
#
# Velocity S-wave (km/s) = 2.84990 3.13161 2.99407
# Velocity P-wave (km/s) = 4.65015 5.55709 5.12373
#
# Compressibility (1/GPa) = 0.04439297
#
# Stress axis : x y z
#
# Youngs Moduli (GPa) = 21.92147 54.38840 99.70427
#
# Poissons Ratio (x) = 0.42676 0.23399
# Poissons Ratio (y) = 0.17201 0.46132
# Poissons Ratio (z) = 0.05145 0.25165
#
# Static dielectric constant tensor:
#      x y z
#    x 1.784420 0.000000 0.000000 
#    y 0.000000 1.748790 0.000000 
#    z 0.000000 0.000000 1.776250 
# 
# From -- ./inp_files/11872.got.cif
#   From: 2010.05.17/outbox.cif.g08.bks.cpg/sg54_6_cif.got.tgz:11872.got - 2010.06.03 13:09:01.
