data_PCOD9421583
_publ_section_title
;
Structure prediction by ZEFSAII (Michael W. Deem and Ramdas Pophale) SiO2 
 PCOD9421583
Probable space group: P C C A
;
_chemical_formula_sum "Si O2"
_cell_formula_units_Z 52
_cell_length_a 9.266094
_cell_length_b 10.642040
_cell_length_c 25.464297
_cell_angle_alpha 90.000000
_cell_angle_beta 90.000000
_cell_angle_gamma 90.000000
_cell_volume 2511.037968
_symmetry_space_group_name_H-M "P C C A"
_symmetry_group_IT_number 54
_symmetry_cell_setting 'orthorhombic'
loop_
_space_group_symop_operation_xyz
x,y,z
1/2-x,-y,z
1/2+x,-y,1/2-z
-x,y,1/2-z
-x,-y,-z
1/2+x,y,-z
1/2-x,y,1/2+z
x,-y,1/2+z
loop_
_atom_site_type_symbol
_atom_site_label
_atom_site_fract_x
_atom_site_fract_y
_atom_site_fract_z
Si Si1 0.049995 0.388442 0.887605
Si Si2 0.819478 0.631219 0.471090
Si Si3 0.826127 0.635778 0.755850
Si Si4 0.902583 0.806963 0.199222
Si Si5 0.250000 0.000000 0.863995
Si Si6 0.326336 0.254035 0.917845
Si Si7 0.609493 0.650762 0.372029
O O1 0.977488 0.375546 0.945046
O O2 0.021820 0.280522 0.844582
O O3 0.220070 0.363284 0.896140
O O4 0.972770 0.515435 0.868058
O O5 0.750000 0.500000 0.490406
O O6 0.829760 0.723605 0.520027
O O7 0.719744 0.657897 0.420459
O O8 0.750000 0.500000 0.746927
O O9 0.745486 0.735552 0.718096
O O10 0.000000 0.627794 0.750000
O O11 0.812526 0.672703 0.817127
O O12 0.870746 0.943354 0.174968
O O13 0.000000 0.814055 0.250000
O O14 0.270856 0.118838 0.901399
O O15 0.479050 0.261731 0.889147
#
# Coordination Sequence:
#
# PCOD9421583 Si02
#       7
#     8   8   8   8   4   8   8
#     4  10  20  37  59  90 123 149 182 235 301 368
#     4  10  20  36  61  92 123 151 185 238 305 371
#     4  12  23  37  63  97 129 158 191 240 306 371
#     4  11  23  42  63  83 117 163 206 252 303 352
#     4  10  26  42  58  82 114 158 212 258 292 344
#     4  11  22  39  59  81 115 161 203 242 293 348
#     4  11  21  35  60  94 123 147 190 241 295 369
#
# _framework density 20.708569000000001
#
# number of rings (size 3 to 8) (size 9 to 14) (size 15 to 20)
#    0.000    1.231    0.000    8.769    0.000    4.308 
#    0.000    6.923    0.000    0.923    0.000    0.000 
#    0.000    0.000    0.000    0.000    0.000    0.000 
#
# Total GULP energy -290085.015303 kJ/mol
# GULP energy per Si atom -5578.557987 kJ/mol
# Density = 2.066144 g / cm^3
# Si number density = 20.708569 Si / 1000 Ang^3
#
#
#
# Elastic Constant Matrix: (Units=GPa)
#
#
# Indices 1 2 3 4 5 6 
#
# 1 86.9669 9.7695 6.6336 0.0000 0.0000 0.0000
# 2 9.7695 66.4778 35.7649 0.0000 0.0000 0.0000
# 3 6.6336 35.7649 111.5641 0.0000 0.0000 0.0000
# 4 0.0000 0.0000 0.0000 25.7304 0.0000 0.0000
# 5 0.0000 0.0000 0.0000 0.0000 25.8091 0.0000
# 6 0.0000 0.0000 0.0000 0.0000 0.0000 10.7238
#
#
#
# Elastic Compliance Matrix: (Units=1/GPa)
#
#
# Indices 1 2 3 4 5 6 
#
# 1 0.011694 -0.001625 -0.000174 0.000000 0.000000 0.000000
# 2 -0.001625 0.018403 -0.005803 0.000000 0.000000 0.000000
# 3 -0.000174 -0.005803 0.010834 0.000000 0.000000 0.000000
# 4 0.000000 0.000000 0.000000 0.038865 0.000000 0.000000
# 5 0.000000 0.000000 0.000000 0.000000 0.038746 0.000000
# 6 0.000000 0.000000 0.000000 0.000000 0.000000 0.093250
#
#
# Mechanical properties :
#
#
# Convention : Reuss Voigt Hill
#
# Bulk Modulus (GPa) = 38.86908 41.03831 39.95370
# Shear Modulus (GPa) = 21.22479 26.64204 23.93341
#
# Velocity S-wave (km/s) = 3.20492 3.59070 3.40328
# Velocity P-wave (km/s) = 5.70138 6.08695 5.89731
#
# Compressibility (1/GPa) = 0.02572739
#
# Stress axis : x y z
#
# Youngs Moduli (GPa) = 85.51063 54.33761 92.30047
#
# Poissons Ratio (x) = 0.08828 0.01611
# Poissons Ratio (y) = 0.13893 0.53563
# Poissons Ratio (z) = 0.01492 0.31533
#
# Static dielectric constant tensor:
#      x y z
#    x 1.845260 0.000000 0.000000 
#    y 0.000000 1.753620 0.000000 
#    z 0.000000 0.000000 1.772670 
# 
# From -- ./inp_files/25881.got.cif
#   From: 2010.05.17/outbox.cif.g08.bks.cpg/sg54_13_cif.got.tgz:25881.got - 2010.06.03 13:09:01.
