data_PCOD9421308
_publ_section_title
;
Structure prediction by ZEFSAII (Michael W. Deem and Ramdas Pophale) SiO2 
 PCOD9421308
Probable space group: P C C A
;
_chemical_formula_sum "Si O2"
_cell_formula_units_Z 56
_cell_length_a 18.194772
_cell_length_b 7.127093
_cell_length_c 24.842238
_cell_angle_alpha 90.000000
_cell_angle_beta 90.000000
_cell_angle_gamma 90.000000
_cell_volume 3221.437885
_symmetry_space_group_name_H-M "P C C A"
_symmetry_group_IT_number 54
_symmetry_cell_setting 'orthorhombic'
loop_
_space_group_symop_operation_xyz
x,y,z
1/2-x,-y,z
1/2+x,-y,1/2-z
-x,y,1/2-z
-x,-y,-z
1/2+x,y,-z
1/2-x,y,1/2+z
x,-y,1/2+z
loop_
_atom_site_type_symbol
_atom_site_label
_atom_site_fract_x
_atom_site_fract_y
_atom_site_fract_z
Si Si1 0.848104 0.687758 0.808049
Si Si2 0.550916 0.056491 0.611078
Si Si3 0.567926 0.350862 0.918642
Si Si4 0.911822 0.789750 0.406859
Si Si5 0.679359 0.748955 0.799825
Si Si6 0.581368 0.981656 0.233513
Si Si7 0.087832 0.954971 0.498881
O O1 0.878607 0.700579 0.868792
O O2 0.766648 0.771510 0.802761
O O3 0.840274 0.470033 0.792985
O O4 0.902385 0.796652 0.768615
O O5 0.510156 0.252709 0.595958
O O6 0.605520 0.991935 0.563207
O O7 0.484516 0.903869 0.610889
O O8 0.583971 0.059406 0.670319
O O9 0.567561 0.575464 0.920962
O O10 0.594780 0.248400 0.973374
O O11 0.856287 0.800447 0.357250
O O12 0.879977 0.895554 0.459087
O O13 0.640840 0.868626 0.753615
O O14 0.500000 0.049604 0.250000
O O15 0.000000 0.000000 0.500000
#
# Coordination Sequence:
#
# PCOD9421308 Si02
#       7
#     8   8   8   8   8   8   8
#     4  10  21  35  53  76 100 132 175 217 258 304
#     4  10  20  30  43  75 105 129 165 199 243 308
#     4   9  16  30  51  71  97 128 161 207 256 295
#     4   9  16  30  51  71  97 128 161 207 256 295
#     4  10  21  35  53  76 100 132 175 217 258 304
#     4  12  20  33  52  74 106 140 168 211 259 301
#     4   8  17  29  43  69 101 123 158 197 239 307
#
# _framework density 17.383541999999998
#
# number of rings (size 3 to 8) (size 9 to 14) (size 15 to 20)
#    0.000    2.571    2.857    1.286    0.000    6.857 
#    0.000    0.000    0.000    3.429    0.000    4.000 
#    0.000    0.000    0.000    0.000    0.000    0.000 
#
# Total GULP energy -312022.908827 kJ/mol
# GULP energy per Si atom -5571.837658 kJ/mol
# Density = 1.734398 g / cm^3
# Si number density = 17.383542 Si / 1000 Ang^3
#
#
#
# Elastic Constant Matrix: (Units=GPa)
#
#
# Indices 1 2 3 4 5 6 
#
# 1 29.2275 -4.2186 0.8885 0.0000 0.0000 0.0000
# 2 -4.2186 44.7936 -9.5867 0.0000 0.0000 0.0000
# 3 0.8885 -9.5867 69.5280 0.0000 0.0000 0.0000
# 4 0.0000 0.0000 0.0000 10.7000 0.0000 0.0000
# 5 0.0000 0.0000 0.0000 0.0000 9.6627 0.0000
# 6 0.0000 0.0000 0.0000 0.0000 0.0000 20.7423
#
#
#
# Elastic Compliance Matrix: (Units=1/GPa)
#
#
# Indices 1 2 3 4 5 6 
#
# 1 0.034686 0.003268 0.000007 0.000000 0.000000 0.000000
# 2 0.003268 0.023311 0.003172 0.000000 0.000000 0.000000
# 3 0.000007 0.003172 0.014820 0.000000 0.000000 0.000000
# 4 0.000000 0.000000 0.000000 0.093458 0.000000 0.000000
# 5 0.000000 0.000000 0.000000 0.000000 0.103491 0.000000
# 6 0.000000 0.000000 0.000000 0.000000 0.000000 0.048211
#
#
# Mechanical properties :
#
#
# Convention : Reuss Voigt Hill
#
# Bulk Modulus (GPa) = 11.66678 13.07950 12.37314
# Shear Modulus (GPa) = 14.98571 18.65209 16.81890
#
# Velocity S-wave (km/s) = 2.93928 3.27918 3.11387
# Velocity P-wave (km/s) = 4.27143 4.67737 4.47900
#
# Compressibility (1/GPa) = 0.08571346
#
# Stress axis : x y z
#
# Youngs Moduli (GPa) = 28.83024 42.89751 67.47628
#
# Poissons Ratio (x) = -0.14020 -0.00050
# Poissons Ratio (y) = -0.09422 -0.21407
# Poissons Ratio (z) = -0.00021 -0.13609
#
# Static dielectric constant tensor:
#      x y z
#    x 1.580630 0.000000 0.000000 
#    y 0.000000 1.621360 0.000000 
#    z 0.000000 0.000000 1.634570 
# 
# From -- ./inp_files/22203.got.cif
#   From: 2010.05.17/outbox.cif.g08.bks.cpg/sg54_12_cif.got.tgz:22203.got - 2010.06.03 13:09:01.
