data_PCOD9421674
_publ_section_title
;
Structure prediction by ZEFSAII (Michael W. Deem and Ramdas Pophale) SiO2 
 PCOD9421674
Probable space group: P C C A
;
_chemical_formula_sum "Si O2"
_cell_formula_units_Z 48
_cell_length_a 28.747951
_cell_length_b 7.935191
_cell_length_c 8.838286
_cell_angle_alpha 90.000000
_cell_angle_beta 90.000000
_cell_angle_gamma 90.000000
_cell_volume 2016.194063
_symmetry_space_group_name_H-M "P C C A"
_symmetry_group_IT_number 54
_symmetry_cell_setting 'orthorhombic'
loop_
_space_group_symop_operation_xyz
x,y,z
1/2-x,-y,z
1/2+x,-y,1/2-z
-x,y,1/2-z
-x,-y,-z
1/2+x,y,-z
1/2-x,y,1/2+z
x,-y,1/2+z
loop_
_atom_site_type_symbol
_atom_site_label
_atom_site_fract_x
_atom_site_fract_y
_atom_site_fract_z
Si Si1 0.682583 0.435901 0.457065
Si Si2 0.250000 0.000000 0.271790
Si Si3 0.402225 0.089478 0.678207
Si Si4 0.750000 0.500000 0.692209
Si Si5 0.692910 0.170098 0.972172
Si Si6 0.991814 0.185179 0.429264
Si Si7 0.586716 0.238453 0.484110
O O1 0.680796 0.634940 0.491877
O O2 0.709775 0.427017 0.299588
O O3 0.720233 0.375184 0.582579
O O4 0.631618 0.355912 0.459566
O O5 0.290213 0.073060 0.379417
O O6 0.231369 0.140352 0.156477
O O7 0.352350 0.091289 0.602680
O O8 0.436230 0.207887 0.574515
O O9 0.403505 0.148181 0.852278
O O10 0.416813 0.895700 0.652520
O O11 0.033003 0.301926 0.496131
O O12 0.000000 0.173313 0.250000
O O13 0.000000 0.000000 0.500000
#
# Coordination Sequence:
#
# PCOD9421674 Si02
#       7
#     8   4   8   4   8   8   8
#     4  11  23  41  63  89 122 165 212 262 317 374
#     4  10  24  40  62  94 130 166 208 258 310 380
#     4  10  20  37  61  90 122 161 207 259 318 381
#     4  10  24  40  60  84 122 168 210 250 308 378
#     4  11  22  39  62  90 123 162 206 257 315 377
#     4   8  16  33  58  86 117 155 203 259 312 370
#     4  10  21  38  62  90 121 162 213 263 315 374
#
# _framework density 23.807234000000001
#
# number of rings (size 3 to 8) (size 9 to 14) (size 15 to 20)
#    0.000    2.000    0.000    3.000    0.000    9.333 
#    0.000    0.833    0.000    0.000    0.000    3.500 
#    0.000    0.000    0.000    8.333    0.000    0.000 
#
# Total GULP energy -267803.186354 kJ/mol
# GULP energy per Si atom -5579.233049 kJ/mol
# Density = 2.375305 g / cm^3
# Si number density = 23.807234 Si / 1000 Ang^3
#
#
#
# Elastic Constant Matrix: (Units=GPa)
#
#
# Indices 1 2 3 4 5 6 
#
# 1 109.5545 7.6519 26.1587 0.0000 0.0000 0.0000
# 2 7.6519 58.1214 13.7008 0.0000 0.0000 0.0000
# 3 26.1587 13.7008 104.3878 0.0000 0.0000 0.0000
# 4 0.0000 0.0000 0.0000 23.5168 0.0000 0.0000
# 5 0.0000 0.0000 0.0000 0.0000 3.0647 0.0000
# 6 0.0000 0.0000 0.0000 0.0000 0.0000 44.5145
#
#
#
# Elastic Compliance Matrix: (Units=1/GPa)
#
#
# Indices 1 2 3 4 5 6 
#
# 1 0.009739 -0.000729 -0.002345 0.000000 0.000000 0.000000
# 2 -0.000729 0.017809 -0.002155 0.000000 0.000000 0.000000
# 3 -0.002345 -0.002155 0.010450 0.000000 0.000000 0.000000
# 4 0.000000 0.000000 0.000000 0.042523 0.000000 0.000000
# 5 0.000000 0.000000 0.000000 0.000000 0.326292 0.000000
# 6 0.000000 0.000000 0.000000 0.000000 0.000000 0.022465
#
#
# Mechanical properties :
#
#
# Convention : Reuss Voigt Hill
#
# Bulk Modulus (GPa) = 36.31024 40.78740 38.54882
# Shear Modulus (GPa) = 11.13795 29.18934 20.16365
#
# Velocity S-wave (km/s) = 2.16531 3.50533 2.91341
# Velocity P-wave (km/s) = 4.64072 5.79246 5.24828
#
# Compressibility (1/GPa) = 0.02754044
#
# Stress axis : x y z
#
# Youngs Moduli (GPa) = 102.68335 56.15035 95.69360
#
# Poissons Ratio (x) = 0.04096 0.22437
# Poissons Ratio (y) = 0.07490 0.20619
# Poissons Ratio (z) = 0.24076 0.12099
#
# Static dielectric constant tensor:
#      x y z
#    x 2.059590 0.000000 0.000000 
#    y 0.000000 2.064570 0.000000 
#    z 0.000000 0.000000 1.920240 
# 
# From -- ./inp_files/5872.got.cif
#   From: 2010.05.17/outbox.cif.g08.bks.cpg/sg54_3_cif.got.tgz:5872.got - 2010.06.03 13:09:01.
