data_PCOD9421533
_publ_section_title
;
Structure prediction by ZEFSAII (Michael W. Deem and Ramdas Pophale) SiO2 
 PCOD9421533
Probable space group: P C C A
;
_chemical_formula_sum "Si O2"
_cell_formula_units_Z 36
_cell_length_a 14.800149
_cell_length_b 7.727880
_cell_length_c 13.845206
_cell_angle_alpha 90.000000
_cell_angle_beta 90.000000
_cell_angle_gamma 90.000000
_cell_volume 1583.528482
_symmetry_space_group_name_H-M "P C C A"
_symmetry_group_IT_number 54
_symmetry_cell_setting 'orthorhombic'
loop_
_space_group_symop_operation_xyz
x,y,z
1/2-x,-y,z
1/2+x,-y,1/2-z
-x,y,1/2-z
-x,-y,-z
1/2+x,y,-z
1/2-x,y,1/2+z
x,-y,1/2+z
loop_
_atom_site_type_symbol
_atom_site_label
_atom_site_fract_x
_atom_site_fract_y
_atom_site_fract_z
Si Si1 0.298278 0.157793 0.642508
Si Si2 0.250000 0.500000 0.723390
Si Si3 0.141879 0.711050 0.458767
Si Si4 0.851562 0.648707 0.601832
Si Si5 0.586622 0.014977 0.682756
O O1 0.235523 0.324435 0.664012
O O2 0.371956 0.222089 0.566897
O O3 0.250000 0.000000 0.589755
O O4 0.336734 0.072142 0.739750
O O5 0.331330 0.440573 0.793160
O O6 0.109289 0.513488 0.455034
O O7 0.251147 0.698173 0.437388
O O8 0.105287 0.843263 0.378801
O O9 0.910977 0.818836 0.612131
O O10 0.500000 0.996024 0.750000
#
# Coordination Sequence:
#
# PCOD9421533 Si02
#       5
#     8   4   8   8   8
#     4  11  20  34  59  84 105 139 186 231 274 322
#     4   8  16  30  52  80 104 132 172 220 270 316
#     4  10  20  36  59  82 106 138 185 236 276 315
#     4   9  18  36  58  80 109 142 182 232 275 315
#     4  11  23  37  53  80 119 153 179 216 272 335
#
# _framework density 22.734041999999999
#
# number of rings (size 3 to 8) (size 9 to 14) (size 15 to 20)
#    0.000    2.222    0.000    7.333    0.000    1.778 
#    0.000    1.111    0.000    0.000    0.000    0.000 
#    0.000    0.000    0.000    0.000    0.000    0.000 
#
# Total GULP energy -200752.582549 kJ/mol
# GULP energy per Si atom -5576.460626 kJ/mol
# Density = 2.268230 g / cm^3
# Si number density = 22.734042 Si / 1000 Ang^3
#
#
#
# Elastic Constant Matrix: (Units=GPa)
#
#
# Indices 1 2 3 4 5 6 
#
# 1 41.5410 20.5381 -6.4285 0.0000 0.0000 0.0000
# 2 20.5381 125.9561 -2.8358 0.0000 0.0000 0.0000
# 3 -6.4285 -2.8358 39.5836 0.0000 0.0000 0.0000
# 4 0.0000 0.0000 0.0000 18.1327 0.0000 0.0000
# 5 0.0000 0.0000 0.0000 0.0000 10.0230 0.0000
# 6 0.0000 0.0000 0.0000 0.0000 0.0000 2.0353
#
#
#
# Elastic Compliance Matrix: (Units=1/GPa)
#
#
# Indices 1 2 3 4 5 6 
#
# 1 0.026816 -0.004281 0.004048 0.000000 0.000000 0.000000
# 2 -0.004281 0.008636 -0.000077 0.000000 0.000000 0.000000
# 3 0.004048 -0.000077 0.025915 0.000000 0.000000 0.000000
# 4 0.000000 0.000000 0.000000 0.055149 0.000000 0.000000
# 5 0.000000 0.000000 0.000000 0.000000 0.099770 0.000000
# 6 0.000000 0.000000 0.000000 0.000000 0.000000 0.491340
#
#
# Mechanical properties :
#
#
# Convention : Reuss Voigt Hill
#
# Bulk Modulus (GPa) = 16.46173 25.51424 20.98799
# Shear Modulus (GPa) = 6.86347 19.09198 12.97773
#
# Velocity S-wave (km/s) = 1.73942 2.90107 2.39184
# Velocity P-wave (km/s) = 3.36018 4.74014 4.10851
#
# Compressibility (1/GPa) = 0.06074695
#
# Stress axis : x y z
#
# Youngs Moduli (GPa) = 37.29137 115.79881 38.58774
#
# Poissons Ratio (x) = 0.49578 -0.15621
# Poissons Ratio (y) = 0.15966 0.00296
# Poissons Ratio (z) = -0.15097 0.00888
#
# Static dielectric constant tensor:
#      x y z
#    x 1.907830 0.000000 0.000000 
#    y 0.000000 1.901750 0.000000 
#    z 0.000000 0.000000 1.932500 
# 
# From -- ./inp_files/13107.got.cif
#   From: 2010.05.17/outbox.cif.g08.bks.cpg/sg54_7_cif.got.tgz:13107.got - 2010.06.03 13:09:01.
