data_PCOD9421252
_publ_section_title
;
Structure prediction by ZEFSAII (Michael W. Deem and Ramdas Pophale) SiO2 
 PCOD9421252
Probable space group: P C C A
;
_chemical_formula_sum "Si O2"
_cell_formula_units_Z 56
_cell_length_a 15.497252
_cell_length_b 10.940898
_cell_length_c 14.678336
_cell_angle_alpha 90.000000
_cell_angle_beta 90.000000
_cell_angle_gamma 90.000000
_cell_volume 2488.768430
_symmetry_space_group_name_H-M "P C C A"
_symmetry_group_IT_number 54
_symmetry_cell_setting 'orthorhombic'
loop_
_space_group_symop_operation_xyz
x,y,z
1/2-x,-y,z
1/2+x,-y,1/2-z
-x,y,1/2-z
-x,-y,-z
1/2+x,y,-z
1/2-x,y,1/2+z
x,-y,1/2+z
loop_
_atom_site_type_symbol
_atom_site_label
_atom_site_fract_x
_atom_site_fract_y
_atom_site_fract_z
Si Si1 0.092743 0.608577 0.291398
Si Si2 0.639821 0.240496 0.954540
Si Si3 0.313759 0.683428 0.616374
Si Si4 0.831152 0.930501 0.330093
Si Si5 0.398574 0.494718 0.974684
Si Si6 0.874211 0.120352 0.635633
Si Si7 0.492905 0.895554 0.151211
O O1 0.160849 0.613832 0.208705
O O2 0.113287 0.505986 0.366433
O O3 0.084122 0.746310 0.336106
O O4 0.000000 0.580101 0.250000
O O5 0.716913 0.260781 0.882331
O O6 0.544295 0.199390 0.922129
O O7 0.636389 0.376343 0.991822
O O8 0.665085 0.149636 0.037082
O O9 0.364924 0.810604 0.619562
O O10 0.345362 0.607629 0.529321
O O11 0.814148 0.898715 0.223885
O O12 0.750000 0.000000 0.370256
O O13 0.909655 0.021364 0.333086
O O14 0.500000 0.500000 0.000000
O O15 0.933093 0.996630 0.629087
O O16 0.500000 0.832023 0.250000
#
# Coordination Sequence:
#
# PCOD9421252 Si02
#       7
#     8   8   8   8   8   8   8
#     4  10  19  40  72  97 125 182 229 277 345 413
#     4  11  23  41  62  97 135 176 223 286 348 398
#     4  11  22  42  69  98 138 176 226 284 342 411
#     4  10  19  38  66  97 129 176 219 271 348 417
#     4  11  24  43  69  97 129 174 240 280 337 421
#     4   9  20  36  64  94 134 173 225 272 342 420
#     4  10  20  39  65  95 132 172 221 279 338 413
#
# _framework density 22.501090000000001
#
# number of rings (size 3 to 8) (size 9 to 14) (size 15 to 20)
#    0.000    1.714    2.857    3.000    2.000    0.000 
#    5.143   10.000    0.000    0.000    0.000    0.000 
#    0.000    0.000    0.000    0.000    0.000    0.000 
#
# Total GULP energy -311834.319844 kJ/mol
# GULP energy per Si atom -5568.469997 kJ/mol
# Density = 2.244988 g / cm^3
# Si number density = 22.501090 Si / 1000 Ang^3
#
#
#
# Elastic Constant Matrix: (Units=GPa)
#
#
# Indices 1 2 3 4 5 6 
#
# 1 51.0330 25.2377 33.6824 0.0000 0.0000 0.0000
# 2 25.2377 72.7046 55.6604 0.0000 0.0000 0.0000
# 3 33.6824 55.6604 121.2498 0.0000 0.0000 0.0000
# 4 0.0000 0.0000 0.0000 107.6806 0.0000 0.0000
# 5 0.0000 0.0000 0.0000 0.0000 28.6855 0.0000
# 6 0.0000 0.0000 0.0000 0.0000 0.0000 24.9970
#
#
#
# Elastic Compliance Matrix: (Units=1/GPa)
#
#
# Indices 1 2 3 4 5 6 
#
# 1 0.025221 -0.005229 -0.004606 0.000000 0.000000 0.000000
# 2 -0.005229 0.022291 -0.008780 0.000000 0.000000 0.000000
# 3 -0.004606 -0.008780 0.013558 0.000000 0.000000 0.000000
# 4 0.000000 0.000000 0.000000 0.009287 0.000000 0.000000
# 5 0.000000 0.000000 0.000000 0.000000 0.034861 0.000000
# 6 0.000000 0.000000 0.000000 0.000000 0.000000 0.040005
#
#
# Mechanical properties :
#
#
# Convention : Reuss Voigt Hill
#
# Bulk Modulus (GPa) = 41.94679 52.68318 47.31499
# Shear Modulus (GPa) = 26.26061 40.96641 33.61351
#
# Velocity S-wave (km/s) = 3.41996 4.27153 3.86924
# Velocity P-wave (km/s) = 5.85470 6.91320 6.40585
#
# Compressibility (1/GPa) = 0.02383973
#
# Stress axis : x y z
#
# Youngs Moduli (GPa) = 39.64956 44.86036 73.75893
#
# Poissons Ratio (x) = 0.23456 0.33973
# Poissons Ratio (y) = 0.20732 0.64764
# Poissons Ratio (z) = 0.18262 0.39390
#
# Static dielectric constant tensor:
#      x y z
#    x 2.282270 0.000000 0.000000 
#    y 0.000000 1.776280 0.000000 
#    z 0.000000 0.000000 2.089930 
# 
# From -- ./inp_files/13473.got.cif
#   From: 2010.05.17/outbox.cif.g08.bks.cpg/sg54_7_cif.got.tgz:13473.got - 2010.06.03 13:09:01.
