data_PCOD9421621
_publ_section_title
;
Structure prediction by ZEFSAII (Michael W. Deem and Ramdas Pophale) SiO2 
 PCOD9421621
Probable space group: P C C A
;
_chemical_formula_sum "Si O2"
_cell_formula_units_Z 60
_cell_length_a 18.344208
_cell_length_b 12.538559
_cell_length_c 13.132558
_cell_angle_alpha 90.000000
_cell_angle_beta 90.000000
_cell_angle_gamma 90.000000
_cell_volume 3020.618803
_symmetry_space_group_name_H-M "P C C A"
_symmetry_group_IT_number 54
_symmetry_cell_setting 'orthorhombic'
loop_
_space_group_symop_operation_xyz
x,y,z
1/2-x,-y,z
1/2+x,-y,1/2-z
-x,y,1/2-z
-x,-y,-z
1/2+x,y,-z
1/2-x,y,1/2+z
x,-y,1/2+z
loop_
_atom_site_type_symbol
_atom_site_label
_atom_site_fract_x
_atom_site_fract_y
_atom_site_fract_z
Si Si1 0.990270 0.089580 0.866172
Si Si2 0.250000 0.500000 0.914993
Si Si3 0.941315 0.869345 0.920655
Si Si4 0.721769 0.882666 0.454983
Si Si5 0.389061 0.569982 0.548450
Si Si6 0.334087 0.708733 0.886130
Si Si7 0.147979 0.217770 0.663117
Si Si8 0.957819 0.639660 0.952735
O O1 0.912514 0.142645 0.889401
O O2 0.000000 0.123738 0.750000
O O3 0.988223 0.961891 0.870953
O O4 0.043137 0.123121 0.957353
O O5 0.283777 0.605061 0.860875
O O6 0.182180 0.542472 0.982420
O O7 0.857257 0.895915 0.904389
O O8 0.957937 0.748881 0.890338
O O9 0.708856 0.793200 0.542271
O O10 0.776383 0.830546 0.374455
O O11 0.750000 0.000000 0.488392
O O12 0.366957 0.663793 0.622996
O O13 0.418700 0.461022 0.599264
O O14 0.460209 0.609502 0.485073
O O15 0.355102 0.771331 0.784379
O O16 0.404429 0.664201 0.949516
#
# Coordination Sequence:
#
# PCOD9421621 Si02
#       8
#     8   4   8   8   8   8   8   8
#     4  11  22  39  65  92 119 160 208 256 304 369
#     4  10  20  42  58  90 128 162 210 248 324 372
#     4  10  21  40  62  86 124 161 197 256 306 364
#     4  11  22  42  60  90 127 165 205 254 316 375
#     4  10  20  36  65  86 120 164 198 257 305 368
#     4  10  23  39  63  91 126 163 207 262 304 378
#     4  12  23  39  64  92 123 164 210 255 312 374
#     4   9  19  39  63  87 118 162 207 248 308 362
#
# _framework density 19.863481
#
# number of rings (size 3 to 8) (size 9 to 14) (size 15 to 20)
#    0.000    1.600    4.000    1.600    0.000    1.067 
#    2.400    0.000    5.867    0.000    0.000    0.000 
#    0.000    0.000    0.000    0.000    0.000    0.000 
#
# Total GULP energy -334375.472233 kJ/mol
# GULP energy per Si atom -5572.924537 kJ/mol
# Density = 1.981827 g / cm^3
# Si number density = 19.863481 Si / 1000 Ang^3
#
#
#
# Elastic Constant Matrix: (Units=GPa)
#
#
# Indices 1 2 3 4 5 6 
#
# 1 82.9396 7.7004 1.5148 0.0000 0.0000 0.0000
# 2 7.7004 119.9154 -7.8108 0.0000 0.0000 0.0000
# 3 1.5148 -7.8108 38.7748 0.0000 0.0000 0.0000
# 4 0.0000 0.0000 0.0000 9.2575 0.0000 0.0000
# 5 0.0000 0.0000 0.0000 0.0000 -0.8051 0.0000
# 6 0.0000 0.0000 0.0000 0.0000 0.0000 38.8737
#
#
#
# Elastic Compliance Matrix: (Units=1/GPa)
#
#
# Indices 1 2 3 4 5 6 
#
# 1 0.012145 -0.000822 -0.000640 0.000000 0.000000 0.000000
# 2 -0.000822 0.008506 0.001745 0.000000 0.000000 0.000000
# 3 -0.000640 0.001745 0.026167 0.000000 0.000000 0.000000
# 4 0.000000 0.000000 0.000000 0.108021 0.000000 0.000000
# 5 0.000000 0.000000 0.000000 0.000000 -1.242022 0.000000
# 6 0.000000 0.000000 0.000000 0.000000 0.000000 0.025724
#
#
# Mechanical properties :
#
#
# Convention : Reuss Voigt Hill
#
# Bulk Modulus (GPa) = 21.10372 27.15986 24.13179
# Shear Modulus (GPa) = -4.77905 25.48023 10.35059
#
# Velocity S-wave (km/s) = -1.55279 3.58546 2.28521
# Velocity P-wave (km/s) = 2.72627 5.55371 4.37471
#
# Compressibility (1/GPa) = 0.04738501
#
# Stress axis : x y z
#
# Youngs Moduli (GPa) = 82.33891 117.56872 38.21674
#
# Poissons Ratio (x) = 0.09659 0.02446
# Poissons Ratio (y) = 0.06765 -0.06671
# Poissons Ratio (z) = 0.05269 -0.20521
#
# Static dielectric constant tensor:
#      x y z
#    x 1.787060 0.000000 0.000000 
#    y 0.000000 1.739410 0.000000 
#    z 0.000000 0.000000 1.668290 
# 
# From -- ./inp_files/14281.got.cif
#   From: 2010.05.17/outbox.cif.g08.bks.cpg/sg54_8_cif.got.tgz:14281.got - 2010.06.03 13:09:01.
