data_PCOD9421144
_publ_section_title
;
Structure prediction by ZEFSAII (Michael W. Deem and Ramdas Pophale) SiO2 
 PCOD9421144
Probable space group: P C C A
;
_chemical_formula_sum "Si O2"
_cell_formula_units_Z 24
_cell_length_a 11.665755
_cell_length_b 5.371785
_cell_length_c 17.866099
_cell_angle_alpha 90.000000
_cell_angle_beta 90.000000
_cell_angle_gamma 90.000000
_cell_volume 1119.595669
_symmetry_space_group_name_H-M "P C C A"
_symmetry_group_IT_number 54
_symmetry_cell_setting 'orthorhombic'
loop_
_space_group_symop_operation_xyz
x,y,z
1/2-x,-y,z
1/2+x,-y,1/2-z
-x,y,1/2-z
-x,-y,-z
1/2+x,y,-z
1/2-x,y,1/2+z
x,-y,1/2+z
loop_
_atom_site_type_symbol
_atom_site_label
_atom_site_fract_x
_atom_site_fract_y
_atom_site_fract_z
Si Si1 0.096014 0.157118 0.403693
Si Si2 0.133944 0.898097 0.068754
Si Si3 0.544166 0.658117 0.665800
O O1 0.157169 0.181618 0.483401
O O2 0.104487 0.399591 0.353160
O O3 0.962067 0.115592 0.428343
O O4 0.118306 0.899031 0.359584
O O5 0.250000 0.000000 0.103466
O O6 0.069644 0.683522 0.114091
O O7 0.500000 0.677112 0.750000
#
# Coordination Sequence:
#
# PCOD9421144 Si02
#       3
#     8   8   8
#     4   9  20  36  57  80 107 150 184 226 269 327
#     4   9  20  36  60  81 110 144 193 224 272 323
#     4  10  19  36  58  78 114 148 177 227 286 326
#
# _framework density 21.436309999999999
#
# number of rings (size 3 to 8) (size 9 to 14) (size 15 to 20)
#    2.000    0.667    0.000    2.000    0.000    1.333 
#    0.000    1.667    7.333    0.000    0.000    0.000 
#    0.000    0.000    0.000    0.000    0.000    0.000 
#
# Total GULP energy -133637.524481 kJ/mol
# GULP energy per Si atom -5568.230187 kJ/mol
# Density = 2.138752 g / cm^3
# Si number density = 21.436310 Si / 1000 Ang^3
#
#
#
# Elastic Constant Matrix: (Units=GPa)
#
#
# Indices 1 2 3 4 5 6 
#
# 1 36.8063 -10.4883 -27.7657 0.0000 0.0000 0.0000
# 2 -10.4883 152.3737 55.1524 0.0000 0.0000 0.0000
# 3 -27.7657 55.1524 128.8073 0.0000 0.0000 0.0000
# 4 0.0000 0.0000 0.0000 17.8078 0.0000 0.0000
# 5 0.0000 0.0000 0.0000 0.0000 5.0450 0.0000
# 6 0.0000 0.0000 0.0000 0.0000 0.0000 6.1717
#
#
#
# Elastic Compliance Matrix: (Units=1/GPa)
#
#
# Indices 1 2 3 4 5 6 
#
# 1 0.032461 -0.000353 0.007149 0.000000 0.000000 0.000000
# 2 -0.000353 0.007770 -0.003403 0.000000 0.000000 0.000000
# 3 0.007149 -0.003403 0.010762 0.000000 0.000000 0.000000
# 4 0.000000 0.000000 0.000000 0.056155 0.000000 0.000000
# 5 0.000000 0.000000 0.000000 0.000000 0.198217 0.000000
# 6 0.000000 0.000000 0.000000 0.000000 0.000000 0.162029
#
#
# Mechanical properties :
#
#
# Convention : Reuss Voigt Hill
#
# Bulk Modulus (GPa) = 17.30764 39.08711 28.19737
# Shear Modulus (GPa) = 10.41951 25.87748 18.14850
#
# Velocity S-wave (km/s) = 2.20709 3.47822 2.91284
# Velocity P-wave (km/s) = 3.81923 5.86552 4.94928
#
# Compressibility (1/GPa) = 0.05777794
#
# Stress axis : x y z
#
# Youngs Moduli (GPa) = 30.80586 128.69505 92.92266
#
# Poissons Ratio (x) = 0.04543 -0.66426
# Poissons Ratio (y) = 0.01088 0.31623
# Poissons Ratio (z) = -0.22022 0.43797
#
# Static dielectric constant tensor:
#      x y z
#    x 1.880140 0.000000 0.000000 
#    y 0.000000 1.783320 0.000000 
#    z 0.000000 0.000000 1.747810 
# 
# From -- ./inp_files/12864.got.cif
#   From: 2010.05.17/outbox.cif.g08.bks.cpg/sg54_7_cif.got.tgz:12864.got - 2010.06.03 13:09:01.
