data_PCOD9421657
_publ_section_title
;
Structure prediction by ZEFSAII (Michael W. Deem and Ramdas Pophale) SiO2 
 PCOD9421657
Probable space group: P C C A
;
_chemical_formula_sum "Si O2"
_cell_formula_units_Z 64
_cell_length_a 8.841070
_cell_length_b 15.264816
_cell_length_c 22.593469
_cell_angle_alpha 90.000000
_cell_angle_beta 90.000000
_cell_angle_gamma 90.000000
_cell_volume 3049.153727
_symmetry_space_group_name_H-M "P C C A"
_symmetry_group_IT_number 54
_symmetry_cell_setting 'orthorhombic'
loop_
_space_group_symop_operation_xyz
x,y,z
1/2-x,-y,z
1/2+x,-y,1/2-z
-x,y,1/2-z
-x,-y,-z
1/2+x,y,-z
1/2-x,y,1/2+z
x,-y,1/2+z
loop_
_atom_site_type_symbol
_atom_site_label
_atom_site_fract_x
_atom_site_fract_y
_atom_site_fract_z
Si Si1 0.069977 0.407956 0.888254
Si Si2 0.488774 0.300209 0.011036
Si Si3 0.936482 0.606241 0.614518
Si Si4 0.996082 0.097748 0.086941
Si Si5 0.575888 0.036511 0.184703
Si Si6 0.421835 0.760294 0.813011
Si Si7 0.759782 0.834701 0.001259
Si Si8 0.060763 0.761000 0.812383
O O1 0.253106 0.401552 0.889360
O O2 0.016217 0.506018 0.875232
O O3 0.021884 0.323877 0.849525
O O4 0.004502 0.387278 0.952245
O O5 0.483533 0.336142 0.943505
O O6 0.348732 0.238461 0.027010
O O7 0.622410 0.233543 0.029911
O O8 0.990210 0.664148 0.669709
O O9 0.846048 0.110010 0.045716
O O10 0.987810 0.175875 0.134577
O O11 0.995594 0.014177 0.128989
O O12 0.140229 0.109075 0.044137
O O13 0.500000 0.022863 0.250000
O O14 0.556648 0.138650 0.168170
O O15 0.750000 0.000000 0.188384
O O16 0.500000 0.753489 0.750000
O O17 0.240897 0.755732 0.808786
O O18 0.000000 0.792850 0.750000
#
# Coordination Sequence:
#
# PCOD9421657 Si02
#       8
#     8   8   8   8   8   8   8   8
#     4  10  21  37  63  88 127 178 218 274 337 396
#     4  11  18  37  60  93 127 175 224 270 322 403
#     4  10  20  37  59  93 130 172 222 271 335 395
#     4  11  22  43  67 100 136 175 220 275 341 408
#     4  11  24  45  73 100 133 173 233 281 334 401
#     4  10  23  43  65  92 127 171 222 276 336 395
#     4  10  21  37  67  92 136 171 217 269 342 394
#     4  11  21  38  68  94 132 172 218 276 334 392
#
# _framework density 20.989429999999999
#
# number of rings (size 3 to 8) (size 9 to 14) (size 15 to 20)
#    0.000    1.500    5.000    1.500    0.000    1.500 
#    2.250    0.625    5.500    0.000    0.000    0.000 
#    0.000    0.000    0.000    0.000    0.000    0.000 
#
# Total GULP energy -356667.108816 kJ/mol
# GULP energy per Si atom -5572.923575 kJ/mol
# Density = 2.094166 g / cm^3
# Si number density = 20.989430 Si / 1000 Ang^3
#
#
#
# Elastic Constant Matrix: (Units=GPa)
#
#
# Indices 1 2 3 4 5 6 
#
# 1 48.2658 24.7722 27.2162 0.0000 0.0000 0.0000
# 2 24.7722 144.3199 67.2472 0.0000 0.0000 0.0000
# 3 27.2162 67.2472 100.0315 0.0000 0.0000 0.0000
# 4 0.0000 0.0000 0.0000 176.1625 0.0000 0.0000
# 5 0.0000 0.0000 0.0000 0.0000 143.1489 0.0000
# 6 0.0000 0.0000 0.0000 0.0000 0.0000 8.3505
#
#
#
# Elastic Compliance Matrix: (Units=1/GPa)
#
#
# Indices 1 2 3 4 5 6 
#
# 1 0.024729 -0.001616 -0.005642 0.000000 0.000000 0.000000
# 2 -0.001616 0.010195 -0.006414 0.000000 0.000000 0.000000
# 3 -0.005642 -0.006414 0.015844 0.000000 0.000000 0.000000
# 4 0.000000 0.000000 0.000000 0.005677 0.000000 0.000000
# 5 0.000000 0.000000 0.000000 0.000000 0.006986 0.000000
# 6 0.000000 0.000000 0.000000 0.000000 0.000000 0.119754
#
#
# Mechanical properties :
#
#
# Convention : Reuss Voigt Hill
#
# Bulk Modulus (GPa) = 42.69054 59.00982 50.85018
# Shear Modulus (GPa) = 22.90042 77.09115 49.99578
#
# Velocity S-wave (km/s) = 3.30668 6.06698 4.88582
# Velocity P-wave (km/s) = 5.91287 8.78936 7.49049
#
# Compressibility (1/GPa) = 0.02342439
#
# Stress axis : x y z
#
# Youngs Moduli (GPa) = 40.43785 98.08588 63.11570
#
# Poissons Ratio (x) = 0.15848 0.35610
# Poissons Ratio (y) = 0.06534 0.40484
# Poissons Ratio (z) = 0.22815 0.62914
#
# Static dielectric constant tensor:
#      x y z
#    x 1.069800 0.000000 0.000000 
#    y 0.000000 1.781470 0.000000 
#    z 0.000000 0.000000 2.250510 
# 
# From -- ./inp_files/23700.got.cif
#   From: 2010.05.17/outbox.cif.g08.bks.cpg/sg54_12_cif.got.tgz:23700.got - 2010.06.03 13:09:01.
