data_PCOD9421360
_publ_section_title
;
Structure prediction by ZEFSAII (Michael W. Deem and Ramdas Pophale) SiO2 
 PCOD9421360
Probable space group: P C C A
;
_chemical_formula_sum "Si O2"
_cell_formula_units_Z 64
_cell_length_a 9.876073
_cell_length_b 12.491314
_cell_length_c 30.373098
_cell_angle_alpha 90.000000
_cell_angle_beta 90.000000
_cell_angle_gamma 90.000000
_cell_volume 3746.981151
_symmetry_space_group_name_H-M "P C C A"
_symmetry_group_IT_number 54
_symmetry_cell_setting 'orthorhombic'
loop_
_space_group_symop_operation_xyz
x,y,z
1/2-x,-y,z
1/2+x,-y,1/2-z
-x,y,1/2-z
-x,-y,-z
1/2+x,y,-z
1/2-x,y,1/2+z
x,-y,1/2+z
loop_
_atom_site_type_symbol
_atom_site_label
_atom_site_fract_x
_atom_site_fract_y
_atom_site_fract_z
Si Si1 0.929549 0.692638 0.142588
Si Si2 0.210200 0.624273 0.108709
Si Si3 0.211298 0.625495 0.921582
Si Si4 0.093034 0.880197 0.292060
Si Si5 0.590255 0.869419 0.207689
Si Si6 0.126332 0.419407 0.512278
Si Si7 0.993339 0.673031 0.848193
Si Si8 0.601650 0.481619 0.212922
O O1 0.840062 0.687666 0.098310
O O2 0.933846 0.806320 0.166039
O O3 0.864805 0.606196 0.175740
O O4 0.080806 0.651050 0.137439
O O5 0.250000 0.500000 0.110579
O O6 0.147405 0.640898 0.058997
O O7 0.342705 0.678627 0.130714
O O8 0.250000 0.500000 0.922203
O O9 0.088786 0.639141 0.888281
O O10 0.157364 0.654179 0.970062
O O11 0.250886 0.860144 0.281222
O O12 0.000000 0.853607 0.250000
O O13 0.070106 0.005157 0.303088
O O14 0.500000 0.844125 0.250000
O O15 0.544641 0.786363 0.170535
O O16 0.250000 0.500000 0.514461
O O17 0.000000 0.500000 0.500000
O O18 0.026576 0.583433 0.810363
O O19 0.750000 0.500000 0.233487
O O20 0.500000 0.439820 0.250000
#
# Coordination Sequence:
#
# PCOD9421360 Si02
#       8
#     8   8   8   8   8   8   8   8
#     4  12  21  36  54  79 112 148 183 223 280 331
#     4  11  22  35  53  85 116 150 184 227 271 335
#     4  11  18  35  56  77 113 150 178 228 275 340
#     4  10  22  40  60  82 107 143 192 239 283 328
#     4  10  22  40  60  82 108 142 190 243 282 322
#     4  10  20  33  54  81 113 152 188 224 277 327
#     4  12  21  36  54  80 114 147 184 226 281 331
#     4  12  24  35  51  75 110 146 182 220 278 341
#
# _framework density 17.080416
#
# number of rings (size 3 to 8) (size 9 to 14) (size 15 to 20)
#    0.000    1.000    5.000    3.750    3.500    0.000 
#    0.000    0.000    0.000    0.000    0.000    5.250 
#    0.000    0.000    0.000    0.000    0.000    0.000 
#
# Total GULP energy -356471.491104 kJ/mol
# GULP energy per Si atom -5569.867049 kJ/mol
# Density = 1.704154 g / cm^3
# Si number density = 17.080416 Si / 1000 Ang^3
#
#
#
# Elastic Constant Matrix: (Units=GPa)
#
#
# Indices 1 2 3 4 5 6 
#
# 1 90.9227 3.9665 13.8316 0.0000 0.0000 0.0000
# 2 3.9665 45.3497 26.8884 0.0000 0.0000 0.0000
# 3 13.8316 26.8884 57.2618 0.0000 0.0000 0.0000
# 4 0.0000 0.0000 0.0000 7.8693 0.0000 0.0000
# 5 0.0000 0.0000 0.0000 0.0000 22.2388 0.0000
# 6 0.0000 0.0000 0.0000 0.0000 0.0000 20.1175
#
#
#
# Elastic Compliance Matrix: (Units=1/GPa)
#
#
# Indices 1 2 3 4 5 6 
#
# 1 0.011443 0.000884 -0.003179 0.000000 0.000000 0.000000
# 2 0.000884 0.030627 -0.014595 0.000000 0.000000 0.000000
# 3 -0.003179 -0.014595 0.025085 0.000000 0.000000 0.000000
# 4 0.000000 0.000000 0.000000 0.127075 0.000000 0.000000
# 5 0.000000 0.000000 0.000000 0.000000 0.044966 0.000000
# 6 0.000000 0.000000 0.000000 0.000000 0.000000 0.049708
#
#
# Mechanical properties :
#
#
# Convention : Reuss Voigt Hill
#
# Bulk Modulus (GPa) = 29.96254 31.43414 30.69834
# Shear Modulus (GPa) = 14.97851 19.96829 17.47340
#
# Velocity S-wave (km/s) = 2.96453 3.42288 3.20192
# Velocity P-wave (km/s) = 5.41277 5.83653 5.62864
#
# Compressibility (1/GPa) = 0.03337501
#
# Stress axis : x y z
#
# Youngs Moduli (GPa) = 87.38628 32.65067 39.86430
#
# Poissons Ratio (x) = -0.02887 0.12674
# Poissons Ratio (y) = -0.07726 0.58183
# Poissons Ratio (z) = 0.27783 0.47654
#
# Static dielectric constant tensor:
#      x y z
#    x 1.627650 0.000000 0.000000 
#    y 0.000000 1.591990 0.000000 
#    z 0.000000 0.000000 1.666850 
# 
# From -- ./inp_files/27926.got.cif
#   From: 2010.05.17/outbox.cif.g08.bks.cpg/sg54_14_cif.got.tgz:27926.got - 2010.06.03 13:09:01.
