data_PCOD9421467
_publ_section_title
;
Structure prediction by ZEFSAII (Michael W. Deem and Ramdas Pophale) SiO2 
 PCOD9421467
Probable space group: P C C A
;
_chemical_formula_sum "Si O2"
_cell_formula_units_Z 56
_cell_length_a 8.484523
_cell_length_b 14.929753
_cell_length_c 21.763353
_cell_angle_alpha 90.000000
_cell_angle_beta 90.000000
_cell_angle_gamma 90.000000
_cell_volume 2756.803810
_symmetry_space_group_name_H-M "P C C A"
_symmetry_group_IT_number 54
_symmetry_cell_setting 'orthorhombic'
loop_
_space_group_symop_operation_xyz
x,y,z
1/2-x,-y,z
1/2+x,-y,1/2-z
-x,y,1/2-z
-x,-y,-z
1/2+x,y,-z
1/2-x,y,1/2+z
x,-y,1/2+z
loop_
_atom_site_type_symbol
_atom_site_label
_atom_site_fract_x
_atom_site_fract_y
_atom_site_fract_z
Si Si1 0.607973 0.271742 0.571860
Si Si2 0.528501 0.545614 0.435297
Si Si3 0.533435 0.782111 0.557576
Si Si4 0.064924 0.982441 0.067971
Si Si5 0.395053 0.730952 0.191239
Si Si6 0.106411 0.932076 0.690441
Si Si7 0.835497 0.622579 0.384323
O O1 0.607107 0.380535 0.570628
O O2 0.781518 0.231639 0.568025
O O3 0.510466 0.232444 0.514164
O O4 0.514780 0.256071 0.634493
O O5 0.500000 0.500000 0.500000
O O6 0.693834 0.600042 0.432338
O O7 0.558487 0.467419 0.384878
O O8 0.476506 0.878992 0.580200
O O9 0.439008 0.704210 0.592230
O O10 0.250000 0.000000 0.062362
O O11 0.016922 0.044983 0.125921
O O12 0.000000 0.000000 0.000000
O O13 0.500000 0.707420 0.250000
O O14 0.327812 0.831115 0.196343
O O15 0.263326 0.657422 0.174288
O O16 0.000000 0.945860 0.750000
O O17 0.250000 0.000000 0.692127
#
# Coordination Sequence:
#
# PCOD9421467 Si02
#       7
#     8   8   8   8   8   8   8
#     4  11  23  38  61  95 127 166 212 266 338 396
#     4  10  20  35  60  94 123 158 200 259 328 389
#     4  12  23  37  62  95 130 163 213 274 337 404
#     4  11  23  39  58  86 127 169 213 264 332 393
#     4  10  22  43  64  87 128 177 218 267 324 393
#     4  10  22  40  64  91 123 166 221 273 325 391
#     4  10  21  36  61  92 125 165 207 264 324 387
#
# _framework density 20.313378
#
# number of rings (size 3 to 8) (size 9 to 14) (size 15 to 20)
#    0.000    1.429    1.429    5.143    2.000    3.429 
#    0.000    0.714    0.000   20.571    0.000    0.000 
#    0.000    0.000    0.000    0.000    0.000    0.000 
#
# Total GULP energy -312485.846809 kJ/mol
# GULP energy per Si atom -5580.104407 kJ/mol
# Density = 2.026714 g / cm^3
# Si number density = 20.313378 Si / 1000 Ang^3
#
#
#
# Elastic Constant Matrix: (Units=GPa)
#
#
# Indices 1 2 3 4 5 6 
#
# 1 63.1427 23.0896 10.2253 0.0000 0.0000 0.0000
# 2 23.0896 110.6986 5.3221 0.0000 0.0000 0.0000
# 3 10.2253 5.3221 88.8335 0.0000 0.0000 0.0000
# 4 0.0000 0.0000 0.0000 22.4358 0.0000 0.0000
# 5 0.0000 0.0000 0.0000 0.0000 24.4664 0.0000
# 6 0.0000 0.0000 0.0000 0.0000 0.0000 42.6269
#
#
#
# Elastic Compliance Matrix: (Units=1/GPa)
#
#
# Indices 1 2 3 4 5 6 
#
# 1 0.017425 -0.003548 -0.001793 0.000000 0.000000 0.000000
# 2 -0.003548 0.009782 -0.000178 0.000000 0.000000 0.000000
# 3 -0.001793 -0.000178 0.011474 0.000000 0.000000 0.000000
# 4 0.000000 0.000000 0.000000 0.044572 0.000000 0.000000
# 5 0.000000 0.000000 0.000000 0.000000 0.040872 0.000000
# 6 0.000000 0.000000 0.000000 0.000000 0.000000 0.023459
#
#
# Mechanical properties :
#
#
# Convention : Reuss Voigt Hill
#
# Bulk Modulus (GPa) = 36.17538 37.77208 36.97373
# Shear Modulus (GPa) = 29.79079 32.84169 31.31624
#
# Velocity S-wave (km/s) = 3.83372 4.02525 3.93065
# Velocity P-wave (km/s) = 6.11914 6.34339 6.23227
#
# Compressibility (1/GPa) = 0.02764311
#
# Stress axis : x y z
#
# Youngs Moduli (GPa) = 57.38868 102.22659 87.15314
#
# Poissons Ratio (x) = 0.36273 0.15628
# Poissons Ratio (y) = 0.20363 0.01548
# Poissons Ratio (z) = 0.10291 0.01816
#
# Static dielectric constant tensor:
#      x y z
#    x 1.710480 0.000000 0.000000 
#    y 0.000000 1.789830 0.000000 
#    z 0.000000 0.000000 1.772930 
# 
# From -- ./inp_files/20556.got.cif
#   From: 2010.05.17/outbox.cif.g08.bks.cpg/sg54_11_cif.got.tgz:20556.got - 2010.06.03 13:09:01.
