data_PCOD9421986
_publ_section_title
;
Structure prediction by ZEFSAII (Michael W. Deem and Ramdas Pophale) SiO2 
 PCOD9421986
Probable space group: P C C A
;
_chemical_formula_sum "Si O2"
_cell_formula_units_Z 32
_cell_length_a 5.382091
_cell_length_b 7.507858
_cell_length_c 32.255441
_cell_angle_alpha 90.000000
_cell_angle_beta 90.000000
_cell_angle_gamma 90.000000
_cell_volume 1303.377053
_symmetry_space_group_name_H-M "P C C A"
_symmetry_group_IT_number 54
_symmetry_cell_setting 'orthorhombic'
loop_
_space_group_symop_operation_xyz
x,y,z
1/2-x,-y,z
1/2+x,-y,1/2-z
-x,y,1/2-z
-x,-y,-z
1/2+x,y,-z
1/2-x,y,1/2+z
x,-y,1/2+z
loop_
_atom_site_type_symbol
_atom_site_label
_atom_site_fract_x
_atom_site_fract_y
_atom_site_fract_z
Si Si1 0.988122 0.703325 0.517582
Si Si2 0.500000 0.669120 0.250000
Si Si3 0.250000 0.000000 0.660891
Si Si4 0.064814 0.330914 0.114051
Si Si5 0.750000 0.500000 0.677681
Si Si6 0.250000 0.000000 0.285065
O O1 0.742782 0.787113 0.498358
O O2 0.000000 0.500000 0.500000
O O3 0.981493 0.694830 0.567009
O O4 0.473449 0.538373 0.289499
O O5 0.284296 0.815616 0.259246
O O6 0.220723 0.830498 0.631963
O O7 0.500287 0.986635 0.688030
O O8 0.250000 0.500000 0.116381
O O9 0.824348 0.349934 0.144064
#
# Coordination Sequence:
#
# PCOD9421986 Si02
#       6
#     8   4   4   8   4   4
#     4  10  20  40  73 108 149 207 250 314 406 463
#     4  12  28  48  82 106 158 208 266 334 402 478
#     4  12  29  52  80 119 150 218 264 331 416 476
#     4  12  26  48  79 111 164 202 271 333 397 485
#     4  12  28  46  72 118 142 202 272 318 394 476
#     4  12  27  56  78 103 160 204 262 333 412 460
#
# _framework density 24.551608999999999
#
# number of rings (size 3 to 8) (size 9 to 14) (size 15 to 20)
#    0.000    0.500    5.000    3.750    1.750    3.000 
#    0.000    1.250    0.000    0.000    0.000    0.000 
#    0.000    0.000    0.000    0.000    0.000    0.000 
#
# Total GULP energy -178626.224479 kJ/mol
# GULP energy per Si atom -5582.069515 kJ/mol
# Density = 2.449573 g / cm^3
# Si number density = 24.551609 Si / 1000 Ang^3
#
#
#
# Elastic Constant Matrix: (Units=GPa)
#
#
# Indices 1 2 3 4 5 6 
#
# 1 174.0541 47.6807 92.2009 0.0000 0.0000 0.0000
# 2 47.6807 124.6611 50.0525 0.0000 0.0000 0.0000
# 3 92.2009 50.0525 250.6285 0.0000 0.0000 0.0000
# 4 0.0000 0.0000 0.0000 15.0019 0.0000 0.0000
# 5 0.0000 0.0000 0.0000 0.0000 37.5723 0.0000
# 6 0.0000 0.0000 0.0000 0.0000 0.0000 27.0725
#
#
#
# Elastic Compliance Matrix: (Units=1/GPa)
#
#
# Indices 1 2 3 4 5 6 
#
# 1 0.007538 -0.001924 -0.002389 0.000000 0.000000 0.000000
# 2 -0.001924 0.009212 -0.001132 0.000000 0.000000 0.000000
# 3 -0.002389 -0.001132 0.005095 0.000000 0.000000 0.000000
# 4 0.000000 0.000000 0.000000 0.066658 0.000000 0.000000
# 5 0.000000 0.000000 0.000000 0.000000 0.026615 0.000000
# 6 0.000000 0.000000 0.000000 0.000000 0.000000 0.036938
#
#
# Mechanical properties :
#
#
# Convention : Reuss Voigt Hill
#
# Bulk Modulus (GPa) = 91.27952 103.24578 97.26265
# Shear Modulus (GPa) = 30.01249 39.88999 34.95124
#
# Velocity S-wave (km/s) = 3.50011 4.03518 3.77713
# Velocity P-wave (km/s) = 7.32077 7.99087 7.66315
#
# Compressibility (1/GPa) = 0.01095536
#
# Stress axis : x y z
#
# Youngs Moduli (GPa) = 132.66507 108.55270 196.27850
#
# Poissons Ratio (x) = 0.20885 0.46886
# Poissons Ratio (y) = 0.25524 0.22218
# Poissons Ratio (z) = 0.31690 0.12288
#
# Static dielectric constant tensor:
#      x y z
#    x 1.967060 0.000000 0.000000 
#    y 0.000000 2.077750 0.000000 
#    z 0.000000 0.000000 1.907660 
# 
# From -- ./inp_files/26986.got.cif
#   From: 2010.05.17/outbox.cif.g08.bks.cpg/sg54_14_cif.got.tgz:26986.got - 2010.06.03 13:09:01.
