data_PCOD9421263
_publ_section_title
;
Structure prediction by ZEFSAII (Michael W. Deem and Ramdas Pophale) SiO2 
 PCOD9421263
Probable space group: P C C A
;
_chemical_formula_sum "Si O2"
_cell_formula_units_Z 40
_cell_length_a 18.908253
_cell_length_b 7.126855
_cell_length_c 13.085937
_cell_angle_alpha 90.000000
_cell_angle_beta 90.000000
_cell_angle_gamma 90.000000
_cell_volume 1763.413465
_symmetry_space_group_name_H-M "P C C A"
_symmetry_group_IT_number 54
_symmetry_cell_setting 'orthorhombic'
loop_
_space_group_symop_operation_xyz
x,y,z
1/2-x,-y,z
1/2+x,-y,1/2-z
-x,y,1/2-z
-x,-y,-z
1/2+x,y,-z
1/2-x,y,1/2+z
x,-y,1/2+z
loop_
_atom_site_type_symbol
_atom_site_label
_atom_site_fract_x
_atom_site_fract_y
_atom_site_fract_z
Si Si1 0.173798 0.549502 0.026703
Si Si2 0.080225 0.177765 0.061254
Si Si3 0.938143 0.198010 0.673048
Si Si4 0.822733 0.887675 0.322795
Si Si5 0.956593 0.404202 0.094961
O O1 0.250000 0.500000 0.981014
O O2 0.134163 0.356135 0.056465
O O3 0.185873 0.687005 0.122144
O O4 0.119403 0.651412 0.949487
O O5 0.011128 0.243319 0.124462
O O6 0.122917 0.008199 0.108840
O O7 0.944198 0.861578 0.055215
O O8 0.862529 0.138534 0.715980
O O9 0.942348 0.425861 0.671275
O O10 0.000000 0.138592 0.750000
O O11 0.750000 0.000000 0.315236
O O12 0.000000 0.500000 0.000000
#
# Coordination Sequence:
#
# PCOD9421263 Si02
#       5
#     8   8   8   8   8
#     4  10  19  39  63  88 128 180 215 272 337 399
#     4  10  22  44  69  92 131 183 225 273 350 412
#     4  10  21  41  67  98 133 169 229 289 332 405
#     4  12  24  40  68 102 141 177 227 281 347 417
#     4   8  18  38  67  88 117 172 228 265 333 399
#
# _framework density 22.683281000000001
#
# number of rings (size 3 to 8) (size 9 to 14) (size 15 to 20)
#    0.000    2.400    2.000    3.600    0.000    4.000 
#    0.000   15.000    0.000    0.000    0.000    0.000 
#    0.000    0.000    0.000    0.000    0.000    0.000 
#
# Total GULP energy -223461.556094 kJ/mol
# GULP energy per Si atom -5586.538902 kJ/mol
# Density = 2.263165 g / cm^3
# Si number density = 22.683281 Si / 1000 Ang^3
#
#
#
# Elastic Constant Matrix: (Units=GPa)
#
#
# Indices 1 2 3 4 5 6 
#
# 1 173.0508 32.5526 41.7832 0.0000 0.0000 0.0000
# 2 32.5526 93.2447 29.5535 0.0000 0.0000 0.0000
# 3 41.7832 29.5535 82.8824 0.0000 0.0000 0.0000
# 4 0.0000 0.0000 0.0000 32.8055 0.0000 0.0000
# 5 0.0000 0.0000 0.0000 0.0000 29.9237 0.0000
# 6 0.0000 0.0000 0.0000 0.0000 0.0000 20.5288
#
#
#
# Elastic Compliance Matrix: (Units=1/GPa)
#
#
# Indices 1 2 3 4 5 6 
#
# 1 0.006747 -0.001440 -0.002888 0.000000 0.000000 0.000000
# 2 -0.001440 0.012398 -0.003695 0.000000 0.000000 0.000000
# 3 -0.002888 -0.003695 0.014839 0.000000 0.000000 0.000000
# 4 0.000000 0.000000 0.000000 0.030483 0.000000 0.000000
# 5 0.000000 0.000000 0.000000 0.000000 0.033418 0.000000
# 6 0.000000 0.000000 0.000000 0.000000 0.000000 0.048712
#
#
# Mechanical properties :
#
#
# Convention : Reuss Voigt Hill
#
# Bulk Modulus (GPa) = 55.74695 61.88405 58.81550
# Shear Modulus (GPa) = 29.65219 33.00417 31.32818
#
# Velocity S-wave (km/s) = 3.61948 3.81858 3.72036
# Velocity P-wave (km/s) = 6.48823 6.83982 6.66634
#
# Compressibility (1/GPa) = 0.01793820
#
# Stress axis : x y z
#
# Youngs Moduli (GPa) = 148.21857 80.65622 67.39204
#
# Poissons Ratio (x) = 0.11615 0.19461
# Poissons Ratio (y) = 0.21345 0.24901
# Poissons Ratio (z) = 0.42802 0.29801
#
# Static dielectric constant tensor:
#      x y z
#    x 1.839740 0.000000 0.000000 
#    y 0.000000 1.848790 0.000000 
#    z 0.000000 0.000000 1.860990 
# 
# From -- ./inp_files/18372.got.cif
#   From: 2010.05.17/outbox.cif.g08.bks.cpg/sg54_10_cif.got.tgz:18372.got - 2010.06.03 13:09:01.
