data_PCOD9421310
_publ_section_title
;
Structure prediction by ZEFSAII (Michael W. Deem and Ramdas Pophale) SiO2 
 PCOD9421310
Probable space group: P C C A
;
_chemical_formula_sum "Si O2"
_cell_formula_units_Z 52
_cell_length_a 19.998845
_cell_length_b 10.777376
_cell_length_c 9.778903
_cell_angle_alpha 90.000000
_cell_angle_beta 90.000000
_cell_angle_gamma 90.000000
_cell_volume 2107.696563
_symmetry_space_group_name_H-M "P C C A"
_symmetry_group_IT_number 54
_symmetry_cell_setting 'orthorhombic'
loop_
_space_group_symop_operation_xyz
x,y,z
1/2-x,-y,z
1/2+x,-y,1/2-z
-x,y,1/2-z
-x,-y,-z
1/2+x,y,-z
1/2-x,y,1/2+z
x,-y,1/2+z
loop_
_atom_site_type_symbol
_atom_site_label
_atom_site_fract_x
_atom_site_fract_y
_atom_site_fract_z
Si Si1 0.500000 0.515195 0.250000
Si Si2 0.363795 0.399825 0.373012
Si Si3 0.075847 0.711643 0.621212
Si Si4 0.602467 0.031577 0.928604
Si Si5 0.859389 0.673971 0.589192
Si Si6 0.425667 0.236416 0.182585
Si Si7 0.684196 0.078683 0.667599
O O1 0.434868 0.445948 0.306510
O O2 0.522528 0.602134 0.375367
O O3 0.367622 0.342447 0.522882
O O4 0.330224 0.535691 0.386629
O O5 0.361719 0.277183 0.277737
O O6 0.054898 0.847280 0.570071
O O7 0.097630 0.713036 0.778166
O O8 0.661117 0.079268 0.826086
O O9 0.576227 0.907116 0.859980
O O10 0.628060 0.990532 0.076179
O O11 0.905525 0.686514 0.455012
O O12 0.806551 0.786303 0.596296
O O13 0.500000 0.249293 0.250000
O O14 0.750000 0.000000 0.656452
#
# Coordination Sequence:
#
# PCOD9421310 Si02
#       7
#     4   8   8   8   8   8   8
#     4  10  20  30  52  80 112 160 210 230 278 344
#     4  11  20  36  56  81 118 164 206 235 288 345
#     4  10  21  33  55  77 117 156 199 247 283 343
#     4  10  22  40  55  92 114 151 204 243 305 362
#     4   9  21  37  53  88 116 145 209 248 288 360
#     4  11  23  35  56  80 126 166 196 242 293 355
#     4  10  20  40  65  85 113 149 194 258 315 362
#
# _framework density 24.671485000000001
#
# number of rings (size 3 to 8) (size 9 to 14) (size 15 to 20)
#    0.000    1.846    0.769    3.692    5.385    0.000 
#    0.000    3.077    0.000    3.692    0.000   21.538 
#    0.000    0.000    0.000    0.000    0.000    0.000 
#
# Total GULP energy -289606.356014 kJ/mol
# GULP energy per Si atom -5569.353000 kJ/mol
# Density = 2.461533 g / cm^3
# Si number density = 24.671485 Si / 1000 Ang^3
#
#
#
# Elastic Constant Matrix: (Units=GPa)
#
#
# Indices 1 2 3 4 5 6 
#
# 1 33.4666 3.9833 5.5163 0.0000 0.0000 0.0000
# 2 3.9833 137.6125 -0.8392 0.0000 0.0000 0.0000
# 3 5.5163 -0.8392 116.3389 0.0000 0.0000 0.0000
# 4 0.0000 0.0000 0.0000 33.9085 0.0000 0.0000
# 5 0.0000 0.0000 0.0000 0.0000 14.9737 0.0000
# 6 0.0000 0.0000 0.0000 0.0000 0.0000 13.0829
#
#
#
# Elastic Compliance Matrix: (Units=1/GPa)
#
#
# Indices 1 2 3 4 5 6 
#
# 1 0.030223 -0.000884 -0.001439 0.000000 0.000000 0.000000
# 2 -0.000884 0.007293 0.000095 0.000000 0.000000 0.000000
# 3 -0.001439 0.000095 0.008665 0.000000 0.000000 0.000000
# 4 0.000000 0.000000 0.000000 0.029491 0.000000 0.000000
# 5 0.000000 0.000000 0.000000 0.000000 0.066784 0.000000
# 6 0.000000 0.000000 0.000000 0.000000 0.000000 0.076436
#
#
# Mechanical properties :
#
#
# Convention : Reuss Voigt Hill
#
# Bulk Modulus (GPa) = 23.96738 33.85986 28.91362
# Shear Modulus (GPa) = 21.07427 30.97685 26.02556
#
# Velocity S-wave (km/s) = 2.92583 3.54725 3.25142
# Velocity P-wave (km/s) = 4.59888 5.52552 5.08336
#
# Compressibility (1/GPa) = 0.04172337
#
# Stress axis : x y z
#
# Youngs Moduli (GPa) = 33.08745 137.11900 115.41335
#
# Poissons Ratio (x) = 0.12116 0.16613
# Poissons Ratio (y) = 0.02924 -0.01091
# Poissons Ratio (z) = 0.04763 -0.01296
#
# Static dielectric constant tensor:
#      x y z
#    x 2.050890 0.000000 0.000000 
#    y 0.000000 2.240430 0.000000 
#    z 0.000000 0.000000 2.035300 
# 
# From -- ./inp_files/5556.got.cif
#   From: 2010.05.17/outbox.cif.g08.bks.cpg/sg54_3_cif.got.tgz:5556.got - 2010.06.03 13:09:01.
