data_PCOD9421620
_publ_section_title
;
Structure prediction by ZEFSAII (Michael W. Deem and Ramdas Pophale) SiO2 
 PCOD9421620
Probable space group: P C C A
;
_chemical_formula_sum "Si O2"
_cell_formula_units_Z 32
_cell_length_a 18.972030
_cell_length_b 11.671465
_cell_length_c 5.680570
_cell_angle_alpha 90.000000
_cell_angle_beta 90.000000
_cell_angle_gamma 90.000000
_cell_volume 1257.856478
_symmetry_space_group_name_H-M "P C C A"
_symmetry_group_IT_number 54
_symmetry_cell_setting 'orthorhombic'
loop_
_space_group_symop_operation_xyz
x,y,z
1/2-x,-y,z
1/2+x,-y,1/2-z
-x,y,1/2-z
-x,-y,-z
1/2+x,y,-z
1/2-x,y,1/2+z
x,-y,1/2+z
loop_
_atom_site_type_symbol
_atom_site_label
_atom_site_fract_x
_atom_site_fract_y
_atom_site_fract_z
Si Si1 0.223237 0.366943 0.304278
Si Si2 0.857903 0.031776 0.813915
Si Si3 0.903466 0.269763 0.936323
Si Si4 0.500000 0.560796 0.750000
Si Si5 0.000000 0.116419 0.250000
O O1 0.250000 0.500000 0.292259
O O2 0.239673 0.320576 0.043720
O O3 0.142679 0.336215 0.368920
O O4 0.864754 0.167629 0.804225
O O5 0.825787 0.990449 0.570187
O O6 0.933948 0.963335 0.826332
O O7 0.930467 0.362125 0.755074
O O8 0.968546 0.201961 0.055079
O O9 0.500000 0.500000 0.500000
#
# Coordination Sequence:
#
# PCOD9421620 Si02
#       5
#     8   8   8   4   4
#     4  10  25  45  70  88 127 189 247 280 320 398
#     4  10  20  36  64  99 134 167 212 265 345 433
#     4  11  23  43  70  99 143 179 223 286 359 410
#     4  12  28  38  60 100 138 168 214 284 352 410
#     4  10  20  40  70 108 136 172 218 280 368 434
#
# _framework density 25.440106
#
# number of rings (size 3 to 8) (size 9 to 14) (size 15 to 20)
#    0.000    1.500    0.000    6.000    7.000    8.000 
#    0.000    0.000    0.000   18.000    0.000    0.000 
#    0.000    0.000    0.000    0.000    0.000    0.000 
#
# Total GULP energy -178772.456394 kJ/mol
# GULP energy per Si atom -5586.639262 kJ/mol
# Density = 2.538220 g / cm^3
# Si number density = 25.440106 Si / 1000 Ang^3
#
#
#
# Elastic Constant Matrix: (Units=GPa)
#
#
# Indices 1 2 3 4 5 6 
#
# 1 98.0661 37.4235 35.2993 0.0000 0.0000 0.0000
# 2 37.4235 134.8848 61.5428 0.0000 0.0000 0.0000
# 3 35.2993 61.5428 219.2264 0.0000 0.0000 0.0000
# 4 0.0000 0.0000 0.0000 32.1747 0.0000 0.0000
# 5 0.0000 0.0000 0.0000 0.0000 -36.3697 0.0000
# 6 0.0000 0.0000 0.0000 0.0000 0.0000 17.9445
#
#
#
# Elastic Compliance Matrix: (Units=1/GPa)
#
#
# Indices 1 2 3 4 5 6 
#
# 1 0.011635 -0.002722 -0.001109 0.000000 0.000000 0.000000
# 2 -0.002722 0.009140 -0.002127 0.000000 0.000000 0.000000
# 3 -0.001109 -0.002127 0.005337 0.000000 0.000000 0.000000
# 4 0.000000 0.000000 0.000000 0.031080 0.000000 0.000000
# 5 0.000000 0.000000 0.000000 0.000000 -0.027495 0.000000
# 6 0.000000 0.000000 0.000000 0.000000 0.000000 0.055727
#
#
# Mechanical properties :
#
#
# Convention : Reuss Voigt Hill
#
# Bulk Modulus (GPa) = 70.44919 80.07873 75.26396
# Shear Modulus (GPa) = 48.98423 23.94401 36.46412
#
# Velocity S-wave (km/s) = 4.39278 3.07121 3.79004
# Velocity P-wave (km/s) = 7.31307 6.64245 6.98581
#
# Compressibility (1/GPa) = 0.01419463
#
# Stress axis : x y z
#
# Youngs Moduli (GPa) = 85.94545 109.41360 187.35890
#
# Poissons Ratio (x) = 0.29783 0.20784
# Poissons Ratio (y) = 0.23395 0.39860
# Poissons Ratio (z) = 0.09534 0.23277
#
# Static dielectric constant tensor:
#      x y z
#    x 2.104450 0.000000 0.000000 
#    y 0.000000 2.062980 0.000000 
#    z 0.000000 0.000000 1.930370 
# 
# From -- ./inp_files/1153.got.cif
#   From: 2010.05.17/outbox.cif.g08.bks.cpg/sg54_1_cif.got.tgz:1153.got - 2010.06.03 13:09:01.
