data_PCOD9421514
_publ_section_title
;
Structure prediction by ZEFSAII (Michael W. Deem and Ramdas Pophale) SiO2 
 PCOD9421514
Probable space group: P C C A
;
_chemical_formula_sum "Si O2"
_cell_formula_units_Z 52
_cell_length_a 25.672757
_cell_length_b 8.792393
_cell_length_c 12.705710
_cell_angle_alpha 90.000000
_cell_angle_beta 90.000000
_cell_angle_gamma 90.000000
_cell_volume 2867.995995
_symmetry_space_group_name_H-M "P C C A"
_symmetry_group_IT_number 54
_symmetry_cell_setting 'orthorhombic'
loop_
_space_group_symop_operation_xyz
x,y,z
1/2-x,-y,z
1/2+x,-y,1/2-z
-x,y,1/2-z
-x,-y,-z
1/2+x,y,-z
1/2-x,y,1/2+z
x,-y,1/2+z
loop_
_atom_site_type_symbol
_atom_site_label
_atom_site_fract_x
_atom_site_fract_y
_atom_site_fract_z
Si Si1 0.443509 0.797895 0.882765
Si Si2 0.500000 0.452915 0.250000
Si Si3 0.677642 0.776843 0.617482
Si Si4 0.750000 0.000000 0.485035
Si Si5 0.000000 0.950915 0.750000
Si Si6 0.282339 0.723662 0.649725
Si Si7 0.440109 0.295291 0.622715
Si Si8 0.673943 0.416752 0.918732
O O1 0.459279 0.655804 0.809284
O O2 0.382088 0.827100 0.872028
O O3 0.475948 0.940693 0.839684
O O4 0.454067 0.754159 0.003868
O O5 0.527441 0.560737 0.335479
O O6 0.711171 0.902704 0.556689
O O7 0.701919 0.744582 0.730195
O O8 0.678146 0.629338 0.541330
O O9 0.781838 0.882252 0.412435
O O10 0.955893 0.842860 0.800567
O O11 0.223587 0.659391 0.638183
O O12 0.319983 0.596263 0.599092
O O13 0.379655 0.344455 0.622340
#
# Coordination Sequence:
#
# PCOD9421514 Si02
#       8
#     8   4   8   4   4   8   8   8
#     4  10  21  37  56  81 111 145 184 229 279 332
#     4  10  20  36  58  80 106 144 186 230 278 326
#     4  10  21  37  56  80 111 146 182 222 273 324
#     4  10  22  36  54  84 112 142 182 220 266 334
#     4  10  22  36  58  82 110 148 184 228 286 332
#     4  10  20  37  57  81 114 146 178 225 271 321
#     4  10  20  38  57  82 112 142 186 233 275 329
#     4   9  21  37  57  82 110 144 187 226 267 327
#
# _framework density 18.131126999999999
#
# number of rings (size 3 to 8) (size 9 to 14) (size 15 to 20)
#    0.000    2.154    0.000    2.308    0.000    9.846 
#    0.000    7.692    0.000    0.000    0.000    0.000 
#    0.000    0.000    0.000    0.000    0.000    0.000 
#
# Total GULP energy -290206.106983 kJ/mol
# GULP energy per Si atom -5580.886673 kJ/mol
# Density = 1.808986 g / cm^3
# Si number density = 18.131127 Si / 1000 Ang^3
#
#
#
# Elastic Constant Matrix: (Units=GPa)
#
#
# Indices 1 2 3 4 5 6 
#
# 1 96.7448 46.4167 59.5521 0.0000 0.0000 0.0000
# 2 46.4167 133.6891 67.9263 0.0000 0.0000 0.0000
# 3 59.5521 67.9263 109.4106 0.0000 0.0000 0.0000
# 4 0.0000 0.0000 0.0000 599.2730 0.0000 0.0000
# 5 0.0000 0.0000 0.0000 0.0000 20.8725 0.0000
# 6 0.0000 0.0000 0.0000 0.0000 0.0000 10.1061
#
#
#
# Elastic Compliance Matrix: (Units=1/GPa)
#
#
# Indices 1 2 3 4 5 6 
#
# 1 0.015784 -0.001629 -0.007580 0.000000 0.000000 0.000000
# 2 -0.001629 0.011095 -0.006002 0.000000 0.000000 0.000000
# 3 -0.007580 -0.006002 0.016992 0.000000 0.000000 0.000000
# 4 0.000000 0.000000 0.000000 0.001669 0.000000 0.000000
# 5 0.000000 0.000000 0.000000 0.000000 0.047910 0.000000
# 6 0.000000 0.000000 0.000000 0.000000 0.000000 0.098950
#
#
# Mechanical properties :
#
#
# Convention : Reuss Voigt Hill
#
# Bulk Modulus (GPa) = 74.35073 76.40384 75.37729
# Shear Modulus (GPa) = 21.99706 137.11361 79.55534
#
# Velocity S-wave (km/s) = 3.48691 8.70560 6.63122
# Velocity P-wave (km/s) = 7.57018 11.97001 10.01471
#
# Compressibility (1/GPa) = 0.01344977
#
# Stress axis : x y z
#
# Youngs Moduli (GPa) = 63.35605 90.13124 58.85260
#
# Poissons Ratio (x) = 0.14681 0.44609
# Poissons Ratio (y) = 0.10320 0.35321
# Poissons Ratio (z) = 0.48023 0.54093
#
# Static dielectric constant tensor:
#      x y z
#    x 1.604000 0.000000 0.000000 
#    y 0.000000 1.624480 0.000000 
#    z 0.000000 0.000000 1.598420 
# 
# From -- ./inp_files/10322.got.cif
#   From: 2010.05.17/outbox.cif.g08.bks.cpg/sg54_6_cif.got.tgz:10322.got - 2010.06.03 13:09:01.
