data_PCOD9421953
_publ_section_title
;
Structure prediction by ZEFSAII (Michael W. Deem and Ramdas Pophale) SiO2 
 PCOD9421953
Probable space group: P C C A
;
_chemical_formula_sum "Si O2"
_cell_formula_units_Z 48
_cell_length_a 9.616671
_cell_length_b 7.688076
_cell_length_c 29.799980
_cell_angle_alpha 90.000000
_cell_angle_beta 90.000000
_cell_angle_gamma 90.000000
_cell_volume 2203.222707
_symmetry_space_group_name_H-M "P C C A"
_symmetry_group_IT_number 54
_symmetry_cell_setting 'orthorhombic'
loop_
_space_group_symop_operation_xyz
x,y,z
1/2-x,-y,z
1/2+x,-y,1/2-z
-x,y,1/2-z
-x,-y,-z
1/2+x,y,-z
1/2-x,y,1/2+z
x,-y,1/2+z
loop_
_atom_site_type_symbol
_atom_site_label
_atom_site_fract_x
_atom_site_fract_y
_atom_site_fract_z
Si Si1 0.750000 0.500000 0.105392
Si Si2 0.303950 0.801423 0.039576
Si Si3 0.887140 0.701201 0.532884
Si Si4 0.500000 0.705834 0.750000
Si Si5 0.750000 0.500000 0.293245
Si Si6 0.928891 0.210038 0.652641
Si Si7 0.245952 0.795284 0.140991
Si Si8 0.250000 0.000000 0.908165
O O1 0.627589 0.548778 0.069597
O O2 0.684121 0.353977 0.137741
O O3 0.458607 0.764986 0.022321
O O4 0.312427 0.773637 0.092632
O O5 0.250000 0.000000 0.033949
O O6 0.193956 0.681737 0.013666
O O7 0.798623 0.847077 0.559532
O O8 0.372984 0.584899 0.734872
O O9 0.552951 0.810147 0.706177
O O10 0.806818 0.341252 0.323781
O O11 0.083570 0.255082 0.636638
O O12 0.877418 0.044512 0.624702
O O13 0.250000 0.000000 0.154391
#
# Coordination Sequence:
#
# PCOD9421953 Si02
#       8
#     4   8   8   4   4   8   8   4
#     4  10  25  41  64  96 134 178 220 263 345 396
#     4  11  23  38  63  95 133 172 226 274 322 390
#     4  11  24  38  64  92 133 179 221 271 326 387
#     4  10  22  44  68  98 126 170 216 274 342 394
#     4  10  23  45  70  94 136 174 212 283 341 402
#     4  10  22  44  67  94 134 166 222 276 332 412
#     4  10  23  42  67  97 133 177 224 271 335 398
#     4  10  20  40  66  92 128 176 214 270 334 390
#
# _framework density 21.786269000000001
#
# number of rings (size 3 to 8) (size 9 to 14) (size 15 to 20)
#    0.000    1.667    0.833    3.000    9.333    1.333 
#    9.000    0.833    0.000    0.000    0.000    0.000 
#    0.000    0.000    0.000    0.000    0.000    0.000 
#
# Total GULP energy -267966.111651 kJ/mol
# GULP energy per Si atom -5582.627326 kJ/mol
# Density = 2.173668 g / cm^3
# Si number density = 21.786269 Si / 1000 Ang^3
#
#
#
# Elastic Constant Matrix: (Units=GPa)
#
#
# Indices 1 2 3 4 5 6 
#
# 1 82.0823 -10.1352 5.0293 0.0000 0.0000 0.0000
# 2 -10.1352 41.7318 20.7988 0.0000 0.0000 0.0000
# 3 5.0293 20.7988 72.9927 0.0000 0.0000 0.0000
# 4 0.0000 0.0000 0.0000 -122.1214 0.0000 0.0000
# 5 0.0000 0.0000 0.0000 0.0000 11.1725 0.0000
# 6 0.0000 0.0000 0.0000 0.0000 0.0000 28.7044
#
#
#
# Elastic Compliance Matrix: (Units=1/GPa)
#
#
# Indices 1 2 3 4 5 6 
#
# 1 0.012821 0.004142 -0.002064 0.000000 0.000000 0.000000
# 2 0.004142 0.029267 -0.008625 0.000000 0.000000 0.000000
# 3 -0.002064 -0.008625 0.016300 0.000000 0.000000 0.000000
# 4 0.000000 0.000000 0.000000 -0.008189 0.000000 0.000000
# 5 0.000000 0.000000 0.000000 0.000000 0.089506 0.000000
# 6 0.000000 0.000000 0.000000 0.000000 0.000000 0.034838
#
#
# Mechanical properties :
#
#
# Convention : Reuss Voigt Hill
#
# Bulk Modulus (GPa) = 22.07746 25.35474 23.71610
# Shear Modulus (GPa) = 24.66291 -4.37464 10.14413
#
# Velocity S-wave (km/s) = 3.36823 -1.41857 2.16017
# Velocity P-wave (km/s) = 5.02815 2.99668 4.13898
#
# Compressibility (1/GPa) = 0.04529506
#
# Stress axis : x y z
#
# Youngs Moduli (GPa) = 77.99819 34.16809 61.35050
#
# Poissons Ratio (x) = -0.14153 0.12661
# Poissons Ratio (y) = -0.32309 0.52914
# Poissons Ratio (z) = 0.16096 0.29470
#
# Static dielectric constant tensor:
#      x y z
#    x 2.214080 0.000000 0.000000 
#    y 0.000000 1.890240 0.000000 
#    z 0.000000 0.000000 1.790700 
# 
# From -- ./inp_files/27856.got.cif
#   From: 2010.05.17/outbox.cif.g08.bks.cpg/sg54_14_cif.got.tgz:27856.got - 2010.06.03 13:09:01.
