data_PCOD9421541
_publ_section_title
;
Structure prediction by ZEFSAII (Michael W. Deem and Ramdas Pophale) SiO2 
 PCOD9421541
Probable space group: P C C A
;
_chemical_formula_sum "Si O2"
_cell_formula_units_Z 44
_cell_length_a 7.801349
_cell_length_b 18.567915
_cell_length_c 15.205793
_cell_angle_alpha 90.000000
_cell_angle_beta 90.000000
_cell_angle_gamma 90.000000
_cell_volume 2202.631878
_symmetry_space_group_name_H-M "P C C A"
_symmetry_group_IT_number 54
_symmetry_cell_setting 'orthorhombic'
loop_
_space_group_symop_operation_xyz
x,y,z
1/2-x,-y,z
1/2+x,-y,1/2-z
-x,y,1/2-z
-x,-y,-z
1/2+x,y,-z
1/2-x,y,1/2+z
x,-y,1/2+z
loop_
_atom_site_type_symbol
_atom_site_label
_atom_site_fract_x
_atom_site_fract_y
_atom_site_fract_z
Si Si1 0.062753 0.968735 0.591040
Si Si2 0.799481 0.315331 0.782213
Si Si3 0.346559 0.424189 0.066870
Si Si4 0.830733 0.845217 0.808343
Si Si5 0.000000 0.060769 0.750000
Si Si6 0.239138 0.579627 0.370526
O O1 0.098376 0.883609 0.602389
O O2 0.250000 0.000000 0.604174
O O3 0.000000 0.000000 0.500000
O O4 0.958463 0.007164 0.669173
O O5 0.770802 0.363404 0.869270
O O6 0.726536 0.237229 0.804692
O O7 0.719850 0.358885 0.699705
O O8 0.000000 0.309108 0.750000
O O9 0.250000 0.500000 0.082246
O O10 0.542975 0.421791 0.096740
O O11 0.341794 0.412558 0.961717
O O12 0.664947 0.889816 0.772998
O O13 0.000000 0.852201 0.750000
O O14 0.250000 0.500000 0.328549
#
# Coordination Sequence:
#
# PCOD9421541 Si02
#       6
#     8   8   8   8   4   8
#     4  10  23  40  67  97 123 166 207 262 318 387
#     4  10  22  41  58  85 130 166 208 265 327 376
#     4  10  20  36  59  86 122 165 216 265 312 378
#     4  11  23  40  67  91 123 171 202 263 327 377
#     4  10  22  46  64  88 136 154 214 268 304 394
#     4  10  20  36  60  86 119 168 211 269 314 371
#
# _framework density 19.976103999999999
#
# number of rings (size 3 to 8) (size 9 to 14) (size 15 to 20)
#    0.000    1.818    1.818    2.727    2.545    2.909 
#    3.273    0.000    0.000    0.000    0.000    0.000 
#    0.000    0.000    0.000    0.000    0.000    0.000 
#
# Total GULP energy -245092.212726 kJ/mol
# GULP energy per Si atom -5570.277562 kJ/mol
# Density = 1.993064 g / cm^3
# Si number density = 19.976104 Si / 1000 Ang^3
#
#
#
# Elastic Constant Matrix: (Units=GPa)
#
#
# Indices 1 2 3 4 5 6 
#
# 1 56.1296 29.9390 3.8311 0.0000 0.0000 0.0000
# 2 29.9390 187.7402 86.4116 0.0000 0.0000 0.0000
# 3 3.8311 86.4116 102.9467 0.0000 0.0000 0.0000
# 4 0.0000 0.0000 0.0000 28.7534 0.0000 0.0000
# 5 0.0000 0.0000 0.0000 0.0000 21.0061 0.0000
# 6 0.0000 0.0000 0.0000 0.0000 0.0000 24.4493
#
#
#
# Elastic Compliance Matrix: (Units=1/GPa)
#
#
# Indices 1 2 3 4 5 6 
#
# 1 0.020085 -0.004659 0.003163 0.000000 0.000000 0.000000
# 2 -0.004659 0.009761 -0.008020 0.000000 0.000000 0.000000
# 3 0.003163 -0.008020 0.016327 0.000000 0.000000 0.000000
# 4 0.000000 0.000000 0.000000 0.034779 0.000000 0.000000
# 5 0.000000 0.000000 0.000000 0.000000 0.047605 0.000000
# 6 0.000000 0.000000 0.000000 0.000000 0.000000 0.040901
#
#
# Mechanical properties :
#
#
# Convention : Reuss Voigt Hill
#
# Bulk Modulus (GPa) = 36.84250 65.24223 51.04236
# Shear Modulus (GPa) = 25.31187 29.95075 27.63131
#
# Velocity S-wave (km/s) = 3.56351 3.87632 3.72320
# Velocity P-wave (km/s) = 5.95103 7.26399 6.64004
#
# Compressibility (1/GPa) = 0.02714257
#
# Stress axis : x y z
#
# Youngs Moduli (GPa) = 49.78841 102.45252 61.24644
#
# Poissons Ratio (x) = 0.47731 -0.19373
# Poissons Ratio (y) = 0.23196 0.49117
# Poissons Ratio (z) = -0.15749 0.82162
#
# Static dielectric constant tensor:
#      x y z
#    x 1.733770 0.000000 0.000000 
#    y 0.000000 1.748680 0.000000 
#    z 0.000000 0.000000 1.688570 
# 
# From -- ./inp_files/11656.got.cif
#   From: 2010.05.17/outbox.cif.g08.bks.cpg/sg54_6_cif.got.tgz:11656.got - 2010.06.03 13:09:01.
