data_PCOD9421875
_publ_section_title
;
Structure prediction by ZEFSAII (Michael W. Deem and Ramdas Pophale) SiO2 
 PCOD9421875
Probable space group: P C C A
;
_chemical_formula_sum "Si O2"
_cell_formula_units_Z 36
_cell_length_a 15.048545
_cell_length_b 7.981692
_cell_length_c 15.627314
_cell_angle_alpha 90.000000
_cell_angle_beta 90.000000
_cell_angle_gamma 90.000000
_cell_volume 1877.041242
_symmetry_space_group_name_H-M "P C C A"
_symmetry_group_IT_number 54
_symmetry_cell_setting 'orthorhombic'
loop_
_space_group_symop_operation_xyz
x,y,z
1/2-x,-y,z
1/2+x,-y,1/2-z
-x,y,1/2-z
-x,-y,-z
1/2+x,y,-z
1/2-x,y,1/2+z
x,-y,1/2+z
loop_
_atom_site_type_symbol
_atom_site_label
_atom_site_fract_x
_atom_site_fract_y
_atom_site_fract_z
Si Si1 0.411142 0.668735 0.296955
Si Si2 0.976408 0.008373 0.100612
Si Si3 0.843165 0.090710 0.346921
Si Si4 0.313391 0.838226 0.958521
Si Si5 0.250000 0.500000 0.381882
O O1 0.500000 0.603196 0.250000
O O2 0.443128 0.808045 0.367372
O O3 0.358231 0.775250 0.226267
O O4 0.341653 0.534158 0.331416
O O5 0.067796 0.975932 0.151526
O O6 0.895438 0.878311 0.104822
O O7 0.000000 0.000000 0.000000
O O8 0.841717 0.169963 0.442000
O O9 0.750000 0.000000 0.334241
O O10 0.264626 0.668768 0.934967
O O11 0.250000 0.000000 0.951704
#
# Coordination Sequence:
#
# PCOD9421875 Si02
#       5
#     8   8   8   8   4
#     4  10  22  41  59  92 135 159 209 267 314 372
#     4   9  18  38  65  87 120 163 204 255 307 372
#     4   9  20  37  64  91 123 162 207 263 314 375
#     4  10  20  39  64  90 121 164 212 254 316 371
#     4  12  24  38  68  92 130 170 210 264 308 392
#
# _framework density 19.179120999999999
#
# number of rings (size 3 to 8) (size 9 to 14) (size 15 to 20)
#    0.000    2.222    2.222    0.000    3.111    0.889 
#    4.000   10.000    0.000    0.000    0.000    0.000 
#    0.000    0.000    0.000    0.000    0.000    0.000 
#
# Total GULP energy -200551.319422 kJ/mol
# GULP energy per Si atom -5570.869984 kJ/mol
# Density = 1.913547 g / cm^3
# Si number density = 19.179121 Si / 1000 Ang^3
#
#
#
# Elastic Constant Matrix: (Units=GPa)
#
#
# Indices 1 2 3 4 5 6 
#
# 1 106.2533 36.2009 38.5387 0.0000 0.0000 0.0000
# 2 36.2009 83.5163 40.3794 0.0000 0.0000 0.0000
# 3 38.5387 40.3794 61.9197 0.0000 0.0000 0.0000
# 4 0.0000 0.0000 0.0000 1.4241 0.0000 0.0000
# 5 0.0000 0.0000 0.0000 0.0000 20.0680 0.0000
# 6 0.0000 0.0000 0.0000 0.0000 0.0000 22.9062
#
#
#
# Elastic Compliance Matrix: (Units=1/GPa)
#
#
# Indices 1 2 3 4 5 6 
#
# 1 0.012481 -0.002416 -0.006193 0.000000 0.000000 0.000000
# 2 -0.002416 0.017955 -0.010205 0.000000 0.000000 0.000000
# 3 -0.006193 -0.010205 0.026659 0.000000 0.000000 0.000000
# 4 0.000000 0.000000 0.000000 0.702196 0.000000 0.000000
# 5 0.000000 0.000000 0.000000 0.000000 0.049830 0.000000
# 6 0.000000 0.000000 0.000000 0.000000 0.000000 0.043656
#
#
# Mechanical properties :
#
#
# Convention : Reuss Voigt Hill
#
# Bulk Modulus (GPa) = 51.36724 53.54749 52.45736
# Shear Modulus (GPa) = 5.57479 17.98436 11.77958
#
# Velocity S-wave (km/s) = 1.70675 3.06552 2.48097
# Velocity P-wave (km/s) = 5.54302 6.36476 5.96805
#
# Compressibility (1/GPa) = 0.01946766
#
# Stress axis : x y z
#
# Youngs Moduli (GPa) = 80.12435 55.69457 37.51032
#
# Poissons Ratio (x) = 0.13455 0.23228
# Poissons Ratio (y) = 0.19356 0.38281
# Poissons Ratio (z) = 0.49617 0.56838
#
# Static dielectric constant tensor:
#      x y z
#    x 1.784440 0.000000 0.000000 
#    y 0.000000 1.647690 0.000000 
#    z 0.000000 0.000000 1.687280 
# 
# From -- ./inp_files/13867.got.cif
#   From: 2010.05.17/outbox.cif.g08.bks.cpg/sg54_7_cif.got.tgz:13867.got - 2010.06.03 13:09:01.
