data_PCOD9421516
_publ_section_title
;
Structure prediction by ZEFSAII (Michael W. Deem and Ramdas Pophale) SiO2 
 PCOD9421516
Probable space group: P C C A
;
_chemical_formula_sum "Si O2"
_cell_formula_units_Z 32
_cell_length_a 16.418677
_cell_length_b 5.071168
_cell_length_c 19.703220
_cell_angle_alpha 90.000000
_cell_angle_beta 90.000000
_cell_angle_gamma 90.000000
_cell_volume 1640.526930
_symmetry_space_group_name_H-M "P C C A"
_symmetry_group_IT_number 54
_symmetry_cell_setting 'orthorhombic'
loop_
_space_group_symop_operation_xyz
x,y,z
1/2-x,-y,z
1/2+x,-y,1/2-z
-x,y,1/2-z
-x,-y,-z
1/2+x,y,-z
1/2-x,y,1/2+z
x,-y,1/2+z
loop_
_atom_site_type_symbol
_atom_site_label
_atom_site_fract_x
_atom_site_fract_y
_atom_site_fract_z
Si Si1 0.690753 0.250403 0.476067
Si Si2 0.406358 0.113378 0.742423
Si Si3 0.309389 0.750817 0.374914
Si Si4 0.156886 0.393527 0.668597
O O1 0.750000 0.500000 0.480310
O O2 0.649895 0.242049 0.550142
O O3 0.639745 0.294075 0.407950
O O4 0.750000 0.000000 0.466657
O O5 0.500000 0.035946 0.750000
O O6 0.371029 0.220887 0.813220
O O7 0.396620 0.356954 0.690499
O O8 0.356696 0.857792 0.716926
O O9 0.250000 0.500000 0.367157
O O10 0.250000 0.000000 0.373296
O O11 0.250000 0.500000 0.672297
#
# Coordination Sequence:
#
# PCOD9421516 Si02
#       4
#     8   8   8   8
#     4   9  18  33  56  84 106 133 185 241 275 316
#     4  12  24  37  54  85 120 149 182 228 278 330
#     4  10  20  36  58  81 108 144 186 230 277 328
#     4  11  21  38  61  82 106 146 192 231 272 328
#
# _framework density 19.505928000000001
#
# number of rings (size 3 to 8) (size 9 to 14) (size 15 to 20)
#    0.000    1.500    0.000    8.250    0.000    0.000 
#    0.000    2.500    0.000    0.000    0.000    0.000 
#    0.000    0.000    0.000    0.000    0.000    0.000 
#
# Total GULP energy -178640.902152 kJ/mol
# GULP energy per Si atom -5582.528192 kJ/mol
# Density = 1.946153 g / cm^3
# Si number density = 19.505928 Si / 1000 Ang^3
#
#
#
# Elastic Constant Matrix: (Units=GPa)
#
#
# Indices 1 2 3 4 5 6 
#
# 1 50.9363 16.5005 51.9597 0.0000 0.0000 0.0000
# 2 16.5005 144.7093 38.7921 0.0000 0.0000 0.0000
# 3 51.9597 38.7921 160.5016 0.0000 0.0000 0.0000
# 4 0.0000 0.0000 0.0000 189.6135 0.0000 0.0000
# 5 0.0000 0.0000 0.0000 0.0000 -4.4494 0.0000
# 6 0.0000 0.0000 0.0000 0.0000 0.0000 18.8889
#
#
#
# Elastic Compliance Matrix: (Units=1/GPa)
#
#
# Indices 1 2 3 4 5 6 
#
# 1 0.029411 -0.000857 -0.009314 0.000000 0.000000 0.000000
# 2 -0.000857 0.007414 -0.001515 0.000000 0.000000 0.000000
# 3 -0.009314 -0.001515 0.009612 0.000000 0.000000 0.000000
# 4 0.000000 0.000000 0.000000 0.005274 0.000000 0.000000
# 5 0.000000 0.000000 0.000000 0.000000 -0.224750 0.000000
# 6 0.000000 0.000000 0.000000 0.000000 0.000000 0.052941
#
#
# Mechanical properties :
#
#
# Convention : Reuss Voigt Hill
#
# Bulk Modulus (GPa) = 43.35380 63.40576 53.37978
# Shear Modulus (GPa) = -56.15635 57.40359 0.62362
#
# Velocity S-wave (km/s) = -5.37139 5.43072 0.56604
# Velocity P-wave (km/s) = 4.02430 8.47939 5.27755
#
# Compressibility (1/GPa) = 0.02306603
#
# Stress axis : x y z
#
# Youngs Moduli (GPa) = 34.00039 134.87802 104.03765
#
# Poissons Ratio (x) = 0.11556 0.96905
# Poissons Ratio (y) = 0.02913 0.15757
# Poissons Ratio (z) = 0.31669 0.20428
#
# Static dielectric constant tensor:
#      x y z
#    x 1.629140 0.000000 0.000000 
#    y 0.000000 1.660880 0.000000 
#    z 0.000000 0.000000 1.782010 
# 
# From -- ./inp_files/17678.got.cif
#   From: 2010.05.17/outbox.cif.g08.bks.cpg/sg54_9_cif.got.tgz:17678.got - 2010.06.03 13:09:01.
