data_PCOD9421403
_publ_section_title
;
Structure prediction by ZEFSAII (Michael W. Deem and Ramdas Pophale) SiO2 
 PCOD9421403
Probable space group: P C C A
;
_chemical_formula_sum "Si O2"
_cell_formula_units_Z 40
_cell_length_a 4.900905
_cell_length_b 12.442714
_cell_length_c 33.173269
_cell_angle_alpha 90.000000
_cell_angle_beta 90.000000
_cell_angle_gamma 90.000000
_cell_volume 2022.924496
_symmetry_space_group_name_H-M "P C C A"
_symmetry_group_IT_number 54
_symmetry_cell_setting 'orthorhombic'
loop_
_space_group_symop_operation_xyz
x,y,z
1/2-x,-y,z
1/2+x,-y,1/2-z
-x,y,1/2-z
-x,-y,-z
1/2+x,y,-z
1/2-x,y,1/2+z
x,-y,1/2+z
loop_
_atom_site_type_symbol
_atom_site_label
_atom_site_fract_x
_atom_site_fract_y
_atom_site_fract_z
Si Si1 0.888770 0.714259 0.391500
Si Si2 0.797713 0.623177 0.972595
Si Si3 0.505556 0.072530 0.155634
Si Si4 0.118562 0.617006 0.850525
Si Si5 0.252127 0.227196 0.277924
O O1 0.789553 0.701338 0.436950
O O2 0.891403 0.834192 0.373653
O O3 0.690380 0.637453 0.364768
O O4 0.195485 0.673462 0.384708
O O5 0.750000 0.500000 0.958039
O O6 0.602807 0.635627 0.011426
O O7 0.635035 0.131632 0.194237
O O8 0.250000 0.000000 0.167316
O O9 0.750000 0.000000 0.137699
O O10 0.250000 0.500000 0.846485
O O11 0.158834 0.681048 0.808970
O O12 0.500000 0.265437 0.250000
O O13 0.000000 0.194650 0.250000
#
# Coordination Sequence:
#
# PCOD9421403 Si02
#       5
#     8   8   8   8   8
#     4  11  22  39  60  85 118 151 194 239 278 343
#     4  10  20  34  57  89 120 149 180 222 282 342
#     4  11  23  41  62  83 109 151 200 247 298 341
#     4  11  22  37  59  84 115 157 193 227 282 350
#     4  11  23  39  57  84 115 144 189 243 293 345
#
# _framework density 19.773353
#
# number of rings (size 3 to 8) (size 9 to 14) (size 15 to 20)
#    0.000    1.200    0.000    9.000    0.000    4.000 
#    0.000    2.000    0.000    3.600    0.000    0.000 
#    0.000    0.000    0.000    0.000    0.000    0.000 
#
# Total GULP energy -223577.561587 kJ/mol
# GULP energy per Si atom -5589.439040 kJ/mol
# Density = 1.972835 g / cm^3
# Si number density = 19.773353 Si / 1000 Ang^3
#
#
#
# Elastic Constant Matrix: (Units=GPa)
#
#
# Indices 1 2 3 4 5 6 
#
# 1 75.9611 1.4312 10.2809 0.0000 0.0000 0.0000
# 2 1.4312 78.4274 31.7500 0.0000 0.0000 0.0000
# 3 10.2809 31.7500 84.1570 0.0000 0.0000 0.0000
# 4 0.0000 0.0000 0.0000 1.2236 0.0000 0.0000
# 5 0.0000 0.0000 0.0000 0.0000 6.1391 0.0000
# 6 0.0000 0.0000 0.0000 0.0000 0.0000 32.1295
#
#
#
# Elastic Compliance Matrix: (Units=1/GPa)
#
#
# Indices 1 2 3 4 5 6 
#
# 1 0.013402 0.000494 -0.001823 0.000000 0.000000 0.000000
# 2 0.000494 0.015067 -0.005745 0.000000 0.000000 0.000000
# 3 -0.001823 -0.005745 0.014273 0.000000 0.000000 0.000000
# 4 0.000000 0.000000 0.000000 0.817230 0.000000 0.000000
# 5 0.000000 0.000000 0.000000 0.000000 0.162890 0.000000
# 6 0.000000 0.000000 0.000000 0.000000 0.000000 0.031124
#
#
# Mechanical properties :
#
#
# Convention : Reuss Voigt Hill
#
# Bulk Modulus (GPa) = 34.97377 36.16331 35.56854
# Shear Modulus (GPa) = 4.63966 20.90401 12.77183
#
# Velocity S-wave (km/s) = 1.53346 3.25496 2.54424
# Velocity P-wave (km/s) = 4.56739 5.69693 5.16314
#
# Compressibility (1/GPa) = 0.02859285
#
# Stress axis : x y z
#
# Youngs Moduli (GPa) = 74.61503 66.36881 70.06404
#
# Poissons Ratio (x) = -0.03276 0.12776
# Poissons Ratio (y) = -0.03683 0.40250
# Poissons Ratio (z) = 0.13606 0.38127
#
# Static dielectric constant tensor:
#      x y z
#    x 1.688230 0.000000 0.000000 
#    y 0.000000 1.704880 0.000000 
#    z 0.000000 0.000000 1.689540 
# 
# From -- ./inp_files/27049.got.cif
#   From: 2010.05.17/outbox.cif.g08.bks.cpg/sg54_14_cif.got.tgz:27049.got - 2010.06.03 13:09:01.
