data_PCOD9421189
_publ_section_title
;
Structure prediction by ZEFSAII (Michael W. Deem and Ramdas Pophale) SiO2 
 PCOD9421189
Probable space group: P C C A
;
_chemical_formula_sum "Si O2"
_cell_formula_units_Z 40
_cell_length_a 8.664308
_cell_length_b 10.608062
_cell_length_c 22.134838
_cell_angle_alpha 90.000000
_cell_angle_beta 90.000000
_cell_angle_gamma 90.000000
_cell_volume 2034.446527
_symmetry_space_group_name_H-M "P C C A"
_symmetry_group_IT_number 54
_symmetry_cell_setting 'orthorhombic'
loop_
_space_group_symop_operation_xyz
x,y,z
1/2-x,-y,z
1/2+x,-y,1/2-z
-x,y,1/2-z
-x,-y,-z
1/2+x,y,-z
1/2-x,y,1/2+z
x,-y,1/2+z
loop_
_atom_site_type_symbol
_atom_site_label
_atom_site_fract_x
_atom_site_fract_y
_atom_site_fract_z
Si Si1 0.169631 0.291730 0.095426
Si Si2 0.372990 0.592079 0.969650
Si Si3 0.934593 0.968576 0.933919
Si Si4 0.493260 0.209200 0.371753
Si Si5 0.250000 0.500000 0.682180
Si Si6 0.000000 0.332763 0.750000
O O1 0.050415 0.177069 0.086450
O O2 0.322981 0.233926 0.124631
O O3 0.143723 0.413114 0.137787
O O4 0.201985 0.339274 0.027629
O O5 0.250000 0.500000 0.939192
O O6 0.428255 0.696695 0.922815
O O7 0.500000 0.500000 0.000000
O O8 0.750000 0.000000 0.935517
O O9 0.022720 0.064107 0.889629
O O10 0.000000 0.000000 0.000000
O O11 0.439816 0.248480 0.305599
O O12 0.363944 0.581514 0.723047
#
# Coordination Sequence:
#
# PCOD9421189 Si02
#       6
#     8   8   8   8   4   4
#     4  10  19  37  57  83 118 146 186 240 305 345
#     4  12  20  31  54  87 114 142 182 239 297 339
#     4  10  20  35  58  85 114 153 187 235 297 354
#     4  10  21  37  57  82 116 155 191 235 285 355
#     4  10  20  40  58  82 114 158 194 248 292 352
#     4  10  22  40  56  80 116 156 196 230 288 354
#
# _framework density 19.661366999999998
#
# number of rings (size 3 to 8) (size 9 to 14) (size 15 to 20)
#    0.000    1.600    5.000    1.200    1.400    0.000 
#    0.000    1.000    0.000    3.600    0.000    0.000 
#    0.000    0.000    0.000    0.000    0.000    0.000 
#
# Total GULP energy -223004.174463 kJ/mol
# GULP energy per Si atom -5575.104362 kJ/mol
# Density = 1.961662 g / cm^3
# Si number density = 19.661367 Si / 1000 Ang^3
#
#
#
# Elastic Constant Matrix: (Units=GPa)
#
#
# Indices 1 2 3 4 5 6 
#
# 1 27.7947 25.5507 18.1877 0.0000 0.0000 0.0000
# 2 25.5507 147.0895 71.9255 0.0000 0.0000 0.0000
# 3 18.1877 71.9255 145.4517 0.0000 0.0000 0.0000
# 4 0.0000 0.0000 0.0000 25.4514 0.0000 0.0000
# 5 0.0000 0.0000 0.0000 0.0000 27.2431 0.0000
# 6 0.0000 0.0000 0.0000 0.0000 0.0000 21.2748
#
#
#
# Elastic Compliance Matrix: (Units=1/GPa)
#
#
# Indices 1 2 3 4 5 6 
#
# 1 0.043361 -0.006437 -0.002239 0.000000 0.000000 0.000000
# 2 -0.006437 0.009923 -0.004102 0.000000 0.000000 0.000000
# 3 -0.002239 -0.004102 0.009183 0.000000 0.000000 0.000000
# 4 0.000000 0.000000 0.000000 0.039291 0.000000 0.000000
# 5 0.000000 0.000000 0.000000 0.000000 0.036707 0.000000
# 6 0.000000 0.000000 0.000000 0.000000 0.000000 0.047004
#
#
# Mechanical properties :
#
#
# Convention : Reuss Voigt Hill
#
# Bulk Modulus (GPa) = 27.09225 61.29595 44.19410
# Shear Modulus (GPa) = 22.38872 28.43866 25.41369
#
# Velocity S-wave (km/s) = 3.37815 3.80731 3.59913
# Velocity P-wave (km/s) = 5.38750 7.11133 6.30857
#
# Compressibility (1/GPa) = 0.03691092
#
# Stress axis : x y z
#
# Youngs Moduli (GPa) = 23.06240 100.78094 108.89281
#
# Poissons Ratio (x) = 0.64877 0.24377
# Poissons Ratio (y) = 0.14846 0.44665
# Poissons Ratio (z) = 0.05163 0.41337
#
# Static dielectric constant tensor:
#      x y z
#    x 1.727000 0.000000 0.000000 
#    y 0.000000 1.782490 0.000000 
#    z 0.000000 0.000000 1.664590 
# 
# From -- ./inp_files/20324.got.cif
#   From: 2010.05.17/outbox.cif.g08.bks.cpg/sg54_11_cif.got.tgz:20324.got - 2010.06.03 13:09:01.
