data_PCOD9421686
_publ_section_title
;
Structure prediction by ZEFSAII (Michael W. Deem and Ramdas Pophale) SiO2 
 PCOD9421686
Probable space group: P C C A
;
_chemical_formula_sum "Si O2"
_cell_formula_units_Z 60
_cell_length_a 9.441493
_cell_length_b 14.183205
_cell_length_c 22.431766
_cell_angle_alpha 90.000000
_cell_angle_beta 90.000000
_cell_angle_gamma 90.000000
_cell_volume 3003.851933
_symmetry_space_group_name_H-M "P C C A"
_symmetry_group_IT_number 54
_symmetry_cell_setting 'orthorhombic'
loop_
_space_group_symop_operation_xyz
x,y,z
1/2-x,-y,z
1/2+x,-y,1/2-z
-x,y,1/2-z
-x,-y,-z
1/2+x,y,-z
1/2-x,y,1/2+z
x,-y,1/2+z
loop_
_atom_site_type_symbol
_atom_site_label
_atom_site_fract_x
_atom_site_fract_y
_atom_site_fract_z
Si Si1 0.912477 0.805959 0.435803
Si Si2 0.250000 0.500000 0.002071
Si Si3 0.883044 0.059321 0.698867
Si Si4 0.905475 0.780460 0.954464
Si Si5 0.053938 0.744505 0.318042
Si Si6 0.091312 0.468038 0.810264
Si Si7 0.591119 0.988685 0.400181
Si Si8 0.991819 0.410312 0.077428
O O1 0.762087 0.765590 0.454242
O O2 0.033819 0.769609 0.479142
O O3 0.939830 0.778236 0.367185
O O4 0.911205 0.919594 0.442784
O O5 0.350065 0.434528 0.960417
O O6 0.132378 0.446753 0.042303
O O7 0.840508 0.166266 0.681338
O O8 0.000000 0.066424 0.750000
O O9 0.750000 0.000000 0.718418
O O10 0.963351 0.007755 0.644905
O O11 0.924855 0.886760 0.929843
O O12 0.984655 0.701334 0.915823
O O13 0.100248 0.639635 0.333927
O O14 0.000000 0.737404 0.250000
O O15 0.250000 0.500000 0.797191
O O16 0.000000 0.471435 0.750000
O O17 0.023763 0.533767 0.860931
O O18 0.750000 0.000000 0.372360
#
# Coordination Sequence:
#
# PCOD9421686 Si02
#       8
#     8   4   8   8   8   8   8   8
#     4  10  22  39  64  92 128 167 204 254 314 379
#     4  10  24  42  62  90 126 162 204 272 312 362
#     4  10  20  37  62  90 119 161 206 257 308 368
#     4  11  23  36  62  96 126 166 206 254 311 377
#     4   9  22  43  66  87 119 164 209 250 313 374
#     4  11  26  45  66  90 124 165 210 264 317 377
#     4   9  20  39  56  86 130 164 202 252 310 374
#     4  11  24  41  64  91 126 162 216 258 316 368
#
# _framework density 19.974353000000001
#
# number of rings (size 3 to 8) (size 9 to 14) (size 15 to 20)
#    0.000    1.867    0.667    1.600    6.533    6.400 
#    0.000    2.000    0.000    0.000    0.000    0.000 
#    0.000    0.000    0.000    0.000    0.000    0.000 
#
# Total GULP energy -334662.729874 kJ/mol
# GULP energy per Si atom -5577.712165 kJ/mol
# Density = 1.992889 g / cm^3
# Si number density = 19.974353 Si / 1000 Ang^3
#
#
#
# Elastic Constant Matrix: (Units=GPa)
#
#
# Indices 1 2 3 4 5 6 
#
# 1 110.2326 62.0699 39.6951 0.0000 0.0000 0.0000
# 2 62.0699 135.0706 46.9271 0.0000 0.0000 0.0000
# 3 39.6951 46.9271 91.4205 0.0000 0.0000 0.0000
# 4 0.0000 0.0000 0.0000 20.7384 0.0000 0.0000
# 5 0.0000 0.0000 0.0000 0.0000 27.1679 0.0000
# 6 0.0000 0.0000 0.0000 0.0000 0.0000 13.8094
#
#
#
# Elastic Compliance Matrix: (Units=1/GPa)
#
#
# Indices 1 2 3 4 5 6 
#
# 1 0.012931 -0.004858 -0.003121 0.000000 0.000000 0.000000
# 2 -0.004858 0.010835 -0.003453 0.000000 0.000000 0.000000
# 3 -0.003121 -0.003453 0.014066 0.000000 0.000000 0.000000
# 4 0.000000 0.000000 0.000000 0.048220 0.000000 0.000000
# 5 0.000000 0.000000 0.000000 0.000000 0.036808 0.000000
# 6 0.000000 0.000000 0.000000 0.000000 0.000000 0.072415
#
#
# Mechanical properties :
#
#
# Convention : Reuss Voigt Hill
#
# Bulk Modulus (GPa) = 66.80405 70.45643 68.63024
# Shear Modulus (GPa) = 22.40868 24.87858 23.64363
#
# Velocity S-wave (km/s) = 3.35307 3.53303 3.44423
# Velocity P-wave (km/s) = 6.96479 7.21062 7.08877
#
# Compressibility (1/GPa) = 0.01496915
#
# Stress axis : x y z
#
# Youngs Moduli (GPa) = 77.33319 92.28941 71.09386
#
# Poissons Ratio (x) = 0.44834 0.22189
# Poissons Ratio (y) = 0.37568 0.24546
# Poissons Ratio (z) = 0.24136 0.31864
#
# Static dielectric constant tensor:
#      x y z
#    x 1.685460 0.000000 0.000000 
#    y 0.000000 1.752090 0.000000 
#    z 0.000000 0.000000 1.707380 
# 
# From -- ./inp_files/23635.got.cif
#   From: 2010.05.17/outbox.cif.g08.bks.cpg/sg54_12_cif.got.tgz:23635.got - 2010.06.03 13:09:01.
