data_PCOD9421457
_publ_section_title
;
Structure prediction by ZEFSAII (Michael W. Deem and Ramdas Pophale) SiO2 
 PCOD9421457
Probable space group: P C C A
;
_chemical_formula_sum "Si O2"
_cell_formula_units_Z 40
_cell_length_a 5.139153
_cell_length_b 18.611909
_cell_length_c 20.260890
_cell_angle_alpha 90.000000
_cell_angle_beta 90.000000
_cell_angle_gamma 90.000000
_cell_volume 1937.942944
_symmetry_space_group_name_H-M "P C C A"
_symmetry_group_IT_number 54
_symmetry_cell_setting 'orthorhombic'
loop_
_space_group_symop_operation_xyz
x,y,z
1/2-x,-y,z
1/2+x,-y,1/2-z
-x,y,1/2-z
-x,-y,-z
1/2+x,y,-z
1/2-x,y,1/2+z
x,-y,1/2+z
loop_
_atom_site_type_symbol
_atom_site_label
_atom_site_fract_x
_atom_site_fract_y
_atom_site_fract_z
Si Si1 0.133873 0.273042 0.318498
Si Si2 0.381534 0.424786 0.323380
Si Si3 0.226410 0.081007 0.042578
Si Si4 0.633618 0.772981 0.891956
Si Si5 0.926503 0.629089 0.458237
O O1 0.183979 0.358073 0.319666
O O2 0.411100 0.237436 0.336255
O O3 0.000000 0.251704 0.250000
O O4 0.918039 0.254074 0.371657
O O5 0.250000 0.500000 0.338673
O O6 0.500000 0.429433 0.250000
O O7 0.568419 0.403619 0.384376
O O8 0.324365 0.145070 0.088299
O O9 0.250000 0.000000 0.069621
O O10 0.427998 0.087452 0.980986
O O11 0.552031 0.715819 0.948133
O O12 0.677045 0.607572 0.499817
#
# Coordination Sequence:
#
# PCOD9421457 Si02
#       5
#     8   8   8   8   8
#     4  11  22  39  61  88 117 156 211 259 302 359
#     4  11  25  43  67  92 124 166 213 263 316 378
#     4  10  20  35  58  90 124 157 197 246 303 370
#     4  11  21  37  62  88 123 163 200 249 306 372
#     4  11  23  40  62  91 125 161 203 254 312 368
#
# _framework density 20.640443999999999
#
# number of rings (size 3 to 8) (size 9 to 14) (size 15 to 20)
#    0.000    1.200    0.000    8.400    0.000    2.400 
#    0.000    0.000    0.000    2.400    0.000    1.400 
#    0.000    0.000    0.000    0.000    0.000    0.000 
#
# Total GULP energy -223535.882307 kJ/mol
# GULP energy per Si atom -5588.397058 kJ/mol
# Density = 2.059347 g / cm^3
# Si number density = 20.640444 Si / 1000 Ang^3
#
#
#
# Elastic Constant Matrix: (Units=GPa)
#
#
# Indices 1 2 3 4 5 6 
#
# 1 89.3273 24.8295 7.0538 0.0000 0.0000 0.0000
# 2 24.8295 141.1573 20.4228 0.0000 0.0000 0.0000
# 3 7.0538 20.4228 60.6851 0.0000 0.0000 0.0000
# 4 0.0000 0.0000 0.0000 -178.0948 0.0000 0.0000
# 5 0.0000 0.0000 0.0000 0.0000 41.0936 0.0000
# 6 0.0000 0.0000 0.0000 0.0000 0.0000 25.1515
#
#
#
# Elastic Compliance Matrix: (Units=1/GPa)
#
#
# Indices 1 2 3 4 5 6 
#
# 1 0.011799 -0.001973 -0.000707 0.000000 0.000000 0.000000
# 2 -0.001973 0.007777 -0.002388 0.000000 0.000000 0.000000
# 3 -0.000707 -0.002388 0.017364 0.000000 0.000000 0.000000
# 4 0.000000 0.000000 0.000000 -0.005615 0.000000 0.000000
# 5 0.000000 0.000000 0.000000 0.000000 0.024335 0.000000
# 6 0.000000 0.000000 0.000000 0.000000 0.000000 0.039759
#
#
# Mechanical properties :
#
#
# Convention : Reuss Voigt Hill
#
# Bulk Modulus (GPa) = 37.30861 43.97576 40.64219
# Shear Modulus (GPa) = 43.67178 -6.44571 18.61303
#
# Velocity S-wave (km/s) = 4.60481 -1.76908 3.00621
# Velocity P-wave (km/s) = 6.81081 4.14476 5.63765
#
# Compressibility (1/GPa) = 0.02680346
#
# Stress axis : x y z
#
# Youngs Moduli (GPa) = 84.75219 128.58690 57.58929
#
# Poissons Ratio (x) = 0.25372 0.04074
# Poissons Ratio (y) = 0.16722 0.13751
# Poissons Ratio (z) = 0.05996 0.30705
#
# Static dielectric constant tensor:
#      x y z
#    x 1.785090 0.000000 0.000000 
#    y 0.000000 1.658710 0.000000 
#    z 0.000000 0.000000 1.781240 
# 
# From -- ./inp_files/15789.got.cif
#   From: 2010.05.17/outbox.cif.g08.bks.cpg/sg54_8_cif.got.tgz:15789.got - 2010.06.03 13:09:01.
