data_PCOD9421827
_publ_section_title
;
Structure prediction by ZEFSAII (Michael W. Deem and Ramdas Pophale) SiO2 
 PCOD9421827
Probable space group: P C C A
;
_chemical_formula_sum "Si O2"
_cell_formula_units_Z 40
_cell_length_a 9.394976
_cell_length_b 14.083413
_cell_length_c 11.543656
_cell_angle_alpha 90.000000
_cell_angle_beta 90.000000
_cell_angle_gamma 90.000000
_cell_volume 1527.379533
_symmetry_space_group_name_H-M "P C C A"
_symmetry_group_IT_number 54
_symmetry_cell_setting 'orthorhombic'
loop_
_space_group_symop_operation_xyz
x,y,z
1/2-x,-y,z
1/2+x,-y,1/2-z
-x,y,1/2-z
-x,-y,-z
1/2+x,y,-z
1/2-x,y,1/2+z
x,-y,1/2+z
loop_
_atom_site_type_symbol
_atom_site_label
_atom_site_fract_x
_atom_site_fract_y
_atom_site_fract_z
Si Si1 0.750000 0.500000 0.367834
Si Si2 0.500000 0.699590 0.750000
Si Si3 0.000000 0.394289 0.250000
Si Si4 0.548983 0.610270 0.993037
Si Si5 0.000000 0.991586 0.750000
Si Si6 0.001280 0.108112 0.448194
Si Si7 0.689527 0.844375 0.855358
O O1 0.631221 0.538640 0.281361
O O2 0.789391 0.590038 0.449477
O O3 0.480897 0.648740 0.873618
O O4 0.644072 0.762265 0.767755
O O5 0.030715 0.346466 0.377209
O O6 0.500000 0.500000 0.000000
O O7 0.118589 0.061093 0.698662
O O8 0.916632 0.917504 0.668364
O O9 0.844999 0.140996 0.409153
O O10 0.085451 0.173553 0.534225
O O11 0.000000 0.000000 0.500000
#
# Coordination Sequence:
#
# PCOD9421827 Si02
#       7
#     4   4   4   8   4   8   8
#     4  10  20  40  74 114 138 180 264 346 408 490
#     4  11  25  48  70 101 165 208 254 349 427 482
#     4  10  21  40  70 110 141 180 264 322 405 486
#     4  10  21  42  73 103 142 199 271 339 413 494
#     4   9  18  34  68  97 136 182 246 295 350 454
#     4  10  20  38  67 105 145 193 260 311 366 482
#     4  10  23  41  65 107 148 203 248 317 417 457
#
# _framework density 26.188644
#
# number of rings (size 3 to 8) (size 9 to 14) (size 15 to 20)
#    0.000    2.000    0.000    5.400    0.000    9.600 
#   10.800    1.000    0.000    0.000    0.000    0.000 
#    0.000    0.000    0.000    0.000    0.000    0.000 
#
# Total GULP energy -222753.214439 kJ/mol
# GULP energy per Si atom -5568.830361 kJ/mol
# Density = 2.612904 g / cm^3
# Si number density = 26.188644 Si / 1000 Ang^3
#
#
#
# Elastic Constant Matrix: (Units=GPa)
#
#
# Indices 1 2 3 4 5 6 
#
# 1 153.9568 30.4490 64.0837 0.0000 0.0000 0.0000
# 2 30.4490 71.1744 69.3996 0.0000 0.0000 0.0000
# 3 64.0837 69.3996 223.4813 0.0000 0.0000 0.0000
# 4 0.0000 0.0000 0.0000 68.3079 0.0000 0.0000
# 5 0.0000 0.0000 0.0000 0.0000 51.3767 0.0000
# 6 0.0000 0.0000 0.0000 0.0000 0.0000 31.9815
#
#
#
# Elastic Compliance Matrix: (Units=1/GPa)
#
#
# Indices 1 2 3 4 5 6 
#
# 1 0.007500 -0.001594 -0.001655 0.000000 0.000000 0.000000
# 2 -0.001594 0.020491 -0.005906 0.000000 0.000000 0.000000
# 3 -0.001655 -0.005906 0.006783 0.000000 0.000000 0.000000
# 4 0.000000 0.000000 0.000000 0.014640 0.000000 0.000000
# 5 0.000000 0.000000 0.000000 0.000000 0.019464 0.000000
# 6 0.000000 0.000000 0.000000 0.000000 0.000000 0.031268
#
#
# Mechanical properties :
#
#
# Convention : Reuss Voigt Hill
#
# Bulk Modulus (GPa) = 60.74446 86.27523 73.50985
# Shear Modulus (GPa) = 40.34057 49.31190 44.82624
#
# Velocity S-wave (km/s) = 3.92903 4.34400 4.14172
# Velocity P-wave (km/s) = 6.62030 7.62730 7.14157
#
# Compressibility (1/GPa) = 0.01646241
#
# Stress axis : x y z
#
# Youngs Moduli (GPa) = 133.33832 48.80237 147.41834
#
# Poissons Ratio (x) = 0.07780 0.24405
# Poissons Ratio (y) = 0.21257 0.87066
# Poissons Ratio (z) = 0.22074 0.28823
#
# Static dielectric constant tensor:
#      x y z
#    x 2.238690 0.000000 0.000000 
#    y 0.000000 2.151550 0.000000 
#    z 0.000000 0.000000 2.706480 
# 
# From -- ./inp_files/6944.got.cif
#   From: 2010.05.17/outbox.cif.g08.bks.cpg/sg54_4_cif.got.tgz:6944.got - 2010.06.03 13:09:01.
