data_PCOD9421014
_publ_section_title
;
Structure prediction by ZEFSAII (Michael W. Deem and Ramdas Pophale) SiO2 
 PCOD9421014
Probable space group: P C C A
;
_chemical_formula_sum "Si O2"
_cell_formula_units_Z 44
_cell_length_a 7.759796
_cell_length_b 8.378555
_cell_length_c 32.955165
_cell_angle_alpha 90.000000
_cell_angle_beta 90.000000
_cell_angle_gamma 90.000000
_cell_volume 2142.608973
_symmetry_space_group_name_H-M "P C C A"
_symmetry_group_IT_number 54
_symmetry_cell_setting 'orthorhombic'
loop_
_space_group_symop_operation_xyz
x,y,z
1/2-x,-y,z
1/2+x,-y,1/2-z
-x,y,1/2-z
-x,-y,-z
1/2+x,y,-z
1/2-x,y,1/2+z
x,-y,1/2+z
loop_
_atom_site_type_symbol
_atom_site_label
_atom_site_fract_x
_atom_site_fract_y
_atom_site_fract_z
Si Si1 0.289317 0.819112 0.114454
Si Si2 0.907571 0.609860 0.711278
Si Si3 0.275569 0.685413 0.443893
Si Si4 0.250000 0.500000 0.165260
Si Si5 0.311423 0.173847 0.862465
Si Si6 0.824216 0.317948 0.467584
O O1 0.225861 0.662904 0.139082
O O2 0.493802 0.816931 0.121703
O O3 0.236808 0.787366 0.067611
O O4 0.250000 0.000000 0.127462
O O5 0.750000 0.500000 0.726341
O O6 0.815226 0.715677 0.676927
O O7 0.000000 0.692850 0.750000
O O8 0.070788 0.523091 0.689780
O O9 0.250000 0.500000 0.435037
O O10 0.212850 0.774341 0.403487
O O11 0.476945 0.689938 0.455321
O O12 0.186931 0.735825 0.485863
O O13 0.250000 0.000000 0.850712
O O14 0.750000 0.500000 0.465969
#
# Coordination Sequence:
#
# PCOD9421014 Si02
#       6
#     8   8   8   4   8   8
#     4  10  22  38  63  90 128 176 213 266 325 373
#     4  11  23  44  72  98 123 166 216 268 337 404
#     4  10  20  35  57  86 122 171 214 264 316 371
#     4  10  22  44  66  98 134 164 222 268 322 408
#     4  10  24  41  59  94 132 160 216 263 325 400
#     4  10  19  34  54  86 124 164 223 267 311 373
#
# _framework density 20.535712
#
# number of rings (size 3 to 8) (size 9 to 14) (size 15 to 20)
#    0.000    1.818    1.818    2.727    2.545    3.636 
#    0.000    8.182    0.000    0.000    0.000    0.000 
#    0.000    0.000    0.000    0.000    0.000    0.000 
#
# Total GULP energy -245055.519491 kJ/mol
# GULP energy per Si atom -5569.443625 kJ/mol
# Density = 2.048897 g / cm^3
# Si number density = 20.535712 Si / 1000 Ang^3
#
#
#
# Elastic Constant Matrix: (Units=GPa)
#
#
# Indices 1 2 3 4 5 6 
#
# 1 35.6473 19.4820 23.4628 0.0000 0.0000 0.0000
# 2 19.4820 79.6179 50.9769 0.0000 0.0000 0.0000
# 3 23.4628 50.9769 119.3666 0.0000 0.0000 0.0000
# 4 0.0000 0.0000 0.0000 4.8661 0.0000 0.0000
# 5 0.0000 0.0000 0.0000 0.0000 30.0485 0.0000
# 6 0.0000 0.0000 0.0000 0.0000 0.0000 27.1477
#
#
#
# Elastic Compliance Matrix: (Units=1/GPa)
#
#
# Indices 1 2 3 4 5 6 
#
# 1 0.033912 -0.005547 -0.004297 0.000000 0.000000 0.000000
# 2 -0.005547 0.018194 -0.006680 0.000000 0.000000 0.000000
# 3 -0.004297 -0.006680 0.012075 0.000000 0.000000 0.000000
# 4 0.000000 0.000000 0.000000 0.205505 0.000000 0.000000
# 5 0.000000 0.000000 0.000000 0.000000 0.033280 0.000000
# 6 0.000000 0.000000 0.000000 0.000000 0.000000 0.036836
#
#
# Mechanical properties :
#
#
# Convention : Reuss Voigt Hill
#
# Bulk Modulus (GPa) = 32.11913 46.94167 39.53040
# Shear Modulus (GPa) = 13.04712 21.79313 17.42012
#
# Velocity S-wave (km/s) = 2.52333 3.26119 2.91569
# Velocity P-wave (km/s) = 4.91570 6.09004 5.53411
#
# Compressibility (1/GPa) = 0.03113409
#
# Stress axis : x y z
#
# Youngs Moduli (GPa) = 29.48778 54.96291 82.81709
#
# Poissons Ratio (x) = 0.30488 0.35586
# Poissons Ratio (y) = 0.16357 0.55319
# Poissons Ratio (z) = 0.12671 0.36713
#
# Static dielectric constant tensor:
#      x y z
#    x 1.797410 0.000000 0.000000 
#    y 0.000000 1.724930 0.000000 
#    z 0.000000 0.000000 1.814330 
# 
# From -- ./inp_files/27612.got.cif
#   From: 2010.05.17/outbox.cif.g08.bks.cpg/sg54_14_cif.got.tgz:27612.got - 2010.06.03 13:09:01.
