data_PCOD9421096
_publ_section_title
;
Structure prediction by ZEFSAII (Michael W. Deem and Ramdas Pophale) SiO2 
 PCOD9421096
Probable space group: P C C A
;
_chemical_formula_sum "Si O2"
_cell_formula_units_Z 44
_cell_length_a 20.398069
_cell_length_b 6.153686
_cell_length_c 17.152262
_cell_angle_alpha 90.000000
_cell_angle_beta 90.000000
_cell_angle_gamma 90.000000
_cell_volume 2153.008728
_symmetry_space_group_name_H-M "P C C A"
_symmetry_group_IT_number 54
_symmetry_cell_setting 'orthorhombic'
loop_
_space_group_symop_operation_xyz
x,y,z
1/2-x,-y,z
1/2+x,-y,1/2-z
-x,y,1/2-z
-x,-y,-z
1/2+x,y,-z
1/2-x,y,1/2+z
x,-y,1/2+z
loop_
_atom_site_type_symbol
_atom_site_label
_atom_site_fract_x
_atom_site_fract_y
_atom_site_fract_z
Si Si1 0.935296 0.110983 0.034768
Si Si2 0.039480 0.562074 0.086215
Si Si3 0.750000 0.500000 0.886492
Si Si4 0.149079 0.188834 0.687916
Si Si5 0.553685 0.851175 0.681790
Si Si6 0.862779 0.191517 0.422690
O O1 0.936079 0.057073 0.125421
O O2 0.946224 0.354179 0.002391
O O3 0.876100 0.979953 0.992395
O O4 0.000000 0.000000 0.000000
O O5 0.092087 0.704271 0.135276
O O6 0.069481 0.322304 0.092841
O O7 0.973874 0.653174 0.128016
O O8 0.712006 0.670874 0.832435
O O9 0.695479 0.364999 0.935104
O O10 0.121409 0.198760 0.774730
O O11 0.154726 0.946847 0.654002
O O12 0.500000 0.893994 0.750000
#
# Coordination Sequence:
#
# PCOD9421096 Si02
#       6
#     8   8   4   8   8   8
#     4   9  18  33  53  80 112 142 180 228 281 339
#     4   8  17  33  53  81 110 141 183 227 276 337
#     4  10  20  36  56  78 106 146 202 238 276 340
#     4   9  18  34  55  79 108 147 188 232 280 334
#     4   9  17  33  52  79 118 147 176 223 285 345
#     4  10  19  35  59  79 105 147 190 237 284 337
#
# _framework density 20.436516999999998
#
# number of rings (size 3 to 8) (size 9 to 14) (size 15 to 20)
#    0.000    2.909    0.000    1.636    0.000    2.909 
#    0.000   38.182    0.000   10.909    0.000    0.000 
#    0.000    0.000    0.000    0.000    0.000    0.000 
#
# Total GULP energy -245027.704701 kJ/mol
# GULP energy per Si atom -5568.811470 kJ/mol
# Density = 2.039000 g / cm^3
# Si number density = 20.436517 Si / 1000 Ang^3
#
#
#
# Elastic Constant Matrix: (Units=GPa)
#
#
# Indices 1 2 3 4 5 6 
#
# 1 77.2148 30.4430 24.0566 0.0000 0.0000 0.0000
# 2 30.4430 107.7554 37.5376 0.0000 0.0000 0.0000
# 3 24.0566 37.5376 113.8644 0.0000 0.0000 0.0000
# 4 0.0000 0.0000 0.0000 16.5689 0.0000 0.0000
# 5 0.0000 0.0000 0.0000 0.0000 19.3869 0.0000
# 6 0.0000 0.0000 0.0000 0.0000 0.0000 42.8377
#
#
#
# Elastic Compliance Matrix: (Units=1/GPa)
#
#
# Indices 1 2 3 4 5 6 
#
# 1 0.014966 -0.003532 -0.001997 0.000000 0.000000 0.000000
# 2 -0.003532 0.011318 -0.002985 0.000000 0.000000 0.000000
# 3 -0.001997 -0.002985 0.010188 0.000000 0.000000 0.000000
# 4 0.000000 0.000000 0.000000 0.060354 0.000000 0.000000
# 5 0.000000 0.000000 0.000000 0.000000 0.051581 0.000000
# 6 0.000000 0.000000 0.000000 0.000000 0.000000 0.023344
#
#
# Mechanical properties :
#
#
# Convention : Reuss Voigt Hill
#
# Bulk Modulus (GPa) = 51.43236 53.65656 52.54446
# Shear Modulus (GPa) = 25.60662 29.54519 27.57590
#
# Velocity S-wave (km/s) = 3.54359 3.80637 3.67733
# Velocity P-wave (km/s) = 6.47798 6.75501 6.61795
#
# Compressibility (1/GPa) = 0.01944301
#
# Stress axis : x y z
#
# Youngs Moduli (GPa) = 66.81882 88.35446 98.15075
#
# Poissons Ratio (x) = 0.31210 0.19605
# Poissons Ratio (y) = 0.23603 0.29297
# Poissons Ratio (z) = 0.13346 0.26373
#
# Static dielectric constant tensor:
#      x y z
#    x 1.790840 0.000000 0.000000 
#    y 0.000000 1.802970 0.000000 
#    z 0.000000 0.000000 1.796480 
# 
# From -- ./inp_files/19023.got.cif
#   From: 2010.05.17/outbox.cif.g08.bks.cpg/sg54_10_cif.got.tgz:19023.got - 2010.06.03 13:09:01.
