data_PCOD9421484
_publ_section_title
;
Structure prediction by ZEFSAII (Michael W. Deem and Ramdas Pophale) SiO2 
 PCOD9421484
Probable space group: P C C A
;
_chemical_formula_sum "Si O2"
_cell_formula_units_Z 48
_cell_length_a 14.545246
_cell_length_b 8.605991
_cell_length_c 18.246238
_cell_angle_alpha 90.000000
_cell_angle_beta 90.000000
_cell_angle_gamma 90.000000
_cell_volume 2283.995762
_symmetry_space_group_name_H-M "P C C A"
_symmetry_group_IT_number 54
_symmetry_cell_setting 'orthorhombic'
loop_
_space_group_symop_operation_xyz
x,y,z
1/2-x,-y,z
1/2+x,-y,1/2-z
-x,y,1/2-z
-x,-y,-z
1/2+x,y,-z
1/2-x,y,1/2+z
x,-y,1/2+z
loop_
_atom_site_type_symbol
_atom_site_label
_atom_site_fract_x
_atom_site_fract_y
_atom_site_fract_z
Si Si1 0.194123 0.746342 0.645817
Si Si2 0.937263 0.669448 0.584321
Si Si3 0.646436 0.485729 0.720108
Si Si4 0.378178 0.510762 0.044357
Si Si5 0.484870 0.939690 0.163807
Si Si6 0.101585 0.258422 0.670140
O O1 0.163648 0.632558 0.712425
O O2 0.196499 0.632728 0.575276
O O3 0.113660 0.869990 0.640758
O O4 0.294823 0.809832 0.662046
O O5 0.923250 0.581686 0.661242
O O6 0.865170 0.588863 0.529175
O O7 0.032161 0.624165 0.543985
O O8 0.943356 0.849373 0.610670
O O9 0.750000 0.500000 0.688229
O O10 0.607978 0.644741 0.754379
O O11 0.403772 0.384966 0.106253
O O12 0.500000 0.901555 0.250000
O O13 0.473541 0.124983 0.160706
#
# Coordination Sequence:
#
# PCOD9421484 Si02
#       6
#     8   8   8   8   8   8
#     4   9  18  37  55  81 110 146 190 230 278 341
#     4  10  20  36  53  82 114 144 186 231 292 341
#     4   9  18  33  55  78 107 139 189 244 276 328
#     4   9  20  34  57  79 109 147 185 238 276 339
#     4  11  21  33  56  83 114 152 181 232 297 332
#     4  10  21  33  56  85 109 146 194 231 277 346
#
# _framework density 21.015802000000001
#
# number of rings (size 3 to 8) (size 9 to 14) (size 15 to 20)
#    0.000    2.333    1.667    2.000    2.333    2.000 
#    0.000    0.000    0.000    0.000    4.333    0.000 
#    0.000    0.000    0.000    0.000    0.000    0.000 
#
# Total GULP energy -267335.080600 kJ/mol
# GULP energy per Si atom -5569.480846 kJ/mol
# Density = 2.096797 g / cm^3
# Si number density = 21.015802 Si / 1000 Ang^3
#
#
#
# Elastic Constant Matrix: (Units=GPa)
#
#
# Indices 1 2 3 4 5 6 
#
# 1 38.3026 13.8100 8.7754 0.0000 0.0000 0.0000
# 2 13.8100 110.0176 35.9767 0.0000 0.0000 0.0000
# 3 8.7754 35.9767 86.0703 0.0000 0.0000 0.0000
# 4 0.0000 0.0000 0.0000 17.6013 0.0000 0.0000
# 5 0.0000 0.0000 0.0000 0.0000 20.4512 0.0000
# 6 0.0000 0.0000 0.0000 0.0000 0.0000 36.5539
#
#
#
# Elastic Compliance Matrix: (Units=1/GPa)
#
#
# Indices 1 2 3 4 5 6 
#
# 1 0.027529 -0.002940 -0.001578 0.000000 0.000000 0.000000
# 2 -0.002940 0.010842 -0.004232 0.000000 0.000000 0.000000
# 3 -0.001578 -0.004232 0.013548 0.000000 0.000000 0.000000
# 4 0.000000 0.000000 0.000000 0.056814 0.000000 0.000000
# 5 0.000000 0.000000 0.000000 0.000000 0.048897 0.000000
# 6 0.000000 0.000000 0.000000 0.000000 0.000000 0.027357
#
#
# Mechanical properties :
#
#
# Convention : Reuss Voigt Hill
#
# Bulk Modulus (GPa) = 29.05276 39.05720 34.05498
# Shear Modulus (GPa) = 23.36868 26.64314 25.00591
#
# Velocity S-wave (km/s) = 3.33822 3.56443 3.45318
# Velocity P-wave (km/s) = 5.35841 5.96366 5.66912
#
# Compressibility (1/GPa) = 0.03442014
#
# Stress axis : x y z
#
# Youngs Moduli (GPa) = 36.32492 92.22990 73.80942
#
# Poissons Ratio (x) = 0.27112 0.11648
# Poissons Ratio (y) = 0.10678 0.31239
# Poissons Ratio (z) = 0.05732 0.39035
#
# Static dielectric constant tensor:
#      x y z
#    x 1.884780 0.000000 0.000000 
#    y 0.000000 1.772280 0.000000 
#    z 0.000000 0.000000 1.770570 
# 
# From -- ./inp_files/18509.got.cif
#   From: 2010.05.17/outbox.cif.g08.bks.cpg/sg54_10_cif.got.tgz:18509.got - 2010.06.03 13:09:01.
