data_PCOD9421287
_publ_section_title
;
Structure prediction by ZEFSAII (Michael W. Deem and Ramdas Pophale) SiO2 
 PCOD9421287
Probable space group: P C C A
;
_chemical_formula_sum "Si O2"
_cell_formula_units_Z 32
_cell_length_a 17.175358
_cell_length_b 6.748803
_cell_length_c 13.230006
_cell_angle_alpha 90.000000
_cell_angle_beta 90.000000
_cell_angle_gamma 90.000000
_cell_volume 1533.531109
_symmetry_space_group_name_H-M "P C C A"
_symmetry_group_IT_number 54
_symmetry_cell_setting 'orthorhombic'
loop_
_space_group_symop_operation_xyz
x,y,z
1/2-x,-y,z
1/2+x,-y,1/2-z
-x,y,1/2-z
-x,-y,-z
1/2+x,y,-z
1/2-x,y,1/2+z
x,-y,1/2+z
loop_
_atom_site_type_symbol
_atom_site_label
_atom_site_fract_x
_atom_site_fract_y
_atom_site_fract_z
Si Si1 0.116438 0.872368 0.059892
Si Si2 0.750000 0.000000 0.570453
Si Si3 0.000841 0.795250 0.592216
Si Si4 0.607450 0.867090 0.699482
Si Si5 0.500000 0.522042 0.750000
O O1 0.122685 0.864564 0.179935
O O2 0.197843 0.865270 0.002990
O O3 0.056528 0.732447 0.998807
O O4 0.073038 0.084984 0.046024
O O5 0.811838 0.113908 0.640444
O O6 0.031877 0.624836 0.664564
O O7 0.947658 0.950903 0.659882
O O8 0.559817 0.663804 0.691328
#
# Coordination Sequence:
#
# PCOD9421287 Si02
#       5
#     8   4   8   8   4
#     4  10  19  41  63  90 125 173 205 260 321 374
#     4  10  24  38  66  86 134 172 210 248 322 396
#     4  10  21  38  66  97 124 155 223 266 306 377
#     4  11  21  42  65  94 123 174 206 263 328 362
#     4  12  20  38  70  96 126 158 214 278 304 370
#
# _framework density 20.866876000000001
#
# number of rings (size 3 to 8) (size 9 to 14) (size 15 to 20)
#    0.000    1.500    5.000    0.750    0.000    1.000 
#    0.000    5.000    0.000    0.000    0.000    0.000 
#    0.000    0.000    0.000    0.000    0.000    0.000 
#
# Total GULP energy -178332.130307 kJ/mol
# GULP energy per Si atom -5572.879072 kJ/mol
# Density = 2.081938 g / cm^3
# Si number density = 20.866876 Si / 1000 Ang^3
#
#
#
# Elastic Constant Matrix: (Units=GPa)
#
#
# Indices 1 2 3 4 5 6 
#
# 1 101.8991 17.7760 30.2771 0.0000 0.0000 0.0000
# 2 17.7760 60.9565 18.6427 0.0000 0.0000 0.0000
# 3 30.2771 18.6427 139.1800 0.0000 0.0000 0.0000
# 4 0.0000 0.0000 0.0000 32.7363 0.0000 0.0000
# 5 0.0000 0.0000 0.0000 0.0000 52.5941 0.0000
# 6 0.0000 0.0000 0.0000 0.0000 0.0000 6.9495
#
#
#
# Elastic Compliance Matrix: (Units=1/GPa)
#
#
# Indices 1 2 3 4 5 6 
#
# 1 0.010859 -0.002549 -0.002021 0.000000 0.000000 0.000000
# 2 -0.002549 0.017704 -0.001817 0.000000 0.000000 0.000000
# 3 -0.002021 -0.001817 0.007868 0.000000 0.000000 0.000000
# 4 0.000000 0.000000 0.000000 0.030547 0.000000 0.000000
# 5 0.000000 0.000000 0.000000 0.000000 0.019014 0.000000
# 6 0.000000 0.000000 0.000000 0.000000 0.000000 0.143895
#
#
# Mechanical properties :
#
#
# Convention : Reuss Voigt Hill
#
# Bulk Modulus (GPa) = 42.26913 48.38081 45.32497
# Shear Modulus (GPa) = 19.95649 34.14531 27.05090
#
# Velocity S-wave (km/s) = 3.09588 4.04956 3.60440
# Velocity P-wave (km/s) = 5.75151 6.71573 6.25223
#
# Compressibility (1/GPa) = 0.02365793
#
# Stress axis : x y z
#
# Youngs Moduli (GPa) = 92.09243 56.48428 127.09835
#
# Poissons Ratio (x) = 0.14395 0.25684
# Poissons Ratio (y) = 0.23470 0.23094
# Poissons Ratio (z) = 0.18610 0.10263
#
# Static dielectric constant tensor:
#      x y z
#    x 1.749860 0.000000 0.000000 
#    y 0.000000 1.764870 0.000000 
#    z 0.000000 0.000000 1.840730 
# 
# From -- ./inp_files/13823.got.cif
#   From: 2010.05.17/outbox.cif.g08.bks.cpg/sg54_7_cif.got.tgz:13823.got - 2010.06.03 13:09:01.
