data_PCOD9421090
_publ_section_title
;
Structure prediction by ZEFSAII (Michael W. Deem and Ramdas Pophale) SiO2 
 PCOD9421090
Probable space group: P C C A
;
_chemical_formula_sum "Si O2"
_cell_formula_units_Z 56
_cell_length_a 15.443642
_cell_length_b 11.897258
_cell_length_c 14.384896
_cell_angle_alpha 90.000000
_cell_angle_beta 90.000000
_cell_angle_gamma 90.000000
_cell_volume 2643.037540
_symmetry_space_group_name_H-M "P C C A"
_symmetry_group_IT_number 54
_symmetry_cell_setting 'orthorhombic'
loop_
_space_group_symop_operation_xyz
x,y,z
1/2-x,-y,z
1/2+x,-y,1/2-z
-x,y,1/2-z
-x,-y,-z
1/2+x,y,-z
1/2-x,y,1/2+z
x,-y,1/2+z
loop_
_atom_site_type_symbol
_atom_site_label
_atom_site_fract_x
_atom_site_fract_y
_atom_site_fract_z
Si Si1 0.656180 0.047629 0.127315
Si Si2 0.914194 0.156009 0.006678
Si Si3 0.944842 0.669889 0.971370
Si Si4 0.231689 0.268274 0.956275
Si Si5 0.530194 0.475340 0.145731
Si Si6 0.410130 0.806454 0.706139
Si Si7 0.698559 0.401035 0.225200
O O1 0.677432 0.154603 0.063460
O O2 0.617667 0.096455 0.221887
O O3 0.750000 0.000000 0.151892
O O4 0.605141 0.954223 0.068224
O O5 0.001301 0.216125 0.042925
O O6 0.921989 0.141683 0.895726
O O7 0.827903 0.234973 0.013037
O O8 0.839942 0.671187 0.977725
O O9 0.979306 0.625181 0.071819
O O10 0.981113 0.580502 0.898027
O O11 0.242860 0.329497 0.857076
O O12 0.500000 0.462386 0.250000
O O13 0.632399 0.476259 0.163194
O O14 0.500000 0.767409 0.750000
O O15 0.346866 0.696785 0.713231
O O16 0.750000 0.500000 0.277418
#
# Coordination Sequence:
#
# PCOD9421090 Si02
#       7
#     8   8   8   8   8   8   8
#     4   9  21  40  60  85 118 153 198 254 308 369
#     4  11  21  39  62  84 117 159 201 252 313 367
#     4  10  21  36  58  85 115 152 199 248 296 365
#     4   9  20  37  56  84 116 150 195 247 302 359
#     4  10  20  36  54  79 118 157 192 242 303 359
#     4  11  23  39  62  91 122 162 208 255 313 378
#     4  10  19  35  58  83 117 157 198 244 299 363
#
# _framework density 21.187743999999999
#
# number of rings (size 3 to 8) (size 9 to 14) (size 15 to 20)
#    0.000    2.000    0.000    4.714    0.000    5.143 
#    0.000    4.286    0.000    0.000    0.000    0.000 
#    0.000    0.000    0.000    0.000    0.000    0.000 
#
# Total GULP energy -311936.561468 kJ/mol
# GULP energy per Si atom -5570.295741 kJ/mol
# Density = 2.113952 g / cm^3
# Si number density = 21.187744 Si / 1000 Ang^3
#
#
#
# Elastic Constant Matrix: (Units=GPa)
#
#
# Indices 1 2 3 4 5 6 
#
# 1 17.2780 23.1267 3.6479 0.0000 0.0000 0.0000
# 2 23.1267 97.6833 29.2868 0.0000 0.0000 0.0000
# 3 3.6479 29.2868 56.0382 0.0000 0.0000 0.0000
# 4 0.0000 0.0000 0.0000 -11.9209 0.0000 0.0000
# 5 0.0000 0.0000 0.0000 0.0000 15.2992 0.0000
# 6 0.0000 0.0000 0.0000 0.0000 0.0000 27.2379
#
#
#
# Elastic Compliance Matrix: (Units=1/GPa)
#
#
# Indices 1 2 3 4 5 6 
#
# 1 0.086399 -0.022256 0.006007 0.000000 0.000000 0.000000
# 2 -0.022256 0.017872 -0.007892 0.000000 0.000000 0.000000
# 3 0.006007 -0.007892 0.021578 0.000000 0.000000 0.000000
# 4 0.000000 0.000000 0.000000 -0.083886 0.000000 0.000000
# 5 0.000000 0.000000 0.000000 0.000000 0.065363 0.000000
# 6 0.000000 0.000000 0.000000 0.000000 0.000000 0.036714
#
#
# Mechanical properties :
#
#
# Convention : Reuss Voigt Hill
#
# Bulk Modulus (GPa) = 12.89184 31.45804 22.17494
# Shear Modulus (GPa) = 22.91720 13.78579 18.35149
#
# Velocity S-wave (km/s) = 3.29237 2.55355 2.94621
# Velocity P-wave (km/s) = 4.53329 4.85527 4.69704
#
# Compressibility (1/GPa) = 0.07756843
#
# Stress axis : x y z
#
# Youngs Moduli (GPa) = 11.57423 55.95221 46.34286
#
# Poissons Ratio (x) = 1.24528 -0.27840
# Poissons Ratio (y) = 0.25760 0.36572
# Poissons Ratio (z) = -0.06953 0.44156
#
# Static dielectric constant tensor:
#      x y z
#    x 1.983520 0.000000 0.000000 
#    y 0.000000 1.908720 0.000000 
#    z 0.000000 0.000000 1.849050 
# 
# From -- ./inp_files/13513.got.cif
#   From: 2010.05.17/outbox.cif.g08.bks.cpg/sg54_7_cif.got.tgz:13513.got - 2010.06.03 13:09:01.
