data_PCOD9421204
_publ_section_title
;
Structure prediction by ZEFSAII (Michael W. Deem and Ramdas Pophale) SiO2 
 PCOD9421204
Probable space group: P C C A
;
_chemical_formula_sum "Si O2"
_cell_formula_units_Z 52
_cell_length_a 9.935860
_cell_length_b 14.162727
_cell_length_c 20.045186
_cell_angle_alpha 90.000000
_cell_angle_beta 90.000000
_cell_angle_gamma 90.000000
_cell_volume 2820.735977
_symmetry_space_group_name_H-M "P C C A"
_symmetry_group_IT_number 54
_symmetry_cell_setting 'orthorhombic'
loop_
_space_group_symop_operation_xyz
x,y,z
1/2-x,-y,z
1/2+x,-y,1/2-z
-x,y,1/2-z
-x,-y,-z
1/2+x,y,-z
1/2-x,y,1/2+z
x,-y,1/2+z
loop_
_atom_site_type_symbol
_atom_site_label
_atom_site_fract_x
_atom_site_fract_y
_atom_site_fract_z
Si Si1 0.500000 0.698412 0.750000
Si Si2 0.212504 0.208309 0.086840
Si Si3 0.248525 0.607265 0.670345
Si Si4 0.438655 0.837899 0.346729
Si Si5 0.015063 0.139710 0.647258
Si Si6 0.221386 0.106662 0.952330
Si Si7 0.500000 0.326079 0.750000
Si Si8 0.500000 0.010505 0.750000
O O1 0.378390 0.639305 0.715395
O O2 0.540932 0.771680 0.690610
O O3 0.223651 0.316955 0.111036
O O4 0.358948 0.169325 0.103755
O O5 0.094878 0.160739 0.130897
O O6 0.184364 0.178955 0.011094
O O7 0.250000 0.500000 0.645991
O O8 0.117409 0.615398 0.716619
O O9 0.347072 0.851989 0.410934
O O10 0.429453 0.741430 0.305100
O O11 0.408537 0.920748 0.294073
O O12 0.899291 0.099818 0.600465
O O13 0.067266 0.060288 0.698083
O O14 0.250000 0.000000 0.977641
#
# Coordination Sequence:
#
# PCOD9421204 Si02
#       8
#     4   8   8   8   8   8   4   4
#     4   9  19  35  59  88 112 140 174 236 286 338
#     4  10  24  37  53  78 111 149 186 231 268 327
#     4  10  19  37  61  85 110 142 182 233 291 336
#     4  10  21  36  54  79 113 145 183 226 275 320
#     4  10  21  36  54  79 113 145 183 226 275 320
#     4  12  23  36  54  79 111 157 194 222 259 325
#     4   9  19  35  59  88 112 140 174 236 286 338
#     4  10  20  34  52  78 106 142 182 220 266 322
#
# _framework density 18.434905000000001
#
# number of rings (size 3 to 8) (size 9 to 14) (size 15 to 20)
#    0.000    1.846    1.538    2.308    2.154    6.154 
#    0.000    0.000    0.000   18.462    0.000    0.000 
#    0.000    0.000    0.000    0.000    0.000    0.000 
#
# Total GULP energy -289893.025753 kJ/mol
# GULP energy per Si atom -5574.865880 kJ/mol
# Density = 1.839295 g / cm^3
# Si number density = 18.434905 Si / 1000 Ang^3
#
#
#
# Elastic Constant Matrix: (Units=GPa)
#
#
# Indices 1 2 3 4 5 6 
#
# 1 60.4115 32.6730 13.5914 0.0000 0.0000 0.0000
# 2 32.6730 95.2529 33.9634 0.0000 0.0000 0.0000
# 3 13.5914 33.9634 79.8341 0.0000 0.0000 0.0000
# 4 0.0000 0.0000 0.0000 4.0019 0.0000 0.0000
# 5 0.0000 0.0000 0.0000 0.0000 19.2988 0.0000
# 6 0.0000 0.0000 0.0000 0.0000 0.0000 -6.8785
#
#
#
# Elastic Compliance Matrix: (Units=1/GPa)
#
#
# Indices 1 2 3 4 5 6 
#
# 1 0.020346 -0.006771 -0.000583 0.000000 0.000000 0.000000
# 2 -0.006771 0.014629 -0.005071 0.000000 0.000000 0.000000
# 3 -0.000583 -0.005071 0.014783 0.000000 0.000000 0.000000
# 4 0.000000 0.000000 0.000000 0.249879 0.000000 0.000000
# 5 0.000000 0.000000 0.000000 0.000000 0.051817 0.000000
# 6 0.000000 0.000000 0.000000 0.000000 0.000000 -0.145380
#
#
# Mechanical properties :
#
#
# Convention : Reuss Voigt Hill
#
# Bulk Modulus (GPa) = 40.14844 43.99491 42.07168
# Shear Modulus (GPa) = 20.90071 13.63582 17.26827
#
# Velocity S-wave (km/s) = 3.37078 2.72265 3.06390
# Velocity P-wave (km/s) = 6.08074 5.81382 5.94878
#
# Compressibility (1/GPa) = 0.02490757
#
# Stress axis : x y z
#
# Youngs Moduli (GPa) = 49.14860 68.35743 67.64751
#
# Poissons Ratio (x) = 0.46286 0.03946
# Poissons Ratio (y) = 0.33279 0.34303
# Poissons Ratio (z) = 0.02867 0.34663
#
# Static dielectric constant tensor:
#      x y z
#    x 1.630670 0.000000 0.000000 
#    y 0.000000 1.636110 0.000000 
#    z 0.000000 0.000000 1.639930 
# 
# From -- ./inp_files/20500.got.cif
#   From: 2010.05.17/outbox.cif.g08.bks.cpg/sg54_11_cif.got.tgz:20500.got - 2010.06.03 13:09:01.
