data_PCOD9421437
_publ_section_title
;
Structure prediction by ZEFSAII (Michael W. Deem and Ramdas Pophale) SiO2 
 PCOD9421437
Probable space group: P C C A
;
_chemical_formula_sum "Si O2"
_cell_formula_units_Z 60
_cell_length_a 25.131963
_cell_length_b 14.789345
_cell_length_c 9.077692
_cell_angle_alpha 90.000000
_cell_angle_beta 90.000000
_cell_angle_gamma 90.000000
_cell_volume 3374.044414
_symmetry_space_group_name_H-M "P C C A"
_symmetry_group_IT_number 54
_symmetry_cell_setting 'orthorhombic'
loop_
_space_group_symop_operation_xyz
x,y,z
1/2-x,-y,z
1/2+x,-y,1/2-z
-x,y,1/2-z
-x,-y,-z
1/2+x,y,-z
1/2-x,y,1/2+z
x,-y,1/2+z
loop_
_atom_site_type_symbol
_atom_site_label
_atom_site_fract_x
_atom_site_fract_y
_atom_site_fract_z
Si Si1 0.185438 0.088210 0.683648
Si Si2 0.161019 0.085319 0.356197
Si Si3 0.953946 0.060601 0.132402
Si Si4 0.750000 0.500000 0.464009
Si Si5 0.364740 0.234327 0.401265
Si Si6 0.525731 0.143862 0.089489
Si Si7 0.794954 0.380074 0.724773
Si Si8 0.782023 0.218825 0.326948
O O1 0.156978 0.068319 0.529611
O O2 0.152606 0.155146 0.788550
O O3 0.238990 0.140678 0.636834
O O4 0.190658 0.996892 0.776388
O O5 0.101389 0.086934 0.296337
O O6 0.188588 0.179049 0.316247
O O7 0.000000 0.054473 0.250000
O O8 0.949250 0.957653 0.073903
O O9 0.974928 0.134751 0.017560
O O10 0.774935 0.426573 0.574470
O O11 0.706685 0.454560 0.354491
O O12 0.426382 0.214263 0.438623
O O13 0.348791 0.326321 0.314920
O O14 0.324636 0.230147 0.541871
O O15 0.500000 0.157108 0.250000
O O16 0.751564 0.306412 0.780985
#
# Coordination Sequence:
#
# PCOD9421437 Si02
#       8
#     8   8   8   4   8   8   8   8
#     4  11  23  35  49  73 110 155 192 228 279 334
#     4  12  23  35  52  74 109 158 196 238 285 329
#     4  10  21  34  52  72 100 151 204 246 278 315
#     4  10  20  40  62  86 120 144 178 226 282 372
#     4  11  20  37  58  82 113 149 190 241 284 336
#     4  10  20  35  54  74 107 144 199 248 279 318
#     4  10  21  37  61  89 117 144 179 223 284 353
#     4  11  23  36  52  80 116 146 185 229 276 345
#
# _framework density 17.782813000000001
#
# number of rings (size 3 to 8) (size 9 to 14) (size 15 to 20)
#    0.000    1.333    2.667    4.400    5.600    1.067 
#    0.000    0.000    0.000    0.000    0.000    0.933 
#    0.000    0.000    0.000    0.000    0.000    0.000 
#
# Total GULP energy -334615.466899 kJ/mol
# GULP energy per Si atom -5576.924448 kJ/mol
# Density = 1.774234 g / cm^3
# Si number density = 17.782813 Si / 1000 Ang^3
#
#
#
# Elastic Constant Matrix: (Units=GPa)
#
#
# Indices 1 2 3 4 5 6 
#
# 1 92.6923 27.5236 12.2767 0.0000 0.0000 0.0000
# 2 27.5236 68.5452 29.8526 0.0000 0.0000 0.0000
# 3 12.2767 29.8526 91.9464 0.0000 0.0000 0.0000
# 4 0.0000 0.0000 0.0000 27.4589 0.0000 0.0000
# 5 0.0000 0.0000 0.0000 0.0000 23.6461 0.0000
# 6 0.0000 0.0000 0.0000 0.0000 0.0000 21.1855
#
#
#
# Elastic Compliance Matrix: (Units=1/GPa)
#
#
# Indices 1 2 3 4 5 6 
#
# 1 0.012249 -0.004899 -0.000045 0.000000 0.000000 0.000000
# 2 -0.004899 0.018951 -0.005499 0.000000 0.000000 0.000000
# 3 -0.000045 -0.005499 0.012667 0.000000 0.000000 0.000000
# 4 0.000000 0.000000 0.000000 0.036418 0.000000 0.000000
# 5 0.000000 0.000000 0.000000 0.000000 0.042290 0.000000
# 6 0.000000 0.000000 0.000000 0.000000 0.000000 0.047202
#
#
# Mechanical properties :
#
#
# Convention : Reuss Voigt Hill
#
# Bulk Modulus (GPa) = 43.51254 43.60994 43.56124
# Shear Modulus (GPa) = 25.21138 26.69350 25.95244
#
# Velocity S-wave (km/s) = 3.76937 3.87859 3.82437
# Velocity P-wave (km/s) = 6.59289 6.68093 6.63706
#
# Compressibility (1/GPa) = 0.02298188
#
# Stress axis : x y z
#
# Youngs Moduli (GPa) = 81.63943 52.76827 78.94403
#
# Poissons Ratio (x) = 0.25850 0.00355
# Poissons Ratio (y) = 0.39994 0.43409
# Poissons Ratio (z) = 0.00367 0.29016
#
# Static dielectric constant tensor:
#      x y z
#    x 1.769270 0.000000 0.000000 
#    y 0.000000 1.626110 0.000000 
#    z 0.000000 0.000000 1.678350 
# 
# From -- ./inp_files/5288.got.cif
#   From: 2010.05.17/outbox.cif.g08.bks.cpg/sg54_3_cif.got.tgz:5288.got - 2010.06.03 13:09:01.
