data_PCOD9421996
_publ_section_title
;
Structure prediction by ZEFSAII (Michael W. Deem and Ramdas Pophale) SiO2 
 PCOD9421996
Probable space group: P C C A
;
_chemical_formula_sum "Si O2"
_cell_formula_units_Z 60
_cell_length_a 5.550381
_cell_length_b 15.264791
_cell_length_c 28.055399
_cell_angle_alpha 90.000000
_cell_angle_beta 90.000000
_cell_angle_gamma 90.000000
_cell_volume 2377.005069
_symmetry_space_group_name_H-M "P C C A"
_symmetry_group_IT_number 54
_symmetry_cell_setting 'orthorhombic'
loop_
_space_group_symop_operation_xyz
x,y,z
1/2-x,-y,z
1/2+x,-y,1/2-z
-x,y,1/2-z
-x,-y,-z
1/2+x,y,-z
1/2-x,y,1/2+z
x,-y,1/2+z
loop_
_atom_site_type_symbol
_atom_site_label
_atom_site_fract_x
_atom_site_fract_y
_atom_site_fract_z
Si Si1 0.143571 0.355133 0.523523
Si Si2 0.750000 0.500000 0.622272
Si Si3 0.873728 0.142523 0.977877
Si Si4 0.952055 0.938624 0.697589
Si Si5 0.397975 0.350415 0.621192
Si Si6 0.355272 0.772340 0.799571
Si Si7 0.759538 0.160400 0.872260
Si Si8 0.527328 0.404336 0.304111
O O1 0.384993 0.388360 0.495837
O O2 0.128273 0.249415 0.517298
O O3 0.198574 0.371151 0.579557
O O4 0.627559 0.409127 0.603599
O O5 0.535291 0.524200 0.657836
O O6 0.835552 0.123907 0.922638
O O7 0.633522 0.110774 0.004639
O O8 0.850043 0.841728 0.706802
O O9 0.000000 0.978173 0.750000
O O10 0.162315 0.914488 0.662208
O O11 0.750000 0.000000 0.674924
O O12 0.422974 0.243629 0.618981
O O13 0.273274 0.364451 0.673699
O O14 0.500000 0.775315 0.750000
O O15 0.513339 0.801119 0.844302
O O16 0.318079 0.669897 0.807073
O O17 0.500000 0.435886 0.250000
#
# Coordination Sequence:
#
# PCOD9421996 Si02
#       8
#     8   4   8   8   8   8   8   8
#     4   9  19  37  65  94 129 167 219 280 344 401
#     4  12  24  38  60  84 130 166 214 276 328 390
#     4   9  19  36  62  99 131 169 224 284 331 393
#     4  12  25  39  63  96 136 172 212 262 325 403
#     4  10  23  41  63  94 124 171 222 272 328 396
#     4  10  20  41  62  91 123 165 213 267 321 398
#     4  10  22  40  66  93 130 175 218 268 333 392
#     4  10  24  40  62  86 121 164 218 270 327 387
#
# _framework density 25.241849999999999
#
# number of rings (size 3 to 8) (size 9 to 14) (size 15 to 20)
#    0.000    1.867    1.333    1.600    5.600    0.000 
#    0.000    0.667    0.000    0.800    0.000    0.000 
#    0.000    0.000    0.000    0.000    0.000    0.000 
#
# Total GULP energy -334869.363545 kJ/mol
# GULP energy per Si atom -5581.156059 kJ/mol
# Density = 2.518440 g / cm^3
# Si number density = 25.241850 Si / 1000 Ang^3
#
#
#
# Elastic Constant Matrix: (Units=GPa)
#
#
# Indices 1 2 3 4 5 6 
#
# 1 100.2494 19.1266 36.5667 0.0000 0.0000 0.0000
# 2 19.1266 53.0259 2.9631 0.0000 0.0000 0.0000
# 3 36.5667 2.9631 136.6448 0.0000 0.0000 0.0000
# 4 0.0000 0.0000 0.0000 -10.0262 0.0000 0.0000
# 5 0.0000 0.0000 0.0000 0.0000 27.1961 0.0000
# 6 0.0000 0.0000 0.0000 0.0000 0.0000 45.6287
#
#
#
# Elastic Compliance Matrix: (Units=1/GPa)
#
#
# Indices 1 2 3 4 5 6 
#
# 1 0.011888 -0.004115 -0.003092 0.000000 0.000000 0.000000
# 2 -0.004115 0.020306 0.000661 0.000000 0.000000 0.000000
# 3 -0.003092 0.000661 0.008131 0.000000 0.000000 0.000000
# 4 0.000000 0.000000 0.000000 -0.099739 0.000000 0.000000
# 5 0.000000 0.000000 0.000000 0.000000 0.036770 0.000000
# 6 0.000000 0.000000 0.000000 0.000000 0.000000 0.021916
#
#
# Mechanical properties :
#
#
# Convention : Reuss Voigt Hill
#
# Bulk Modulus (GPa) = 36.72045 45.24811 40.98428
# Shear Modulus (GPa) = 233.17601 27.97732 130.57666
#
# Velocity S-wave (km/s) = 9.62171 3.33283 7.20018
# Velocity P-wave (km/s) = 11.74800 5.72495 9.24096
#
# Compressibility (1/GPa) = 0.02723278
#
# Stress axis : x y z
#
# Youngs Moduli (GPa) = 84.11752 49.24613 122.98065
#
# Poissons Ratio (x) = 0.20266 0.38026
# Poissons Ratio (y) = 0.34617 -0.08128
# Poissons Ratio (z) = 0.26010 -0.03255
#
# Static dielectric constant tensor:
#      x y z
#    x 2.032400 0.000000 0.000000 
#    y 0.000000 2.095760 0.000000 
#    z 0.000000 0.000000 1.975640 
# 
# From -- ./inp_files/25500.got.cif
#   From: 2010.05.17/outbox.cif.g08.bks.cpg/sg54_13_cif.got.tgz:25500.got - 2010.06.03 13:09:01.
