data_PCOD9421054
_publ_section_title
;
Structure prediction by ZEFSAII (Michael W. Deem and Ramdas Pophale) SiO2 
 PCOD9421054
Probable space group: P C C A
;
_chemical_formula_sum "Si O2"
_cell_formula_units_Z 64
_cell_length_a 12.192115
_cell_length_b 9.500697
_cell_length_c 27.201369
_cell_angle_alpha 90.000000
_cell_angle_beta 90.000000
_cell_angle_gamma 90.000000
_cell_volume 3150.832235
_symmetry_space_group_name_H-M "P C C A"
_symmetry_group_IT_number 54
_symmetry_cell_setting 'orthorhombic'
loop_
_space_group_symop_operation_xyz
x,y,z
1/2-x,-y,z
1/2+x,-y,1/2-z
-x,y,1/2-z
-x,-y,-z
1/2+x,y,-z
1/2-x,y,1/2+z
x,-y,1/2+z
loop_
_atom_site_type_symbol
_atom_site_label
_atom_site_fract_x
_atom_site_fract_y
_atom_site_fract_z
Si Si1 0.036019 0.505146 0.083934
Si Si2 0.174926 0.629016 0.363139
Si Si3 0.025814 0.973421 0.101144
Si Si4 0.813020 0.371565 0.827602
Si Si5 0.673349 0.767574 0.407197
Si Si6 0.682342 0.860234 0.076664
Si Si7 0.610254 0.751765 0.972754
Si Si8 0.502450 0.801511 0.698682
O O1 0.117118 0.566928 0.126381
O O2 0.077228 0.345190 0.080798
O O3 0.063970 0.596320 0.036064
O O4 0.915533 0.549311 0.102405
O O5 0.250000 0.500000 0.344645
O O6 0.245218 0.745651 0.393788
O O7 0.108007 0.716577 0.321715
O O8 0.918062 0.069440 0.105948
O O9 0.125128 0.078041 0.092205
O O10 0.035285 0.890297 0.151702
O O11 0.030437 0.860210 0.056645
O O12 0.750000 0.500000 0.803589
O O13 0.725981 0.269277 0.854054
O O14 0.902377 0.305729 0.792639
O O15 0.771514 0.756302 0.446075
O O16 0.750000 0.000000 0.061747
O O17 0.630190 0.791635 0.028437
O O18 0.500000 0.884488 0.750000
#
# Coordination Sequence:
#
# PCOD9421054 Si02
#       8
#     8   8   8   8   8   8   8   8
#     4   9  18  38  60  88 128 165 206 264 317 369
#     4  11  23  44  65  91 129 173 217 270 330 390
#     4  12  22  40  59  90 129 167 216 264 312 382
#     4   8  16  34  61  88 121 152 195 261 324 368
#     4  10  19  34  62  92 120 163 210 264 312 371
#     4  12  24  40  61  91 136 180 214 254 322 393
#     4  11  21  37  63  93 126 173 216 258 316 379
#     4  11  23  42  68  92 124 169 212 270 337 389
#
# _framework density 20.312093999999998
#
# number of rings (size 3 to 8) (size 9 to 14) (size 15 to 20)
#    0.000    1.500    5.000    3.375    0.000    2.500 
#    0.000    4.375    0.000    7.500    0.000    0.000 
#    0.000    0.000    0.000    0.000    0.000    0.000 
#
# Total GULP energy -357068.025328 kJ/mol
# GULP energy per Si atom -5579.187896 kJ/mol
# Density = 2.026586 g / cm^3
# Si number density = 20.312094 Si / 1000 Ang^3
#
#
#
# Elastic Constant Matrix: (Units=GPa)
#
#
# Indices 1 2 3 4 5 6 
#
# 1 94.8904 36.3492 17.6062 0.0000 0.0000 0.0000
# 2 36.3492 85.7531 28.8841 0.0000 0.0000 0.0000
# 3 17.6062 28.8841 74.1188 0.0000 0.0000 0.0000
# 4 0.0000 0.0000 0.0000 -4.6086 0.0000 0.0000
# 5 0.0000 0.0000 0.0000 0.0000 1.3297 0.0000
# 6 0.0000 0.0000 0.0000 0.0000 0.0000 47.3326
#
#
#
# Elastic Compliance Matrix: (Units=1/GPa)
#
#
# Indices 1 2 3 4 5 6 
#
# 1 0.012652 -0.005008 -0.001054 0.000000 0.000000 0.000000
# 2 -0.005008 0.015406 -0.004814 0.000000 0.000000 0.000000
# 3 -0.001054 -0.004814 0.015618 0.000000 0.000000 0.000000
# 4 0.000000 0.000000 0.000000 -0.216985 0.000000 0.000000
# 5 0.000000 0.000000 0.000000 0.000000 0.752036 0.000000
# 6 0.000000 0.000000 0.000000 0.000000 0.000000 0.021127
#
#
# Mechanical properties :
#
#
# Convention : Reuss Voigt Hill
#
# Bulk Modulus (GPa) = 45.61110 46.71570 46.16340
# Shear Modulus (GPa) = 7.95021 20.27227 14.11124
#
# Velocity S-wave (km/s) = 1.98054 3.16260 2.63862
# Velocity P-wave (km/s) = 5.26630 6.03200 5.66211
#
# Compressibility (1/GPa) = 0.02192449
#
# Stress axis : x y z
#
# Youngs Moduli (GPa) = 79.03597 64.91079 64.02799
#
# Poissons Ratio (x) = 0.32509 0.06747
# Poissons Ratio (y) = 0.39583 0.30823
# Poissons Ratio (z) = 0.08328 0.31248
#
# Static dielectric constant tensor:
#      x y z
#    x 1.784510 0.000000 0.000000 
#    y 0.000000 1.742130 0.000000 
#    z 0.000000 0.000000 1.708650 
# 
# From -- ./inp_files/28151.got.cif
#   From: 2010.05.17/outbox.cif.g08.bks.cpg/sg54_15_cif.got.tgz:28151.got - 2010.06.03 13:09:01.
