data_PCOD9421972
_publ_section_title
;
Structure prediction by ZEFSAII (Michael W. Deem and Ramdas Pophale) SiO2 
 PCOD9421972
Probable space group: P C C A
;
_chemical_formula_sum "Si O2"
_cell_formula_units_Z 40
_cell_length_a 10.312158
_cell_length_b 6.447014
_cell_length_c 30.545536
_cell_angle_alpha 90.000000
_cell_angle_beta 90.000000
_cell_angle_gamma 90.000000
_cell_volume 2030.747476
_symmetry_space_group_name_H-M "P C C A"
_symmetry_group_IT_number 54
_symmetry_cell_setting 'orthorhombic'
loop_
_space_group_symop_operation_xyz
x,y,z
1/2-x,-y,z
1/2+x,-y,1/2-z
-x,y,1/2-z
-x,-y,-z
1/2+x,y,-z
1/2-x,y,1/2+z
x,-y,1/2+z
loop_
_atom_site_type_symbol
_atom_site_label
_atom_site_fract_x
_atom_site_fract_y
_atom_site_fract_z
Si Si1 0.936134 0.316874 0.131921
Si Si2 0.097205 0.029649 0.071107
Si Si3 0.553013 0.719217 0.517063
Si Si4 0.250000 0.500000 0.938016
Si Si5 0.890498 0.608591 0.213103
Si Si6 0.250000 0.000000 0.319651
O O1 0.868520 0.433122 0.091866
O O2 0.949214 0.489838 0.170220
O O3 0.831472 0.156953 0.151086
O O4 0.047311 0.169063 0.111838
O O5 0.026071 0.813018 0.058377
O O6 0.250000 0.000000 0.074994
O O7 0.059990 0.149581 0.026864
O O8 0.500000 0.500000 0.500000
O O9 0.700698 0.688104 0.532814
O O10 0.750000 0.500000 0.222898
O O11 0.000000 0.588900 0.250000
O O12 0.849932 0.849274 0.205857
#
# Coordination Sequence:
#
# PCOD9421972 Si02
#       6
#     8   8   8   4   8   4
#     4  11  22  41  66  93 128 169 217 270 321 393
#     4  11  25  40  58  94 132 172 220 267 327 388
#     4  11  23  39  61  88 128 175 220 274 318 371
#     4  12  20  40  66  90 116 172 222 264 316 372
#     4  10  23  45  71  99 130 168 212 270 335 405
#     4  10  20  40  70  96 124 166 216 258 322 406
#
# _framework density 19.697179999999999
#
# number of rings (size 3 to 8) (size 9 to 14) (size 15 to 20)
#    0.000    1.200    5.000    2.400    2.800    3.200 
#    3.600    0.000    0.000    0.000    0.000    0.000 
#    0.000    0.000    0.000    0.000    0.000    0.000 
#
# Total GULP energy -222854.724813 kJ/mol
# GULP energy per Si atom -5571.368120 kJ/mol
# Density = 1.965235 g / cm^3
# Si number density = 19.697180 Si / 1000 Ang^3
#
#
#
# Elastic Constant Matrix: (Units=GPa)
#
#
# Indices 1 2 3 4 5 6 
#
# 1 98.6718 30.1415 44.3811 0.0000 0.0000 0.0000
# 2 30.1415 100.5690 38.1186 0.0000 0.0000 0.0000
# 3 44.3811 38.1186 97.2050 0.0000 0.0000 0.0000
# 4 0.0000 0.0000 0.0000 15.7678 0.0000 0.0000
# 5 0.0000 0.0000 0.0000 0.0000 41.8996 0.0000
# 6 0.0000 0.0000 0.0000 0.0000 0.0000 33.7794
#
#
#
# Elastic Compliance Matrix: (Units=1/GPa)
#
#
# Indices 1 2 3 4 5 6 
#
# 1 0.013070 -0.001944 -0.005205 0.000000 0.000000 0.000000
# 2 -0.001944 0.011969 -0.003806 0.000000 0.000000 0.000000
# 3 -0.005205 -0.003806 0.014156 0.000000 0.000000 0.000000
# 4 0.000000 0.000000 0.000000 0.063420 0.000000 0.000000
# 5 0.000000 0.000000 0.000000 0.000000 0.023867 0.000000
# 6 0.000000 0.000000 0.000000 0.000000 0.000000 0.029604
#
#
# Mechanical properties :
#
#
# Convention : Reuss Voigt Hill
#
# Bulk Modulus (GPa) = 57.85402 57.96980 57.91191
# Shear Modulus (GPa) = 27.20991 30.54299 28.87645
#
# Velocity S-wave (km/s) = 3.72077 3.94207 3.83302
# Velocity P-wave (km/s) = 6.92057 7.08621 7.00388
#
# Compressibility (1/GPa) = 0.01728488
#
# Stress axis : x y z
#
# Youngs Moduli (GPa) = 76.51368 83.55170 70.63998
#
# Poissons Ratio (x) = 0.16245 0.36766
# Poissons Ratio (y) = 0.14877 0.26884
# Poissons Ratio (z) = 0.39823 0.31798
#
# Static dielectric constant tensor:
#      x y z
#    x 1.720480 0.000000 0.000000 
#    y 0.000000 1.853090 0.000000 
#    z 0.000000 0.000000 1.693310 
# 
# From -- ./inp_files/28015.got.cif
#   From: 2010.05.17/outbox.cif.g08.bks.cpg/sg54_15_cif.got.tgz:28015.got - 2010.06.03 13:09:01.
