data_PCOD9421071
_publ_section_title
;
Structure prediction by ZEFSAII (Michael W. Deem and Ramdas Pophale) SiO2 
 PCOD9421071
Probable space group: P C C A
;
_chemical_formula_sum "Si O2"
_cell_formula_units_Z 32
_cell_length_a 14.793612
_cell_length_b 9.269531
_cell_length_c 13.469703
_cell_angle_alpha 90.000000
_cell_angle_beta 90.000000
_cell_angle_gamma 90.000000
_cell_volume 1847.098285
_symmetry_space_group_name_H-M "P C C A"
_symmetry_group_IT_number 54
_symmetry_cell_setting 'orthorhombic'
loop_
_space_group_symop_operation_xyz
x,y,z
1/2-x,-y,z
1/2+x,-y,1/2-z
-x,y,1/2-z
-x,-y,-z
1/2+x,y,-z
1/2-x,y,1/2+z
x,-y,1/2+z
loop_
_atom_site_type_symbol
_atom_site_label
_atom_site_fract_x
_atom_site_fract_y
_atom_site_fract_z
Si Si1 0.267973 0.831367 0.894169
Si Si2 0.693662 0.644265 0.270911
Si Si3 0.891285 0.367404 0.065822
Si Si4 0.097127 0.682254 0.526187
O O1 0.257148 0.760593 0.785045
O O2 0.189585 0.744798 0.955329
O O3 0.361463 0.790443 0.945930
O O4 0.250000 0.000000 0.892342
O O5 0.750000 0.500000 0.292188
O O6 0.620639 0.607695 0.184279
O O7 0.645335 0.701912 0.368193
O O8 0.879887 0.520107 0.011637
O O9 0.989618 0.308698 0.039000
#
# Coordination Sequence:
#
# PCOD9421071 Si02
#       4
#     8   8   8   8
#     4  10  21  36  51  81 113 145 181 222 271 339
#     4  10  19  35  56  78 110 136 183 223 277 321
#     4   9  20  36  57  86 103 140 188 226 281 314
#     4  11  19  36  62  79 108 144 181 237 276 319
#
# _framework density 17.324470000000002
#
# number of rings (size 3 to 8) (size 9 to 14) (size 15 to 20)
#    1.500    0.500    2.500    3.000    0.000    2.000 
#    0.000    0.000    0.000    3.000    0.000    0.000 
#    0.000    0.000    0.000    0.000    0.000    0.000 
#
# Total GULP energy -178165.894082 kJ/mol
# GULP energy per Si atom -5567.684190 kJ/mol
# Density = 1.728504 g / cm^3
# Si number density = 17.324470 Si / 1000 Ang^3
#
#
#
# Elastic Constant Matrix: (Units=GPa)
#
#
# Indices 1 2 3 4 5 6 
#
# 1 35.9751 6.8277 1.7655 0.0000 0.0000 0.0000
# 2 6.8277 44.0729 -17.4347 0.0000 0.0000 0.0000
# 3 1.7655 -17.4347 64.3973 0.0000 0.0000 0.0000
# 4 0.0000 0.0000 0.0000 0.6744 0.0000 0.0000
# 5 0.0000 0.0000 0.0000 0.0000 14.4231 0.0000
# 6 0.0000 0.0000 0.0000 0.0000 0.0000 6.8991
#
#
#
# Elastic Compliance Matrix: (Units=1/GPa)
#
#
# Indices 1 2 3 4 5 6 
#
# 1 0.028926 -0.005370 -0.002247 0.000000 0.000000 0.000000
# 2 -0.005370 0.026408 0.007297 0.000000 0.000000 0.000000
# 3 -0.002247 0.007297 0.017566 0.000000 0.000000 0.000000
# 4 0.000000 0.000000 0.000000 1.482878 0.000000 0.000000
# 5 0.000000 0.000000 0.000000 0.000000 0.069333 0.000000
# 6 0.000000 0.000000 0.000000 0.000000 0.000000 0.144946
#
#
# Mechanical properties :
#
#
# Convention : Reuss Voigt Hill
#
# Bulk Modulus (GPa) = 13.83892 14.08473 13.96183
# Shear Modulus (GPa) = 2.78585 14.61845 8.70215
#
# Velocity S-wave (km/s) = 1.26946 2.90798 2.24364
# Velocity P-wave (km/s) = 3.18656 4.40712 3.84557
#
# Compressibility (1/GPa) = 0.07225995
#
# Stress axis : x y z
#
# Youngs Moduli (GPa) = 34.57046 37.86711 56.92909
#
# Poissons Ratio (x) = 0.20335 0.12792
# Poissons Ratio (y) = 0.18565 -0.41540
# Poissons Ratio (z) = 0.07768 -0.27631
#
# Static dielectric constant tensor:
#      x y z
#    x 1.591120 0.000000 0.000000 
#    y 0.000000 1.557720 0.000000 
#    z 0.000000 0.000000 1.593990 
# 
# From -- ./inp_files/8079.got.cif
#   From: 2010.05.17/outbox.cif.g08.bks.cpg/sg54_5_cif.got.tgz:8079.got - 2010.06.03 13:09:01.
