data_PCOD9421390
_publ_section_title
;
Structure prediction by ZEFSAII (Michael W. Deem and Ramdas Pophale) SiO2 
 PCOD9421390
Probable space group: P C C A
;
_chemical_formula_sum "Si O2"
_cell_formula_units_Z 48
_cell_length_a 9.285769
_cell_length_b 12.054585
_cell_length_c 21.411466
_cell_angle_alpha 90.000000
_cell_angle_beta 90.000000
_cell_angle_gamma 90.000000
_cell_volume 2396.715822
_symmetry_space_group_name_H-M "P C C A"
_symmetry_group_IT_number 54
_symmetry_cell_setting 'orthorhombic'
loop_
_space_group_symop_operation_xyz
x,y,z
1/2-x,-y,z
1/2+x,-y,1/2-z
-x,y,1/2-z
-x,-y,-z
1/2+x,y,-z
1/2-x,y,1/2+z
x,-y,1/2+z
loop_
_atom_site_type_symbol
_atom_site_label
_atom_site_fract_x
_atom_site_fract_y
_atom_site_fract_z
Si Si1 0.859744 0.326741 0.213719
Si Si2 0.410802 0.752220 0.979716
Si Si3 0.920193 0.391260 0.644108
Si Si4 0.677269 0.119068 0.444979
Si Si5 0.024101 0.365779 0.103652
Si Si6 0.790132 0.728812 0.331149
O O1 0.716463 0.389042 0.189886
O O2 0.932218 0.285092 0.149639
O O3 0.792229 0.248318 0.266603
O O4 0.000000 0.381385 0.250000
O O5 0.387148 0.682912 0.917002
O O6 0.513875 0.856858 0.964929
O O7 0.268222 0.798705 0.011071
O O8 0.480749 0.671947 0.032420
O O9 0.962152 0.513109 0.619108
O O10 0.058519 0.333601 0.675711
O O11 0.691380 0.164284 0.374370
O O12 0.750000 0.000000 0.450394
O O13 0.186606 0.353679 0.128984
#
# Coordination Sequence:
#
# PCOD9421390 Si02
#       6
#     8   8   8   8   8   8
#     4  10  21  35  52  77 114 153 191 231 274 334
#     4  10  21  36  56  86 115 144 194 244 293 353
#     4  11  20  33  56  82 116 157 189 231 286 346
#     4  10  20  37  59  79 107 149 194 251 304 345
#     4  10  20  34  53  81 118 154 186 230 287 345
#     4   9  21  35  52  79 110 147 197 239 280 345
#
# _framework density 20.027405000000002
#
# number of rings (size 3 to 8) (size 9 to 14) (size 15 to 20)
#    0.000    2.000    0.000    3.500    0.000    6.667 
#    0.000    5.000    0.000   24.000    0.000    0.000 
#    0.000    0.000    0.000    0.667    0.000    0.000 
#
# Total GULP energy -267362.602024 kJ/mol
# GULP energy per Si atom -5570.054209 kJ/mol
# Density = 1.998182 g / cm^3
# Si number density = 20.027405 Si / 1000 Ang^3
#
#
#
# Elastic Constant Matrix: (Units=GPa)
#
#
# Indices 1 2 3 4 5 6 
#
# 1 115.9651 10.4701 31.6768 0.0000 0.0000 0.0000
# 2 10.4701 31.2976 6.2564 0.0000 0.0000 0.0000
# 3 31.6768 6.2564 101.3885 0.0000 0.0000 0.0000
# 4 0.0000 0.0000 0.0000 10.5509 0.0000 0.0000
# 5 0.0000 0.0000 0.0000 0.0000 25.5798 0.0000
# 6 0.0000 0.0000 0.0000 0.0000 0.0000 14.2309
#
#
#
# Elastic Compliance Matrix: (Units=1/GPa)
#
#
# Indices 1 2 3 4 5 6 
#
# 1 0.009641 -0.002656 -0.002848 0.000000 0.000000 0.000000
# 2 -0.002656 0.033082 -0.001212 0.000000 0.000000 0.000000
# 3 -0.002848 -0.001212 0.010828 0.000000 0.000000 0.000000
# 4 0.000000 0.000000 0.000000 0.094779 0.000000 0.000000
# 5 0.000000 0.000000 0.000000 0.000000 0.039093 0.000000
# 6 0.000000 0.000000 0.000000 0.000000 0.000000 0.070269
#
#
# Mechanical properties :
#
#
# Convention : Reuss Voigt Hill
#
# Bulk Modulus (GPa) = 24.92571 38.38419 31.65495
# Shear Modulus (GPa) = 17.57488 23.42218 20.49853
#
# Velocity S-wave (km/s) = 2.96555 3.42351 3.20273
# Velocity P-wave (km/s) = 4.91923 5.90209 5.43293
#
# Compressibility (1/GPa) = 0.04011921
#
# Stress axis : x y z
#
# Youngs Moduli (GPa) = 103.72258 30.22792 92.35563
#
# Poissons Ratio (x) = 0.08028 0.26305
# Poissons Ratio (y) = 0.27548 0.11190
# Poissons Ratio (z) = 0.29543 0.03663
#
# Static dielectric constant tensor:
#      x y z
#    x 1.753950 0.000000 0.000000 
#    y 0.000000 1.688130 0.000000 
#    z 0.000000 0.000000 1.725290 
# 
# From -- ./inp_files/23491.got.cif
#   From: 2010.05.17/outbox.cif.g08.bks.cpg/sg54_12_cif.got.tgz:23491.got - 2010.06.03 13:09:01.
