data_PCOD9421405
_publ_section_title
;
Structure prediction by ZEFSAII (Michael W. Deem and Ramdas Pophale) SiO2 
 PCOD9421405
Probable space group: P C C A
;
_chemical_formula_sum "Si O2"
_cell_formula_units_Z 40
_cell_length_a 4.988777
_cell_length_b 12.731285
_cell_length_c 32.758410
_cell_angle_alpha 90.000000
_cell_angle_beta 90.000000
_cell_angle_gamma 90.000000
_cell_volume 2080.602642
_symmetry_space_group_name_H-M "P C C A"
_symmetry_group_IT_number 54
_symmetry_cell_setting 'orthorhombic'
loop_
_space_group_symop_operation_xyz
x,y,z
1/2-x,-y,z
1/2+x,-y,1/2-z
-x,y,1/2-z
-x,-y,-z
1/2+x,y,-z
1/2-x,y,1/2+z
x,-y,1/2+z
loop_
_atom_site_type_symbol
_atom_site_label
_atom_site_fract_x
_atom_site_fract_y
_atom_site_fract_z
Si Si1 0.318377 0.208979 0.366848
Si Si2 0.739990 0.693320 0.473449
Si Si3 0.487911 0.568179 0.600759
Si Si4 0.201154 0.878920 0.586834
Si Si5 0.748767 0.876473 0.220910
O O1 0.395350 0.329509 0.376169
O O2 0.587895 0.145936 0.377396
O O3 0.242364 0.190124 0.320202
O O4 0.086036 0.161342 0.396221
O O5 0.436310 0.681251 0.488091
O O6 0.838494 0.612662 0.439288
O O7 0.770314 0.806494 0.452019
O O8 0.250000 0.500000 0.622005
O O9 0.750000 0.500000 0.591254
O O10 0.250000 0.000000 0.576630
O O11 0.500000 0.857331 0.250000
O O12 0.000000 0.856474 0.250000
O O13 0.750000 0.000000 0.208778
#
# Coordination Sequence:
#
# PCOD9421405 Si02
#       5
#     8   8   8   8   8
#     4  11  22  39  60  86 119 151 196 242 278 343
#     4  11  23  38  56  84 115 144 190 244 293 347
#     4  11  23  40  61  83 108 149 197 243 295 339
#     4  11  22  37  59  84 116 159 194 228 284 350
#     4  10  20  34  57  90 123 152 180 219 278 339
#
# _framework density 19.225199
#
# number of rings (size 3 to 8) (size 9 to 14) (size 15 to 20)
#    0.000    1.200    0.000    9.000    0.000    4.800 
#    0.000    0.000    0.000    2.400    0.000    0.000 
#    0.000    0.000    0.000    0.000    0.000    0.000 
#
# Total GULP energy -223441.261666 kJ/mol
# GULP energy per Si atom -5586.031542 kJ/mol
# Density = 1.918144 g / cm^3
# Si number density = 19.225199 Si / 1000 Ang^3
#
#
#
# Elastic Constant Matrix: (Units=GPa)
#
#
# Indices 1 2 3 4 5 6 
#
# 1 114.0088 36.1965 6.6412 0.0000 0.0000 0.0000
# 2 36.1965 127.0305 31.4230 0.0000 0.0000 0.0000
# 3 6.6412 31.4230 70.7364 0.0000 0.0000 0.0000
# 4 0.0000 0.0000 0.0000 1.3314 0.0000 0.0000
# 5 0.0000 0.0000 0.0000 0.0000 41.3208 0.0000
# 6 0.0000 0.0000 0.0000 0.0000 0.0000 30.3408
#
#
#
# Elastic Compliance Matrix: (Units=1/GPa)
#
#
# Indices 1 2 3 4 5 6 
#
# 1 0.009652 -0.002838 0.000354 0.000000 0.000000 0.000000
# 2 -0.002838 0.009678 -0.004033 0.000000 0.000000 0.000000
# 3 0.000354 -0.004033 0.015895 0.000000 0.000000 0.000000
# 4 0.000000 0.000000 0.000000 0.751109 0.000000 0.000000
# 5 0.000000 0.000000 0.000000 0.000000 0.024201 0.000000
# 6 0.000000 0.000000 0.000000 0.000000 0.000000 0.032959
#
#
# Mechanical properties :
#
#
# Convention : Reuss Voigt Hill
#
# Bulk Modulus (GPa) = 45.06004 51.14411 48.10208
# Shear Modulus (GPa) = 5.78754 30.43291 18.11022
#
# Velocity S-wave (km/s) = 1.73693 3.98297 3.07254
# Velocity P-wave (km/s) = 5.24514 6.91466 6.13693
#
# Compressibility (1/GPa) = 0.02219261
#
# Stress axis : x y z
#
# Youngs Moduli (GPa) = 103.60985 103.32322 62.91182
#
# Poissons Ratio (x) = 0.29322 -0.02230
# Poissons Ratio (y) = 0.29403 0.25372
# Poissons Ratio (z) = -0.03673 0.41670
#
# Static dielectric constant tensor:
#      x y z
#    x 1.677030 0.000000 0.000000 
#    y 0.000000 1.716250 0.000000 
#    z 0.000000 0.000000 1.640940 
# 
# From -- ./inp_files/25148.got.cif
#   From: 2010.05.17/outbox.cif.g08.bks.cpg/sg54_13_cif.got.tgz:25148.got - 2010.06.03 13:09:01.
