data_PCOD9421578
_publ_section_title
;
Structure prediction by ZEFSAII (Michael W. Deem and Ramdas Pophale) SiO2 
 PCOD9421578
Probable space group: P C C A
;
_chemical_formula_sum "Si O2"
_cell_formula_units_Z 60
_cell_length_a 28.800860
_cell_length_b 5.055554
_cell_length_c 17.389864
_cell_angle_alpha 90.000000
_cell_angle_beta 90.000000
_cell_angle_gamma 90.000000
_cell_volume 2532.039027
_symmetry_space_group_name_H-M "P C C A"
_symmetry_group_IT_number 54
_symmetry_cell_setting 'orthorhombic'
loop_
_space_group_symop_operation_xyz
x,y,z
1/2-x,-y,z
1/2+x,-y,1/2-z
-x,y,1/2-z
-x,-y,-z
1/2+x,y,-z
1/2-x,y,1/2+z
x,-y,1/2+z
loop_
_atom_site_type_symbol
_atom_site_label
_atom_site_fract_x
_atom_site_fract_y
_atom_site_fract_z
Si Si1 0.524148 0.176299 0.111400
Si Si2 0.500000 0.788139 0.250000
Si Si3 0.565843 0.096627 0.466943
Si Si4 0.120672 0.573917 0.377954
Si Si5 0.079666 0.700485 0.662887
Si Si6 0.720378 0.255665 0.846885
Si Si7 0.645653 0.473882 0.448872
Si Si8 0.645094 0.931966 0.222541
O O1 0.475132 0.270106 0.073388
O O2 0.564640 0.389885 0.124361
O O3 0.514980 0.989380 0.183518
O O4 0.547858 0.979086 0.049705
O O5 0.538141 0.598352 0.286892
O O6 0.619018 0.195659 0.466935
O O7 0.564476 0.835394 0.415620
O O8 0.135653 0.601831 0.467335
O O9 0.136042 0.300066 0.339238
O O10 0.143849 0.798579 0.324672
O O11 0.119124 0.510905 0.633555
O O12 0.102341 0.921857 0.717475
O O13 0.750000 0.500000 0.813702
O O14 0.693827 0.399607 0.918736
O O15 0.688054 0.136543 0.778732
O O16 0.750000 0.000000 0.873902
#
# Coordination Sequence:
#
# PCOD9421578 Si02
#       8
#     8   4   8   8   8   8   8   8
#     4  10  21  39  65  95 151 199 253 303 346 420
#     4  10  20  36  60  96 140 196 248 298 338 414
#     4  10  22  42  61 100 147 197 250 300 362 413
#     4  12  24  45  69 109 144 193 237 293 358 422
#     4  10  22  38  63  95 137 190 244 291 351 419
#     4  11  27  51  79 110 140 181 236 303 380 463
#     4  11  26  41  75 101 140 191 238 307 366 445
#     4  11  26  43  74 100 144 182 232 292 366 436
#
# _framework density 23.696318999999999
#
# number of rings (size 3 to 8) (size 9 to 14) (size 15 to 20)
#    0.000    1.333    2.667    1.600    7.467    1.600 
#    0.000    4.667    0.000    0.000    0.000    0.000 
#    0.000    0.000    0.000    0.000    0.000    0.000 
#
# Total GULP energy -334593.447388 kJ/mol
# GULP energy per Si atom -5576.557456 kJ/mol
# Density = 2.364239 g / cm^3
# Si number density = 23.696319 Si / 1000 Ang^3
#
#
#
# Elastic Constant Matrix: (Units=GPa)
#
#
# Indices 1 2 3 4 5 6 
#
# 1 63.9182 16.4799 20.1034 0.0000 0.0000 0.0000
# 2 16.4799 92.6779 26.4565 0.0000 0.0000 0.0000
# 3 20.1034 26.4565 152.6158 0.0000 0.0000 0.0000
# 4 0.0000 0.0000 0.0000 40.3764 0.0000 0.0000
# 5 0.0000 0.0000 0.0000 0.0000 8.4309 0.0000
# 6 0.0000 0.0000 0.0000 0.0000 0.0000 19.7213
#
#
#
# Elastic Compliance Matrix: (Units=1/GPa)
#
#
# Indices 1 2 3 4 5 6 
#
# 1 0.016848 -0.002485 -0.001788 0.000000 0.000000 0.000000
# 2 -0.002485 0.011718 -0.001704 0.000000 0.000000 0.000000
# 3 -0.001788 -0.001704 0.007083 0.000000 0.000000 0.000000
# 4 0.000000 0.000000 0.000000 0.024767 0.000000 0.000000
# 5 0.000000 0.000000 0.000000 0.000000 0.118611 0.000000
# 6 0.000000 0.000000 0.000000 0.000000 0.000000 0.050707
#
#
# Mechanical properties :
#
#
# Convention : Reuss Voigt Hill
#
# Bulk Modulus (GPa) = 42.20425 48.36570 45.28498
# Shear Modulus (GPa) = 20.03294 30.11720 25.07507
#
# Velocity S-wave (km/s) = 2.91074 3.56893 3.25650
# Velocity P-wave (km/s) = 5.39867 6.11866 5.76990
#
# Compressibility (1/GPa) = 0.02369429
#
# Stress axis : x y z
#
# Youngs Moduli (GPa) = 59.35313 85.33544 141.17525
#
# Poissons Ratio (x) = 0.21209 0.25249
# Poissons Ratio (y) = 0.14752 0.24057
# Poissons Ratio (z) = 0.10615 0.14542
#
# Static dielectric constant tensor:
#      x y z
#    x 2.098880 0.000000 0.000000 
#    y 0.000000 1.985690 0.000000 
#    z 0.000000 0.000000 1.879810 
# 
# From -- ./inp_files/19323.got.cif
#   From: 2010.05.17/outbox.cif.g08.bks.cpg/sg54_10_cif.got.tgz:19323.got - 2010.06.03 13:09:01.
