data_PCOD9421524
_publ_section_title
;
Structure prediction by ZEFSAII (Michael W. Deem and Ramdas Pophale) SiO2 
 PCOD9421524
Probable space group: P C C A
;
_chemical_formula_sum "Si O2"
_cell_formula_units_Z 32
_cell_length_a 8.628240
_cell_length_b 5.005299
_cell_length_c 38.091735
_cell_angle_alpha 90.000000
_cell_angle_beta 90.000000
_cell_angle_gamma 90.000000
_cell_volume 1645.064752
_symmetry_space_group_name_H-M "P C C A"
_symmetry_group_IT_number 54
_symmetry_cell_setting 'orthorhombic'
loop_
_space_group_symop_operation_xyz
x,y,z
1/2-x,-y,z
1/2+x,-y,1/2-z
-x,y,1/2-z
-x,-y,-z
1/2+x,y,-z
1/2-x,y,1/2+z
x,-y,1/2+z
loop_
_atom_site_type_symbol
_atom_site_label
_atom_site_fract_x
_atom_site_fract_y
_atom_site_fract_z
Si Si1 0.138088 0.755376 0.777303
Si Si2 0.566259 0.033102 0.961038
Si Si3 0.436435 0.477379 0.423694
Si Si4 0.138631 0.750043 0.855785
O O1 0.250000 0.500000 0.776497
O O2 0.074006 0.809912 0.817045
O O3 0.000000 0.726715 0.750000
O O4 0.250000 0.000000 0.768282
O O5 0.490502 0.821191 0.933392
O O6 0.750000 0.000000 0.960724
O O7 0.521112 0.331630 0.950730
O O8 0.500000 0.000000 0.000000
O O9 0.750000 0.500000 0.572482
O O10 0.469295 0.624617 0.386134
O O11 0.250000 0.500000 0.849527
O O12 0.250000 0.000000 0.866859
#
# Coordination Sequence:
#
# PCOD9421524 Si02
#       4
#     8   8   8   8
#     4  10  20  36  58  85 118 155 197 241 287 342
#     4  12  25  41  59  85 117 149 186 236 291 347
#     4  11  21  39  63  85 110 149 195 237 284 344
#     4   9  18  34  58  85 113 151 195 236 285 349
#
# _framework density 19.452124999999999
#
# number of rings (size 3 to 8) (size 9 to 14) (size 15 to 20)
#    0.000    1.500    0.000    7.500    0.000    0.000 
#    0.000    3.750    0.000    0.000    0.000    0.000 
#    0.000    0.000    0.000    0.000    0.000    0.000 
#
# Total GULP energy -178313.317921 kJ/mol
# GULP energy per Si atom -5572.291185 kJ/mol
# Density = 1.940785 g / cm^3
# Si number density = 19.452125 Si / 1000 Ang^3
#
#
#
# Elastic Constant Matrix: (Units=GPa)
#
#
# Indices 1 2 3 4 5 6 
#
# 1 90.1883 8.9342 26.4601 0.0000 0.0000 0.0000
# 2 8.9342 105.8912 -6.9144 0.0000 0.0000 0.0000
# 3 26.4601 -6.9144 103.6607 0.0000 0.0000 0.0000
# 4 0.0000 0.0000 0.0000 20.6169 0.0000 0.0000
# 5 0.0000 0.0000 0.0000 0.0000 33.5891 0.0000
# 6 0.0000 0.0000 0.0000 0.0000 0.0000 33.1680
#
#
#
# Elastic Compliance Matrix: (Units=1/GPa)
#
#
# Indices 1 2 3 4 5 6 
#
# 1 0.012144 -0.001232 -0.003182 0.000000 0.000000 0.000000
# 2 -0.001232 0.009610 0.000956 0.000000 0.000000 0.000000
# 3 -0.003182 0.000956 0.010523 0.000000 0.000000 0.000000
# 4 0.000000 0.000000 0.000000 0.048504 0.000000 0.000000
# 5 0.000000 0.000000 0.000000 0.000000 0.029772 0.000000
# 6 0.000000 0.000000 0.000000 0.000000 0.000000 0.030150
#
#
# Mechanical properties :
#
#
# Convention : Reuss Voigt Hill
#
# Bulk Modulus (GPa) = 39.43374 39.63332 39.53353
# Shear Modulus (GPa) = 32.03654 35.55882 33.79768
#
# Velocity S-wave (km/s) = 4.06266 4.28017 4.17283
# Velocity P-wave (km/s) = 6.50562 6.69668 6.60184
#
# Compressibility (1/GPa) = 0.02535900
#
# Stress axis : x y z
#
# Youngs Moduli (GPa) = 82.34841 104.05801 95.03178
#
# Poissons Ratio (x) = 0.12823 0.30238
# Poissons Ratio (y) = 0.10148 -0.09081
# Poissons Ratio (z) = 0.26203 -0.09944
#
# Static dielectric constant tensor:
#      x y z
#    x 1.636980 0.000000 0.000000 
#    y 0.000000 2.003030 0.000000 
#    z 0.000000 0.000000 1.785790 
# 
# From -- ./inp_files/27389.got.cif
#   From: 2010.05.17/outbox.cif.g08.bks.cpg/sg54_14_cif.got.tgz:27389.got - 2010.06.03 13:09:01.
