data_PCOD9421791
_publ_section_title
;
Structure prediction by ZEFSAII (Michael W. Deem and Ramdas Pophale) SiO2 
 PCOD9421791
Probable space group: P C C A
;
_chemical_formula_sum "Si O2"
_cell_formula_units_Z 64
_cell_length_a 14.485696
_cell_length_b 18.050939
_cell_length_c 11.822908
_cell_angle_alpha 90.000000
_cell_angle_beta 90.000000
_cell_angle_gamma 90.000000
_cell_volume 3091.458889
_symmetry_space_group_name_H-M "P C C A"
_symmetry_group_IT_number 54
_symmetry_cell_setting 'orthorhombic'
loop_
_space_group_symop_operation_xyz
x,y,z
1/2-x,-y,z
1/2+x,-y,1/2-z
-x,y,1/2-z
-x,-y,-z
1/2+x,y,-z
1/2-x,y,1/2+z
x,-y,1/2+z
loop_
_atom_site_type_symbol
_atom_site_label
_atom_site_fract_x
_atom_site_fract_y
_atom_site_fract_z
Si Si1 0.851576 0.819861 0.790377
Si Si2 0.275983 0.334744 0.761835
Si Si3 0.101037 0.414683 0.711397
Si Si4 0.912960 0.361341 0.031379
Si Si5 0.846471 0.040601 0.449039
Si Si6 0.464216 0.195651 0.930313
Si Si7 0.427478 0.415317 0.660763
Si Si8 0.501084 0.923647 0.619717
O O1 0.780245 0.752999 0.764616
O O2 0.823119 0.891210 0.863672
O O3 0.895515 0.835085 0.666781
O O4 0.938226 0.792482 0.866468
O O5 0.178737 0.373132 0.781690
O O6 0.333540 0.370510 0.657722
O O7 0.338127 0.359733 0.868702
O O8 0.124969 0.390951 0.584825
O O9 0.097599 0.503846 0.708174
O O10 0.000000 0.389868 0.750000
O O11 0.937963 0.275378 0.023007
O O12 0.005905 0.410139 0.053462
O O13 0.896677 0.059642 0.568675
O O14 0.750000 0.000000 0.468013
O O15 0.928807 0.992057 0.391299
O O16 0.467607 0.138582 0.032330
O O17 0.500000 0.378553 0.750000
O O18 0.500000 0.900655 0.750000
#
# Coordination Sequence:
#
# PCOD9421791 Si02
#       8
#     8   8   8   8   8   8   8   8
#     4   9  18  37  67  92 115 160 219 259 305 373
#     4  10  20  39  64  91 116 163 217 260 303 381
#     4  11  24  37  56  91 134 163 201 266 326 372
#     4  10  20  38  64  89 122 167 213 256 318 376
#     4  10  23  40  65  95 129 169 209 260 316 383
#     4   9  18  37  65  93 120 163 213 263 308 380
#     4   9  18  37  62  90 119 160 212 258 307 374
#     4  10  23  40  63  96 133 165 208 262 323 376
#
# _framework density 20.702200999999999
#
# number of rings (size 3 to 8) (size 9 to 14) (size 15 to 20)
#    0.000    2.250    1.250    0.750    5.250    3.000 
#    0.000    3.750    0.000    0.000    0.000    0.000 
#    0.000    0.000    0.000    0.000    0.000    0.000 
#
# Total GULP energy -356542.889452 kJ/mol
# GULP energy per Si atom -5570.982648 kJ/mol
# Density = 2.065508 g / cm^3
# Si number density = 20.702201 Si / 1000 Ang^3
#
#
#
# Elastic Constant Matrix: (Units=GPa)
#
#
# Indices 1 2 3 4 5 6 
#
# 1 114.7161 64.7394 13.0186 0.0000 0.0000 0.0000
# 2 64.7394 97.0758 35.1241 0.0000 0.0000 0.0000
# 3 13.0186 35.1241 60.7744 0.0000 0.0000 0.0000
# 4 0.0000 0.0000 0.0000 19.0417 0.0000 0.0000
# 5 0.0000 0.0000 0.0000 0.0000 9.2992 0.0000
# 6 0.0000 0.0000 0.0000 0.0000 0.0000 -52.0649
#
#
#
# Elastic Compliance Matrix: (Units=1/GPa)
#
#
# Indices 1 2 3 4 5 6 
#
# 1 0.014432 -0.010755 0.003124 0.000000 0.000000 0.000000
# 2 -0.010755 0.021040 -0.009856 0.000000 0.000000 0.000000
# 3 0.003124 -0.009856 0.021481 0.000000 0.000000 0.000000
# 4 0.000000 0.000000 0.000000 0.052516 0.000000 0.000000
# 5 0.000000 0.000000 0.000000 0.000000 0.107536 0.000000
# 6 0.000000 0.000000 0.000000 0.000000 0.000000 -0.019207
#
#
# Mechanical properties :
#
#
# Convention : Reuss Voigt Hill
#
# Bulk Modulus (GPa) = 45.49656 55.37005 50.43331
# Shear Modulus (GPa) = 20.82468 5.90080 13.36274
#
# Velocity S-wave (km/s) = 3.17506 1.69012 2.54338
# Velocity P-wave (km/s) = 5.95531 5.53288 5.74798
#
# Compressibility (1/GPa) = 0.02197968
#
# Stress axis : x y z
#
# Youngs Moduli (GPa) = 69.28906 47.52853 46.55226
#
# Poissons Ratio (x) = 0.51118 -0.14545
# Poissons Ratio (y) = 0.74522 0.45882
# Poissons Ratio (z) = -0.21649 0.46844
#
# Static dielectric constant tensor:
#      x y z
#    x 1.629620 0.000000 0.000000 
#    y 0.000000 1.782430 0.000000 
#    z 0.000000 0.000000 1.379240 
# 
# From -- ./inp_files/8538.got.cif
#   From: 2010.05.17/outbox.cif.g08.bks.cpg/sg54_5_cif.got.tgz:8538.got - 2010.06.03 13:09:01.
