data_PCOD9421126
_publ_section_title
;
Structure prediction by ZEFSAII (Michael W. Deem and Ramdas Pophale) SiO2 
 PCOD9421126
Probable space group: P C C A
;
_chemical_formula_sum "Si O2"
_cell_formula_units_Z 56
_cell_length_a 28.232875
_cell_length_b 5.472377
_cell_length_c 14.519206
_cell_angle_alpha 90.000000
_cell_angle_beta 90.000000
_cell_angle_gamma 90.000000
_cell_volume 2243.230914
_symmetry_space_group_name_H-M "P C C A"
_symmetry_group_IT_number 54
_symmetry_cell_setting 'orthorhombic'
loop_
_space_group_symop_operation_xyz
x,y,z
1/2-x,-y,z
1/2+x,-y,1/2-z
-x,y,1/2-z
-x,-y,-z
1/2+x,y,-z
1/2-x,y,1/2+z
x,-y,1/2+z
loop_
_atom_site_type_symbol
_atom_site_label
_atom_site_fract_x
_atom_site_fract_y
_atom_site_fract_z
Si Si1 0.566753 0.915850 0.811656
Si Si2 0.724591 0.751502 0.778981
Si Si3 0.579529 0.487291 0.046953
Si Si4 0.869211 0.546569 0.227304
Si Si5 0.636921 0.747641 0.398254
Si Si6 0.238920 0.247686 0.013672
Si Si7 0.962904 0.972919 0.615481
O O1 0.606430 0.011329 0.881338
O O2 0.562142 0.066654 0.715349
O O3 0.516770 0.957380 0.860581
O O4 0.581936 0.654676 0.770354
O O5 0.750000 0.500000 0.750615
O O6 0.671675 0.747933 0.739121
O O7 0.728660 0.748032 0.892161
O O8 0.750000 0.000000 0.752573
O O9 0.620521 0.522864 0.123377
O O10 0.545196 0.720790 0.059664
O O11 0.557904 0.218848 0.069606
O O12 0.603780 0.449898 0.949002
O O13 0.851119 0.340796 0.296082
O O14 0.684681 0.768423 0.454823
O O15 0.250000 0.500000 0.964652
O O16 0.250000 0.000000 0.961693
#
# Coordination Sequence:
#
# PCOD9421126 Si02
#       7
#     8   8   8   8   8   8   8
#     4  10  23  40  73  90 129 184 216 269 338 392
#     4  10  19  35  63  91 123 164 209 265 318 385
#     4  11  27  43  65  99 136 168 221 281 316 401
#     4  11  23  44  67  97 132 175 222 270 337 393
#     4  12  24  41  70  96 129 181 218 264 341 389
#     4  10  20  36  60  92 124 161 208 262 310 384
#     4  10  24  46  63  97 136 168 225 275 327 388
#
# _framework density 24.963991
#
# number of rings (size 3 to 8) (size 9 to 14) (size 15 to 20)
#    0.000    1.429    4.286    1.714    4.000    2.286 
#    0.000    1.429    0.000    0.000    0.000    1.000 
#    0.000    0.000    0.000    0.000    0.000    0.000 
#
# Total GULP energy -313172.687569 kJ/mol
# GULP energy per Si atom -5592.369421 kJ/mol
# Density = 2.490717 g / cm^3
# Si number density = 24.963991 Si / 1000 Ang^3
#
#
#
# Elastic Constant Matrix: (Units=GPa)
#
#
# Indices 1 2 3 4 5 6 
#
# 1 78.9547 19.8131 0.0135 0.0000 0.0000 0.0000
# 2 19.8131 155.6051 14.1412 0.0000 0.0000 0.0000
# 3 0.0135 14.1412 93.4348 0.0000 0.0000 0.0000
# 4 0.0000 0.0000 0.0000 9.5018 0.0000 0.0000
# 5 0.0000 0.0000 0.0000 0.0000 -21.1476 0.0000
# 6 0.0000 0.0000 0.0000 0.0000 0.0000 32.3838
#
#
#
# Elastic Compliance Matrix: (Units=1/GPa)
#
#
# Indices 1 2 3 4 5 6 
#
# 1 0.013089 -0.001690 0.000254 0.000000 0.000000 0.000000
# 2 -0.001690 0.006734 -0.001019 0.000000 0.000000 0.000000
# 3 0.000254 -0.001019 0.010857 0.000000 0.000000 0.000000
# 4 0.000000 0.000000 0.000000 0.105244 0.000000 0.000000
# 5 0.000000 0.000000 0.000000 0.000000 -0.047287 0.000000
# 6 0.000000 0.000000 0.000000 0.000000 0.000000 0.030880
#
#
# Mechanical properties :
#
#
# Convention : Reuss Voigt Hill
#
# Bulk Modulus (GPa) = 38.80351 43.99223 41.39787
# Shear Modulus (GPa) = 37.58913 23.74937 30.66925
#
# Velocity S-wave (km/s) = 3.88459 3.08773 3.50886
# Velocity P-wave (km/s) = 5.97474 5.51114 5.74762
#
# Compressibility (1/GPa) = 0.02577086
#
# Stress axis : x y z
#
# Youngs Moduli (GPa) = 76.39721 148.49389 92.10783
#
# Poissons Ratio (x) = 0.25092 -0.02338
# Poissons Ratio (y) = 0.12909 0.09386
# Poissons Ratio (z) = -0.01939 0.15131
#
# Static dielectric constant tensor:
#      x y z
#    x 1.999190 0.000000 0.000000 
#    y 0.000000 2.038750 0.000000 
#    z 0.000000 0.000000 1.951370 
# 
# From -- ./inp_files/15344.got.cif
#   From: 2010.05.17/outbox.cif.g08.bks.cpg/sg54_8_cif.got.tgz:15344.got - 2010.06.03 13:09:01.
