data_PCOD9421328
_publ_section_title
;
Structure prediction by ZEFSAII (Michael W. Deem and Ramdas Pophale) SiO2 
 PCOD9421328
Probable space group: P C C A
;
_chemical_formula_sum "Si O2"
_cell_formula_units_Z 48
_cell_length_a 8.385486
_cell_length_b 11.833855
_cell_length_c 24.464650
_cell_angle_alpha 90.000000
_cell_angle_beta 90.000000
_cell_angle_gamma 90.000000
_cell_volume 2427.691450
_symmetry_space_group_name_H-M "P C C A"
_symmetry_group_IT_number 54
_symmetry_cell_setting 'orthorhombic'
loop_
_space_group_symop_operation_xyz
x,y,z
1/2-x,-y,z
1/2+x,-y,1/2-z
-x,y,1/2-z
-x,-y,-z
1/2+x,y,-z
1/2-x,y,1/2+z
x,-y,1/2+z
loop_
_atom_site_type_symbol
_atom_site_label
_atom_site_fract_x
_atom_site_fract_y
_atom_site_fract_z
Si Si1 0.318031 0.624790 0.067575
Si Si2 0.526833 0.737003 0.990611
Si Si3 0.093303 0.055533 0.060367
Si Si4 0.500000 0.111707 0.750000
Si Si5 0.750000 0.000000 0.674998
Si Si6 0.721199 0.209310 0.841621
Si Si7 0.939192 0.837853 0.113603
O O1 0.250000 0.500000 0.066330
O O2 0.199197 0.710622 0.034747
O O3 0.325307 0.672970 0.128969
O O4 0.477978 0.639471 0.032727
O O5 0.422810 0.746798 0.934689
O O6 0.500021 0.852522 0.024590
O O7 0.157023 0.117804 0.114585
O O8 0.250000 0.000000 0.032640
O O9 0.990672 0.951806 0.081764
O O10 0.597210 0.029196 0.710551
O O11 0.629395 0.183282 0.785389
O O12 0.783688 0.117302 0.643472
O O13 0.914247 0.196727 0.846178
#
# Coordination Sequence:
#
# PCOD9421328 Si02
#       7
#     8   8   8   4   4   8   8
#     4  10  21  38  57  80 110 148 188 240 282 325
#     4  10  21  32  55  82 114 148 183 214 271 339
#     4   9  17  32  50  78 116 151 173 213 256 331
#     4  12  22  38  54  76 106 148 188 230 276 336
#     4  12  24  30  56  76 114 148 182 218 266 334
#     4   9  20  37  54  75 107 142 190 231 277 321
#     4  10  20  32  48  83 116 147 174 214 264 330
#
# _framework density 19.771871000000001
#
# number of rings (size 3 to 8) (size 9 to 14) (size 15 to 20)
#    0.000    2.000    1.667    3.000    4.667    0.000 
#    0.000    0.000    0.000    4.000    0.000    1.167 
#    0.000    0.000    0.000    0.000    0.000    0.000 
#
# Total GULP energy -267584.195788 kJ/mol
# GULP energy per Si atom -5574.670746 kJ/mol
# Density = 1.972687 g / cm^3
# Si number density = 19.771871 Si / 1000 Ang^3
#
#
#
# Elastic Constant Matrix: (Units=GPa)
#
#
# Indices 1 2 3 4 5 6 
#
# 1 23.3491 -2.2430 12.7732 0.0000 0.0000 0.0000
# 2 -2.2430 57.9062 10.0201 0.0000 0.0000 0.0000
# 3 12.7732 10.0201 56.5377 0.0000 0.0000 0.0000
# 4 0.0000 0.0000 0.0000 13.3260 0.0000 0.0000
# 5 0.0000 0.0000 0.0000 0.0000 37.6395 0.0000
# 6 0.0000 0.0000 0.0000 0.0000 0.0000 22.2970
#
#
#
# Elastic Compliance Matrix: (Units=1/GPa)
#
#
# Indices 1 2 3 4 5 6 
#
# 1 0.049748 0.003994 -0.011947 0.000000 0.000000 0.000000
# 2 0.003994 0.018136 -0.004117 0.000000 0.000000 0.000000
# 3 -0.011947 -0.004117 0.021116 0.000000 0.000000 0.000000
# 4 0.000000 0.000000 0.000000 0.075041 0.000000 0.000000
# 5 0.000000 0.000000 0.000000 0.000000 0.026568 0.000000
# 6 0.000000 0.000000 0.000000 0.000000 0.000000 0.044849
#
#
# Mechanical properties :
#
#
# Convention : Reuss Voigt Hill
#
# Bulk Modulus (GPa) = 15.41756 19.87706 17.64731
# Shear Modulus (GPa) = 17.77984 22.46868 20.12426
#
# Velocity S-wave (km/s) = 3.00200 3.37470 3.19379
# Velocity P-wave (km/s) = 4.45316 5.02592 4.74819
#
# Compressibility (1/GPa) = 0.06486112
#
# Stress axis : x y z
#
# Youngs Moduli (GPa) = 20.10146 55.13775 47.35738
#
# Poissons Ratio (x) = -0.22024 0.56578
# Poissons Ratio (y) = -0.08029 0.19496
# Poissons Ratio (z) = 0.24015 0.22699
#
# Static dielectric constant tensor:
#      x y z
#    x 1.784440 0.000000 0.000000 
#    y 0.000000 1.700370 0.000000 
#    z 0.000000 0.000000 1.751380 
# 
# From -- ./inp_files/23529.got.cif
#   From: 2010.05.17/outbox.cif.g08.bks.cpg/sg54_12_cif.got.tgz:23529.got - 2010.06.03 13:09:01.
