data_PCOD9421156
_publ_section_title
;
Structure prediction by ZEFSAII (Michael W. Deem and Ramdas Pophale) SiO2 
 PCOD9421156
Probable space group: P C C A
;
_chemical_formula_sum "Si O2"
_cell_formula_units_Z 48
_cell_length_a 22.428928
_cell_length_b 8.879103
_cell_length_c 11.092077
_cell_angle_alpha 90.000000
_cell_angle_beta 90.000000
_cell_angle_gamma 90.000000
_cell_volume 2208.973401
_symmetry_space_group_name_H-M "P C C A"
_symmetry_group_IT_number 54
_symmetry_cell_setting 'orthorhombic'
loop_
_space_group_symop_operation_xyz
x,y,z
1/2-x,-y,z
1/2+x,-y,1/2-z
-x,y,1/2-z
-x,-y,-z
1/2+x,y,-z
1/2-x,y,1/2+z
x,-y,1/2+z
loop_
_atom_site_type_symbol
_atom_site_label
_atom_site_fract_x
_atom_site_fract_y
_atom_site_fract_z
Si Si1 0.727817 0.671782 0.807341
Si Si2 0.494252 0.332497 0.440727
Si Si3 0.837489 0.107084 0.235510
Si Si4 0.059299 0.308970 0.174806
Si Si5 0.404029 0.360887 0.219043
Si Si6 0.810691 0.087873 0.967819
O O1 0.750000 0.500000 0.811573
O O2 0.778776 0.784452 0.755429
O O3 0.663173 0.675443 0.743026
O O4 0.707639 0.739858 0.937503
O O5 0.500000 0.500000 0.500000
O O6 0.463026 0.243792 0.547939
O O7 0.447603 0.344334 0.332314
O O8 0.558493 0.280171 0.389490
O O9 0.896822 0.197457 0.261397
O O10 0.842154 0.063696 0.095259
O O11 0.834548 0.981535 0.341380
O O12 0.094720 0.466913 0.171563
O O13 0.000000 0.339072 0.250000
O O14 0.750000 0.000000 0.987645
#
# Coordination Sequence:
#
# PCOD9421156 Si02
#       6
#     8   8   8   8   8   8
#     4  11  23  39  67 109 137 163 221 286 337 407
#     4   9  18  34  58  85 133 180 208 257 332 400
#     4  11  25  46  69  96 134 184 228 275 337 406
#     4  11  21  37  65  94 130 174 221 271 334 398
#     4  10  19  36  60  98 137 170 211 269 344 395
#     4  10  24  46  68  91 137 183 220 272 347 402
#
# _framework density 21.729551000000001
#
# number of rings (size 3 to 8) (size 9 to 14) (size 15 to 20)
#    0.000    1.667    5.000    1.500    2.333    4.667 
#    0.000    0.833    3.667    0.000    0.000    0.000 
#    0.000    0.000    0.000    0.000    0.000    0.000 
#
# Total GULP energy -267375.525767 kJ/mol
# GULP energy per Si atom -5570.323453 kJ/mol
# Density = 2.168009 g / cm^3
# Si number density = 21.729551 Si / 1000 Ang^3
#
#
#
# Elastic Constant Matrix: (Units=GPa)
#
#
# Indices 1 2 3 4 5 6 
#
# 1 103.0930 16.8094 10.6409 0.0000 0.0000 0.0000
# 2 16.8094 60.6411 22.7918 0.0000 0.0000 0.0000
# 3 10.6409 22.7918 123.2719 0.0000 0.0000 0.0000
# 4 0.0000 0.0000 0.0000 4.4130 0.0000 0.0000
# 5 0.0000 0.0000 0.0000 0.0000 19.7465 0.0000
# 6 0.0000 0.0000 0.0000 0.0000 0.0000 6.9410
#
#
#
# Elastic Compliance Matrix: (Units=1/GPa)
#
#
# Indices 1 2 3 4 5 6 
#
# 1 0.010176 -0.002677 -0.000384 0.000000 0.000000 0.000000
# 2 -0.002677 0.018426 -0.003176 0.000000 0.000000 0.000000
# 3 -0.000384 -0.003176 0.008732 0.000000 0.000000 0.000000
# 4 0.000000 0.000000 0.000000 0.226601 0.000000 0.000000
# 5 0.000000 0.000000 0.000000 0.000000 0.050642 0.000000
# 6 0.000000 0.000000 0.000000 0.000000 0.000000 0.144071
#
#
# Mechanical properties :
#
#
# Convention : Reuss Voigt Hill
#
# Bulk Modulus (GPa) = 40.22089 43.05446 41.63768
# Shear Modulus (GPa) = 10.42953 22.00437 16.21695
#
# Velocity S-wave (km/s) = 2.19320 3.18566 2.73483
# Velocity P-wave (km/s) = 4.99634 5.77824 5.40146
#
# Compressibility (1/GPa) = 0.02486270
#
# Stress axis : x y z
#
# Youngs Moduli (GPa) = 98.27056 54.27115 114.51585
#
# Poissons Ratio (x) = 0.14526 0.04392
# Poissons Ratio (y) = 0.26303 0.36367
# Poissons Ratio (z) = 0.03769 0.17235
#
# Static dielectric constant tensor:
#      x y z
#    x 1.829810 0.000000 0.000000 
#    y 0.000000 1.887940 0.000000 
#    z 0.000000 0.000000 1.909530 
# 
# From -- ./inp_files/9910.got.cif
#   From: 2010.05.17/outbox.cif.g08.bks.cpg/sg54_5_cif.got.tgz:9910.got - 2010.06.03 13:09:01.
