data_PCOD9421852
_publ_section_title
;
Structure prediction by ZEFSAII (Michael W. Deem and Ramdas Pophale) SiO2 
 PCOD9421852
Probable space group: P C C A
;
_chemical_formula_sum "Si O2"
_cell_formula_units_Z 40
_cell_length_a 27.594783
_cell_length_b 5.089045
_cell_length_c 14.016919
_cell_angle_alpha 90.000000
_cell_angle_beta 90.000000
_cell_angle_gamma 90.000000
_cell_volume 1968.411248
_symmetry_space_group_name_H-M "P C C A"
_symmetry_group_IT_number 54
_symmetry_cell_setting 'orthorhombic'
loop_
_space_group_symop_operation_xyz
x,y,z
1/2-x,-y,z
1/2+x,-y,1/2-z
-x,y,1/2-z
-x,-y,-z
1/2+x,y,-z
1/2-x,y,1/2+z
x,-y,1/2+z
loop_
_atom_site_type_symbol
_atom_site_label
_atom_site_fract_x
_atom_site_fract_y
_atom_site_fract_z
Si Si1 0.750000 0.500000 0.627101
Si Si2 0.194316 0.461351 0.698138
Si Si3 0.250000 0.000000 0.484523
Si Si4 0.507164 0.761396 0.864759
Si Si5 0.657801 0.941664 0.391076
Si Si6 0.056015 0.732113 0.546555
O O1 0.707551 0.614331 0.694326
O O2 0.769059 0.748290 0.571505
O O3 0.250000 0.500000 0.659084
O O4 0.166906 0.736572 0.694479
O O5 0.163931 0.238528 0.645346
O O6 0.295605 0.100685 0.543277
O O7 0.500000 0.743982 0.750000
O O8 0.546391 0.545660 0.901105
O O9 0.523853 0.052573 0.896202
O O10 0.461645 0.707683 0.936460
O O11 0.609618 0.849109 0.443397
#
# Coordination Sequence:
#
# PCOD9421852 Si02
#       6
#     4   8   4   8   8   8
#     4  10  22  36  54  82 116 172 206 260 294 352
#     4  10  20  39  56  76 121 169 204 242 308 357
#     4  12  20  36  58  86 128 162 210 260 300 364
#     4  10  21  45  68  93 128 165 202 270 335 381
#     4  12  21  39  62  87 120 172 205 250 316 380
#     4  10  23  40  67  96 128 160 213 263 319 393
#
# _framework density 20.320955999999999
#
# number of rings (size 3 to 8) (size 9 to 14) (size 15 to 20)
#    0.600    0.800    2.000    4.200    0.000    0.000 
#   10.800    0.000    0.000    0.000    0.000    0.000 
#    0.000    0.000    0.000    0.000    0.000    0.000 
#
# Total GULP energy -222775.869682 kJ/mol
# GULP energy per Si atom -5569.396742 kJ/mol
# Density = 2.027470 g / cm^3
# Si number density = 20.320956 Si / 1000 Ang^3
#
#
#
# Elastic Constant Matrix: (Units=GPa)
#
#
# Indices 1 2 3 4 5 6 
#
# 1 59.6902 -3.5736 10.9134 0.0000 0.0000 0.0000
# 2 -3.5736 97.6241 14.4421 0.0000 0.0000 0.0000
# 3 10.9134 14.4421 103.5231 0.0000 0.0000 0.0000
# 4 0.0000 0.0000 0.0000 71.2779 0.0000 0.0000
# 5 0.0000 0.0000 0.0000 0.0000 54.2307 0.0000
# 6 0.0000 0.0000 0.0000 0.0000 0.0000 35.5579
#
#
#
# Elastic Compliance Matrix: (Units=1/GPa)
#
#
# Indices 1 2 3 4 5 6 
#
# 1 0.017162 0.000915 -0.001937 0.000000 0.000000 0.000000
# 2 0.000915 0.010508 -0.001562 0.000000 0.000000 0.000000
# 3 -0.001937 -0.001562 0.010082 0.000000 0.000000 0.000000
# 4 0.000000 0.000000 0.000000 0.014030 0.000000 0.000000
# 5 0.000000 0.000000 0.000000 0.000000 0.018440 0.000000
# 6 0.000000 0.000000 0.000000 0.000000 0.000000 0.028123
#
#
# Mechanical properties :
#
#
# Convention : Reuss Voigt Hill
#
# Bulk Modulus (GPa) = 30.69088 33.82237 32.25663
# Shear Modulus (GPa) = 43.71612 48.15032 45.93322
#
# Velocity S-wave (km/s) = 4.64322 4.87302 4.75951
# Velocity P-wave (km/s) = 6.62434 6.95284 6.79058
#
# Compressibility (1/GPa) = 0.03258297
#
# Stress axis : x y z
#
# Youngs Moduli (GPa) = 58.26805 95.16571 99.18845
#
# Poissons Ratio (x) = -0.08705 0.19211
# Poissons Ratio (y) = -0.05330 0.15497
# Poissons Ratio (z) = 0.11286 0.14868
#
# Static dielectric constant tensor:
#      x y z
#    x 1.721590 0.000000 0.000000 
#    y 0.000000 1.681150 0.000000 
#    z 0.000000 0.000000 1.744810 
# 
# From -- ./inp_files/10213.got.cif
#   From: 2010.05.17/outbox.cif.g08.bks.cpg/sg54_6_cif.got.tgz:10213.got - 2010.06.03 13:09:01.
