data_PCOD9421922
_publ_section_title
;
Structure prediction by ZEFSAII (Michael W. Deem and Ramdas Pophale) SiO2 
 PCOD9421922
Probable space group: P C C A
;
_chemical_formula_sum "Si O2"
_cell_formula_units_Z 52
_cell_length_a 9.634923
_cell_length_b 16.529934
_cell_length_c 17.846399
_cell_angle_alpha 90.000000
_cell_angle_beta 90.000000
_cell_angle_gamma 90.000000
_cell_volume 2842.300335
_symmetry_space_group_name_H-M "P C C A"
_symmetry_group_IT_number 54
_symmetry_cell_setting 'orthorhombic'
loop_
_space_group_symop_operation_xyz
x,y,z
1/2-x,-y,z
1/2+x,-y,1/2-z
-x,y,1/2-z
-x,-y,-z
1/2+x,y,-z
1/2-x,y,1/2+z
x,-y,1/2+z
loop_
_atom_site_type_symbol
_atom_site_label
_atom_site_fract_x
_atom_site_fract_y
_atom_site_fract_z
Si Si1 0.322685 0.576143 0.634557
Si Si2 0.023543 0.694871 0.023959
Si Si3 0.738856 0.802752 0.555012
Si Si4 0.034242 0.839457 0.833405
Si Si5 0.617803 0.947289 0.457895
Si Si6 0.039550 0.345642 0.141809
Si Si7 0.000000 0.524370 0.750000
O O1 0.250000 0.500000 0.592654
O O2 0.417881 0.630241 0.582126
O O3 0.196578 0.631570 0.661130
O O4 0.398990 0.534313 0.704241
O O5 0.890857 0.741512 0.057598
O O6 0.141868 0.758945 0.995992
O O7 0.980514 0.650385 0.947130
O O8 0.810075 0.829188 0.633185
O O9 0.682046 0.882163 0.514827
O O10 0.000000 0.868842 0.750000
O O11 0.953932 0.896533 0.891760
O O12 0.983249 0.746733 0.836897
O O13 0.750000 0.000000 0.431942
O O14 0.500000 0.000000 0.500000
O O15 0.948120 0.411693 0.186384
#
# Coordination Sequence:
#
# PCOD9421922 Si02
#       7
#     8   8   8   8   8   8   4
#     4  10  22  38  56  88 127 161 217 275 330 379
#     4  11  20  40  66  93 121 168 231 269 310 399
#     4  11  21  40  69  98 123 177 222 261 329 403
#     4  11  23  41  68  97 132 173 216 270 335 397
#     4  12  22  41  70  97 135 168 211 267 326 397
#     4  10  20  40  62  84 125 167 216 263 326 393
#     4  10  22  38  54  84 122 172 202 270 336 370
#
# _framework density 18.295038999999999
#
# number of rings (size 3 to 8) (size 9 to 14) (size 15 to 20)
#    0.000    1.231    6.923    0.000    0.000    3.692 
#   11.077    0.000    0.000    1.846    0.000    0.000 
#    0.000    0.000    0.000    0.000    0.000    0.000 
#
# Total GULP energy -289781.058930 kJ/mol
# GULP energy per Si atom -5572.712672 kJ/mol
# Density = 1.825340 g / cm^3
# Si number density = 18.295039 Si / 1000 Ang^3
#
#
#
# Elastic Constant Matrix: (Units=GPa)
#
#
# Indices 1 2 3 4 5 6 
#
# 1 116.8510 62.1828 59.7129 0.0000 0.0000 0.0000
# 2 62.1828 101.8544 60.9428 0.0000 0.0000 0.0000
# 3 59.7129 60.9428 126.9022 0.0000 0.0000 0.0000
# 4 0.0000 0.0000 0.0000 18.8226 0.0000 0.0000
# 5 0.0000 0.0000 0.0000 0.0000 22.4027 0.0000
# 6 0.0000 0.0000 0.0000 0.0000 0.0000 42.0012
#
#
#
# Elastic Compliance Matrix: (Units=1/GPa)
#
#
# Indices 1 2 3 4 5 6 
#
# 1 0.013645 -0.006299 -0.003396 0.000000 0.000000 0.000000
# 2 -0.006299 0.016684 -0.005048 0.000000 0.000000 0.000000
# 3 -0.003396 -0.005048 0.011902 0.000000 0.000000 0.000000
# 4 0.000000 0.000000 0.000000 0.053128 0.000000 0.000000
# 5 0.000000 0.000000 0.000000 0.000000 0.044637 0.000000
# 6 0.000000 0.000000 0.000000 0.000000 0.000000 0.023809
#
#
# Mechanical properties :
#
#
# Convention : Reuss Voigt Hill
#
# Bulk Modulus (GPa) = 78.45766 79.03163 78.74464
# Shear Modulus (GPa) = 25.31141 27.49658 26.40399
#
# Velocity S-wave (km/s) = 3.72359 3.88100 3.80311
# Velocity P-wave (km/s) = 7.83994 7.96084 7.90062
#
# Compressibility (1/GPa) = 0.01274573
#
# Stress axis : x y z
#
# Youngs Moduli (GPa) = 73.28681 59.93802 84.01689
#
# Poissons Ratio (x) = 0.37752 0.28530
# Poissons Ratio (y) = 0.46160 0.42415
# Poissons Ratio (z) = 0.24887 0.30259
#
# Static dielectric constant tensor:
#      x y z
#    x 1.669180 0.000000 0.000000 
#    y 0.000000 1.639340 0.000000 
#    z 0.000000 0.000000 1.654440 
# 
# From -- ./inp_files/16764.got.cif
#   From: 2010.05.17/outbox.cif.g08.bks.cpg/sg54_9_cif.got.tgz:16764.got - 2010.06.03 13:09:01.
