data_PCOD9421094
_publ_section_title
;
Structure prediction by ZEFSAII (Michael W. Deem and Ramdas Pophale) SiO2 
 PCOD9421094
Probable space group: P C C A
;
_chemical_formula_sum "Si O2"
_cell_formula_units_Z 56
_cell_length_a 18.598100
_cell_length_b 8.857369
_cell_length_c 17.447690
_cell_angle_alpha 90.000000
_cell_angle_beta 90.000000
_cell_angle_gamma 90.000000
_cell_volume 2874.162063
_symmetry_space_group_name_H-M "P C C A"
_symmetry_group_IT_number 54
_symmetry_cell_setting 'orthorhombic'
loop_
_space_group_symop_operation_xyz
x,y,z
1/2-x,-y,z
1/2+x,-y,1/2-z
-x,y,1/2-z
-x,-y,-z
1/2+x,y,-z
1/2-x,y,1/2+z
x,-y,1/2+z
loop_
_atom_site_type_symbol
_atom_site_label
_atom_site_fract_x
_atom_site_fract_y
_atom_site_fract_z
Si Si1 0.324272 0.902899 0.803758
Si Si2 0.564091 0.836989 0.153449
Si Si3 0.828858 0.970367 0.363980
Si Si4 0.665962 0.532710 0.423338
Si Si5 0.904127 0.259968 0.306697
Si Si6 0.867049 0.222337 0.998885
Si Si7 0.221660 0.328807 0.928576
O O1 0.330378 0.867134 0.712718
O O2 0.315364 0.759085 0.859030
O O3 0.250000 0.000000 0.811093
O O4 0.393022 0.006801 0.828323
O O5 0.598713 0.721037 0.215294
O O6 0.480117 0.817673 0.171596
O O7 0.576588 0.796112 0.066118
O O8 0.873022 0.904785 0.434250
O O9 0.750000 0.000000 0.395554
O O10 0.849282 0.131604 0.330970
O O11 0.750000 0.500000 0.401793
O O12 0.618367 0.596967 0.355284
O O13 0.631616 0.380395 0.455090
O O14 0.672303 0.646561 0.495982
O O15 0.789905 0.230365 0.042687
O O16 0.250000 0.500000 0.910080
#
# Coordination Sequence:
#
# PCOD9421094 Si02
#       7
#     8   8   8   8   8   8   8
#     4  10  19  35  58  87 111 157 202 243 300 358
#     4  10  22  37  62  83 122 158 200 243 305 360
#     4  10  21  35  58  84 113 145 197 250 297 350
#     4   9  20  38  58  86 117 150 199 250 299 356
#     4  10  22  41  58  86 120 158 196 244 305 368
#     4  10  20  36  55  86 113 148 195 244 292 357
#     4   9  19  36  55  87 120 148 193 250 301 345
#
# _framework density 19.48394
#
# number of rings (size 3 to 8) (size 9 to 14) (size 15 to 20)
#    0.000    2.571    1.429    1.714    4.000    1.143 
#    5.143    1.429    0.000    1.714    0.000    0.000 
#    0.000    0.000    0.000    0.000    0.000    0.000 
#
# Total GULP energy -311925.600515 kJ/mol
# GULP energy per Si atom -5570.100009 kJ/mol
# Density = 1.943959 g / cm^3
# Si number density = 19.483940 Si / 1000 Ang^3
#
#
#
# Elastic Constant Matrix: (Units=GPa)
#
#
# Indices 1 2 3 4 5 6 
#
# 1 36.7989 4.6640 8.1297 0.0000 0.0000 0.0000
# 2 4.6640 24.1391 26.1135 0.0000 0.0000 0.0000
# 3 8.1297 26.1135 91.7952 0.0000 0.0000 0.0000
# 4 0.0000 0.0000 0.0000 22.8891 0.0000 0.0000
# 5 0.0000 0.0000 0.0000 0.0000 19.5109 0.0000
# 6 0.0000 0.0000 0.0000 0.0000 0.0000 13.6852
#
#
#
# Elastic Compliance Matrix: (Units=1/GPa)
#
#
# Indices 1 2 3 4 5 6 
#
# 1 0.027974 -0.003936 -0.001358 0.000000 0.000000 0.000000
# 2 -0.003936 0.060397 -0.016833 0.000000 0.000000 0.000000
# 3 -0.001358 -0.016833 0.015803 0.000000 0.000000 0.000000
# 4 0.000000 0.000000 0.000000 0.043689 0.000000 0.000000
# 5 0.000000 0.000000 0.000000 0.000000 0.051254 0.000000
# 6 0.000000 0.000000 0.000000 0.000000 0.000000 0.073071
#
#
# Mechanical properties :
#
#
# Convention : Reuss Voigt Hill
#
# Bulk Modulus (GPa) = 16.68903 25.61637 21.15270
# Shear Modulus (GPa) = 14.86269 18.80543 16.83406
#
# Velocity S-wave (km/s) = 2.76491 3.11010 2.94257
# Velocity P-wave (km/s) = 4.33326 5.10617 4.73551
#
# Compressibility (1/GPa) = 0.05991959
#
# Stress axis : x y z
#
# Youngs Moduli (GPa) = 35.74809 16.55723 63.28088
#
# Poissons Ratio (x) = 0.06517 0.08592
# Poissons Ratio (y) = 0.14071 1.06519
# Poissons Ratio (z) = 0.04854 0.27870
#
# Static dielectric constant tensor:
#      x y z
#    x 1.717000 0.000000 0.000000 
#    y 0.000000 1.736730 0.000000 
#    z 0.000000 0.000000 1.727300 
# 
# From -- ./inp_files/18892.got.cif
#   From: 2010.05.17/outbox.cif.g08.bks.cpg/sg54_10_cif.got.tgz:18892.got - 2010.06.03 13:09:01.
