data_PCOD9421648
_publ_section_title
;
Structure prediction by ZEFSAII (Michael W. Deem and Ramdas Pophale) SiO2 
 PCOD9421648
Probable space group: P C C A
;
_chemical_formula_sum "Si O2"
_cell_formula_units_Z 64
_cell_length_a 16.714847
_cell_length_b 8.061493
_cell_length_c 23.274166
_cell_angle_alpha 90.000000
_cell_angle_beta 90.000000
_cell_angle_gamma 90.000000
_cell_volume 3136.115250
_symmetry_space_group_name_H-M "P C C A"
_symmetry_group_IT_number 54
_symmetry_cell_setting 'orthorhombic'
loop_
_space_group_symop_operation_xyz
x,y,z
1/2-x,-y,z
1/2+x,-y,1/2-z
-x,y,1/2-z
-x,-y,-z
1/2+x,y,-z
1/2-x,y,1/2+z
x,-y,1/2+z
loop_
_atom_site_type_symbol
_atom_site_label
_atom_site_fract_x
_atom_site_fract_y
_atom_site_fract_z
Si Si1 0.134649 0.656231 0.323398
Si Si2 0.316129 0.728931 0.310737
Si Si3 0.992866 0.837639 0.104427
Si Si4 0.405378 0.388992 0.617023
Si Si5 0.900018 0.297608 0.804853
Si Si6 0.422105 0.607749 0.515783
Si Si7 0.221933 0.186940 0.183212
Si Si8 0.930702 0.194051 0.092051
O O1 0.222592 0.736558 0.327085
O O2 0.152767 0.460667 0.316972
O O3 0.092309 0.708341 0.263633
O O4 0.078983 0.715813 0.375291
O O5 0.319412 0.791977 0.245539
O O6 0.371906 0.825680 0.354246
O O7 0.051307 0.843069 0.160428
O O8 0.046039 0.754265 0.055877
O O9 0.959044 0.008009 0.079965
O O10 0.423078 0.527301 0.666054
O O11 0.376209 0.486325 0.559617
O O12 0.338445 0.262126 0.637609
O O13 0.488466 0.294400 0.606752
O O14 0.804725 0.287898 0.815140
O O15 0.500000 0.500000 0.500000
O O16 0.389788 0.696773 0.458610
O O17 0.250000 0.000000 0.173450
#
# Coordination Sequence:
#
# PCOD9421648 Si02
#       8
#     8   8   8   8   8   8   8   8
#     4  10  20  38  58  87 121 167 209 243 307 384
#     4  10  22  37  60  85 129 167 201 250 311 383
#     4  11  22  36  64  90 124 160 209 265 313 368
#     4  10  20  39  64  88 119 168 214 252 312 385
#     4  10  20  37  58  86 122 167 205 246 307 385
#     4   9  20  40  65  85 114 162 213 260 306 365
#     4  11  22  36  59  92 133 163 201 263 323 375
#     4  11  23  38  59  94 124 160 210 267 317 363
#
# _framework density 20.407412999999998
#
# number of rings (size 3 to 8) (size 9 to 14) (size 15 to 20)
#    0.000    1.750    1.250    4.125    3.500    0.500 
#    2.250    0.000   30.250    0.000    0.000    0.000 
#    0.000    0.000    0.000    0.000    0.000    0.000 
#
# Total GULP energy -357223.779616 kJ/mol
# GULP energy per Si atom -5581.621557 kJ/mol
# Density = 2.036097 g / cm^3
# Si number density = 20.407413 Si / 1000 Ang^3
#
#
#
# Elastic Constant Matrix: (Units=GPa)
#
#
# Indices 1 2 3 4 5 6 
#
# 1 58.2939 14.1460 30.5395 0.0000 0.0000 0.0000
# 2 14.1460 81.7572 26.3275 0.0000 0.0000 0.0000
# 3 30.5395 26.3275 72.2713 0.0000 0.0000 0.0000
# 4 0.0000 0.0000 0.0000 17.9343 0.0000 0.0000
# 5 0.0000 0.0000 0.0000 0.0000 3.9314 0.0000
# 6 0.0000 0.0000 0.0000 0.0000 0.0000 32.6032
#
#
#
# Elastic Compliance Matrix: (Units=1/GPa)
#
#
# Indices 1 2 3 4 5 6 
#
# 1 0.022093 -0.000925 -0.008999 0.000000 0.000000 0.000000
# 2 -0.000925 0.013896 -0.004671 0.000000 0.000000 0.000000
# 3 -0.008999 -0.004671 0.019341 0.000000 0.000000 0.000000
# 4 0.000000 0.000000 0.000000 0.055759 0.000000 0.000000
# 5 0.000000 0.000000 0.000000 0.000000 0.254362 0.000000
# 6 0.000000 0.000000 0.000000 0.000000 0.000000 0.030672
#
#
# Mechanical properties :
#
#
# Convention : Reuss Voigt Hill
#
# Bulk Modulus (GPa) = 38.25560 39.37206 38.81383
# Shear Modulus (GPa) = 11.52005 20.31440 15.91722
#
# Velocity S-wave (km/s) = 2.37851 3.15849 2.79583
# Velocity P-wave (km/s) = 5.13125 5.71282 5.42982
#
# Compressibility (1/GPa) = 0.02613996
#
# Stress axis : x y z
#
# Youngs Moduli (GPa) = 45.26245 71.96536 51.70335
#
# Poissons Ratio (x) = 0.06655 0.46528
# Poissons Ratio (y) = 0.04186 0.24152
# Poissons Ratio (z) = 0.40732 0.33616
#
# Static dielectric constant tensor:
#      x y z
#    x 1.747330 0.000000 0.000000 
#    y 0.000000 1.711570 0.000000 
#    z 0.000000 0.000000 1.819760 
# 
# From -- ./inp_files/24485.got.cif
#   From: 2010.05.17/outbox.cif.g08.bks.cpg/sg54_13_cif.got.tgz:24485.got - 2010.06.03 13:09:01.
