data_PCOD9421882
_publ_section_title
;
Structure prediction by ZEFSAII (Michael W. Deem and Ramdas Pophale) SiO2 
 PCOD9421882
Probable space group: P C C A
;
_chemical_formula_sum "Si O2"
_cell_formula_units_Z 48
_cell_length_a 14.314345
_cell_length_b 14.017817
_cell_length_c 9.252739
_cell_angle_alpha 90.000000
_cell_angle_beta 90.000000
_cell_angle_gamma 90.000000
_cell_volume 1856.616382
_symmetry_space_group_name_H-M "P C C A"
_symmetry_group_IT_number 54
_symmetry_cell_setting 'orthorhombic'
loop_
_space_group_symop_operation_xyz
x,y,z
1/2-x,-y,z
1/2+x,-y,1/2-z
-x,y,1/2-z
-x,-y,-z
1/2+x,y,-z
1/2-x,y,1/2+z
x,-y,1/2+z
loop_
_atom_site_type_symbol
_atom_site_label
_atom_site_fract_x
_atom_site_fract_y
_atom_site_fract_z
Si Si1 0.750000 0.500000 0.527602
Si Si2 0.929398 0.770528 0.428276
Si Si3 0.240841 0.304177 0.139664
Si Si4 0.091503 0.607881 0.846504
Si Si5 0.750000 0.000000 0.632621
Si Si6 0.085556 0.103822 0.293596
Si Si7 0.119158 0.836217 0.486364
O O1 0.752569 0.591818 0.427364
O O2 0.653595 0.485800 0.616966
O O3 0.838952 0.748075 0.330052
O O4 0.941031 0.669747 0.515364
O O5 0.902059 0.851988 0.547484
O O6 0.032911 0.805328 0.387456
O O7 0.167161 0.323061 0.267097
O O8 0.196205 0.243119 0.010451
O O9 0.000000 0.588789 0.750000
O O10 0.688426 0.065979 0.733544
O O11 0.828678 0.065421 0.554078
O O12 0.070119 0.165230 0.147658
O O13 0.000000 0.031724 0.250000
#
# Coordination Sequence:
#
# PCOD9421882 Si02
#       7
#     4   8   8   8   4   8   8
#     4  10  26  38  60 102 130 162 222 274 318 390
#     4  10  20  39  65  91 122 169 216 261 322 396
#     4  11  21  41  66  93 125 172 216 266 326 391
#     4  11  20  41  67  90 129 176 218 266 330 394
#     4  12  24  40  62  98 130 162 220 278 308 394
#     4  10  21  39  60  87 122 166 209 255 323 380
#     4  11  22  41  67  92 125 176 215 260 330 387
#
# _framework density 25.853484999999999
#
# number of rings (size 3 to 8) (size 9 to 14) (size 15 to 20)
#    0.000    1.333    5.000    1.500    0.000    3.333 
#    6.000    0.000    0.000    0.000    0.000    0.000 
#    0.000    0.000    0.000    0.000    0.000    0.000 
#
# Total GULP energy -267480.652315 kJ/mol
# GULP energy per Si atom -5572.513590 kJ/mol
# Density = 2.579464 g / cm^3
# Si number density = 25.853485 Si / 1000 Ang^3
#
#
#
# Elastic Constant Matrix: (Units=GPa)
#
#
# Indices 1 2 3 4 5 6 
#
# 1 173.5528 31.3062 31.8847 0.0000 0.0000 0.0000
# 2 31.3062 72.7308 -1.1964 0.0000 0.0000 0.0000
# 3 31.8847 -1.1964 57.6146 0.0000 0.0000 0.0000
# 4 0.0000 0.0000 0.0000 -9.6719 0.0000 0.0000
# 5 0.0000 0.0000 0.0000 0.0000 81.7868 0.0000
# 6 0.0000 0.0000 0.0000 0.0000 0.0000 45.0203
#
#
#
# Elastic Compliance Matrix: (Units=1/GPa)
#
#
# Indices 1 2 3 4 5 6 
#
# 1 0.007050 -0.003100 -0.003966 0.000000 0.000000 0.000000
# 2 -0.003100 0.015117 0.002029 0.000000 0.000000 0.000000
# 3 -0.003966 0.002029 0.019594 0.000000 0.000000 0.000000
# 4 0.000000 0.000000 0.000000 -0.103393 0.000000 0.000000
# 5 0.000000 0.000000 0.000000 0.000000 0.012227 0.000000
# 6 0.000000 0.000000 0.000000 0.000000 0.000000 0.022212
#
#
# Mechanical properties :
#
#
# Convention : Reuss Voigt Hill
#
# Bulk Modulus (GPa) = 31.55779 47.54303 39.55041
# Shear Modulus (GPa) = -762.35490 39.55397 -361.40046
#
# Velocity S-wave (km/s) = -17.19056 3.91567 -11.83602
# Velocity P-wave (km/s) = 19.53938 6.23479 13.09417
#
# Compressibility (1/GPa) = 0.03168790
#
# Stress axis : x y z
#
# Youngs Moduli (GPa) = 141.85125 66.15100 51.03728
#
# Poissons Ratio (x) = 0.20505 0.20240
# Poissons Ratio (y) = 0.43969 -0.10357
# Poissons Ratio (z) = 0.56254 -0.13424
#
# Static dielectric constant tensor:
#      x y z
#    x 2.563990 0.000000 0.000000 
#    y 0.000000 2.629540 0.000000 
#    z 0.000000 0.000000 2.130300 
# 
# From -- ./inp_files/8372.got.cif
#   From: 2010.05.17/outbox.cif.g08.bks.cpg/sg54_5_cif.got.tgz:8372.got - 2010.06.03 13:09:01.
