data_PCOD9421476
_publ_section_title
;
Structure prediction by ZEFSAII (Michael W. Deem and Ramdas Pophale) SiO2 
 PCOD9421476
Probable space group: P C C A
;
_chemical_formula_sum "Si O2"
_cell_formula_units_Z 44
_cell_length_a 14.719363
_cell_length_b 5.463862
_cell_length_c 23.970754
_cell_angle_alpha 90.000000
_cell_angle_beta 90.000000
_cell_angle_gamma 90.000000
_cell_volume 1927.837539
_symmetry_space_group_name_H-M "P C C A"
_symmetry_group_IT_number 54
_symmetry_cell_setting 'orthorhombic'
loop_
_space_group_symop_operation_xyz
x,y,z
1/2-x,-y,z
1/2+x,-y,1/2-z
-x,y,1/2-z
-x,-y,-z
1/2+x,y,-z
1/2-x,y,1/2+z
x,-y,1/2+z
loop_
_atom_site_type_symbol
_atom_site_label
_atom_site_fract_x
_atom_site_fract_y
_atom_site_fract_z
Si Si1 0.303849 0.241292 0.963246
Si Si2 0.376349 0.194403 0.659350
Si Si3 0.665276 0.821263 0.220429
Si Si4 0.994978 0.189674 0.692282
Si Si5 0.250000 0.000000 0.569812
Si Si6 0.430319 0.421244 0.874479
O O1 0.250000 0.500000 0.960112
O O2 0.396201 0.302671 0.931118
O O3 0.250000 0.000000 0.938923
O O4 0.312560 0.156771 0.027494
O O5 0.335789 0.289632 0.717512
O O6 0.306846 0.178461 0.609197
O O7 0.469977 0.322708 0.642300
O O8 0.408421 0.916137 0.673862
O O9 0.649774 0.635508 0.170140
O O10 0.750000 0.000000 0.214194
O O11 0.573824 0.981602 0.213376
O O12 0.947724 0.294602 0.636886
O O13 0.000000 0.349735 0.750000
#
# Coordination Sequence:
#
# PCOD9421476 Si02
#       6
#     8   8   8   8   4   8
#     4  10  26  46  69  97 131 172 227 278 329 385
#     4  10  21  41  64  92 128 173 217 270 335 401
#     4  10  20  35  63  96 130 169 211 265 329 407
#     4   9  20  35  56  95 131 165 207 264 333 405
#     4  10  24  46  64  90 128 172 232 282 324 392
#     4  11  22  37  65  93 135 166 218 270 338 394
#
# _framework density 22.823499000000002
#
# number of rings (size 3 to 8) (size 9 to 14) (size 15 to 20)
#    0.545    1.455    0.909    3.273    7.636    2.182 
#    0.000    1.818    0.000    0.000    0.000    0.000 
#    0.000    0.000    0.000    0.000    0.000    0.000 
#
# Total GULP energy -245059.855501 kJ/mol
# GULP energy per Si atom -5569.542170 kJ/mol
# Density = 2.277155 g / cm^3
# Si number density = 22.823499 Si / 1000 Ang^3
#
#
#
# Elastic Constant Matrix: (Units=GPa)
#
#
# Indices 1 2 3 4 5 6 
#
# 1 50.8911 -12.4910 12.2507 0.0000 0.0000 0.0000
# 2 -12.4910 41.8774 1.2164 0.0000 0.0000 0.0000
# 3 12.2507 1.2164 110.8612 0.0000 0.0000 0.0000
# 4 0.0000 0.0000 0.0000 -3.8529 0.0000 0.0000
# 5 0.0000 0.0000 0.0000 0.0000 25.2510 0.0000
# 6 0.0000 0.0000 0.0000 0.0000 0.0000 30.8124
#
#
#
# Elastic Compliance Matrix: (Units=1/GPa)
#
#
# Indices 1 2 3 4 5 6 
#
# 1 0.021868 0.006595 -0.002489 0.000000 0.000000 0.000000
# 2 0.006595 0.025876 -0.001013 0.000000 0.000000 0.000000
# 3 -0.002489 -0.001013 0.009306 0.000000 0.000000 0.000000
# 4 0.000000 0.000000 0.000000 -0.259545 0.000000 0.000000
# 5 0.000000 0.000000 0.000000 0.000000 0.039602 0.000000
# 6 0.000000 0.000000 0.000000 0.000000 0.000000 0.032455
#
#
# Mechanical properties :
#
#
# Convention : Reuss Voigt Hill
#
# Bulk Modulus (GPa) = 15.81366 22.84243 19.32804
# Shear Modulus (GPa) = -43.27259 23.95235 -9.66012
#
# Velocity S-wave (km/s) = -4.35899 3.24305 -2.05954
# Velocity P-wave (km/s) = 4.28844 4.90441 1.68263
#
# Compressibility (1/GPa) = 0.06323648
#
# Stress axis : x y z
#
# Youngs Moduli (GPa) = 45.72972 38.64629 107.45266
#
# Poissons Ratio (x) = -0.25487 0.26743
# Poissons Ratio (y) = -0.30158 0.10881
# Poissons Ratio (z) = 0.11381 0.03914
#
# Static dielectric constant tensor:
#      x y z
#    x 1.812480 0.000000 0.000000 
#    y 0.000000 2.064020 0.000000 
#    z 0.000000 0.000000 1.947390 
# 
# From -- ./inp_files/26377.got.cif
#   From: 2010.05.17/outbox.cif.g08.bks.cpg/sg54_14_cif.got.tgz:26377.got - 2010.06.03 13:09:01.
