data_PCOD9421721
_publ_section_title
;
Structure prediction by ZEFSAII (Michael W. Deem and Ramdas Pophale) SiO2 
 PCOD9421721
Probable space group: P C C A
;
_chemical_formula_sum "Si O2"
_cell_formula_units_Z 56
_cell_length_a 10.979666
_cell_length_b 13.445237
_cell_length_c 15.008075
_cell_angle_alpha 90.000000
_cell_angle_beta 90.000000
_cell_angle_gamma 90.000000
_cell_volume 2215.555239
_symmetry_space_group_name_H-M "P C C A"
_symmetry_group_IT_number 54
_symmetry_cell_setting 'orthorhombic'
loop_
_space_group_symop_operation_xyz
x,y,z
1/2-x,-y,z
1/2+x,-y,1/2-z
-x,y,1/2-z
-x,-y,-z
1/2+x,y,-z
1/2-x,y,1/2+z
x,-y,1/2+z
loop_
_atom_site_type_symbol
_atom_site_label
_atom_site_fract_x
_atom_site_fract_y
_atom_site_fract_z
Si Si1 0.900164 0.770072 0.960009
Si Si2 0.866371 0.743380 0.658890
Si Si3 0.765905 0.605966 0.029340
Si Si4 0.000000 0.941606 0.250000
Si Si5 0.855729 0.575521 0.343713
Si Si6 0.890877 0.963535 0.065554
Si Si7 0.500000 0.430826 0.750000
Si Si8 0.704636 0.794892 0.807661
O O1 0.888807 0.653291 0.987510
O O2 0.783514 0.795077 0.897826
O O3 0.017064 0.781002 0.895638
O O4 0.898654 0.845579 0.042373
O O5 0.777039 0.696526 0.588040
O O6 0.901017 0.648785 0.720006
O O7 0.796986 0.814434 0.726252
O O8 0.750000 0.500000 0.076245
O O9 0.675080 0.592612 0.946151
O O10 0.070155 0.990672 0.333402
O O11 0.099211 0.874149 0.199160
O O12 0.750000 0.500000 0.310463
O O13 0.851459 0.683389 0.299157
O O14 0.973038 0.508318 0.328581
O O15 0.750000 0.000000 0.048514
O O16 0.000000 0.000000 0.000000
#
# Coordination Sequence:
#
# PCOD9421721 Si02
#       8
#     8   8   8   4   8   8   4   8
#     4  11  25  48  79 107 154 201 259 329 390 483
#     4  12  23  41  69 105 147 207 263 313 391 463
#     4  10  24  40  63 102 151 201 258 318 384 458
#     4  12  29  50  85 118 158 192 250 326 412 494
#     4  10  20  38  56  90 146 195 262 319 368 446
#     4  12  31  58  90 126 160 208 268 339 421 503
#     4  12  21  36  59  96 140 206 268 324 382 450
#     4  11  23  44  70 110 148 207 256 323 395 470
#
# _framework density 25.275832000000001
#
# number of rings (size 3 to 8) (size 9 to 14) (size 15 to 20)
#    0.000    0.857    2.857    3.857   10.000    4.000 
#    0.000    0.000    0.000    0.000    0.000    0.000 
#    0.000    0.000    0.000    0.000    0.000    0.000 
#
# Total GULP energy -312934.559255 kJ/mol
# GULP energy per Si atom -5588.117130 kJ/mol
# Density = 2.521830 g / cm^3
# Si number density = 25.275832 Si / 1000 Ang^3
#
#
#
# Elastic Constant Matrix: (Units=GPa)
#
#
# Indices 1 2 3 4 5 6 
#
# 1 101.9246 27.9789 29.7779 0.0000 0.0000 0.0000
# 2 27.9789 90.5896 34.5155 0.0000 0.0000 0.0000
# 3 29.7779 34.5155 84.0260 0.0000 0.0000 0.0000
# 4 0.0000 0.0000 0.0000 18.3628 0.0000 0.0000
# 5 0.0000 0.0000 0.0000 0.0000 35.6461 0.0000
# 6 0.0000 0.0000 0.0000 0.0000 0.0000 -5.3054
#
#
#
# Elastic Compliance Matrix: (Units=1/GPa)
#
#
# Indices 1 2 3 4 5 6 
#
# 1 0.011347 -0.002338 -0.003061 0.000000 0.000000 0.000000
# 2 -0.002338 0.013569 -0.004745 0.000000 0.000000 0.000000
# 3 -0.003061 -0.004745 0.014935 0.000000 0.000000 0.000000
# 4 0.000000 0.000000 0.000000 0.054458 0.000000 0.000000
# 5 0.000000 0.000000 0.000000 0.000000 0.028054 0.000000
# 6 0.000000 0.000000 0.000000 0.000000 0.000000 -0.188488
#
#
# Mechanical properties :
#
#
# Convention : Reuss Voigt Hill
#
# Bulk Modulus (GPa) = 51.11788 51.23166 51.17477
# Shear Modulus (GPa) = -127.17419 22.02523 -52.57448
#
# Velocity S-wave (km/s) = -7.10097 2.95514 -4.56568
# Velocity P-wave (km/s) = 6.85301 5.65304 2.73924
#
# Compressibility (1/GPa) = 0.01956263
#
# Stress axis : x y z
#
# Youngs Moduli (GPa) = 88.12649 73.69775 66.95724
#
# Poissons Ratio (x) = 0.17234 0.20494
# Poissons Ratio (y) = 0.20608 0.31771
# Poissons Ratio (z) = 0.26974 0.34970
#
# Static dielectric constant tensor:
#      x y z
#    x 1.958820 0.000000 0.000000 
#    y 0.000000 2.035920 0.000000 
#    z 0.000000 0.000000 2.054700 
# 
# From -- ./inp_files/12772.got.cif
#   From: 2010.05.17/outbox.cif.g08.bks.cpg/sg54_7_cif.got.tgz:12772.got - 2010.06.03 13:09:01.
