data_PCOD9421074
_publ_section_title
;
Structure prediction by ZEFSAII (Michael W. Deem and Ramdas Pophale) SiO2 
 PCOD9421074
Probable space group: P C C A
;
_chemical_formula_sum "Si O2"
_cell_formula_units_Z 60
_cell_length_a 7.721310
_cell_length_b 22.288155
_cell_length_c 16.533176
_cell_angle_alpha 90.000000
_cell_angle_beta 90.000000
_cell_angle_gamma 90.000000
_cell_volume 2845.256325
_symmetry_space_group_name_H-M "P C C A"
_symmetry_group_IT_number 54
_symmetry_cell_setting 'orthorhombic'
loop_
_space_group_symop_operation_xyz
x,y,z
1/2-x,-y,z
1/2+x,-y,1/2-z
-x,y,1/2-z
-x,-y,-z
1/2+x,y,-z
1/2-x,y,1/2+z
x,-y,1/2+z
loop_
_atom_site_type_symbol
_atom_site_label
_atom_site_fract_x
_atom_site_fract_y
_atom_site_fract_z
Si Si1 0.050954 0.976822 0.656477
Si Si2 0.448785 0.100563 0.396756
Si Si3 0.308596 0.376333 0.724015
Si Si4 0.323469 0.566957 0.063576
Si Si5 0.500000 0.825021 0.750000
Si Si6 0.843308 0.137338 0.431557
Si Si7 0.275245 0.570828 0.387547
Si Si8 0.154299 0.763786 0.689583
O O1 0.038774 0.913553 0.610997
O O2 0.000000 0.971615 0.750000
O O3 0.250000 0.000000 0.653607
O O4 0.941723 0.029088 0.612546
O O5 0.401999 0.131532 0.312824
O O6 0.649194 0.119245 0.407539
O O7 0.355446 0.128623 0.473156
O O8 0.500000 0.400551 0.750000
O O9 0.231312 0.406834 0.643879
O O10 0.217203 0.389921 0.809858
O O11 0.338120 0.307818 0.696986
O O12 0.250000 0.500000 0.055601
O O13 0.522581 0.573841 0.088325
O O14 0.312127 0.591097 0.971974
O O15 0.346067 0.785474 0.714053
O O16 0.882304 0.202902 0.395546
O O17 0.250000 0.500000 0.368965
O O18 0.000000 0.783640 0.750000
#
# Coordination Sequence:
#
# PCOD9421074 Si02
#       8
#     8   8   8   8   4   8   8   8
#     4  10  20  35  56  86 117 153 191 243 308 366
#     4  10  21  38  58  85 120 145 196 253 296 367
#     4   9  20  39  58  81 118 159 197 248 296 357
#     4  10  19  35  56  85 120 152 198 251 296 362
#     4  10  22  42  60  88 118 160 198 252 310 358
#     4  10  22  36  59  88 112 153 201 237 307 364
#     4  10  19  35  57  87 118 158 196 240 313 350
#     4  10  22  43  62  84 120 159 206 246 301 365
#
# _framework density 21.087730000000001
#
# number of rings (size 3 to 8) (size 9 to 14) (size 15 to 20)
#    0.000    2.133    0.667    2.800    1.867    1.067 
#    7.200    2.667    0.000    0.000    0.000    0.000 
#    0.000    0.000    0.000    0.000    0.000    0.000 
#
# Total GULP energy -334436.156334 kJ/mol
# GULP energy per Si atom -5573.935939 kJ/mol
# Density = 2.103973 g / cm^3
# Si number density = 21.087730 Si / 1000 Ang^3
#
#
#
# Elastic Constant Matrix: (Units=GPa)
#
#
# Indices 1 2 3 4 5 6 
#
# 1 14.9317 -11.8821 -9.4915 0.0000 0.0000 0.0000
# 2 -11.8821 44.1120 59.7875 0.0000 0.0000 0.0000
# 3 -9.4915 59.7875 159.1931 0.0000 0.0000 0.0000
# 4 0.0000 0.0000 0.0000 21.7622 0.0000 0.0000
# 5 0.0000 0.0000 0.0000 0.0000 20.3136 0.0000
# 6 0.0000 0.0000 0.0000 0.0000 0.0000 1.4168
#
#
#
# Elastic Compliance Matrix: (Units=1/GPa)
#
#
# Indices 1 2 3 4 5 6 
#
# 1 0.089513 0.034376 -0.007574 0.000000 0.000000 0.000000
# 2 0.034376 0.059374 -0.020249 0.000000 0.000000 0.000000
# 3 -0.007574 -0.020249 0.013435 0.000000 0.000000 0.000000
# 4 0.000000 0.000000 0.000000 0.045951 0.000000 0.000000
# 5 0.000000 0.000000 0.000000 0.000000 0.049228 0.000000
# 6 0.000000 0.000000 0.000000 0.000000 0.000000 0.705823
#
#
# Mechanical properties :
#
#
# Convention : Reuss Voigt Hill
#
# Bulk Modulus (GPa) = 5.70031 32.78496 19.24264
# Shear Modulus (GPa) = 4.95690 20.68670 12.82180
#
# Velocity S-wave (km/s) = 1.53483 3.13546 2.46848
# Velocity P-wave (km/s) = 2.41867 5.35620 4.15565
#
# Compressibility (1/GPa) = 0.17542891
#
# Stress axis : x y z
#
# Youngs Moduli (GPa) = 11.17158 16.84228 74.43182
#
# Poissons Ratio (x) = -0.57897 0.56372
# Poissons Ratio (y) = -0.38404 1.50720
# Poissons Ratio (z) = 0.08461 0.34105
#
# Static dielectric constant tensor:
#      x y z
#    x 1.832860 0.000000 0.000000 
#    y 0.000000 1.768150 0.000000 
#    z 0.000000 0.000000 1.886130 
# 
# From -- ./inp_files/11919.got.cif
#   From: 2010.05.17/outbox.cif.g08.bks.cpg/sg54_6_cif.got.tgz:11919.got - 2010.06.03 13:09:01.
