data_PCOD9421452
_publ_section_title
;
Structure prediction by ZEFSAII (Michael W. Deem and Ramdas Pophale) SiO2 
 PCOD9421452
Probable space group: P C C A
;
_chemical_formula_sum "Si O2"
_cell_formula_units_Z 56
_cell_length_a 21.641956
_cell_length_b 6.813852
_cell_length_c 21.117724
_cell_angle_alpha 90.000000
_cell_angle_beta 90.000000
_cell_angle_gamma 90.000000
_cell_volume 3114.126968
_symmetry_space_group_name_H-M "P C C A"
_symmetry_group_IT_number 54
_symmetry_cell_setting 'orthorhombic'
loop_
_space_group_symop_operation_xyz
x,y,z
1/2-x,-y,z
1/2+x,-y,1/2-z
-x,y,1/2-z
-x,-y,-z
1/2+x,y,-z
1/2-x,y,1/2+z
x,-y,1/2+z
loop_
_atom_site_type_symbol
_atom_site_label
_atom_site_fract_x
_atom_site_fract_y
_atom_site_fract_z
Si Si1 0.369048 0.822825 0.267261
Si Si2 0.059262 0.905083 0.359254
Si Si3 0.692077 0.112564 0.445835
Si Si4 0.328206 0.173802 0.435889
Si Si5 0.250000 0.500000 0.503578
Si Si6 0.931074 0.426242 0.748859
Si Si7 0.583124 0.909325 0.847582
Si Si8 0.250000 0.000000 0.823026
O O1 0.381286 0.593394 0.261481
O O2 0.298363 0.879605 0.280906
O O3 0.408166 0.907314 0.326803
O O4 0.395162 0.932693 0.205033
O O5 0.099705 0.834168 0.418455
O O6 0.065924 0.733172 0.307066
O O7 0.987218 0.945886 0.369163
O O8 0.712815 0.335636 0.457472
O O9 0.631340 0.093696 0.404282
O O10 0.750000 0.000000 0.414219
O O11 0.682982 0.998987 0.512778
O O12 0.299556 0.373264 0.463552
O O13 0.291255 0.129904 0.370961
O O14 0.917912 0.300117 0.811530
O O15 0.000000 0.517877 0.750000
#
# Coordination Sequence:
#
# PCOD9421452 Si02
#       8
#     8   8   8   8   4   8   8   4
#     4  10  20  35  58  83 116 150 180 226 276 325
#     4   9  20  35  57  86 114 144 183 230 274 326
#     4  10  22  39  58  78 110 149 188 227 275 333
#     4  10  20  37  58  83 107 142 188 231 278 329
#     4  10  20  38  58  76 106 148 182 234 282 312
#     4   9  18  34  55  83 114 148 181 217 276 330
#     4  10  21  38  54  82 118 146 184 227 269 334
#     4  10  20  36  54  86 108 136 192 230 266 332
#
# _framework density 17.982568000000001
#
# number of rings (size 3 to 8) (size 9 to 14) (size 15 to 20)
#    0.000    2.286    2.143    2.143    3.000    2.857 
#    0.000    0.714    0.000    0.000    0.000    0.000 
#    0.000    0.000    0.000    0.000    0.000    0.000 
#
# Total GULP energy -312236.071114 kJ/mol
# GULP energy per Si atom -5575.644127 kJ/mol
# Density = 1.794164 g / cm^3
# Si number density = 17.982568 Si / 1000 Ang^3
#
#
#
# Elastic Constant Matrix: (Units=GPa)
#
#
# Indices 1 2 3 4 5 6 
#
# 1 141.3669 18.4419 46.2437 0.0000 0.0000 0.0000
# 2 18.4419 57.0443 6.3977 0.0000 0.0000 0.0000
# 3 46.2437 6.3977 47.5982 0.0000 0.0000 0.0000
# 4 0.0000 0.0000 0.0000 2.3848 0.0000 0.0000
# 5 0.0000 0.0000 0.0000 0.0000 34.6503 0.0000
# 6 0.0000 0.0000 0.0000 0.0000 0.0000 23.1475
#
#
#
# Elastic Compliance Matrix: (Units=1/GPa)
#
#
# Indices 1 2 3 4 5 6 
#
# 1 0.010663 -0.002320 -0.010048 0.000000 0.000000 0.000000
# 2 -0.002320 0.018303 -0.000206 0.000000 0.000000 0.000000
# 3 -0.010048 -0.000206 0.030799 0.000000 0.000000 0.000000
# 4 0.000000 0.000000 0.000000 0.419317 0.000000 0.000000
# 5 0.000000 0.000000 0.000000 0.000000 0.028860 0.000000
# 6 0.000000 0.000000 0.000000 0.000000 0.000000 0.043201
#
#
# Mechanical properties :
#
#
# Convention : Reuss Voigt Hill
#
# Bulk Modulus (GPa) = 28.88727 43.13066 36.00897
# Shear Modulus (GPa) = 8.50584 23.69826 16.10205
#
# Velocity S-wave (km/s) = 2.17723 3.63415 2.99561
# Velocity P-wave (km/s) = 4.73491 6.45339 5.65975
#
# Compressibility (1/GPa) = 0.03461732
#
# Stress axis : x y z
#
# Youngs Moduli (GPa) = 93.77874 54.63436 32.46865
#
# Poissons Ratio (x) = 0.12678 0.32625
# Poissons Ratio (y) = 0.21761 0.00668
# Poissons Ratio (z) = 0.94229 0.01124
#
# Static dielectric constant tensor:
#      x y z
#    x 1.653230 0.000000 0.000000 
#    y 0.000000 1.599820 0.000000 
#    z 0.000000 0.000000 1.611790 
# 
# From -- ./inp_files/24755.got.cif
#   From: 2010.05.17/outbox.cif.g08.bks.cpg/sg54_13_cif.got.tgz:24755.got - 2010.06.03 13:09:01.
