data_PCOD9421866
_publ_section_title
;
Structure prediction by ZEFSAII (Michael W. Deem and Ramdas Pophale) SiO2 
 PCOD9421866
Probable space group: P C C A
;
_chemical_formula_sum "Si O2"
_cell_formula_units_Z 44
_cell_length_a 24.890678
_cell_length_b 6.296115
_cell_length_c 13.081423
_cell_angle_alpha 90.000000
_cell_angle_beta 90.000000
_cell_angle_gamma 90.000000
_cell_volume 2050.049595
_symmetry_space_group_name_H-M "P C C A"
_symmetry_group_IT_number 54
_symmetry_cell_setting 'orthorhombic'
loop_
_space_group_symop_operation_xyz
x,y,z
1/2-x,-y,z
1/2+x,-y,1/2-z
-x,y,1/2-z
-x,-y,-z
1/2+x,y,-z
1/2-x,y,1/2+z
x,-y,1/2+z
loop_
_atom_site_type_symbol
_atom_site_label
_atom_site_fract_x
_atom_site_fract_y
_atom_site_fract_z
Si Si1 0.081641 0.073011 0.000157
Si Si2 0.492266 0.689227 0.582068
Si Si3 0.601980 0.541251 0.351050
Si Si4 0.800948 0.355700 0.215605
Si Si5 0.173616 0.239393 0.507297
Si Si6 0.750000 0.000000 0.841095
O O1 0.050826 0.202106 0.910636
O O2 0.137927 0.964722 0.974382
O O3 0.089491 0.233016 0.095572
O O4 0.043864 0.878068 0.034756
O O5 0.500000 0.500000 0.500000
O O6 0.454113 0.582255 0.667033
O O7 0.641752 0.561977 0.255940
O O8 0.635588 0.407124 0.435026
O O9 0.750000 0.500000 0.245153
O O10 0.802195 0.335927 0.094472
O O11 0.790461 0.130702 0.270037
O O12 0.218023 0.159521 0.585991
#
# Coordination Sequence:
#
# PCOD9421866 Si02
#       6
#     8   8   8   8   8   4
#     4   9  17  36  63  90 124 162 205 265 325 377
#     4   8  16  32  64  93 118 166 206 256 331 380
#     4  10  20  39  62  91 126 165 212 267 326 379
#     4  12  26  40  63  93 130 175 222 263 330 396
#     4  11  24  39  64  92 125 167 216 268 320 392
#     4  12  24  44  60  92 128 174 216 276 326 388
#
# _framework density 21.462896000000001
#
# number of rings (size 3 to 8) (size 9 to 14) (size 15 to 20)
#    0.000    1.818    3.636    0.545    2.545    1.455 
#    0.000    0.000    0.000   50.182    0.000    0.000 
#    0.000    0.000    0.000    0.000    0.000    0.000 
#
# Total GULP energy -245517.051198 kJ/mol
# GULP energy per Si atom -5579.932982 kJ/mol
# Density = 2.141405 g / cm^3
# Si number density = 21.462896 Si / 1000 Ang^3
#
#
#
# Elastic Constant Matrix: (Units=GPa)
#
#
# Indices 1 2 3 4 5 6 
#
# 1 58.8604 18.1299 19.2074 0.0000 0.0000 0.0000
# 2 18.1299 93.6552 24.3238 0.0000 0.0000 0.0000
# 3 19.2074 24.3238 75.4848 0.0000 0.0000 0.0000
# 4 0.0000 0.0000 0.0000 9.5701 0.0000 0.0000
# 5 0.0000 0.0000 0.0000 0.0000 15.2602 0.0000
# 6 0.0000 0.0000 0.0000 0.0000 0.0000 45.1075
#
#
#
# Elastic Compliance Matrix: (Units=1/GPa)
#
#
# Indices 1 2 3 4 5 6 
#
# 1 0.019116 -0.002660 -0.004007 0.000000 0.000000 0.000000
# 2 -0.002660 0.012023 -0.003197 0.000000 0.000000 0.000000
# 3 -0.004007 -0.003197 0.015298 0.000000 0.000000 0.000000
# 4 0.000000 0.000000 0.000000 0.104492 0.000000 0.000000
# 5 0.000000 0.000000 0.000000 0.000000 0.065530 0.000000
# 6 0.000000 0.000000 0.000000 0.000000 0.000000 0.022169
#
#
# Mechanical properties :
#
#
# Convention : Reuss Voigt Hill
#
# Bulk Modulus (GPa) = 37.44191 39.03585 38.23888
# Shear Modulus (GPa) = 18.70840 25.07684 21.89262
#
# Velocity S-wave (km/s) = 2.95560 3.42187 3.19724
# Velocity P-wave (km/s) = 5.39724 5.81716 5.61113
#
# Compressibility (1/GPa) = 0.02670804
#
# Stress axis : x y z
#
# Youngs Moduli (GPa) = 52.31157 83.17554 65.36963
#
# Poissons Ratio (x) = 0.22123 0.26194
# Poissons Ratio (y) = 0.13914 0.20901
# Poissons Ratio (z) = 0.20962 0.26594
#
# Static dielectric constant tensor:
#      x y z
#    x 1.620710 0.000000 0.000000 
#    y 0.000000 1.880080 0.000000 
#    z 0.000000 0.000000 1.747930 
# 
# From -- ./inp_files/15065.got.cif
#   From: 2010.05.17/outbox.cif.g08.bks.cpg/sg54_8_cif.got.tgz:15065.got - 2010.06.03 13:09:01.
