data_PCOD9421724
_publ_section_title
;
Structure prediction by ZEFSAII (Michael W. Deem and Ramdas Pophale) SiO2 
 PCOD9421724
Probable space group: P C C A
;
_chemical_formula_sum "Si O2"
_cell_formula_units_Z 36
_cell_length_a 7.989834
_cell_length_b 9.853940
_cell_length_c 23.544478
_cell_angle_alpha 90.000000
_cell_angle_beta 90.000000
_cell_angle_gamma 90.000000
_cell_volume 1853.688417
_symmetry_space_group_name_H-M "P C C A"
_symmetry_group_IT_number 54
_symmetry_cell_setting 'orthorhombic'
loop_
_space_group_symop_operation_xyz
x,y,z
1/2-x,-y,z
1/2+x,-y,1/2-z
-x,y,1/2-z
-x,-y,-z
1/2+x,y,-z
1/2-x,y,1/2+z
x,-y,1/2+z
loop_
_atom_site_type_symbol
_atom_site_label
_atom_site_fract_x
_atom_site_fract_y
_atom_site_fract_z
Si Si1 0.750000 0.000000 0.181316
Si Si2 0.809734 0.734087 0.736306
Si Si3 0.750000 0.500000 0.326211
Si Si4 0.054255 0.131804 0.421046
Si Si5 0.592933 0.577999 0.123054
Si Si6 0.750000 0.000000 0.985114
O O1 0.792011 0.869258 0.220018
O O2 0.612204 0.941569 0.137123
O O3 0.752036 0.635155 0.786768
O O4 0.826453 0.639445 0.680922
O O5 0.000000 0.779444 0.750000
O O6 0.575680 0.497641 0.360749
O O7 0.031609 0.289706 0.410203
O O8 0.895488 0.055360 0.445835
O O9 0.191403 0.114812 0.470633
O O10 0.750000 0.500000 0.095417
#
# Coordination Sequence:
#
# PCOD9421724 Si02
#       6
#     4   8   4   8   8   4
#     4   9  18  36  55  84 120 146 193 248 284 335
#     4   9  18  35  53  80 117 156 199 234 278 339
#     4  10  20  38  58  80 116 170 198 224 294 340
#     4   9  19  38  62  87 113 148 193 243 310 355
#     4  10  20  38  57  84 119 153 196 246 284 359
#     4   9  18  40  65  82 112 150 185 248 308 381
#
# _framework density 19.420739000000001
#
# number of rings (size 3 to 8) (size 9 to 14) (size 15 to 20)
#    0.000    2.667    1.111    0.000    0.000    0.000 
#   24.000    8.889    0.000    0.000    0.000    0.000 
#    0.000    0.000    0.000    0.000    0.000    0.000 
#
# Total GULP energy -200539.923665 kJ/mol
# GULP energy per Si atom -5570.553435 kJ/mol
# Density = 1.937654 g / cm^3
# Si number density = 19.420739 Si / 1000 Ang^3
#
#
#
# Elastic Constant Matrix: (Units=GPa)
#
#
# Indices 1 2 3 4 5 6 
#
# 1 53.4275 41.9529 21.3808 0.0000 0.0000 0.0000
# 2 41.9529 95.2056 36.5824 0.0000 0.0000 0.0000
# 3 21.3808 36.5824 49.2790 0.0000 0.0000 0.0000
# 4 0.0000 0.0000 0.0000 29.2974 0.0000 0.0000
# 5 0.0000 0.0000 0.0000 0.0000 -0.6751 0.0000
# 6 0.0000 0.0000 0.0000 0.0000 0.0000 12.5424
#
#
#
# Elastic Compliance Matrix: (Units=1/GPa)
#
#
# Indices 1 2 3 4 5 6 
#
# 1 0.029278 -0.011221 -0.004373 0.000000 0.000000 0.000000
# 2 -0.011221 0.018996 -0.009233 0.000000 0.000000 0.000000
# 3 -0.004373 -0.009233 0.029044 0.000000 0.000000 0.000000
# 4 0.000000 0.000000 0.000000 0.034133 0.000000 0.000000
# 5 0.000000 0.000000 0.000000 0.000000 -1.481281 0.000000
# 6 0.000000 0.000000 0.000000 0.000000 0.000000 0.079729
#
#
# Mechanical properties :
#
#
# Convention : Reuss Voigt Hill
#
# Bulk Modulus (GPa) = 36.14836 44.19382 40.17109
# Shear Modulus (GPa) = -4.06100 14.76601 5.35251
#
# Velocity S-wave (km/s) = -1.44762 2.76039 1.66195
# Velocity P-wave (km/s) = 3.98241 5.74152 4.94088
#
# Compressibility (1/GPa) = 0.02766377
#
# Stress axis : x y z
#
# Youngs Moduli (GPa) = 34.15506 52.64219 34.43036
#
# Poissons Ratio (x) = 0.59072 0.15056
# Poissons Ratio (y) = 0.38327 0.31790
# Poissons Ratio (z) = 0.14935 0.48606
#
# Static dielectric constant tensor:
#      x y z
#    x 1.699970 0.000000 0.000000 
#    y 0.000000 1.685400 0.000000 
#    z 0.000000 0.000000 1.680310 
# 
# From -- ./inp_files/25692.got.cif
#   From: 2010.05.17/outbox.cif.g08.bks.cpg/sg54_13_cif.got.tgz:25692.got - 2010.06.03 13:09:01.
