data_PCOD9421601
_publ_section_title
;
Structure prediction by ZEFSAII (Michael W. Deem and Ramdas Pophale) SiO2 
 PCOD9421601
Probable space group: P C C A
;
_chemical_formula_sum "Si O2"
_cell_formula_units_Z 56
_cell_length_a 14.180291
_cell_length_b 8.868035
_cell_length_c 18.107779
_cell_angle_alpha 90.000000
_cell_angle_beta 90.000000
_cell_angle_gamma 90.000000
_cell_volume 2277.077055
_symmetry_space_group_name_H-M "P C C A"
_symmetry_group_IT_number 54
_symmetry_cell_setting 'orthorhombic'
loop_
_space_group_symop_operation_xyz
x,y,z
1/2-x,-y,z
1/2+x,-y,1/2-z
-x,y,1/2-z
-x,-y,-z
1/2+x,y,-z
1/2-x,y,1/2+z
x,-y,1/2+z
loop_
_atom_site_type_symbol
_atom_site_label
_atom_site_fract_x
_atom_site_fract_y
_atom_site_fract_z
Si Si1 0.160395 0.587050 0.615450
Si Si2 0.275432 0.673850 0.341167
Si Si3 0.989126 0.080778 0.635450
Si Si4 0.551504 0.315206 0.463475
Si Si5 0.257251 0.821422 0.500888
Si Si6 0.164851 0.886924 0.241056
Si Si7 0.014264 0.264960 0.374948
O O1 0.250000 0.500000 0.649327
O O2 0.104859 0.448981 0.577354
O O3 0.197903 0.713258 0.556535
O O4 0.080710 0.672569 0.662588
O O5 0.250000 0.500000 0.351325
O O6 0.248592 0.760327 0.417276
O O7 0.217611 0.740799 0.272526
O O8 0.387770 0.702232 0.334545
O O9 0.973263 0.221040 0.580685
O O10 0.085731 0.126683 0.678192
O O11 0.900957 0.062160 0.690583
O O12 0.000430 0.911293 0.606332
O O13 0.634792 0.197607 0.476145
O O14 0.522537 0.350779 0.546629
O O15 0.250000 0.000000 0.503680
O O16 0.250000 0.000000 0.221466
#
# Coordination Sequence:
#
# PCOD9421601 Si02
#       7
#     8   8   8   8   8   8   8
#     4  10  22  38  59 103 152 184 219 275 362 422
#     4  11  24  42  70 100 133 181 234 290 351 420
#     4  11  25  43  71 102 131 181 236 280 349 414
#     4  10  22  38  64 105 144 175 220 287 347 426
#     4  10  20  36  63 101 142 181 223 274 356 423
#     4  11  25  48  70  93 132 183 231 293 334 411
#     4  11  22  40  69 104 139 181 223 290 356 422
#
# _framework density 24.592931
#
# number of rings (size 3 to 8) (size 9 to 14) (size 15 to 20)
#    0.000    1.429    1.429    4.286    6.000    2.857 
#    0.000    3.571    0.000    0.000    0.000    0.000 
#    0.000    0.000    0.000    0.000    0.000    0.000 
#
# Total GULP energy -312924.059922 kJ/mol
# GULP energy per Si atom -5587.929641 kJ/mol
# Density = 2.453696 g / cm^3
# Si number density = 24.592931 Si / 1000 Ang^3
#
#
#
# Elastic Constant Matrix: (Units=GPa)
#
#
# Indices 1 2 3 4 5 6 
#
# 1 161.6209 52.2127 26.1991 0.0000 0.0000 0.0000
# 2 52.2127 104.5210 -13.7865 0.0000 0.0000 0.0000
# 3 26.1991 -13.7865 42.7663 0.0000 0.0000 0.0000
# 4 0.0000 0.0000 0.0000 47.5647 0.0000 0.0000
# 5 0.0000 0.0000 0.0000 0.0000 352.3245 0.0000
# 6 0.0000 0.0000 0.0000 0.0000 0.0000 38.7928
#
#
#
# Elastic Compliance Matrix: (Units=1/GPa)
#
#
# Indices 1 2 3 4 5 6 
#
# 1 0.009191 -0.005571 -0.007426 0.000000 0.000000 0.000000
# 2 -0.005571 0.013369 0.007722 0.000000 0.000000 0.000000
# 3 -0.007426 0.007722 0.030422 0.000000 0.000000 0.000000
# 4 0.000000 0.000000 0.000000 0.021024 0.000000 0.000000
# 5 0.000000 0.000000 0.000000 0.000000 0.002838 0.000000
# 6 0.000000 0.000000 0.000000 0.000000 0.000000 0.025778
#
#
# Mechanical properties :
#
#
# Convention : Reuss Voigt Hill
#
# Bulk Modulus (GPa) = 23.56697 48.68434 36.12565
# Shear Modulus (GPa) = 39.27273 104.02193 71.64733
#
# Velocity S-wave (km/s) = 4.00047 6.51071 5.40338
# Velocity P-wave (km/s) = 5.56255 8.73831 7.32462
#
# Compressibility (1/GPa) = 0.04243228
#
# Stress axis : x y z
#
# Youngs Moduli (GPa) = 108.80464 74.80068 32.87126
#
# Poissons Ratio (x) = 0.41669 0.24411
# Poissons Ratio (y) = 0.60612 -0.25384
# Poissons Ratio (z) = 0.80801 -0.57764
#
# Static dielectric constant tensor:
#      x y z
#    x 2.034930 0.000000 0.000000 
#    y 0.000000 2.006250 0.000000 
#    z 0.000000 0.000000 2.002700 
# 
# From -- ./inp_files/21599.got.cif
#   From: 2010.05.17/outbox.cif.g08.bks.cpg/sg54_11_cif.got.tgz:21599.got - 2010.06.03 13:09:01.
