data_PCOD9421631
_publ_section_title
;
Structure prediction by ZEFSAII (Michael W. Deem and Ramdas Pophale) SiO2 
 PCOD9421631
Probable space group: P C C A
;
_chemical_formula_sum "Si O2"
_cell_formula_units_Z 44
_cell_length_a 15.767186
_cell_length_b 9.862128
_cell_length_c 14.147561
_cell_angle_alpha 90.000000
_cell_angle_beta 90.000000
_cell_angle_gamma 90.000000
_cell_volume 2199.917533
_symmetry_space_group_name_H-M "P C C A"
_symmetry_group_IT_number 54
_symmetry_cell_setting 'orthorhombic'
loop_
_space_group_symop_operation_xyz
x,y,z
1/2-x,-y,z
1/2+x,-y,1/2-z
-x,y,1/2-z
-x,-y,-z
1/2+x,y,-z
1/2-x,y,1/2+z
x,-y,1/2+z
loop_
_atom_site_type_symbol
_atom_site_label
_atom_site_fract_x
_atom_site_fract_y
_atom_site_fract_z
Si Si1 0.500000 0.570970 0.750000
Si Si2 0.447292 0.744037 0.920739
Si Si3 0.759361 0.846390 0.098688
Si Si4 0.140044 0.255378 0.566927
Si Si5 0.244474 0.662174 0.723730
Si Si6 0.107764 0.562335 0.588582
O O1 0.446992 0.663367 0.821794
O O2 0.447058 0.480037 0.678810
O O3 0.359439 0.825441 0.923467
O O4 0.543446 0.800646 0.930105
O O5 0.440677 0.639987 0.007504
O O6 0.728782 0.742120 0.180055
O O7 0.750000 0.000000 0.131912
O O8 0.700184 0.819345 0.007299
O O9 0.177153 0.261970 0.672881
O O10 0.139396 0.418744 0.545569
O O11 0.250000 0.500000 0.745119
O O12 0.178333 0.657362 0.636218
#
# Coordination Sequence:
#
# PCOD9421631 Si02
#       6
#     4   8   8   8   8   8
#     4  10  20  36  68 104 134 164 214 274 338 402
#     4  11  22  41  65  95 133 171 213 271 331 389
#     4  12  27  42  65  95 131 180 223 265 326 395
#     4  10  22  41  65  95 130 166 212 271 328 387
#     4  10  22  40  67  97 126 168 217 270 333 381
#     4  10  21  37  65 104 128 164 210 277 334 379
#
# _framework density 20.00075
#
# number of rings (size 3 to 8) (size 9 to 14) (size 15 to 20)
#    0.000    1.455    1.818    5.455    7.636    1.455 
#    0.000    0.000    8.000    0.000    0.000    0.000 
#    0.000    0.000    0.000    0.000    0.000    0.000 
#
# Total GULP energy -245181.380019 kJ/mol
# GULP energy per Si atom -5572.304091 kJ/mol
# Density = 1.995523 g / cm^3
# Si number density = 20.000750 Si / 1000 Ang^3
#
#
#
# Elastic Constant Matrix: (Units=GPa)
#
#
# Indices 1 2 3 4 5 6 
#
# 1 115.4673 17.2718 34.5784 0.0000 0.0000 0.0000
# 2 17.2718 51.2883 34.8312 0.0000 0.0000 0.0000
# 3 34.5784 34.8312 110.2159 0.0000 0.0000 0.0000
# 4 0.0000 0.0000 0.0000 11.2056 0.0000 0.0000
# 5 0.0000 0.0000 0.0000 0.0000 41.9513 0.0000
# 6 0.0000 0.0000 0.0000 0.0000 0.0000 13.4565
#
#
#
# Elastic Compliance Matrix: (Units=1/GPa)
#
#
# Indices 1 2 3 4 5 6 
#
# 1 0.009651 -0.001520 -0.002547 0.000000 0.000000 0.000000
# 2 -0.001520 0.025065 -0.007444 0.000000 0.000000 0.000000
# 3 -0.002547 -0.007444 0.012225 0.000000 0.000000 0.000000
# 4 0.000000 0.000000 0.000000 0.089241 0.000000 0.000000
# 5 0.000000 0.000000 0.000000 0.000000 0.023837 0.000000
# 6 0.000000 0.000000 0.000000 0.000000 0.000000 0.074313
#
#
# Mechanical properties :
#
#
# Convention : Reuss Voigt Hill
#
# Bulk Modulus (GPa) = 41.81077 50.03713 45.92395
# Shear Modulus (GPa) = 18.84459 26.00871 22.42665
#
# Velocity S-wave (km/s) = 3.07285 3.61000 3.35220
# Velocity P-wave (km/s) = 5.79136 6.51522 6.16392
#
# Compressibility (1/GPa) = 0.02391728
#
# Stress axis : x y z
#
# Youngs Moduli (GPa) = 103.61968 39.89603 81.80005
#
# Poissons Ratio (x) = 0.06064 0.20838
# Poissons Ratio (y) = 0.15750 0.60895
# Poissons Ratio (z) = 0.26396 0.29700
#
# Static dielectric constant tensor:
#      x y z
#    x 1.882180 0.000000 0.000000 
#    y 0.000000 1.690990 0.000000 
#    z 0.000000 0.000000 1.663610 
# 
# From -- ./inp_files/14023.got.cif
#   From: 2010.05.17/outbox.cif.g08.bks.cpg/sg54_8_cif.got.tgz:14023.got - 2010.06.03 13:09:01.
