data_PCOD9421022
_publ_section_title
;
Structure prediction by ZEFSAII (Michael W. Deem and Ramdas Pophale) SiO2 
 PCOD9421022
Probable space group: P C C A
;
_chemical_formula_sum "Si O2"
_cell_formula_units_Z 48
_cell_length_a 7.582982
_cell_length_b 13.214304
_cell_length_c 26.719491
_cell_angle_alpha 90.000000
_cell_angle_beta 90.000000
_cell_angle_gamma 90.000000
_cell_volume 2677.395317
_symmetry_space_group_name_H-M "P C C A"
_symmetry_group_IT_number 54
_symmetry_cell_setting 'orthorhombic'
loop_
_space_group_symop_operation_xyz
x,y,z
1/2-x,-y,z
1/2+x,-y,1/2-z
-x,y,1/2-z
-x,-y,-z
1/2+x,y,-z
1/2-x,y,1/2+z
x,-y,1/2+z
loop_
_atom_site_type_symbol
_atom_site_label
_atom_site_fract_x
_atom_site_fract_y
_atom_site_fract_z
Si Si1 0.420460 0.624164 0.556822
Si Si2 0.697813 0.882163 0.189538
Si Si3 0.750000 0.500000 0.530245
Si Si4 0.718046 0.878743 0.304304
Si Si5 0.750000 0.500000 0.363821
Si Si6 0.018192 0.763928 0.366209
Si Si7 0.565816 0.557055 0.694871
O O1 0.589739 0.549357 0.560181
O O2 0.330926 0.589983 0.504775
O O3 0.279582 0.592786 0.598865
O O4 0.482962 0.733669 0.575802
O O5 0.748670 0.847008 0.246138
O O6 0.489061 0.864415 0.184175
O O7 0.812143 0.830622 0.146540
O O8 0.750000 0.000000 0.188941
O O9 0.850927 0.818789 0.340311
O O10 0.750000 0.000000 0.307454
O O11 0.581430 0.514993 0.329589
O O12 0.060291 0.658640 0.337742
O O13 0.750000 0.500000 0.695548
O O14 0.500000 0.582826 0.750000
#
# Coordination Sequence:
#
# PCOD9421022 Si02
#       7
#     8   8   4   8   4   8   8
#     4   9  20  36  61  83 107 136 190 240 292 358
#     4  10  19  34  56  80 114 161 196 235 282 317
#     4   9  18  42  63  80 108 150 173 244 318 359
#     4  10  19  34  55  78 118 157 195 240 274 318
#     4   9  20  34  51  80 104 146 197 222 278 317
#     4  11  22  34  53  87 109 144 198 240 274 338
#     4  11  22  36  50  70 117 166 198 233 271 330
#
# _framework density 17.927871
#
# number of rings (size 3 to 8) (size 9 to 14) (size 15 to 20)
#    0.000    2.000    2.500    1.500    4.667    2.667 
#    9.000    0.000    0.000    0.000    0.000    3.500 
#    0.000    0.000    0.000    0.000    0.000    0.000 
#
# Total GULP energy -267409.550259 kJ/mol
# GULP energy per Si atom -5571.032297 kJ/mol
# Density = 1.788707 g / cm^3
# Si number density = 17.927871 Si / 1000 Ang^3
#
#
#
# Elastic Constant Matrix: (Units=GPa)
#
#
# Indices 1 2 3 4 5 6 
#
# 1 95.9112 22.7662 16.6536 0.0000 0.0000 0.0000
# 2 22.7662 51.6965 22.7253 0.0000 0.0000 0.0000
# 3 16.6536 22.7253 56.0871 0.0000 0.0000 0.0000
# 4 0.0000 0.0000 0.0000 24.0480 0.0000 0.0000
# 5 0.0000 0.0000 0.0000 0.0000 -10.1181 0.0000
# 6 0.0000 0.0000 0.0000 0.0000 0.0000 27.2017
#
#
#
# Elastic Compliance Matrix: (Units=1/GPa)
#
#
# Indices 1 2 3 4 5 6 
#
# 1 0.011775 -0.004439 -0.001698 0.000000 0.000000 0.000000
# 2 -0.004439 0.025209 -0.008896 0.000000 0.000000 0.000000
# 3 -0.001698 -0.008896 0.021938 0.000000 0.000000 0.000000
# 4 0.000000 0.000000 0.000000 0.041583 0.000000 0.000000
# 5 0.000000 0.000000 0.000000 0.000000 -0.098833 0.000000
# 6 0.000000 0.000000 0.000000 0.000000 0.000000 0.036762
#
#
# Mechanical properties :
#
#
# Convention : Reuss Voigt Hill
#
# Bulk Modulus (GPa) = 34.65452 36.44277 35.54865
# Shear Modulus (GPa) = 64.00436 17.66298 40.83367
#
# Velocity S-wave (km/s) = 5.98152 3.14223 4.77767
# Velocity P-wave (km/s) = 8.19003 5.79106 7.09271
#
# Compressibility (1/GPa) = 0.02885626
#
# Stress axis : x y z
#
# Youngs Moduli (GPa) = 84.92728 39.66796 45.58298
#
# Poissons Ratio (x) = 0.17609 0.07738
# Poissons Ratio (y) = 0.37701 0.40551
# Poissons Ratio (z) = 0.14417 0.35289
#
# Static dielectric constant tensor:
#      x y z
#    x 1.651370 0.000000 0.000000 
#    y 0.000000 1.768730 0.000000 
#    z 0.000000 0.000000 1.633300 
# 
# From -- ./inp_files/25850.got.cif
#   From: 2010.05.17/outbox.cif.g08.bks.cpg/sg54_13_cif.got.tgz:25850.got - 2010.06.03 13:09:01.
