data_PCOD9421944
_publ_section_title
;
Structure prediction by ZEFSAII (Michael W. Deem and Ramdas Pophale) SiO2 
 PCOD9421944
Probable space group: P C C A
;
_chemical_formula_sum "Si O2"
_cell_formula_units_Z 60
_cell_length_a 18.711076
_cell_length_b 8.969022
_cell_length_c 17.825057
_cell_angle_alpha 90.000000
_cell_angle_beta 90.000000
_cell_angle_gamma 90.000000
_cell_volume 2991.401998
_symmetry_space_group_name_H-M "P C C A"
_symmetry_group_IT_number 54
_symmetry_cell_setting 'orthorhombic'
loop_
_space_group_symop_operation_xyz
x,y,z
1/2-x,-y,z
1/2+x,-y,1/2-z
-x,y,1/2-z
-x,-y,-z
1/2+x,y,-z
1/2-x,y,1/2+z
x,-y,1/2+z
loop_
_atom_site_type_symbol
_atom_site_label
_atom_site_fract_x
_atom_site_fract_y
_atom_site_fract_z
Si Si1 0.842192 0.119710 0.851458
Si Si2 0.827065 0.268402 0.127886
Si Si3 0.250000 0.000000 0.784943
Si Si4 0.677071 0.434744 0.779084
Si Si5 0.049493 0.356266 0.687276
Si Si6 0.385062 0.791519 0.099535
Si Si7 0.481166 0.405363 0.923440
Si Si8 0.243253 0.173649 0.007944
O O1 0.799983 0.098389 0.772327
O O2 0.908549 0.230735 0.857003
O O3 0.785311 0.173929 0.913143
O O4 0.873611 0.959791 0.874254
O O5 0.804230 0.105770 0.166202
O O6 0.808711 0.374335 0.196721
O O7 0.904915 0.326443 0.096868
O O8 0.777996 0.273911 0.054965
O O9 0.750000 0.500000 0.811560
O O10 0.614729 0.555126 0.775096
O O11 0.646944 0.308682 0.833887
O O12 0.000000 0.284939 0.750000
O O13 0.003254 0.474194 0.640267
O O14 0.462907 0.730772 0.082223
O O15 0.336653 0.777584 0.025578
O O16 0.500000 0.500000 0.000000
O O17 0.250000 0.000000 0.984880
#
# Coordination Sequence:
#
# PCOD9421944 Si02
#       8
#     8   8   4   8   8   8   8   8
#     4  11  21  43  69  97 133 176 229 284 344 424
#     4  12  23  40  67  99 140 175 229 296 359 405
#     4  12  22  40  70 108 130 172 238 308 352 420
#     4  11  22  40  66  96 129 177 227 289 337 417
#     4  11  23  42  63  95 135 175 227 278 342 413
#     4  10  22  43  71  94 130 184 234 271 354 424
#     4  11  26  46  64  96 143 186 227 281 350 429
#     4  10  20  40  64  95 128 166 219 279 336 411
#
# _framework density 20.057485
#
# number of rings (size 3 to 8) (size 9 to 14) (size 15 to 20)
#    0.000    1.067    5.333    2.400    0.000    3.200 
#    2.400    6.000    0.000    0.000    0.000    0.000 
#    0.000    0.000    0.000    0.000    0.000    0.000 
#
# Total GULP energy -334347.258127 kJ/mol
# GULP energy per Si atom -5572.454302 kJ/mol
# Density = 2.001183 g / cm^3
# Si number density = 20.057485 Si / 1000 Ang^3
#
#
#
# Elastic Constant Matrix: (Units=GPa)
#
#
# Indices 1 2 3 4 5 6 
#
# 1 88.0035 41.4483 26.2793 0.0000 0.0000 0.0000
# 2 41.4483 59.5229 19.5267 0.0000 0.0000 0.0000
# 3 26.2793 19.5267 69.1749 0.0000 0.0000 0.0000
# 4 0.0000 0.0000 0.0000 -1.3835 0.0000 0.0000
# 5 0.0000 0.0000 0.0000 0.0000 27.0518 0.0000
# 6 0.0000 0.0000 0.0000 0.0000 0.0000 31.7857
#
#
#
# Elastic Compliance Matrix: (Units=1/GPa)
#
#
# Indices 1 2 3 4 5 6 
#
# 1 0.017674 -0.011136 -0.003571 0.000000 0.000000 0.000000
# 2 -0.011136 0.025531 -0.002976 0.000000 0.000000 0.000000
# 3 -0.003571 -0.002976 0.016653 0.000000 0.000000 0.000000
# 4 0.000000 0.000000 0.000000 -0.722787 0.000000 0.000000
# 5 0.000000 0.000000 0.000000 0.000000 0.036966 0.000000
# 6 0.000000 0.000000 0.000000 0.000000 0.000000 0.031461
#
#
# Mechanical properties :
#
#
# Convention : Reuss Voigt Hill
#
# Bulk Modulus (GPa) = 40.83016 43.46777 42.14896
# Shear Modulus (GPa) = -9.07489 20.12059 5.52285
#
# Velocity S-wave (km/s) = -2.12938 3.17068 1.66117
# Velocity P-wave (km/s) = 3.78881 5.92646 4.97383
#
# Compressibility (1/GPa) = 0.02449170
#
# Stress axis : x y z
#
# Youngs Moduli (GPa) = 56.57891 39.16781 60.04958
#
# Poissons Ratio (x) = 0.43617 0.21444
# Poissons Ratio (y) = 0.63006 0.17873
# Poissons Ratio (z) = 0.20204 0.11658
#
# Static dielectric constant tensor:
#      x y z
#    x 1.718110 0.000000 0.000000 
#    y 0.000000 1.738580 0.000000 
#    z 0.000000 0.000000 1.720990 
# 
# From -- ./inp_files/18682.got.cif
#   From: 2010.05.17/outbox.cif.g08.bks.cpg/sg54_10_cif.got.tgz:18682.got - 2010.06.03 13:09:01.
