data_PCOD9421635
_publ_section_title
;
Structure prediction by ZEFSAII (Michael W. Deem and Ramdas Pophale) SiO2 
 PCOD9421635
Probable space group: P C C A
;
_chemical_formula_sum "Si O2"
_cell_formula_units_Z 60
_cell_length_a 30.114420
_cell_length_b 11.462730
_cell_length_c 9.213703
_cell_angle_alpha 90.000000
_cell_angle_beta 90.000000
_cell_angle_gamma 90.000000
_cell_volume 3180.510069
_symmetry_space_group_name_H-M "P C C A"
_symmetry_group_IT_number 54
_symmetry_cell_setting 'orthorhombic'
loop_
_space_group_symop_operation_xyz
x,y,z
1/2-x,-y,z
1/2+x,-y,1/2-z
-x,y,1/2-z
-x,-y,-z
1/2+x,y,-z
1/2-x,y,1/2+z
x,-y,1/2+z
loop_
_atom_site_type_symbol
_atom_site_label
_atom_site_fract_x
_atom_site_fract_y
_atom_site_fract_z
Si Si1 0.808549 0.100645 0.763844
Si Si2 0.750000 0.000000 0.519626
Si Si3 0.426518 0.510279 0.284871
Si Si4 0.600462 0.044721 0.748087
Si Si5 0.077229 0.860125 0.449237
Si Si6 0.977080 0.355248 0.476921
Si Si7 0.626462 0.288687 0.271161
Si Si8 0.421213 0.726696 0.439993
O O1 0.825456 0.232585 0.787943
O O2 0.775244 0.087380 0.628927
O O3 0.850898 0.015120 0.728806
O O4 0.785296 0.058074 0.910979
O O5 0.453734 0.577522 0.157773
O O6 0.460369 0.430133 0.382861
O O7 0.389086 0.421579 0.227791
O O8 0.400185 0.609564 0.373399
O O9 0.588971 0.165940 0.666855
O O10 0.566886 0.950352 0.678722
O O11 0.595519 0.066318 0.917786
O O12 0.039605 0.776674 0.507988
O O13 0.111084 0.766688 0.381212
O O14 0.029173 0.328030 0.458453
O O15 0.597581 0.238060 0.404468
#
# Coordination Sequence:
#
# PCOD9421635 Si02
#       8
#     8   4   8   8   8   8   8   8
#     4  10  20  39  62  97 122 149 190 243 307 399
#     4  10  20  36  70  96 122 150 180 244 324 380
#     4  11  22  38  58  83 121 169 221 277 302 341
#     4  11  21  38  59  85 129 157 198 252 312 379
#     4  10  22  38  58  81 120 166 208 261 314 359
#     4  11  24  39  57  85 121 167 235 272 304 345
#     4  10  22  38  58  87 122 156 205 257 309 364
#     4  12  23  35  58  83 121 175 211 264 308 340
#
# _framework density 18.864899000000001
#
# number of rings (size 3 to 8) (size 9 to 14) (size 15 to 20)
#    0.000    1.333    2.667    4.800    1.867    2.133 
#    0.000    2.667    0.000    0.000    0.000   15.867 
#    0.000    0.000    0.000    0.000    0.000    0.000 
#
# Total GULP energy -334106.316939 kJ/mol
# GULP energy per Si atom -5568.438616 kJ/mol
# Density = 1.882196 g / cm^3
# Si number density = 18.864899 Si / 1000 Ang^3
#
#
#
# Elastic Constant Matrix: (Units=GPa)
#
#
# Indices 1 2 3 4 5 6 
#
# 1 62.4613 38.2015 28.7772 0.0000 0.0000 0.0000
# 2 38.2015 101.1423 33.4618 0.0000 0.0000 0.0000
# 3 28.7772 33.4618 108.6288 0.0000 0.0000 0.0000
# 4 0.0000 0.0000 0.0000 33.5110 0.0000 0.0000
# 5 0.0000 0.0000 0.0000 0.0000 19.0977 0.0000
# 6 0.0000 0.0000 0.0000 0.0000 0.0000 24.2743
#
#
#
# Elastic Compliance Matrix: (Units=1/GPa)
#
#
# Indices 1 2 3 4 5 6 
#
# 1 0.022044 -0.007120 -0.003647 0.000000 0.000000 0.000000
# 2 -0.007120 0.013308 -0.002213 0.000000 0.000000 0.000000
# 3 -0.003647 -0.002213 0.010854 0.000000 0.000000 0.000000
# 4 0.000000 0.000000 0.000000 0.029841 0.000000 0.000000
# 5 0.000000 0.000000 0.000000 0.000000 0.052362 0.000000
# 6 0.000000 0.000000 0.000000 0.000000 0.000000 0.041196
#
#
# Mechanical properties :
#
#
# Convention : Reuss Voigt Hill
#
# Bulk Modulus (GPa) = 49.39063 52.56816 50.97939
# Shear Modulus (GPa) = 24.71401 26.82938 25.77170
#
# Velocity S-wave (km/s) = 3.62339 3.77528 3.70011
# Velocity P-wave (km/s) = 6.61388 6.85053 6.73324
#
# Compressibility (1/GPa) = 0.02024676
#
# Stress axis : x y z
#
# Youngs Moduli (GPa) = 45.36283 75.14012 92.13581
#
# Poissons Ratio (x) = 0.53498 0.33599
# Poissons Ratio (y) = 0.32297 0.20393
# Poissons Ratio (z) = 0.16543 0.16631
#
# Static dielectric constant tensor:
#      x y z
#    x 1.696090 0.000000 0.000000 
#    y 0.000000 1.733410 0.000000 
#    z 0.000000 0.000000 1.719500 
# 
# From -- ./inp_files/5942.got.cif
#   From: 2010.05.17/outbox.cif.g08.bks.cpg/sg54_3_cif.got.tgz:5942.got - 2010.06.03 13:09:01.
