data_PCOD9421939
_publ_section_title
;
Structure prediction by ZEFSAII (Michael W. Deem and Ramdas Pophale) SiO2 
 PCOD9421939
Probable space group: P C C A
;
_chemical_formula_sum "Si O2"
_cell_formula_units_Z 40
_cell_length_a 22.048022
_cell_length_b 6.189051
_cell_length_c 13.302608
_cell_angle_alpha 90.000000
_cell_angle_beta 90.000000
_cell_angle_gamma 90.000000
_cell_volume 1815.225102
_symmetry_space_group_name_H-M "P C C A"
_symmetry_group_IT_number 54
_symmetry_cell_setting 'orthorhombic'
loop_
_space_group_symop_operation_xyz
x,y,z
1/2-x,-y,z
1/2+x,-y,1/2-z
-x,y,1/2-z
-x,-y,-z
1/2+x,y,-z
1/2-x,y,1/2+z
x,-y,1/2+z
loop_
_atom_site_type_symbol
_atom_site_label
_atom_site_fract_x
_atom_site_fract_y
_atom_site_fract_z
Si Si1 0.000000 0.395700 0.250000
Si Si2 0.161962 0.683282 0.879583
Si Si3 0.250000 0.000000 0.993555
Si Si4 0.608808 0.291299 0.208086
Si Si5 0.817068 0.949799 0.813246
Si Si6 0.043719 0.912241 0.915462
O O1 0.058578 0.546470 0.250692
O O2 0.003083 0.237605 0.344299
O O3 0.155778 0.427595 0.861149
O O4 0.102035 0.762786 0.939334
O O5 0.158013 0.773289 0.764105
O O6 0.217676 0.807213 0.932205
O O7 0.301661 0.905059 0.070434
O O8 0.643006 0.161997 0.295499
O O9 0.573269 0.114179 0.142649
O O10 0.750000 0.000000 0.772336
O O11 0.000000 0.000000 0.000000
#
# Coordination Sequence:
#
# PCOD9421939 Si02
#       6
#     4   8   4   8   8   8
#     4  10  22  40  68  94 128 170 216 260 326 394
#     4  10  21  40  61  92 130 166 212 262 318 380
#     4  10  20  40  64  90 126 170 214 266 310 368
#     4  10  22  40  65  94 129 174 209 264 326 386
#     4   9  21  41  62  90 130 166 214 266 314 371
#     4  10  23  41  62  95 131 162 208 270 321 381
#
# _framework density 22.035834999999999
#
# number of rings (size 3 to 8) (size 9 to 14) (size 15 to 20)
#    0.600    1.600    1.000    0.600    0.000   12.000 
#    0.000    6.000    0.000    0.000    0.000    0.000 
#    0.000    0.000    0.000    0.000    0.000    0.000 
#
# Total GULP energy -223031.700394 kJ/mol
# GULP energy per Si atom -5575.792510 kJ/mol
# Density = 2.198568 g / cm^3
# Si number density = 22.035835 Si / 1000 Ang^3
#
#
#
# Elastic Constant Matrix: (Units=GPa)
#
#
# Indices 1 2 3 4 5 6 
#
# 1 82.1402 37.8259 43.8766 0.0000 0.0000 0.0000
# 2 37.8259 95.5957 37.5934 0.0000 0.0000 0.0000
# 3 43.8766 37.5934 83.0370 0.0000 0.0000 0.0000
# 4 0.0000 0.0000 0.0000 -4.6100 0.0000 0.0000
# 5 0.0000 0.0000 0.0000 0.0000 42.0096 0.0000
# 6 0.0000 0.0000 0.0000 0.0000 0.0000 33.2138
#
#
#
# Elastic Compliance Matrix: (Units=1/GPa)
#
#
# Indices 1 2 3 4 5 6 
#
# 1 0.018232 -0.004168 -0.007747 0.000000 0.000000 0.000000
# 2 -0.004168 0.013679 -0.003991 0.000000 0.000000 0.000000
# 3 -0.007747 -0.003991 0.017943 0.000000 0.000000 0.000000
# 4 0.000000 0.000000 0.000000 -0.216921 0.000000 0.000000
# 5 0.000000 0.000000 0.000000 0.000000 0.023804 0.000000
# 6 0.000000 0.000000 0.000000 0.000000 0.000000 0.030108
#
#
# Mechanical properties :
#
#
# Convention : Reuss Voigt Hill
#
# Bulk Modulus (GPa) = 55.42190 55.48497 55.45344
# Shear Modulus (GPa) = -66.37382 23.55449 -21.40967
#
# Velocity S-wave (km/s) = -5.49420 3.27298 -3.12041
# Velocity P-wave (km/s) = 3.87852 6.28628 3.49817
#
# Compressibility (1/GPa) = 0.01804341
#
# Stress axis : x y z
#
# Youngs Moduli (GPa) = 54.85000 73.10382 55.73207
#
# Poissons Ratio (x) = 0.30466 0.43174
# Poissons Ratio (y) = 0.22859 0.22242
# Poissons Ratio (z) = 0.42491 0.29175
#
# Static dielectric constant tensor:
#      x y z
#    x 1.854860 0.000000 0.000000 
#    y 0.000000 1.830900 0.000000 
#    z 0.000000 0.000000 1.824420 
# 
# From -- ./inp_files/14854.got.cif
#   From: 2010.05.17/outbox.cif.g08.bks.cpg/sg54_8_cif.got.tgz:14854.got - 2010.06.03 13:09:01.
