data_PCOD9421687
_publ_section_title
;
Structure prediction by ZEFSAII (Michael W. Deem and Ramdas Pophale) SiO2 
 PCOD9421687
Probable space group: P C C A
;
_chemical_formula_sum "Si O2"
_cell_formula_units_Z 56
_cell_length_a 13.971580
_cell_length_b 20.846095
_cell_length_c 9.405688
_cell_angle_alpha 90.000000
_cell_angle_beta 90.000000
_cell_angle_gamma 90.000000
_cell_volume 2739.433756
_symmetry_space_group_name_H-M "P C C A"
_symmetry_group_IT_number 54
_symmetry_cell_setting 'orthorhombic'
loop_
_space_group_symop_operation_xyz
x,y,z
1/2-x,-y,z
1/2+x,-y,1/2-z
-x,y,1/2-z
-x,-y,-z
1/2+x,y,-z
1/2-x,y,1/2+z
x,-y,1/2+z
loop_
_atom_site_type_symbol
_atom_site_label
_atom_site_fract_x
_atom_site_fract_y
_atom_site_fract_z
Si Si1 0.156136 0.138830 0.485311
Si Si2 0.799904 0.250203 0.482205
Si Si3 0.736166 0.661493 0.231356
Si Si4 0.452137 0.149925 0.400638
Si Si5 0.716000 0.072526 0.229259
Si Si6 0.661574 0.454205 0.358364
Si Si7 0.412996 0.447001 0.853306
O O1 0.201999 0.208134 0.520835
O O2 0.200774 0.116947 0.336630
O O3 0.196378 0.091665 0.608180
O O4 0.042174 0.135895 0.498711
O O5 0.811953 0.285600 0.332643
O O6 0.789945 0.302820 0.605227
O O7 0.884401 0.202509 0.527515
O O8 0.804863 0.617412 0.327465
O O9 0.662575 0.610093 0.168868
O O10 0.500000 0.171292 0.250000
O O11 0.381032 0.091461 0.356936
O O12 0.750000 0.000000 0.215023
O O13 0.750000 0.500000 0.408937
O O14 0.580240 0.454555 0.478006
O O15 0.627955 0.487608 0.213964
O O16 0.500000 0.430535 0.750000
#
# Coordination Sequence:
#
# PCOD9421687 Si02
#       7
#     8   8   8   8   8   8   8
#     4  10  21  40  61  86 125 162 202 249 300 358
#     4  11  22  40  62  85 118 165 200 247 303 353
#     4  11  22  39  62  84 116 155 204 243 298 363
#     4   9  20  39  60  87 122 162 202 242 304 363
#     4  10  20  37  62  91 122 161 203 249 301 353
#     4  10  21  40  62  81 116 159 189 240 307 365
#     4  11  23  39  59  90 120 148 196 254 303 356
#
# _framework density 20.442181999999999
#
# number of rings (size 3 to 8) (size 9 to 14) (size 15 to 20)
#    0.000    1.714    1.429    4.714    2.000    1.714 
#    2.571   10.000    0.000    0.000    0.000    0.000 
#    0.000    0.000    0.000    0.000    0.000    0.000 
#
# Total GULP energy -312703.610867 kJ/mol
# GULP energy per Si atom -5583.993051 kJ/mol
# Density = 2.039565 g / cm^3
# Si number density = 20.442182 Si / 1000 Ang^3
#
#
#
# Elastic Constant Matrix: (Units=GPa)
#
#
# Indices 1 2 3 4 5 6 
#
# 1 86.5886 12.2255 9.4784 0.0000 0.0000 0.0000
# 2 12.2255 78.6566 3.4245 0.0000 0.0000 0.0000
# 3 9.4784 3.4245 43.9877 0.0000 0.0000 0.0000
# 4 0.0000 0.0000 0.0000 84.9692 0.0000 0.0000
# 5 0.0000 0.0000 0.0000 0.0000 24.2627 0.0000
# 6 0.0000 0.0000 0.0000 0.0000 0.0000 12.6775
#
#
#
# Elastic Compliance Matrix: (Units=1/GPa)
#
#
# Indices 1 2 3 4 5 6 
#
# 1 0.012068 -0.001769 -0.002463 0.000000 0.000000 0.000000
# 2 -0.001769 0.013016 -0.000632 0.000000 0.000000 0.000000
# 3 -0.002463 -0.000632 0.023313 0.000000 0.000000 0.000000
# 4 0.000000 0.000000 0.000000 0.011769 0.000000 0.000000
# 5 0.000000 0.000000 0.000000 0.000000 0.041216 0.000000
# 6 0.000000 0.000000 0.000000 0.000000 0.000000 0.078880
#
#
# Mechanical properties :
#
#
# Convention : Reuss Voigt Hill
#
# Bulk Modulus (GPa) = 25.85945 28.83218 27.34582
# Shear Modulus (GPa) = 24.64521 36.65551 30.65036
#
# Velocity S-wave (km/s) = 3.47595 4.23913 3.87637
# Velocity P-wave (km/s) = 5.36537 6.17213 5.78283
#
# Compressibility (1/GPa) = 0.03867058
#
# Stress axis : x y z
#
# Youngs Moduli (GPa) = 82.86279 76.82911 42.89362
#
# Poissons Ratio (x) = 0.13587 0.10564
# Poissons Ratio (y) = 0.14654 0.02712
# Poissons Ratio (z) = 0.20407 0.04857
#
# Static dielectric constant tensor:
#      x y z
#    x 1.757270 0.000000 0.000000 
#    y 0.000000 1.697660 0.000000 
#    z 0.000000 0.000000 1.721310 
# 
# From -- ./inp_files/3673.got.cif
#   From: 2010.05.17/outbox.cif.g08.bks.cpg/sg54_2_cif.got.tgz:3673.got - 2010.06.03 13:09:01.
