data_PCOD9421819
_publ_section_title
;
Structure prediction by ZEFSAII (Michael W. Deem and Ramdas Pophale) SiO2 
 PCOD9421819
Probable space group: P C C A
;
_chemical_formula_sum "Si O2"
_cell_formula_units_Z 40
_cell_length_a 18.713971
_cell_length_b 5.201158
_cell_length_c 18.893424
_cell_angle_alpha 90.000000
_cell_angle_beta 90.000000
_cell_angle_gamma 90.000000
_cell_volume 1838.978577
_symmetry_space_group_name_H-M "P C C A"
_symmetry_group_IT_number 54
_symmetry_cell_setting 'orthorhombic'
loop_
_space_group_symop_operation_xyz
x,y,z
1/2-x,-y,z
1/2+x,-y,1/2-z
-x,y,1/2-z
-x,-y,-z
1/2+x,y,-z
1/2-x,y,1/2+z
x,-y,1/2+z
loop_
_atom_site_type_symbol
_atom_site_label
_atom_site_fract_x
_atom_site_fract_y
_atom_site_fract_z
Si Si1 0.093806 0.297110 0.641102
Si Si2 0.673103 0.448903 0.648680
Si Si3 0.936762 0.226144 0.575627
Si Si4 0.416027 0.810531 0.231695
Si Si5 0.122836 0.715950 0.989565
O O1 0.094974 0.576875 0.676213
O O2 0.142536 0.268467 0.571279
O O3 0.013272 0.242197 0.612459
O O4 0.109160 0.077041 0.697981
O O5 0.750000 0.500000 0.680462
O O6 0.624852 0.700170 0.632643
O O7 0.625991 0.269224 0.698168
O O8 0.682663 0.319657 0.570858
O O9 0.924136 0.458364 0.520524
O O10 0.922099 0.960286 0.536677
O O11 0.500000 0.827979 0.250000
#
# Coordination Sequence:
#
# PCOD9421819 Si02
#       5
#     8   8   8   8   8
#     4  12  22  39  66  98 132 160 216 278 332 371
#     4  10  25  44  67  92 134 178 227 262 334 407
#     4  10  20  38  66  94 123 161 215 267 324 380
#     4  12  24  40  65  99 132 173 215 273 327 394
#     4  10  22  39  64  97 121 167 212 273 325 385
#
# _framework density 21.751204000000001
#
# number of rings (size 3 to 8) (size 9 to 14) (size 15 to 20)
#    1.200    0.000    2.000    5.400    2.800    0.800 
#    0.000    1.000    4.400    0.000    0.000    0.000 
#    0.000    0.000    0.000    0.000    0.000    0.000 
#
# Total GULP energy -223413.567055 kJ/mol
# GULP energy per Si atom -5585.339176 kJ/mol
# Density = 2.170170 g / cm^3
# Si number density = 21.751204 Si / 1000 Ang^3
#
#
#
# Elastic Constant Matrix: (Units=GPa)
#
#
# Indices 1 2 3 4 5 6 
#
# 1 50.5268 -15.0836 8.4616 0.0000 0.0000 0.0000
# 2 -15.0836 90.7845 11.2965 0.0000 0.0000 0.0000
# 3 8.4616 11.2965 111.5487 0.0000 0.0000 0.0000
# 4 0.0000 0.0000 0.0000 -33.2378 0.0000 0.0000
# 5 0.0000 0.0000 0.0000 0.0000 10.6837 0.0000
# 6 0.0000 0.0000 0.0000 0.0000 0.0000 -0.3945
#
#
#
# Elastic Compliance Matrix: (Units=1/GPa)
#
#
# Indices 1 2 3 4 5 6 
#
# 1 0.021254 0.003780 -0.001995 0.000000 0.000000 0.000000
# 2 0.003780 0.011828 -0.001484 0.000000 0.000000 0.000000
# 3 -0.001995 -0.001484 0.009266 0.000000 0.000000 0.000000
# 4 0.000000 0.000000 0.000000 -0.030086 0.000000 0.000000
# 5 0.000000 0.000000 0.000000 0.000000 0.093600 0.000000
# 6 0.000000 0.000000 0.000000 0.000000 0.000000 -2.534772
#
#
# Mechanical properties :
#
#
# Convention : Reuss Voigt Hill
#
# Bulk Modulus (GPa) = 23.28394 29.13435 26.20914
# Shear Modulus (GPa) = -2.07023 11.95598 4.94288
#
# Velocity S-wave (km/s) = -0.97665 2.34705 1.50910
# Velocity P-wave (km/s) = 3.07508 4.55722 3.88744
#
# Compressibility (1/GPa) = 0.04294805
#
# Stress axis : x y z
#
# Youngs Moduli (GPa) = 47.05032 84.54674 107.91725
#
# Poissons Ratio (x) = -0.31955 0.21529
# Poissons Ratio (y) = -0.17783 0.16020
# Poissons Ratio (z) = 0.09386 0.12551
#
# Static dielectric constant tensor:
#      x y z
#    x 1.736430 0.000000 0.000000 
#    y 0.000000 1.778380 0.000000 
#    z 0.000000 0.000000 1.848930 
# 
# From -- ./inp_files/21762.got.cif
#   From: 2010.05.17/outbox.cif.g08.bks.cpg/sg54_11_cif.got.tgz:21762.got - 2010.06.03 13:09:01.
