data_PCOD9421703
_publ_section_title
;
Structure prediction by ZEFSAII (Michael W. Deem and Ramdas Pophale) SiO2 
 PCOD9421703
Probable space group: P C C A
;
_chemical_formula_sum "Si O2"
_cell_formula_units_Z 64
_cell_length_a 8.357656
_cell_length_b 23.310058
_cell_length_c 13.663763
_cell_angle_alpha 90.000000
_cell_angle_beta 90.000000
_cell_angle_gamma 90.000000
_cell_volume 2661.939412
_symmetry_space_group_name_H-M "P C C A"
_symmetry_group_IT_number 54
_symmetry_cell_setting 'orthorhombic'
loop_
_space_group_symop_operation_xyz
x,y,z
1/2-x,-y,z
1/2+x,-y,1/2-z
-x,y,1/2-z
-x,-y,-z
1/2+x,y,-z
1/2-x,y,1/2+z
x,-y,1/2+z
loop_
_atom_site_type_symbol
_atom_site_label
_atom_site_fract_x
_atom_site_fract_y
_atom_site_fract_z
Si Si1 0.825278 0.379581 0.701273
Si Si2 0.787903 0.066746 0.135102
Si Si3 0.998490 0.875452 0.012362
Si Si4 0.305996 0.749084 0.839590
Si Si5 0.462998 0.750987 0.499879
Si Si6 0.508540 0.618825 0.986893
Si Si7 0.322083 0.142948 0.206792
Si Si8 0.302658 0.435332 0.623893
O O1 0.773842 0.313280 0.703956
O O2 0.866624 0.394133 0.590365
O O3 0.710375 0.419518 0.762714
O O4 0.000000 0.383213 0.750000
O O5 0.646890 0.098667 0.073827
O O6 0.786106 0.094244 0.243060
O O7 0.750000 0.000000 0.139205
O O8 0.943591 0.082278 0.072119
O O9 0.143230 0.863780 0.091529
O O10 0.964261 0.812343 0.967909
O O11 0.268951 0.797972 0.760634
O O12 0.203811 0.754317 0.940016
O O13 0.488915 0.752117 0.882941
O O14 0.509163 0.684844 0.479187
O O15 0.671789 0.606297 0.929157
O O16 0.473401 0.578258 0.077671
O O17 0.500000 0.133819 0.250000
O O18 0.250000 0.500000 0.607146
#
# Coordination Sequence:
#
# PCOD9421703 Si02
#       8
#     8   8   8   8   8   8   8   8
#     4   9  21  38  61  90 119 168 212 253 316 384
#     4  11  23  41  64  94 128 169 218 260 311 381
#     4  11  22  41  66  92 127 172 211 262 326 373
#     4  11  20  38  65  93 127 160 213 261 321 383
#     4  11  20  38  67  93 128 159 210 262 324 381
#     4  10  22  40  65  96 123 167 214 267 321 378
#     4  10  20  37  64  92 117 173 213 252 314 384
#     4  11  23  42  65  91 128 172 215 262 319 387
#
# _framework density 24.042622000000001
#
# number of rings (size 3 to 8) (size 9 to 14) (size 15 to 20)
#    0.000    1.500    3.750    2.625    3.500    1.000 
#    0.000    9.375    0.000    0.000    0.000    0.000 
#    0.000    0.000    0.000    0.000    0.000    0.000 
#
# Total GULP energy -357004.077813 kJ/mol
# GULP energy per Si atom -5578.188716 kJ/mol
# Density = 2.398790 g / cm^3
# Si number density = 24.042622 Si / 1000 Ang^3
#
#
#
# Elastic Constant Matrix: (Units=GPa)
#
#
# Indices 1 2 3 4 5 6 
#
# 1 43.8935 -5.1457 35.3602 0.0000 0.0000 0.0000
# 2 -5.1457 68.5492 14.3666 0.0000 0.0000 0.0000
# 3 35.3602 14.3666 91.0589 0.0000 0.0000 0.0000
# 4 0.0000 0.0000 0.0000 -53.3886 0.0000 0.0000
# 5 0.0000 0.0000 0.0000 0.0000 26.3849 0.0000
# 6 0.0000 0.0000 0.0000 0.0000 0.0000 12.1731
#
#
#
# Elastic Compliance Matrix: (Units=1/GPa)
#
#
# Indices 1 2 3 4 5 6 
#
# 1 0.035178 0.005692 -0.014558 0.000000 0.000000 0.000000
# 2 0.005692 0.016008 -0.004736 0.000000 0.000000 0.000000
# 3 -0.014558 -0.004736 0.017382 0.000000 0.000000 0.000000
# 4 0.000000 0.000000 0.000000 -0.018731 0.000000 0.000000
# 5 0.000000 0.000000 0.000000 0.000000 0.037900 0.000000
# 6 0.000000 0.000000 0.000000 0.000000 0.000000 0.082148
#
#
# Mechanical properties :
#
#
# Convention : Reuss Voigt Hill
#
# Bulk Modulus (GPa) = 24.17603 32.51820 28.34712
# Shear Modulus (GPa) = 23.71031 7.62858 15.66944
#
# Velocity S-wave (km/s) = 3.14375 1.78321 2.55568
# Velocity P-wave (km/s) = 4.82233 4.21834 4.53041
#
# Compressibility (1/GPa) = 0.04136328
#
# Stress axis : x y z
#
# Youngs Moduli (GPa) = 28.42705 62.46928 57.52938
#
# Poissons Ratio (x) = -0.35556 0.83753
# Poissons Ratio (y) = -0.16180 0.27245
# Poissons Ratio (z) = 0.41385 0.29585
#
# Static dielectric constant tensor:
#      x y z
#    x 2.002670 0.000000 0.000000 
#    y 0.000000 1.876220 0.000000 
#    z 0.000000 0.000000 1.968420 
# 
# From -- ./inp_files/11942.got.cif
#   From: 2010.05.17/outbox.cif.g08.bks.cpg/sg54_6_cif.got.tgz:11942.got - 2010.06.03 13:09:01.
