data_PCOD9421748
_publ_section_title
;
Structure prediction by ZEFSAII (Michael W. Deem and Ramdas Pophale) SiO2 
 PCOD9421748
Probable space group: P C C A
;
_chemical_formula_sum "Si O2"
_cell_formula_units_Z 40
_cell_length_a 23.757925
_cell_length_b 6.005746
_cell_length_c 13.319184
_cell_angle_alpha 90.000000
_cell_angle_beta 90.000000
_cell_angle_gamma 90.000000
_cell_volume 1900.435289
_symmetry_space_group_name_H-M "P C C A"
_symmetry_group_IT_number 54
_symmetry_cell_setting 'orthorhombic'
loop_
_space_group_symop_operation_xyz
x,y,z
1/2-x,-y,z
1/2+x,-y,1/2-z
-x,y,1/2-z
-x,-y,-z
1/2+x,y,-z
1/2-x,y,1/2+z
x,-y,1/2+z
loop_
_atom_site_type_symbol
_atom_site_label
_atom_site_fract_x
_atom_site_fract_y
_atom_site_fract_z
Si Si1 0.902335 0.692360 0.268894
Si Si2 0.647482 0.312045 0.914327
Si Si3 0.123859 0.413487 0.408051
Si Si4 0.689436 0.078337 0.735537
Si Si5 0.056942 0.077130 0.550883
O O1 0.877261 0.502669 0.341796
O O2 0.914268 0.567184 0.164874
O O3 0.948252 0.816215 0.337729
O O4 0.854119 0.874244 0.245411
O O5 0.693812 0.189551 0.846555
O O6 0.599345 0.130218 0.936965
O O7 0.660804 0.429865 0.019097
O O8 0.162459 0.257151 0.339511
O O9 0.085752 0.257408 0.477787
O O10 0.750000 0.000000 0.700871
O O11 0.000000 0.000000 0.500000
#
# Coordination Sequence:
#
# PCOD9421748 Si02
#       5
#     8   8   8   8   8
#     4   9  20  39  58  84 120 154 197 248 291 349
#     4   9  20  39  58  83 121 156 193 245 295 348
#     4  10  20  38  60  87 123 158 199 247 297 355
#     4  10  21  40  62  87 120 157 200 247 295 355
#     4  10  21  40  62  87 121 159 200 247 299 355
#
# _framework density 21.047808
#
# number of rings (size 3 to 8) (size 9 to 14) (size 15 to 20)
#    0.000    2.400    0.000    1.200    0.000    6.400 
#    0.000   48.000    0.000    0.000    0.000    0.000 
#    0.000    0.000    0.000    0.000    0.000    0.000 
#
# Total GULP energy -223238.440726 kJ/mol
# GULP energy per Si atom -5580.961018 kJ/mol
# Density = 2.099990 g / cm^3
# Si number density = 21.047808 Si / 1000 Ang^3
#
#
#
# Elastic Constant Matrix: (Units=GPa)
#
#
# Indices 1 2 3 4 5 6 
#
# 1 49.2908 18.3368 28.1992 0.0000 0.0000 0.0000
# 2 18.3368 117.3351 64.7005 0.0000 0.0000 0.0000
# 3 28.1992 64.7005 137.1335 0.0000 0.0000 0.0000
# 4 0.0000 0.0000 0.0000 58.3972 0.0000 0.0000
# 5 0.0000 0.0000 0.0000 0.0000 16.7930 0.0000
# 6 0.0000 0.0000 0.0000 0.0000 0.0000 11.6469
#
#
#
# Elastic Compliance Matrix: (Units=1/GPa)
#
#
# Indices 1 2 3 4 5 6 
#
# 1 0.023148 -0.001342 -0.004127 0.000000 0.000000 0.000000
# 2 -0.001342 0.011597 -0.005196 0.000000 0.000000 0.000000
# 3 -0.004127 -0.005196 0.010592 0.000000 0.000000 0.000000
# 4 0.000000 0.000000 0.000000 0.017124 0.000000 0.000000
# 5 0.000000 0.000000 0.000000 0.000000 0.059549 0.000000
# 6 0.000000 0.000000 0.000000 0.000000 0.000000 0.085860
#
#
# Mechanical properties :
#
#
# Convention : Reuss Voigt Hill
#
# Bulk Modulus (GPa) = 41.65205 58.47026 50.06115
# Shear Modulus (GPa) = 21.07912 30.20228 25.64070
#
# Velocity S-wave (km/s) = 3.16806 3.79217 3.49408
# Velocity P-wave (km/s) = 5.76319 6.85668 6.33358
#
# Compressibility (1/GPa) = 0.02400842
#
# Stress axis : x y z
#
# Youngs Moduli (GPa) = 43.20043 86.22667 94.40925
#
# Poissons Ratio (x) = 0.11571 0.38961
# Poissons Ratio (y) = 0.05797 0.49053
# Poissons Ratio (z) = 0.17828 0.44801
#
# Static dielectric constant tensor:
#      x y z
#    x 1.737880 0.000000 0.000000 
#    y 0.000000 1.770990 0.000000 
#    z 0.000000 0.000000 1.807470 
# 
# From -- ./inp_files/10140.got.cif
#   From: 2010.05.17/outbox.cif.g08.bks.cpg/sg54_6_cif.got.tgz:10140.got - 2010.06.03 13:09:01.
