data_PCOD9421329
_publ_section_title
;
Structure prediction by ZEFSAII (Michael W. Deem and Ramdas Pophale) SiO2 
 PCOD9421329
Probable space group: P C C A
;
_chemical_formula_sum "Si O2"
_cell_formula_units_Z 32
_cell_length_a 19.848871
_cell_length_b 5.915675
_cell_length_c 11.728911
_cell_angle_alpha 90.000000
_cell_angle_beta 90.000000
_cell_angle_gamma 90.000000
_cell_volume 1377.202513
_symmetry_space_group_name_H-M "P C C A"
_symmetry_group_IT_number 54
_symmetry_cell_setting 'orthorhombic'
loop_
_space_group_symop_operation_xyz
x,y,z
1/2-x,-y,z
1/2+x,-y,1/2-z
-x,y,1/2-z
-x,-y,-z
1/2+x,y,-z
1/2-x,y,1/2+z
x,-y,1/2+z
loop_
_atom_site_type_symbol
_atom_site_label
_atom_site_fract_x
_atom_site_fract_y
_atom_site_fract_z
Si Si1 0.000000 0.018969 0.250000
Si Si2 0.056461 0.363416 0.068571
Si Si3 0.375229 0.738266 0.728160
Si Si4 0.250000 0.500000 0.724376
Si Si5 0.313652 0.880930 0.060491
O O1 0.020197 0.173461 0.143898
O O2 0.063382 0.867684 0.286010
O O3 0.089285 0.542592 0.155265
O O4 0.120587 0.241645 0.008195
O O5 0.000000 0.500000 0.000000
O O6 0.311592 0.619299 0.789773
O O7 0.343865 0.922112 0.641032
O O8 0.218367 0.691065 0.642887
O O9 0.250000 0.000000 0.995833
#
# Coordination Sequence:
#
# PCOD9421329 Si02
#       5
#     4   8   8   4   8
#     4  10  20  32  50  80 116 150 188 236 286 334
#     4  10  20  33  52  83 113 146 189 236 287 339
#     4   9  17  31  51  79 107 140 184 230 279 336
#     4   8  14  28  50  78 102 132 184 226 272 342
#     4   8  15  28  49  77 103 137 182 224 273 339
#
# _framework density 23.235506000000001
#
# number of rings (size 3 to 8) (size 9 to 14) (size 15 to 20)
#    0.000    3.000    0.000    0.750    0.000    4.000 
#    0.000    0.000    0.000    0.000    0.000  567.000 
#    0.000    0.000    0.000    0.000    0.000    0.000 
#
# Total GULP energy -178398.811721 kJ/mol
# GULP energy per Si atom -5574.962866 kJ/mol
# Density = 2.318262 g / cm^3
# Si number density = 23.235506 Si / 1000 Ang^3
#
#
#
# Elastic Constant Matrix: (Units=GPa)
#
#
# Indices 1 2 3 4 5 6 
#
# 1 251.0240 109.2260 64.5261 0.0000 0.0000 0.0000
# 2 109.2260 141.0322 32.5062 0.0000 0.0000 0.0000
# 3 64.5261 32.5062 47.7489 0.0000 0.0000 0.0000
# 4 0.0000 0.0000 0.0000 -34.4839 0.0000 0.0000
# 5 0.0000 0.0000 0.0000 0.0000 24.7759 0.0000
# 6 0.0000 0.0000 0.0000 0.0000 0.0000 97.8697
#
#
#
# Elastic Compliance Matrix: (Units=1/GPa)
#
#
# Indices 1 2 3 4 5 6 
#
# 1 0.007815 -0.004292 -0.007639 0.000000 0.000000 0.000000
# 2 -0.004292 0.010767 -0.001530 0.000000 0.000000 0.000000
# 3 -0.007639 -0.001530 0.032308 0.000000 0.000000 0.000000
# 4 0.000000 0.000000 0.000000 -0.028999 0.000000 0.000000
# 5 0.000000 0.000000 0.000000 0.000000 0.040362 0.000000
# 6 0.000000 0.000000 0.000000 0.000000 0.000000 0.010218
#
#
# Mechanical properties :
#
#
# Convention : Reuss Voigt Hill
#
# Bulk Modulus (GPa) = 41.72298 94.70243 68.21270
# Shear Modulus (GPa) = 46.56337 33.20211 39.88274
#
# Velocity S-wave (km/s) = 4.48143 3.78423 4.14751
# Velocity P-wave (km/s) = 6.69128 7.74209 7.23579
#
# Compressibility (1/GPa) = 0.02396761
#
# Stress axis : x y z
#
# Youngs Moduli (GPa) = 127.96561 92.87597 30.95249
#
# Poissons Ratio (x) = 0.39858 0.23644
# Poissons Ratio (y) = 0.54917 0.04737
# Poissons Ratio (z) = 0.97750 0.14214
#
# Static dielectric constant tensor:
#      x y z
#    x 1.961370 0.000000 0.000000 
#    y 0.000000 1.867170 0.000000 
#    z 0.000000 0.000000 1.902830 
# 
# From -- ./inp_files/9261.got.cif
#   From: 2010.05.17/outbox.cif.g08.bks.cpg/sg54_5_cif.got.tgz:9261.got - 2010.06.03 13:09:01.
