data_PCOD9421123
_publ_section_title
;
Structure prediction by ZEFSAII (Michael W. Deem and Ramdas Pophale) SiO2 
 PCOD9421123
Probable space group: P C C A
;
_chemical_formula_sum "Si O2"
_cell_formula_units_Z 60
_cell_length_a 30.347207
_cell_length_b 4.981318
_cell_length_c 19.066725
_cell_angle_alpha 90.000000
_cell_angle_beta 90.000000
_cell_angle_gamma 90.000000
_cell_volume 2882.299439
_symmetry_space_group_name_H-M "P C C A"
_symmetry_group_IT_number 54
_symmetry_cell_setting 'orthorhombic'
loop_
_space_group_symop_operation_xyz
x,y,z
1/2-x,-y,z
1/2+x,-y,1/2-z
-x,y,1/2-z
-x,-y,-z
1/2+x,y,-z
1/2-x,y,1/2+z
x,-y,1/2+z
loop_
_atom_site_type_symbol
_atom_site_label
_atom_site_fract_x
_atom_site_fract_y
_atom_site_fract_z
Si Si1 0.750000 0.000000 0.287368
Si Si2 0.472737 0.212379 0.952195
Si Si3 0.864373 0.175060 0.498713
Si Si4 0.869523 0.576173 0.315225
Si Si5 0.292540 0.586823 0.101741
Si Si6 0.441669 0.586542 0.080029
Si Si7 0.655774 0.053501 0.731100
Si Si8 0.123064 0.701153 0.912088
O O1 0.732081 0.764050 0.338309
O O2 0.793267 0.962785 0.239236
O O3 0.510594 0.307402 0.898160
O O4 0.427318 0.182456 0.909658
O O5 0.455067 0.415203 0.011843
O O6 0.500000 0.000000 0.000000
O O7 0.824906 0.256917 0.448900
O O8 0.908439 0.191182 0.451191
O O9 0.871622 0.392774 0.562167
O O10 0.856711 0.879122 0.525987
O O11 0.825664 0.629984 0.362390
O O12 0.913022 0.569475 0.362773
O O13 0.871200 0.786766 0.252050
O O14 0.859358 0.277131 0.287679
O O15 0.250000 0.500000 0.058031
O O16 0.646410 0.202969 0.658488
#
# Coordination Sequence:
#
# PCOD9421123 Si02
#       8
#     4   8   8   8   8   8   8   8
#     4  10  22  38  62  86 118 158 210 236 296 370
#     4  10  19  35  63  86 117 157 192 251 312 366
#     4  10  22  37  60  88 117 152 191 259 303 353
#     4  10  22  38  64  87 117 158 206 251 290 354
#     4  10  20  36  61  89 119 146 203 258 308 344
#     4   9  20  35  60  92 115 148 202 251 307 352
#     4  11  23  41  61  83 121 170 199 242 295 369
#     4  11  23  41  59  85 125 161 201 235 311 371
#
# _framework density 20.816714000000001
#
# number of rings (size 3 to 8) (size 9 to 14) (size 15 to 20)
#    0.000    1.867    2.667    0.800    3.733    3.200 
#    2.400    0.667    0.000    0.000    0.000    0.000 
#    0.000    0.000    0.000    0.000    0.000    0.000 
#
# Total GULP energy -334065.839054 kJ/mol
# GULP energy per Si atom -5567.763984 kJ/mol
# Density = 2.076933 g / cm^3
# Si number density = 20.816714 Si / 1000 Ang^3
#
#
#
# Elastic Constant Matrix: (Units=GPa)
#
#
# Indices 1 2 3 4 5 6 
#
# 1 126.4543 -1.0065 31.0158 0.0000 0.0000 0.0000
# 2 -1.0065 55.2152 -6.6097 0.0000 0.0000 0.0000
# 3 31.0158 -6.6097 46.8855 0.0000 0.0000 0.0000
# 4 0.0000 0.0000 0.0000 24.7926 0.0000 0.0000
# 5 0.0000 0.0000 0.0000 0.0000 27.4795 0.0000
# 6 0.0000 0.0000 0.0000 0.0000 0.0000 18.1216
#
#
#
# Elastic Compliance Matrix: (Units=1/GPa)
#
#
# Indices 1 2 3 4 5 6 
#
# 1 0.009458 -0.000586 -0.006340 0.000000 0.000000 0.000000
# 2 -0.000586 0.018458 0.002990 0.000000 0.000000 0.000000
# 3 -0.006340 0.002990 0.025944 0.000000 0.000000 0.000000
# 4 0.000000 0.000000 0.000000 0.040335 0.000000 0.000000
# 5 0.000000 0.000000 0.000000 0.000000 0.036391 0.000000
# 6 0.000000 0.000000 0.000000 0.000000 0.000000 0.055183
#
#
# Mechanical properties :
#
#
# Convention : Reuss Voigt Hill
#
# Bulk Modulus (GPa) = 21.74456 30.59491 26.16973
# Shear Modulus (GPa) = 23.92691 27.75576 25.84134
#
# Velocity S-wave (km/s) = 3.39397 3.65545 3.52714
# Velocity P-wave (km/s) = 5.08204 5.70488 5.40244
#
# Compressibility (1/GPa) = 0.04598852
#
# Stress axis : x y z
#
# Youngs Moduli (GPa) = 105.72789 54.17649 38.54480
#
# Poissons Ratio (x) = 0.03177 0.24436
# Poissons Ratio (y) = 0.06201 -0.11525
# Poissons Ratio (z) = 0.67026 -0.16199
#
# Static dielectric constant tensor:
#      x y z
#    x 1.859260 0.000000 0.000000 
#    y 0.000000 1.841510 0.000000 
#    z 0.000000 0.000000 1.776900 
# 
# From -- ./inp_files/19326.got.cif
#   From: 2010.05.17/outbox.cif.g08.bks.cpg/sg54_10_cif.got.tgz:19326.got - 2010.06.03 13:09:01.
