data_PCOD9421746
_publ_section_title
;
Structure prediction by ZEFSAII (Michael W. Deem and Ramdas Pophale) SiO2 
 PCOD9421746
Probable space group: P C C A
;
_chemical_formula_sum "Si O2"
_cell_formula_units_Z 48
_cell_length_a 18.241482
_cell_length_b 12.696959
_cell_length_c 8.858746
_cell_angle_alpha 90.000000
_cell_angle_beta 90.000000
_cell_angle_gamma 90.000000
_cell_volume 2051.786112
_symmetry_space_group_name_H-M "P C C A"
_symmetry_group_IT_number 54
_symmetry_cell_setting 'orthorhombic'
loop_
_space_group_symop_operation_xyz
x,y,z
1/2-x,-y,z
1/2+x,-y,1/2-z
-x,y,1/2-z
-x,-y,-z
1/2+x,y,-z
1/2-x,y,1/2+z
x,-y,1/2+z
loop_
_atom_site_type_symbol
_atom_site_label
_atom_site_fract_x
_atom_site_fract_y
_atom_site_fract_z
Si Si1 0.050739 0.185555 0.521880
Si Si2 0.246506 0.790141 0.243498
Si Si3 0.309714 0.087515 0.975502
Si Si4 0.092872 0.240822 0.860382
Si Si5 0.917351 0.539004 0.974021
Si Si6 0.869347 0.362729 0.164938
O O1 0.103423 0.083587 0.507818
O O2 0.067803 0.236065 0.686126
O O3 0.078558 0.268013 0.395637
O O4 0.963197 0.176082 0.533226
O O5 0.215596 0.812286 0.078057
O O6 0.299382 0.883194 0.300781
O O7 0.175462 0.799444 0.350739
O O8 0.293629 0.686028 0.272357
O O9 0.250000 0.000000 0.011126
O O10 0.093712 0.358356 0.923257
O O11 0.905333 0.574650 0.803145
O O12 0.864054 0.445414 0.028114
O O13 0.000000 0.500000 0.000000
#
# Coordination Sequence:
#
# PCOD9421746 Si02
#       6
#     8   8   8   8   8   8
#     4   9  20  37  61  86 121 164 211 259 323 386
#     4  10  22  40  63  89 125 167 204 266 334 385
#     4  10  20  39  65  93 120 159 209 264 331 402
#     4  10  20  38  60  86 120 167 214 261 319 376
#     4  12  23  35  61  87 123 170 224 268 304 379
#     4  11  23  39  58  87 124 168 218 263 320 372
#
# _framework density 23.394251000000001
#
# number of rings (size 3 to 8) (size 9 to 14) (size 15 to 20)
#    0.000    1.667    1.667    3.000    2.333    0.667 
#    0.000    2.500    0.000    6.000    0.000    0.000 
#    0.000    0.000    0.000    0.000    0.000    0.000 
#
# Total GULP energy -267862.427698 kJ/mol
# GULP energy per Si atom -5580.467244 kJ/mol
# Density = 2.334101 g / cm^3
# Si number density = 23.394251 Si / 1000 Ang^3
#
#
#
# Elastic Constant Matrix: (Units=GPa)
#
#
# Indices 1 2 3 4 5 6 
#
# 1 104.8041 21.0370 15.9597 0.0000 0.0000 0.0000
# 2 21.0370 60.3729 7.0592 0.0000 0.0000 0.0000
# 3 15.9597 7.0592 63.2587 0.0000 0.0000 0.0000
# 4 0.0000 0.0000 0.0000 22.0490 0.0000 0.0000
# 5 0.0000 0.0000 0.0000 0.0000 22.9807 0.0000
# 6 0.0000 0.0000 0.0000 0.0000 0.0000 40.2410
#
#
#
# Elastic Compliance Matrix: (Units=1/GPa)
#
#
# Indices 1 2 3 4 5 6 
#
# 1 0.010576 -0.003418 -0.002287 0.000000 0.000000 0.000000
# 2 -0.003418 0.017887 -0.001134 0.000000 0.000000 0.000000
# 3 -0.002287 -0.001134 0.016512 0.000000 0.000000 0.000000
# 4 0.000000 0.000000 0.000000 0.045353 0.000000 0.000000
# 5 0.000000 0.000000 0.000000 0.000000 0.043515 0.000000
# 6 0.000000 0.000000 0.000000 0.000000 0.000000 0.024850
#
#
# Mechanical properties :
#
#
# Convention : Reuss Voigt Hill
#
# Bulk Modulus (GPa) = 31.95106 35.17194 33.56150
# Shear Modulus (GPa) = 27.35190 29.34614 28.34902
#
# Velocity S-wave (km/s) = 3.42303 3.54562 3.48486
# Velocity P-wave (km/s) = 5.41388 5.64171 5.52897
#
# Compressibility (1/GPa) = 0.03129787
#
# Stress axis : x y z
#
# Youngs Moduli (GPa) = 94.55469 55.90581 60.56357
#
# Poissons Ratio (x) = 0.19107 0.13850
# Poissons Ratio (y) = 0.32317 0.06867
# Poissons Ratio (z) = 0.21623 0.06339
#
# Static dielectric constant tensor:
#      x y z
#    x 1.989130 0.000000 0.000000 
#    y 0.000000 1.945970 0.000000 
#    z 0.000000 0.000000 1.864230 
# 
# From -- ./inp_files/4199.got.cif
#   From: 2010.05.17/outbox.cif.g08.bks.cpg/sg54_3_cif.got.tgz:4199.got - 2010.06.03 13:09:01.
