data_PCOD9421675
_publ_section_title
;
Structure prediction by ZEFSAII (Michael W. Deem and Ramdas Pophale) SiO2 
 PCOD9421675
Probable space group: P C C A
;
_chemical_formula_sum "Si O2"
_cell_formula_units_Z 52
_cell_length_a 13.468497
_cell_length_b 9.275859
_cell_length_c 22.759161
_cell_angle_alpha 90.000000
_cell_angle_beta 90.000000
_cell_angle_gamma 90.000000
_cell_volume 2843.344751
_symmetry_space_group_name_H-M "P C C A"
_symmetry_group_IT_number 54
_symmetry_cell_setting 'orthorhombic'
loop_
_space_group_symop_operation_xyz
x,y,z
1/2-x,-y,z
1/2+x,-y,1/2-z
-x,y,1/2-z
-x,-y,-z
1/2+x,y,-z
1/2-x,y,1/2+z
x,-y,1/2+z
loop_
_atom_site_type_symbol
_atom_site_label
_atom_site_fract_x
_atom_site_fract_y
_atom_site_fract_z
Si Si1 0.367195 0.140247 0.902858
Si Si2 0.748753 0.669850 0.505720
Si Si3 0.231167 0.330531 0.630794
Si Si4 0.906905 0.885991 0.873967
Si Si5 0.097732 0.150049 0.714208
Si Si6 0.894015 0.919219 0.000751
Si Si7 0.250000 0.000000 0.300885
O O1 0.317075 0.257716 0.944878
O O2 0.483895 0.171420 0.891769
O O3 0.354193 0.994288 0.941016
O O4 0.313919 0.106938 0.841816
O O5 0.750000 0.500000 0.515654
O O6 0.788465 0.691791 0.439036
O O7 0.641172 0.752299 0.507035
O O8 0.250000 0.500000 0.639582
O O9 0.329912 0.236676 0.645358
O O10 0.143738 0.270407 0.671582
O O11 0.922472 0.010520 0.826680
O O12 0.860527 0.951984 0.934115
O O13 0.000000 0.193501 0.750000
O O14 0.179016 0.095946 0.760585
O O15 0.000000 0.000000 0.000000
#
# Coordination Sequence:
#
# PCOD9421675 Si02
#       7
#     8   8   8   8   8   8   4
#     4  11  20  36  59  90 124 154 201 256 316 363
#     4  10  20  37  61  90 129 168 201 257 326 387
#     4  10  22  43  64  87 127 168 204 252 310 379
#     4  10  20  37  62  90 113 157 210 251 306 361
#     4  12  23  39  63  91 115 159 218 259 301 357
#     4   9  18  33  58  86 114 152 203 254 306 367
#     4  12  22  36  60  88 124 154 198 266 306 354
#
# _framework density 18.288321
#
# number of rings (size 3 to 8) (size 9 to 14) (size 15 to 20)
#    0.000    1.538    4.615    0.923    0.000    2.462 
#    0.000   20.000    0.000    0.000    0.000    0.000 
#    0.000    0.000    0.000    0.000    0.000    0.000 
#
# Total GULP energy -289477.993776 kJ/mol
# GULP energy per Si atom -5566.884496 kJ/mol
# Density = 1.824670 g / cm^3
# Si number density = 18.288321 Si / 1000 Ang^3
#
#
#
# Elastic Constant Matrix: (Units=GPa)
#
#
# Indices 1 2 3 4 5 6 
#
# 1 108.5804 46.0757 34.8150 0.0000 0.0000 0.0000
# 2 46.0757 121.1768 46.7657 0.0000 0.0000 0.0000
# 3 34.8150 46.7657 92.8298 0.0000 0.0000 0.0000
# 4 0.0000 0.0000 0.0000 34.8768 0.0000 0.0000
# 5 0.0000 0.0000 0.0000 0.0000 51.9197 0.0000
# 6 0.0000 0.0000 0.0000 0.0000 0.0000 16.6560
#
#
#
# Elastic Compliance Matrix: (Units=1/GPa)
#
#
# Indices 1 2 3 4 5 6 
#
# 1 0.011470 -0.003353 -0.002613 0.000000 0.000000 0.000000
# 2 -0.003353 0.011224 -0.004397 0.000000 0.000000 0.000000
# 3 -0.002613 -0.004397 0.013967 0.000000 0.000000 0.000000
# 4 0.000000 0.000000 0.000000 0.028672 0.000000 0.000000
# 5 0.000000 0.000000 0.000000 0.000000 0.019261 0.000000
# 6 0.000000 0.000000 0.000000 0.000000 0.000000 0.060038
#
#
# Mechanical properties :
#
#
# Convention : Reuss Voigt Hill
#
# Bulk Modulus (GPa) = 62.74900 64.21107 63.48004
# Shear Modulus (GPa) = 29.29611 33.68586 31.49099
#
# Velocity S-wave (km/s) = 4.00672 4.29643 4.15410
# Velocity P-wave (km/s) = 7.46931 7.73299 7.60229
#
# Compressibility (1/GPa) = 0.01593651
#
# Stress axis : x y z
#
# Youngs Moduli (GPa) = 87.18115 89.09218 71.59548
#
# Poissons Ratio (x) = 0.29874 0.18705
# Poissons Ratio (y) = 0.29233 0.31481
# Poissons Ratio (z) = 0.22777 0.39174
#
# Static dielectric constant tensor:
#      x y z
#    x 1.183920 0.000000 0.000000 
#    y 0.000000 1.547130 0.000000 
#    z 0.000000 0.000000 1.647420 
# 
# From -- ./inp_files/21525.got.cif
#   From: 2010.05.17/outbox.cif.g08.bks.cpg/sg54_11_cif.got.tgz:21525.got - 2010.06.03 13:09:01.
