data_PCOD9421466
_publ_section_title
;
Structure prediction by ZEFSAII (Michael W. Deem and Ramdas Pophale) SiO2 
 PCOD9421466
Probable space group: P C C A
;
_chemical_formula_sum "Si O2"
_cell_formula_units_Z 36
_cell_length_a 5.072134
_cell_length_b 15.331396
_cell_length_c 24.057838
_cell_angle_alpha 90.000000
_cell_angle_beta 90.000000
_cell_angle_gamma 90.000000
_cell_volume 1870.807128
_symmetry_space_group_name_H-M "P C C A"
_symmetry_group_IT_number 54
_symmetry_cell_setting 'orthorhombic'
loop_
_space_group_symop_operation_xyz
x,y,z
1/2-x,-y,z
1/2+x,-y,1/2-z
-x,y,1/2-z
-x,-y,-z
1/2+x,y,-z
1/2-x,y,1/2+z
x,-y,1/2+z
loop_
_atom_site_type_symbol
_atom_site_label
_atom_site_fract_x
_atom_site_fract_y
_atom_site_fract_z
Si Si1 0.481440 0.850684 0.315467
Si Si2 0.250000 0.000000 0.113223
Si Si3 0.001439 0.560351 0.315872
Si Si4 0.472978 0.751368 0.639701
Si Si5 0.527620 0.861334 0.536250
O O1 0.500000 0.867142 0.250000
O O2 0.198156 0.812356 0.332449
O O3 0.696152 0.778438 0.333135
O O4 0.572116 0.936234 0.349198
O O5 0.060978 0.942308 0.074284
O O6 0.250000 0.500000 0.326895
O O7 0.016966 0.650280 0.348886
O O8 0.750000 0.500000 0.327593
O O9 0.000000 0.583009 0.250000
O O10 0.475694 0.777807 0.575064
O O11 0.827279 0.863063 0.515698
#
# Coordination Sequence:
#
# PCOD9421466 Si02
#       5
#     8   4   8   8   8
#     4  11  23  38  58  85 123 160 191 233 288 358
#     4  10  24  38  58  86 114 152 200 244 292 336
#     4  10  20  35  60  90 118 147 181 227 285 353
#     4  11  23  40  60  87 118 156 196 235 292 348
#     4  11  23  40  60  81 111 151 201 252 289 328
#
# _framework density 19.243031999999999
#
# number of rings (size 3 to 8) (size 9 to 14) (size 15 to 20)
#    0.000    1.333    0.000    6.667    0.000   12.444 
#    0.000    0.000    0.000    4.000    0.000    0.000 
#    0.000    0.000    0.000    0.000    0.000    0.000 
#
# Total GULP energy -201441.299718 kJ/mol
# GULP energy per Si atom -5595.591659 kJ/mol
# Density = 1.919923 g / cm^3
# Si number density = 19.243032 Si / 1000 Ang^3
#
#
#
# Elastic Constant Matrix: (Units=GPa)
#
#
# Indices 1 2 3 4 5 6 
#
# 1 62.2420 -8.7719 -7.8518 0.0000 0.0000 0.0000
# 2 -8.7719 119.2501 28.4768 0.0000 0.0000 0.0000
# 3 -7.8518 28.4768 70.3463 0.0000 0.0000 0.0000
# 4 0.0000 0.0000 0.0000 13.9003 0.0000 0.0000
# 5 0.0000 0.0000 0.0000 0.0000 26.3648 0.0000
# 6 0.0000 0.0000 0.0000 0.0000 0.0000 55.7204
#
#
#
# Elastic Compliance Matrix: (Units=1/GPa)
#
#
# Indices 1 2 3 4 5 6 
#
# 1 0.016373 0.000850 0.001483 0.000000 0.000000 0.000000
# 2 0.000850 0.009327 -0.003681 0.000000 0.000000 0.000000
# 3 0.001483 -0.003681 0.015871 0.000000 0.000000 0.000000
# 4 0.000000 0.000000 0.000000 0.071941 0.000000 0.000000
# 5 0.000000 0.000000 0.000000 0.000000 0.037929 0.000000
# 6 0.000000 0.000000 0.000000 0.000000 0.000000 0.017947
#
#
# Mechanical properties :
#
#
# Convention : Reuss Voigt Hill
#
# Bulk Modulus (GPa) = 25.72224 30.61608 28.16916
# Shear Modulus (GPa) = 27.02090 35.19614 31.10852
#
# Velocity S-wave (km/s) = 3.75132 4.28136 4.02507
# Velocity P-wave (km/s) = 5.67091 6.35490 6.02263
#
# Compressibility (1/GPa) = 0.03887687
#
# Stress axis : x y z
#
# Youngs Moduli (GPa) = 61.07515 107.21261 63.00798
#
# Poissons Ratio (x) = -0.09115 -0.09346
# Poissons Ratio (y) = -0.05192 0.23192
# Poissons Ratio (z) = -0.09060 0.39464
#
# Static dielectric constant tensor:
#      x y z
#    x 1.661420 0.000000 0.000000 
#    y 0.000000 1.635570 0.000000 
#    z 0.000000 0.000000 1.667200 
# 
# From -- ./inp_files/19613.got.cif
#   From: 2010.05.17/outbox.cif.g08.bks.cpg/sg54_10_cif.got.tgz:19613.got - 2010.06.03 13:09:01.
