data_PCOD9421616
_publ_section_title
;
Structure prediction by ZEFSAII (Michael W. Deem and Ramdas Pophale) SiO2 
 PCOD9421616
Probable space group: P C C A
;
_chemical_formula_sum "Si O2"
_cell_formula_units_Z 48
_cell_length_a 29.939210
_cell_length_b 8.065143
_cell_length_c 9.582801
_cell_angle_alpha 90.000000
_cell_angle_beta 90.000000
_cell_angle_gamma 90.000000
_cell_volume 2313.901556
_symmetry_space_group_name_H-M "P C C A"
_symmetry_group_IT_number 54
_symmetry_cell_setting 'orthorhombic'
loop_
_space_group_symop_operation_xyz
x,y,z
1/2-x,-y,z
1/2+x,-y,1/2-z
-x,y,1/2-z
-x,-y,-z
1/2+x,y,-z
1/2-x,y,1/2+z
x,-y,1/2+z
loop_
_atom_site_type_symbol
_atom_site_label
_atom_site_fract_x
_atom_site_fract_y
_atom_site_fract_z
Si Si1 0.123771 0.311037 0.335856
Si Si2 0.806274 0.799292 0.433144
Si Si3 0.837216 0.357015 0.663575
Si Si4 0.750000 0.500000 0.521233
Si Si5 0.443608 0.867118 0.489819
Si Si6 0.500000 0.942580 0.750000
Si Si7 0.640213 0.897380 0.435083
O O1 0.162502 0.274819 0.447062
O O2 0.132419 0.494395 0.279899
O O3 0.077931 0.294605 0.420165
O O4 0.129962 0.172997 0.217663
O O5 0.828554 0.773380 0.283896
O O6 0.765059 0.667909 0.437782
O O7 0.812958 0.998374 0.450967
O O8 0.790452 0.435278 0.615273
O O9 0.857841 0.261523 0.534057
O O10 0.468477 0.845848 0.638614
O O11 0.472516 0.948280 0.363904
O O12 0.401209 0.987095 0.520313
#
# Coordination Sequence:
#
# PCOD9421616 Si02
#       7
#     8   8   8   4   8   4   8
#     4  10  20  37  59  90 123 160 208 252 307 371
#     4  10  21  38  62  87 120 162 210 254 307 368
#     4  11  23  39  63  87 122 167 207 262 318 361
#     4  10  22  40  58  92 128 164 200 258 322 362
#     4  10  20  37  63  95 123 167 204 253 304 382
#     4  10  20  36  64  96 128 160 206 254 316 364
#     4  11  22  39  62  94 118 164 217 253 304 382
#
# _framework density 20.744185000000002
#
# number of rings (size 3 to 8) (size 9 to 14) (size 15 to 20)
#    0.000    1.667    1.667    4.500    2.333    2.000 
#    0.000    1.667    0.000    6.000    0.000    0.000 
#    0.000    0.000    0.000    0.000    0.000    0.000 
#
# Total GULP energy -267270.761949 kJ/mol
# GULP energy per Si atom -5568.140874 kJ/mol
# Density = 2.069697 g / cm^3
# Si number density = 20.744185 Si / 1000 Ang^3
#
#
#
# Elastic Constant Matrix: (Units=GPa)
#
#
# Indices 1 2 3 4 5 6 
#
# 1 51.7291 23.7032 20.5240 0.0000 0.0000 0.0000
# 2 23.7032 68.7014 0.0028 0.0000 0.0000 0.0000
# 3 20.5240 0.0028 106.3858 0.0000 0.0000 0.0000
# 4 0.0000 0.0000 0.0000 24.7742 0.0000 0.0000
# 5 0.0000 0.0000 0.0000 0.0000 23.8281 0.0000
# 6 0.0000 0.0000 0.0000 0.0000 0.0000 41.8823
#
#
#
# Elastic Compliance Matrix: (Units=1/GPa)
#
#
# Indices 1 2 3 4 5 6 
#
# 1 0.025258 -0.008714 -0.004872 0.000000 0.000000 0.000000
# 2 -0.008714 0.017562 0.001681 0.000000 0.000000 0.000000
# 3 -0.004872 0.001681 0.010340 0.000000 0.000000 0.000000
# 4 0.000000 0.000000 0.000000 0.040365 0.000000 0.000000
# 5 0.000000 0.000000 0.000000 0.000000 0.041967 0.000000
# 6 0.000000 0.000000 0.000000 0.000000 0.000000 0.023876
#
#
# Mechanical properties :
#
#
# Convention : Reuss Voigt Hill
#
# Bulk Modulus (GPa) = 34.07425 35.03069 34.55247
# Shear Modulus (GPa) = 25.91180 30.26933 28.09057
#
# Velocity S-wave (km/s) = 3.53811 3.82405 3.68386
# Velocity P-wave (km/s) = 5.75783 6.03502 5.89805
#
# Compressibility (1/GPa) = 0.02934767
#
# Stress axis : x y z
#
# Youngs Moduli (GPa) = 39.59201 56.94048 96.71455
#
# Poissons Ratio (x) = 0.49619 0.47124
# Poissons Ratio (y) = 0.34501 -0.16254
# Poissons Ratio (z) = 0.19291 -0.09570
#
# Static dielectric constant tensor:
#      x y z
#    x 1.808850 0.000000 0.000000 
#    y 0.000000 1.804860 0.000000 
#    z 0.000000 0.000000 1.722280 
# 
# From -- ./inp_files/5864.got.cif
#   From: 2010.05.17/outbox.cif.g08.bks.cpg/sg54_3_cif.got.tgz:5864.got - 2010.06.03 13:09:01.
