data_PCOD9421208
_publ_section_title
;
Structure prediction by ZEFSAII (Michael W. Deem and Ramdas Pophale) SiO2 
 PCOD9421208
Probable space group: P C C A
;
_chemical_formula_sum "Si O2"
_cell_formula_units_Z 48
_cell_length_a 28.625562
_cell_length_b 5.267854
_cell_length_c 14.455075
_cell_angle_alpha 90.000000
_cell_angle_beta 90.000000
_cell_angle_gamma 90.000000
_cell_volume 2179.757101
_symmetry_space_group_name_H-M "P C C A"
_symmetry_group_IT_number 54
_symmetry_cell_setting 'orthorhombic'
loop_
_space_group_symop_operation_xyz
x,y,z
1/2-x,-y,z
1/2+x,-y,1/2-z
-x,y,1/2-z
-x,-y,-z
1/2+x,y,-z
1/2-x,y,1/2+z
x,-y,1/2+z
loop_
_atom_site_type_symbol
_atom_site_label
_atom_site_fract_x
_atom_site_fract_y
_atom_site_fract_z
Si Si1 0.430220 0.721895 0.163498
Si Si2 0.639584 0.531605 0.700189
Si Si3 0.219466 0.752309 0.720001
Si Si4 0.351301 0.086192 0.136583
Si Si5 0.515862 0.248350 0.555062
Si Si6 0.886927 0.421519 0.010162
O O1 0.407045 0.583819 0.251239
O O2 0.485404 0.743700 0.148715
O O3 0.404243 0.990134 0.152600
O O4 0.410044 0.574860 0.073750
O O5 0.681400 0.326314 0.703106
O O6 0.656510 0.744929 0.771900
O O7 0.630699 0.595406 0.593925
O O8 0.250000 0.500000 0.699071
O O9 0.250000 0.000000 0.743264
O O10 0.185000 0.853475 0.638406
O O11 0.349877 0.245025 0.042620
O O12 0.500000 0.500000 0.500000
O O13 0.571694 0.254537 0.556253
O O14 0.500000 0.000000 0.500000
#
# Coordination Sequence:
#
# PCOD9421208 Si02
#       6
#     8   8   8   8   8   8
#     4   9  20  36  62  92 131 180 217 262 319 385
#     4  10  22  39  66  97 129 172 218 274 330 394
#     4  11  22  43  71  91 124 171 209 268 341 398
#     4  10  20  40  66  95 132 169 222 269 333 398
#     4  10  19  37  61  91 132 175 216 257 313 370
#     4  10  21  38  65  97 134 177 220 269 324 384
#
# _framework density 22.020800000000001
#
# number of rings (size 3 to 8) (size 9 to 14) (size 15 to 20)
#    0.000    2.000    3.333    0.000    0.000    3.333 
#    0.000    0.833    7.333    0.000    0.000    0.000 
#    0.000    0.000    0.000    0.000    0.000    0.000 
#
# Total GULP energy -267464.328694 kJ/mol
# GULP energy per Si atom -5572.173514 kJ/mol
# Density = 2.197068 g / cm^3
# Si number density = 22.020800 Si / 1000 Ang^3
#
#
#
# Elastic Constant Matrix: (Units=GPa)
#
#
# Indices 1 2 3 4 5 6 
#
# 1 35.7346 10.6142 14.3015 0.0000 0.0000 0.0000
# 2 10.6142 96.6118 25.4162 0.0000 0.0000 0.0000
# 3 14.3015 25.4162 128.3686 0.0000 0.0000 0.0000
# 4 0.0000 0.0000 0.0000 3.7186 0.0000 0.0000
# 5 0.0000 0.0000 0.0000 0.0000 3.3433 0.0000
# 6 0.0000 0.0000 0.0000 0.0000 0.0000 42.6788
#
#
#
# Elastic Compliance Matrix: (Units=1/GPa)
#
#
# Indices 1 2 3 4 5 6 
#
# 1 0.029869 -0.002538 -0.002825 0.000000 0.000000 0.000000
# 2 -0.002538 0.011135 -0.001922 0.000000 0.000000 0.000000
# 3 -0.002825 -0.001922 0.008485 0.000000 0.000000 0.000000
# 4 0.000000 0.000000 0.000000 0.268915 0.000000 0.000000
# 5 0.000000 0.000000 0.000000 0.000000 0.299105 0.000000
# 6 0.000000 0.000000 0.000000 0.000000 0.000000 0.023431
#
#
# Mechanical properties :
#
#
# Convention : Reuss Voigt Hill
#
# Bulk Modulus (GPa) = 28.63805 40.15321 34.39563
# Shear Modulus (GPa) = 7.49457 23.97369 15.73413
#
# Velocity S-wave (km/s) = 1.84683 3.30310 2.67594
# Velocity P-wave (km/s) = 4.19297 5.72897 5.02006
#
# Compressibility (1/GPa) = 0.03491858
#
# Stress axis : x y z
#
# Youngs Moduli (GPa) = 33.47991 89.80543 117.85039
#
# Poissons Ratio (x) = 0.22795 0.33294
# Poissons Ratio (y) = 0.08498 0.22650
# Poissons Ratio (z) = 0.09458 0.17260
#
# Static dielectric constant tensor:
#      x y z
#    x 2.000790 0.000000 0.000000 
#    y 0.000000 1.876810 0.000000 
#    z 0.000000 0.000000 1.817020 
# 
# From -- ./inp_files/15307.got.cif
#   From: 2010.05.17/outbox.cif.g08.bks.cpg/sg54_8_cif.got.tgz:15307.got - 2010.06.03 13:09:01.
