data_PCOD9421155
_publ_section_title
;
Structure prediction by ZEFSAII (Michael W. Deem and Ramdas Pophale) SiO2 
 PCOD9421155
Probable space group: P C C A
;
_chemical_formula_sum "Si O2"
_cell_formula_units_Z 40
_cell_length_a 13.996278
_cell_length_b 5.138955
_cell_length_c 28.771172
_cell_angle_alpha 90.000000
_cell_angle_beta 90.000000
_cell_angle_gamma 90.000000
_cell_volume 2069.402303
_symmetry_space_group_name_H-M "P C C A"
_symmetry_group_IT_number 54
_symmetry_cell_setting 'orthorhombic'
loop_
_space_group_symop_operation_xyz
x,y,z
1/2-x,-y,z
1/2+x,-y,1/2-z
-x,y,1/2-z
-x,-y,-z
1/2+x,y,-z
1/2-x,y,1/2+z
x,-y,1/2+z
loop_
_atom_site_type_symbol
_atom_site_label
_atom_site_fract_x
_atom_site_fract_y
_atom_site_fract_z
Si Si1 0.957088 0.384339 0.799978
Si Si2 0.649644 0.880307 0.321530
Si Si3 0.922144 0.085725 0.425175
Si Si4 0.250000 0.000000 0.503676
Si Si5 0.250000 0.500000 0.439939
Si Si6 0.542444 0.579493 0.598793
O O1 0.869612 0.585021 0.807146
O O2 0.000000 0.444141 0.750000
O O3 0.021639 0.434819 0.845762
O O4 0.927925 0.082279 0.801622
O O5 0.750000 0.000000 0.307475
O O6 0.637164 0.897217 0.377070
O O7 0.844226 0.053424 0.465332
O O8 0.994123 0.843002 0.420308
O O9 0.985851 0.344950 0.426299
O O10 0.231589 0.250768 0.472167
O O11 0.345567 0.441225 0.410937
#
# Coordination Sequence:
#
# PCOD9421155 Si02
#       6
#     8   8   8   4   4   8
#     4  10  21  38  62  85 119 152 196 239 288 357
#     4  10  19  36  60  89 117 144 188 248 302 335
#     4  10  21  39  63  88 114 154 194 256 293 333
#     4  12  24  38  64  90 118 150 208 244 288 366
#     4  12  26  40  56  86 124 164 194 236 292 364
#     4  10  23  41  60  83 125 159 193 244 300 343
#
# _framework density 19.329253999999999
#
# number of rings (size 3 to 8) (size 9 to 14) (size 15 to 20)
#    0.000    1.600    1.000    3.600    0.000    4.800 
#    3.600    0.000    0.000    0.000    0.000    0.000 
#    0.000    0.000    0.000    0.000    0.000    0.000 
#
# Total GULP energy -223422.908230 kJ/mol
# GULP energy per Si atom -5585.572706 kJ/mol
# Density = 1.928526 g / cm^3
# Si number density = 19.329254 Si / 1000 Ang^3
#
#
#
# Elastic Constant Matrix: (Units=GPa)
#
#
# Indices 1 2 3 4 5 6 
#
# 1 77.2146 -15.7216 32.1881 0.0000 0.0000 0.0000
# 2 -15.7216 85.4819 6.3960 0.0000 0.0000 0.0000
# 3 32.1881 6.3960 65.2256 0.0000 0.0000 0.0000
# 4 0.0000 0.0000 0.0000 17.6272 0.0000 0.0000
# 5 0.0000 0.0000 0.0000 0.0000 4.0007 0.0000
# 6 0.0000 0.0000 0.0000 0.0000 0.0000 14.5486
#
#
#
# Elastic Compliance Matrix: (Units=1/GPa)
#
#
# Indices 1 2 3 4 5 6 
#
# 1 0.017504 0.003894 -0.009020 0.000000 0.000000 0.000000
# 2 0.003894 0.012651 -0.003162 0.000000 0.000000 0.000000
# 3 -0.009020 -0.003162 0.020093 0.000000 0.000000 0.000000
# 4 0.000000 0.000000 0.000000 0.056730 0.000000 0.000000
# 5 0.000000 0.000000 0.000000 0.000000 0.249959 0.000000
# 6 0.000000 0.000000 0.000000 0.000000 0.000000 0.068735
#
#
# Mechanical properties :
#
#
# Convention : Reuss Voigt Hill
#
# Bulk Modulus (GPa) = 29.69843 30.40523 30.05183
# Shear Modulus (GPa) = 11.02603 20.90593 15.96598
#
# Velocity S-wave (km/s) = 2.39096 3.29229 2.87714
# Velocity P-wave (km/s) = 4.79793 5.49696 5.15930
#
# Compressibility (1/GPa) = 0.03367182
#
# Stress axis : x y z
#
# Youngs Moduli (GPa) = 57.13026 79.04393 49.76943
#
# Poissons Ratio (x) = -0.30781 0.44891
# Poissons Ratio (y) = -0.22247 0.15739
# Poissons Ratio (z) = 0.51530 0.24996
#
# Static dielectric constant tensor:
#      x y z
#    x 1.667020 0.000000 0.000000 
#    y 0.000000 1.665740 0.000000 
#    z 0.000000 0.000000 1.657550 
# 
# From -- ./inp_files/26079.got.cif
#   From: 2010.05.17/outbox.cif.g08.bks.cpg/sg54_14_cif.got.tgz:26079.got - 2010.06.03 13:09:01.
