data_PCOD9421683
_publ_section_title
;
Structure prediction by ZEFSAII (Michael W. Deem and Ramdas Pophale) SiO2 
 PCOD9421683
Probable space group: P C C A
;
_chemical_formula_sum "Si O2"
_cell_formula_units_Z 44
_cell_length_a 5.093834
_cell_length_b 15.168300
_cell_length_c 29.504948
_cell_angle_alpha 90.000000
_cell_angle_beta 90.000000
_cell_angle_gamma 90.000000
_cell_volume 2279.693973
_symmetry_space_group_name_H-M "P C C A"
_symmetry_group_IT_number 54
_symmetry_cell_setting 'orthorhombic'
loop_
_space_group_symop_operation_xyz
x,y,z
1/2-x,-y,z
1/2+x,-y,1/2-z
-x,y,1/2-z
-x,-y,-z
1/2+x,y,-z
1/2-x,y,1/2+z
x,-y,1/2+z
loop_
_atom_site_type_symbol
_atom_site_label
_atom_site_fract_x
_atom_site_fract_y
_atom_site_fract_z
Si Si1 0.996347 0.846417 0.652750
Si Si2 0.000000 0.064649 0.250000
Si Si3 0.500897 0.436335 0.150855
Si Si4 0.250000 0.000000 0.093448
Si Si5 0.000000 0.436661 0.750000
Si Si6 0.485610 0.749009 0.613681
Si Si7 0.973729 0.135750 0.529704
O O1 0.223847 0.776799 0.640620
O O2 0.985049 0.875633 0.704955
O O3 0.725007 0.804187 0.635795
O O4 0.083897 0.932917 0.624331
O O5 0.250000 0.000000 0.247548
O O6 0.750000 0.500000 0.148209
O O7 0.496381 0.391162 0.201264
O O8 0.519462 0.355244 0.117058
O O9 0.250000 0.500000 0.145844
O O10 0.446095 0.054058 0.061344
O O11 0.750000 0.500000 0.749852
O O12 0.471086 0.781043 0.561888
O O13 0.177451 0.134498 0.487995
#
# Coordination Sequence:
#
# PCOD9421683 Si02
#       7
#     8   4   8   4   4   8   8
#     4  11  24  39  59  88 124 166 204 251 287 347
#     4  12  24  40  60  86 126 176 220 238 278 342
#     4  10  20  37  62  87 118 156 194 241 301 362
#     4  10  22  40  60  88 116 160 202 246 300 368
#     4   8  16  30  52  84 110 140 182 230 276 332
#     4  11  24  41  61  90 122 155 204 254 309 361
#     4  11  23  39  61  87 117 151 195 256 310 364
#
# _framework density 19.300837000000001
#
# number of rings (size 3 to 8) (size 9 to 14) (size 15 to 20)
#    0.000    1.455    0.909    4.909    2.545    4.364 
#    0.000    1.818    0.000    3.273    0.000    0.000 
#    0.000    0.000    0.000    0.000    0.000    0.000 
#
# Total GULP energy -245897.655691 kJ/mol
# GULP energy per Si atom -5588.583084 kJ/mol
# Density = 1.925691 g / cm^3
# Si number density = 19.300837 Si / 1000 Ang^3
#
#
#
# Elastic Constant Matrix: (Units=GPa)
#
#
# Indices 1 2 3 4 5 6 
#
# 1 93.0249 -2.0874 2.3747 0.0000 0.0000 0.0000
# 2 -2.0874 88.0366 35.8729 0.0000 0.0000 0.0000
# 3 2.3747 35.8729 87.0361 0.0000 0.0000 0.0000
# 4 0.0000 0.0000 0.0000 10.9835 0.0000 0.0000
# 5 0.0000 0.0000 0.0000 0.0000 23.8589 0.0000
# 6 0.0000 0.0000 0.0000 0.0000 0.0000 20.2022
#
#
#
# Elastic Compliance Matrix: (Units=1/GPa)
#
#
# Indices 1 2 3 4 5 6 
#
# 1 0.010772 0.000451 -0.000480 0.000000 0.000000 0.000000
# 2 0.000451 0.013671 -0.005647 0.000000 0.000000 0.000000
# 3 -0.000480 -0.005647 0.013830 0.000000 0.000000 0.000000
# 4 0.000000 0.000000 0.000000 0.091045 0.000000 0.000000
# 5 0.000000 0.000000 0.000000 0.000000 0.041913 0.000000
# 6 0.000000 0.000000 0.000000 0.000000 0.000000 0.049499
#
#
# Mechanical properties :
#
#
# Convention : Reuss Voigt Hill
#
# Bulk Modulus (GPa) = 37.14513 37.82422 37.48468
# Shear Modulus (GPa) = 20.74209 26.47142 23.60676
#
# Velocity S-wave (km/s) = 3.28178 3.70742 3.50107
# Velocity P-wave (km/s) = 5.80062 6.16168 5.98388
#
# Compressibility (1/GPa) = 0.02692143
#
# Stress axis : x y z
#
# Youngs Moduli (GPa) = 92.83176 73.15002 72.30676
#
# Poissons Ratio (x) = -0.03298 0.03469
# Poissons Ratio (y) = -0.04186 0.40830
# Poissons Ratio (z) = 0.04454 0.41306
#
# Static dielectric constant tensor:
#      x y z
#    x 1.687740 0.000000 0.000000 
#    y 0.000000 1.627130 0.000000 
#    z 0.000000 0.000000 1.700640 
# 
# From -- ./inp_files/25335.got.cif
#   From: 2010.05.17/outbox.cif.g08.bks.cpg/sg54_13_cif.got.tgz:25335.got - 2010.06.03 13:09:01.
