data_PCOD9421481
_publ_section_title
;
Structure prediction by ZEFSAII (Michael W. Deem and Ramdas Pophale) SiO2 
 PCOD9421481
Probable space group: P C C A
;
_chemical_formula_sum "Si O2"
_cell_formula_units_Z 32
_cell_length_a 8.460466
_cell_length_b 13.062397
_cell_length_c 12.781020
_cell_angle_alpha 90.000000
_cell_angle_beta 90.000000
_cell_angle_gamma 90.000000
_cell_volume 1412.481206
_symmetry_space_group_name_H-M "P C C A"
_symmetry_group_IT_number 54
_symmetry_cell_setting 'orthorhombic'
loop_
_space_group_symop_operation_xyz
x,y,z
1/2-x,-y,z
1/2+x,-y,1/2-z
-x,y,1/2-z
-x,-y,-z
1/2+x,y,-z
1/2-x,y,1/2+z
x,-y,1/2+z
loop_
_atom_site_type_symbol
_atom_site_label
_atom_site_fract_x
_atom_site_fract_y
_atom_site_fract_z
Si Si1 0.358914 0.213620 0.055729
Si Si2 0.085826 0.545250 0.342723
Si Si3 0.119287 0.070176 0.932171
Si Si4 0.585723 0.649423 0.435208
O O1 0.497271 0.152868 0.116627
O O2 0.245525 0.299102 0.106933
O O3 0.231749 0.133909 0.010142
O O4 0.447807 0.267956 0.957163
O O5 0.250000 0.500000 0.306097
O O6 0.117544 0.608950 0.447043
O O7 0.000000 0.603778 0.250000
O O8 0.976519 0.448264 0.373532
O O9 0.250000 0.000000 0.871901
O O10 0.000000 0.000000 0.000000
#
# Coordination Sequence:
#
# PCOD9421481 Si02
#       4
#     8   8   8   8
#     4   9  16  28  50  72 106 146 168 222 267 316
#     4  11  24  36  53  75 107 149 187 229 273 323
#     4   8  14  25  44  76 110 134 166 217 270 321
#     4  10  20  36  52  75 110 145 187 221 274 319
#
# _framework density 22.655166999999999
#
# number of rings (size 3 to 8) (size 9 to 14) (size 15 to 20)
#    0.000    2.500    2.500    0.000    3.500    0.000 
#    0.000    0.000    0.000    0.000    0.000    0.000 
#    0.000  420.000    0.000    0.000    0.000    0.000 
#
# Total GULP energy -178242.820679 kJ/mol
# GULP energy per Si atom -5570.088146 kJ/mol
# Density = 2.260360 g / cm^3
# Si number density = 22.655167 Si / 1000 Ang^3
#
#
#
# Elastic Constant Matrix: (Units=GPa)
#
#
# Indices 1 2 3 4 5 6 
#
# 1 177.5002 63.9362 23.9947 0.0000 0.0000 0.0000
# 2 63.9362 99.8706 6.2042 0.0000 0.0000 0.0000
# 3 23.9947 6.2042 38.3344 0.0000 0.0000 0.0000
# 4 0.0000 0.0000 0.0000 -8.9608 0.0000 0.0000
# 5 0.0000 0.0000 0.0000 0.0000 15.6719 0.0000
# 6 0.0000 0.0000 0.0000 0.0000 0.0000 80.8987
#
#
#
# Elastic Compliance Matrix: (Units=1/GPa)
#
#
# Indices 1 2 3 4 5 6 
#
# 1 0.007936 -0.004821 -0.004187 0.000000 0.000000 0.000000
# 2 -0.004821 0.013043 0.000906 0.000000 0.000000 0.000000
# 3 -0.004187 0.000906 0.028561 0.000000 0.000000 0.000000
# 4 0.000000 0.000000 0.000000 -0.111597 0.000000 0.000000
# 5 0.000000 0.000000 0.000000 0.000000 0.063809 0.000000
# 6 0.000000 0.000000 0.000000 0.000000 0.000000 0.012361
#
#
# Mechanical properties :
#
#
# Convention : Reuss Voigt Hill
#
# Bulk Modulus (GPa) = 29.99709 55.99726 42.99718
# Shear Modulus (GPa) = 120.69413 32.29330 76.49371
#
# Velocity S-wave (km/s) = 7.30685 3.77958 5.81701
# Velocity P-wave (km/s) = 9.19001 6.61950 8.00856
#
# Compressibility (1/GPa) = 0.03333657
#
# Stress axis : x y z
#
# Youngs Moduli (GPa) = 126.00421 76.67100 35.01335
#
# Poissons Ratio (x) = 0.36960 0.14661
# Poissons Ratio (y) = 0.60741 -0.03174
# Poissons Ratio (z) = 0.52763 -0.06950
#
# Static dielectric constant tensor:
#      x y z
#    x 1.824160 0.000000 0.000000 
#    y 0.000000 1.978630 0.000000 
#    z 0.000000 0.000000 1.766920 
# 
# From -- ./inp_files/6701.got.cif
#   From: 2010.05.17/outbox.cif.g08.bks.cpg/sg54_4_cif.got.tgz:6701.got - 2010.06.03 13:09:01.
