data_PCOD9421856
_publ_section_title
;
Structure prediction by ZEFSAII (Michael W. Deem and Ramdas Pophale) SiO2 
 PCOD9421856
Probable space group: P C C A
;
_chemical_formula_sum "Si O2"
_cell_formula_units_Z 64
_cell_length_a 24.345692
_cell_length_b 8.703241
_cell_length_c 14.361756
_cell_angle_alpha 90.000000
_cell_angle_beta 90.000000
_cell_angle_gamma 90.000000
_cell_volume 3043.061133
_symmetry_space_group_name_H-M "P C C A"
_symmetry_group_IT_number 54
_symmetry_cell_setting 'orthorhombic'
loop_
_space_group_symop_operation_xyz
x,y,z
1/2-x,-y,z
1/2+x,-y,1/2-z
-x,y,1/2-z
-x,-y,-z
1/2+x,y,-z
1/2-x,y,1/2+z
x,-y,1/2+z
loop_
_atom_site_type_symbol
_atom_site_label
_atom_site_fract_x
_atom_site_fract_y
_atom_site_fract_z
Si Si1 0.724204 0.655753 0.746195
Si Si2 0.135177 0.170436 0.638819
Si Si3 0.401490 0.360384 0.977785
Si Si4 0.508615 0.129185 0.582933
Si Si5 0.577779 0.928614 0.267717
Si Si6 0.190533 0.940590 0.500067
Si Si7 0.309718 0.411360 0.454218
Si Si8 0.325414 0.165318 0.838671
O O1 0.750000 0.500000 0.789259
O O2 0.689023 0.758196 0.815513
O O3 0.689009 0.598431 0.658149
O O4 0.770048 0.759797 0.696578
O O5 0.105773 0.300547 0.581141
O O6 0.092069 0.103286 0.710620
O O7 0.149113 0.030525 0.567799
O O8 0.461076 0.288769 0.948406
O O9 0.370331 0.523123 0.979449
O O10 0.357181 0.271859 0.912146
O O11 0.500000 0.000000 0.500000
O O12 0.453631 0.145762 0.644904
O O13 0.547808 0.073084 0.667845
O O14 0.635917 0.850307 0.249792
O O15 0.192443 0.758166 0.497800
O O16 0.250000 0.000000 0.529728
O O17 0.181743 0.006820 0.395162
O O18 0.250000 0.500000 0.474616
#
# Coordination Sequence:
#
# PCOD9421856 Si02
#       8
#     8   8   8   8   8   8   8   8
#     4  11  22  40  62  96 146 183 218 278 356 427
#     4  11  24  37  59 103 129 174 236 282 342 430
#     4  10  20  40  66  91 130 174 234 277 352 427
#     4  10  20  42  69  98 131 174 239 302 358 412
#     4  10  22  37  66 101 128 176 235 301 351 398
#     4  11  22  36  60  92 140 186 227 280 327 429
#     4  11  20  40  63  89 136 190 224 269 360 423
#     4  10  20  39  60  93 129 180 230 272 338 423
#
# _framework density 21.031452999999999
#
# number of rings (size 3 to 8) (size 9 to 14) (size 15 to 20)
#    0.000    1.500    5.000    1.500    1.750    1.500 
#    0.000    0.000    0.000    0.750   19.500    0.000 
#    0.000    0.000    0.000    0.000    0.000    0.000 
#
# Total GULP energy -356394.204658 kJ/mol
# GULP energy per Si atom -5568.659448 kJ/mol
# Density = 2.098358 g / cm^3
# Si number density = 21.031453 Si / 1000 Ang^3
#
#
#
# Elastic Constant Matrix: (Units=GPa)
#
#
# Indices 1 2 3 4 5 6 
#
# 1 55.1287 28.3123 3.8498 0.0000 0.0000 0.0000
# 2 28.3123 116.0136 22.3484 0.0000 0.0000 0.0000
# 3 3.8498 22.3484 46.7435 0.0000 0.0000 0.0000
# 4 0.0000 0.0000 0.0000 17.4863 0.0000 0.0000
# 5 0.0000 0.0000 0.0000 0.0000 13.8858 0.0000
# 6 0.0000 0.0000 0.0000 0.0000 0.0000 32.9875
#
#
#
# Elastic Compliance Matrix: (Units=1/GPa)
#
#
# Indices 1 2 3 4 5 6 
#
# 1 0.020765 -0.005219 0.000785 0.000000 0.000000 0.000000
# 2 -0.005219 0.010806 -0.004736 0.000000 0.000000 0.000000
# 3 0.000785 -0.004736 0.023593 0.000000 0.000000 0.000000
# 4 0.000000 0.000000 0.000000 0.057188 0.000000 0.000000
# 5 0.000000 0.000000 0.000000 0.000000 0.072016 0.000000
# 6 0.000000 0.000000 0.000000 0.000000 0.000000 0.030315
#
#
# Mechanical properties :
#
#
# Convention : Reuss Voigt Hill
#
# Bulk Modulus (GPa) = 27.15684 36.32297 31.73991
# Shear Modulus (GPa) = 20.38347 23.76360 22.07354
#
# Velocity S-wave (km/s) = 3.11656 3.36506 3.24319
# Velocity P-wave (km/s) = 5.08833 5.69266 5.39896
#
# Compressibility (1/GPa) = 0.03682314
#
# Stress axis : x y z
#
# Youngs Moduli (GPa) = 48.15869 92.54410 42.38503
#
# Poissons Ratio (x) = 0.48296 -0.03327
# Poissons Ratio (y) = 0.25132 0.20075
# Poissons Ratio (z) = -0.03780 0.43833
#
# Static dielectric constant tensor:
#      x y z
#    x 1.824950 0.000000 0.000000 
#    y 0.000000 1.663510 0.000000 
#    z 0.000000 0.000000 1.822880 
# 
# From -- ./inp_files/14999.got.cif
#   From: 2010.05.17/outbox.cif.g08.bks.cpg/sg54_8_cif.got.tgz:14999.got - 2010.06.03 13:09:01.
