data_PCOD9421998
_publ_section_title
;
Structure prediction by ZEFSAII (Michael W. Deem and Ramdas Pophale) SiO2 
 PCOD9421998
Probable space group: P C C A
;
_chemical_formula_sum "Si O2"
_cell_formula_units_Z 64
_cell_length_a 26.150064
_cell_length_b 9.333770
_cell_length_c 13.738932
_cell_angle_alpha 90.000000
_cell_angle_beta 90.000000
_cell_angle_gamma 90.000000
_cell_volume 3353.380426
_symmetry_space_group_name_H-M "P C C A"
_symmetry_group_IT_number 54
_symmetry_cell_setting 'orthorhombic'
loop_
_space_group_symop_operation_xyz
x,y,z
1/2-x,-y,z
1/2+x,-y,1/2-z
-x,y,1/2-z
-x,-y,-z
1/2+x,y,-z
1/2-x,y,1/2+z
x,-y,1/2+z
loop_
_atom_site_type_symbol
_atom_site_label
_atom_site_fract_x
_atom_site_fract_y
_atom_site_fract_z
Si Si1 0.129986 0.510413 0.147192
Si Si2 0.442457 0.053293 0.791163
Si Si3 0.179086 0.733781 0.004508
Si Si4 0.578205 0.076628 0.485440
Si Si5 0.289914 0.380626 0.799739
Si Si6 0.612287 0.197698 0.880040
Si Si7 0.946921 0.240594 0.799370
Si Si8 0.767511 0.840947 0.860499
O O1 0.161604 0.593537 0.064422
O O2 0.167644 0.455659 0.231849
O O3 0.104497 0.366304 0.104454
O O4 0.090002 0.625137 0.188634
O O5 0.500000 0.065323 0.750000
O O6 0.406517 0.157526 0.728660
O O7 0.424866 0.890808 0.765485
O O8 0.441359 0.083534 0.905057
O O9 0.134453 0.851042 0.017982
O O10 0.231386 0.789306 0.052089
O O11 0.186079 0.696612 0.892224
O O12 0.546248 0.166763 0.405768
O O13 0.582928 0.913208 0.449360
O O14 0.250000 0.500000 0.833842
O O15 0.261786 0.266540 0.730106
O O16 0.672753 0.165867 0.887946
O O17 0.000000 0.282250 0.750000
O O18 0.750000 0.000000 0.833620
#
# Coordination Sequence:
#
# PCOD9421998 Si02
#       8
#     8   8   8   8   8   8   8   8
#     4  10  22  42  59  89 130 162 204 259 306 369
#     4  10  22  41  66  91 122 159 205 263 315 373
#     4  11  23  41  59  89 127 165 206 256 305 371
#     4  10  20  41  63  90 121 155 208 255 306 369
#     4  11  24  37  61  88 123 173 205 249 310 368
#     4  10  22  37  63  91 118 164 204 252 307 369
#     4   9  21  39  65  91 122 161 199 253 317 372
#     4  11  22  42  60  88 128 163 208 259 306 361
#
# _framework density 19.085218999999999
#
# number of rings (size 3 to 8) (size 9 to 14) (size 15 to 20)
#    0.000    1.750    2.500    1.500    3.500    6.500 
#    2.250    0.000    0.000    6.750    0.000    0.000 
#    0.000    0.000    0.000    0.000    0.000    0.000 
#
# Total GULP energy -357429.089924 kJ/mol
# GULP energy per Si atom -5584.829530 kJ/mol
# Density = 1.904178 g / cm^3
# Si number density = 19.085219 Si / 1000 Ang^3
#
#
#
# Elastic Constant Matrix: (Units=GPa)
#
#
# Indices 1 2 3 4 5 6 
#
# 1 70.4408 35.0494 37.2503 0.0000 0.0000 0.0000
# 2 35.0494 119.8600 26.2103 0.0000 0.0000 0.0000
# 3 37.2503 26.2103 126.5606 0.0000 0.0000 0.0000
# 4 0.0000 0.0000 0.0000 -2.2040 0.0000 0.0000
# 5 0.0000 0.0000 0.0000 0.0000 29.5893 0.0000
# 6 0.0000 0.0000 0.0000 0.0000 0.0000 17.3852
#
#
#
# Elastic Compliance Matrix: (Units=1/GPa)
#
#
# Indices 1 2 3 4 5 6 
#
# 1 0.018887 -0.004512 -0.004625 0.000000 0.000000 0.000000
# 2 -0.004512 0.009817 -0.000705 0.000000 0.000000 0.000000
# 3 -0.004625 -0.000705 0.009409 0.000000 0.000000 0.000000
# 4 0.000000 0.000000 0.000000 -0.453714 0.000000 0.000000
# 5 0.000000 0.000000 0.000000 0.000000 0.033796 0.000000
# 6 0.000000 0.000000 0.000000 0.000000 0.000000 0.057520
#
#
# Mechanical properties :
#
#
# Convention : Reuss Voigt Hill
#
# Bulk Modulus (GPa) = 54.26138 57.09792 55.67965
# Shear Modulus (GPa) = -16.75261 23.51086 3.37913
#
# Velocity S-wave (km/s) = -2.96595 3.51363 1.33206
# Velocity P-wave (km/s) = 4.09435 6.81492 5.62169
#
# Compressibility (1/GPa) = 0.01842931
#
# Stress axis : x y z
#
# Youngs Moduli (GPa) = 52.94734 101.86907 106.28679
#
# Poissons Ratio (x) = 0.45959 0.49153
# Poissons Ratio (y) = 0.23888 0.07494
# Poissons Ratio (z) = 0.24486 0.07183
#
# Static dielectric constant tensor:
#      x y z
#    x 1.670960 0.000000 0.000000 
#    y 0.000000 1.668900 0.000000 
#    z 0.000000 0.000000 1.643040 
# 
# From -- ./inp_files/10536.got.cif
#   From: 2010.05.17/outbox.cif.g08.bks.cpg/sg54_6_cif.got.tgz:10536.got - 2010.06.03 13:09:01.
