data_PCOD9421039
_publ_section_title
;
Structure prediction by ZEFSAII (Michael W. Deem and Ramdas Pophale) SiO2 
 PCOD9421039
Probable space group: P C C A
;
_chemical_formula_sum "Si O2"
_cell_formula_units_Z 56
_cell_length_a 17.973023
_cell_length_b 6.275744
_cell_length_c 24.703266
_cell_angle_alpha 90.000000
_cell_angle_beta 90.000000
_cell_angle_gamma 90.000000
_cell_volume 2786.382439
_symmetry_space_group_name_H-M "P C C A"
_symmetry_group_IT_number 54
_symmetry_cell_setting 'orthorhombic'
loop_
_space_group_symop_operation_xyz
x,y,z
1/2-x,-y,z
1/2+x,-y,1/2-z
-x,y,1/2-z
-x,-y,-z
1/2+x,y,-z
1/2-x,y,1/2+z
x,-y,1/2+z
loop_
_atom_site_type_symbol
_atom_site_label
_atom_site_fract_x
_atom_site_fract_y
_atom_site_fract_z
Si Si1 0.628868 0.326211 0.946323
Si Si2 0.474691 0.094150 0.634624
Si Si3 0.124097 0.710075 0.137278
Si Si4 0.750000 0.000000 0.405245
Si Si5 0.919213 0.405140 0.271653
Si Si6 0.131590 0.699623 0.845171
Si Si7 0.670953 0.619912 0.562790
Si Si8 0.750000 0.000000 0.609312
O O1 0.561005 0.198619 0.919008
O O2 0.634619 0.539187 0.910490
O O3 0.701355 0.172777 0.938659
O O4 0.622399 0.387430 0.008761
O O5 0.435856 0.208970 0.686996
O O6 0.560438 0.155575 0.639629
O O7 0.451631 0.847751 0.633480
O O8 0.191104 0.874585 0.131278
O O9 0.121021 0.581642 0.192696
O O10 0.875002 0.352588 0.217714
O O11 0.000000 0.479368 0.250000
O O12 0.134639 0.497049 0.885554
O O13 0.206042 0.829481 0.855869
O O14 0.750000 0.500000 0.551986
O O15 0.691773 0.863990 0.574636
#
# Coordination Sequence:
#
# PCOD9421039 Si02
#       8
#     8   8   8   4   8   8   8   4
#     4  10  20  37  60  86 116 152 191 237 292 344
#     4   9  21  38  60  88 114 146 193 243 296 350
#     4  10  20  36  60  88 114 148 188 235 298 348
#     4  10  19  34  57  88 120 146 186 238 288 350
#     4   9  20  39  60  81 110 149 192 238 286 340
#     4  10  22  41  59  84 118 153 198 241 285 351
#     4  10  21  38  58  82 116 157 197 235 283 345
#     4  10  23  40  59  82 114 162 198 232 290 346
#
# _framework density 20.097743999999999
#
# number of rings (size 3 to 8) (size 9 to 14) (size 15 to 20)
#    0.000    2.286    0.000    1.714    0.000   10.286 
#    0.000   22.857    0.000    0.000    0.000    0.000 
#    0.000    0.000    0.000    0.000    0.000    0.000 
#
# Total GULP energy -312618.050421 kJ/mol
# GULP energy per Si atom -5582.465186 kJ/mol
# Density = 2.005200 g / cm^3
# Si number density = 20.097744 Si / 1000 Ang^3
#
#
#
# Elastic Constant Matrix: (Units=GPa)
#
#
# Indices 1 2 3 4 5 6 
#
# 1 28.3804 17.9392 21.6003 0.0000 0.0000 0.0000
# 2 17.9392 88.8590 33.3608 0.0000 0.0000 0.0000
# 3 21.6003 33.3608 128.6816 0.0000 0.0000 0.0000
# 4 0.0000 0.0000 0.0000 3.4698 0.0000 0.0000
# 5 0.0000 0.0000 0.0000 0.0000 25.6624 0.0000
# 6 0.0000 0.0000 0.0000 0.0000 0.0000 27.1900
#
#
#
# Elastic Compliance Matrix: (Units=1/GPa)
#
#
# Indices 1 2 3 4 5 6 
#
# 1 0.043752 -0.006731 -0.005599 0.000000 0.000000 0.000000
# 2 -0.006731 0.013503 -0.002371 0.000000 0.000000 0.000000
# 3 -0.005599 -0.002371 0.009326 0.000000 0.000000 0.000000
# 4 0.000000 0.000000 0.000000 0.288205 0.000000 0.000000
# 5 0.000000 0.000000 0.000000 0.000000 0.038968 0.000000
# 6 0.000000 0.000000 0.000000 0.000000 0.000000 0.036778
#
#
# Mechanical properties :
#
#
# Convention : Reuss Voigt Hill
#
# Bulk Modulus (GPa) = 26.89711 43.52462 35.21087
# Shear Modulus (GPa) = 10.58594 22.79914 16.69254
#
# Velocity S-wave (km/s) = 2.29753 3.37176 2.88508
# Velocity P-wave (km/s) = 4.52221 6.07139 5.35314
#
# Compressibility (1/GPa) = 0.03717871
#
# Stress axis : x y z
#
# Youngs Moduli (GPa) = 22.85634 74.05944 107.23156
#
# Poissons Ratio (x) = 0.49847 0.60041
# Poissons Ratio (y) = 0.15384 0.25422
# Poissons Ratio (z) = 0.12798 0.17558
#
# Static dielectric constant tensor:
#      x y z
#    x 1.729620 0.000000 0.000000 
#    y 0.000000 1.734320 0.000000 
#    z 0.000000 0.000000 1.693970 
# 
# From -- ./inp_files/24754.got.cif
#   From: 2010.05.17/outbox.cif.g08.bks.cpg/sg54_13_cif.got.tgz:24754.got - 2010.06.03 13:09:01.
