data_PCOD9421282
_publ_section_title
;
Structure prediction by ZEFSAII (Michael W. Deem and Ramdas Pophale) SiO2 
 PCOD9421282
Probable space group: P C C A
;
_chemical_formula_sum "Si O2"
_cell_formula_units_Z 64
_cell_length_a 8.694436
_cell_length_b 11.509775
_cell_length_c 31.025134
_cell_angle_alpha 90.000000
_cell_angle_beta 90.000000
_cell_angle_gamma 90.000000
_cell_volume 3104.716250
_symmetry_space_group_name_H-M "P C C A"
_symmetry_group_IT_number 54
_symmetry_cell_setting 'orthorhombic'
loop_
_space_group_symop_operation_xyz
x,y,z
1/2-x,-y,z
1/2+x,-y,1/2-z
-x,y,1/2-z
-x,-y,-z
1/2+x,y,-z
1/2-x,y,1/2+z
x,-y,1/2+z
loop_
_atom_site_type_symbol
_atom_site_label
_atom_site_fract_x
_atom_site_fract_y
_atom_site_fract_z
Si Si1 0.066919 0.492582 0.333767
Si Si2 0.456909 0.245291 0.701968
Si Si3 0.714967 0.872606 0.482847
Si Si4 0.120982 0.912986 0.107502
Si Si5 0.654111 0.697660 0.838187
Si Si6 0.089087 0.774082 0.951074
Si Si7 0.623352 0.087487 0.630787
Si Si8 0.877119 0.581130 0.911766
O O1 0.250000 0.500000 0.331319
O O2 0.018864 0.375181 0.308946
O O3 0.966122 0.604610 0.319640
O O4 0.006079 0.482690 0.383007
O O5 0.500000 0.211931 0.750000
O O6 0.273573 0.254326 0.696605
O O7 0.529460 0.156760 0.667176
O O8 0.806335 0.869586 0.437286
O O9 0.775315 0.772571 0.514363
O O10 0.536262 0.860184 0.472611
O O11 0.750000 0.000000 0.501899
O O12 0.078638 0.806287 0.137837
O O13 0.250000 0.000000 0.127050
O O14 0.978346 0.996921 0.103386
O O15 0.769524 0.643725 0.875086
O O16 0.160964 0.816930 0.905734
O O17 0.976589 0.666745 0.940740
O O18 0.750000 0.000000 0.649568
O O19 0.750000 0.500000 0.934417
#
# Coordination Sequence:
#
# PCOD9421282 Si02
#       8
#     8   8   8   8   8   8   8   8
#     4  10  22  38  67 101 122 157 215 269 319 380
#     4  11  23  45  66  93 129 166 213 258 321 387
#     4  11  22  34  54  92 120 159 208 271 303 379
#     4  11  19  39  65  89 124 166 222 241 318 394
#     4  10  19  40  69  90 119 174 206 255 315 382
#     4  12  21  39  57  87 126 161 213 260 331 373
#     4  12  25  40  64  93 128 171 206 267 318 389
#     4   9  18  38  63  82 119 168 213 252 316 393
#
# _framework density 20.613800000000001
#
# number of rings (size 3 to 8) (size 9 to 14) (size 15 to 20)
#    0.000    1.250    7.500    1.875    3.500    1.000 
#    2.250    0.625    0.000    0.000    0.000    0.000 
#    0.000    0.000    0.000    0.000    0.000    0.000 
#
# Total GULP energy -356666.737153 kJ/mol
# GULP energy per Si atom -5572.917768 kJ/mol
# Density = 2.056688 g / cm^3
# Si number density = 20.613800 Si / 1000 Ang^3
#
#
#
# Elastic Constant Matrix: (Units=GPa)
#
#
# Indices 1 2 3 4 5 6 
#
# 1 68.6420 22.9499 35.1153 0.0000 0.0000 0.0000
# 2 22.9499 54.6514 22.8044 0.0000 0.0000 0.0000
# 3 35.1153 22.8044 71.4321 0.0000 0.0000 0.0000
# 4 0.0000 0.0000 0.0000 14.4077 0.0000 0.0000
# 5 0.0000 0.0000 0.0000 0.0000 15.9443 0.0000
# 6 0.0000 0.0000 0.0000 0.0000 0.0000 36.5270
#
#
#
# Elastic Compliance Matrix: (Units=1/GPa)
#
#
# Indices 1 2 3 4 5 6 
#
# 1 0.020631 -0.005113 -0.008510 0.000000 0.000000 0.000000
# 2 -0.005113 0.022377 -0.004630 0.000000 0.000000 0.000000
# 3 -0.008510 -0.004630 0.019661 0.000000 0.000000 0.000000
# 4 0.000000 0.000000 0.000000 0.069408 0.000000 0.000000
# 5 0.000000 0.000000 0.000000 0.000000 0.062718 0.000000
# 6 0.000000 0.000000 0.000000 0.000000 0.000000 0.027377
#
#
# Mechanical properties :
#
#
# Convention : Reuss Voigt Hill
#
# Bulk Modulus (GPa) = 38.22187 39.60717 38.91452
# Shear Modulus (GPa) = 18.69868 20.96620 19.83244
#
# Velocity S-wave (km/s) = 3.01507 3.19265 3.10513
# Velocity P-wave (km/s) = 5.54103 5.73117 5.63690
#
# Compressibility (1/GPa) = 0.02616303
#
# Stress axis : x y z
#
# Youngs Moduli (GPa) = 48.47039 44.68896 50.86245
#
# Poissons Ratio (x) = 0.22848 0.43283
# Poissons Ratio (y) = 0.24782 0.23551
# Poissons Ratio (z) = 0.41248 0.20692
#
# Static dielectric constant tensor:
#      x y z
#    x 1.788410 0.000000 0.000000 
#    y 0.000000 1.827580 0.000000 
#    z 0.000000 0.000000 1.726530 
# 
# From -- ./inp_files/27953.got.cif
#   From: 2010.05.17/outbox.cif.g08.bks.cpg/sg54_14_cif.got.tgz:27953.got - 2010.06.03 13:09:01.
