data_PCOD9421401
_publ_section_title
;
Structure prediction by ZEFSAII (Michael W. Deem and Ramdas Pophale) SiO2 
 PCOD9421401
Probable space group: P C C A
;
_chemical_formula_sum "Si O2"
_cell_formula_units_Z 60
_cell_length_a 21.609341
_cell_length_b 9.713343
_cell_length_c 12.467465
_cell_angle_alpha 90.000000
_cell_angle_beta 90.000000
_cell_angle_gamma 90.000000
_cell_volume 2616.907702
_symmetry_space_group_name_H-M "P C C A"
_symmetry_group_IT_number 54
_symmetry_cell_setting 'orthorhombic'
loop_
_space_group_symop_operation_xyz
x,y,z
1/2-x,-y,z
1/2+x,-y,1/2-z
-x,y,1/2-z
-x,-y,-z
1/2+x,y,-z
1/2-x,y,1/2+z
x,-y,1/2+z
loop_
_atom_site_type_symbol
_atom_site_label
_atom_site_fract_x
_atom_site_fract_y
_atom_site_fract_z
Si Si1 0.566754 0.386999 0.280431
Si Si2 0.118229 0.850980 0.808840
Si Si3 0.875841 0.154490 0.628323
Si Si4 0.811793 0.573365 0.375190
Si Si5 0.939251 0.815725 0.479059
Si Si6 0.750000 0.500000 0.080203
Si Si7 0.741963 0.230902 0.226352
Si Si8 0.571060 0.125609 0.914815
O O1 0.500000 0.448060 0.250000
O O2 0.589654 0.277828 0.190274
O O3 0.627489 0.474749 0.311674
O O4 0.558292 0.300334 0.389578
O O5 0.105921 0.777995 0.922457
O O6 0.188835 0.825080 0.771451
O O7 0.078876 0.817063 0.703592
O O8 0.096050 0.006419 0.840927
O O9 0.806222 0.133075 0.667648
O O10 0.879552 0.179109 0.501701
O O11 0.750000 0.500000 0.334968
O O12 0.807305 0.534814 0.499722
O O13 0.793087 0.728474 0.338454
O O14 0.005666 0.836711 0.533502
O O15 0.922310 0.959199 0.419727
O O16 0.738715 0.364516 0.148867
#
# Coordination Sequence:
#
# PCOD9421401 Si02
#       8
#     8   8   8   8   8   4   8   8
#     4  11  19  37  65  92 125 164 218 263 310 390
#     4  11  22  36  56  93 131 169 210 253 321 392
#     4  10  22  37  56  91 128 167 205 262 318 379
#     4   9  22  39  62  89 114 156 213 267 331 366
#     4  10  20  34  56  88 125 172 209 242 312 375
#     4  10  20  42  64  84 112 162 216 272 326 384
#     4  11  22  39  61  86 119 161 214 266 322 382
#     4  10  20  34  56  83 131 174 203 249 307 384
#
# _framework density 22.927826
#
# number of rings (size 3 to 8) (size 9 to 14) (size 15 to 20)
#    0.400    1.333    3.333    1.600    1.867    0.000 
#    0.000    1.333    0.000    6.400    0.000    0.000 
#    0.000    0.000    0.000    0.000    0.000    0.000 
#
# Total GULP energy -334444.467479 kJ/mol
# GULP energy per Si atom -5574.074458 kJ/mol
# Density = 2.287564 g / cm^3
# Si number density = 22.927826 Si / 1000 Ang^3
#
#
#
# Elastic Constant Matrix: (Units=GPa)
#
#
# Indices 1 2 3 4 5 6 
#
# 1 99.2694 2.8008 -0.4221 0.0000 0.0000 0.0000
# 2 2.8008 31.8658 13.2748 0.0000 0.0000 0.0000
# 3 -0.4221 13.2748 93.3564 0.0000 0.0000 0.0000
# 4 0.0000 0.0000 0.0000 10.5657 0.0000 0.0000
# 5 0.0000 0.0000 0.0000 0.0000 38.0502 0.0000
# 6 0.0000 0.0000 0.0000 0.0000 0.0000 27.5845
#
#
#
# Elastic Compliance Matrix: (Units=1/GPa)
#
#
# Indices 1 2 3 4 5 6 
#
# 1 0.010102 -0.000964 0.000183 0.000000 0.000000 0.000000
# 2 -0.000964 0.033450 -0.004761 0.000000 0.000000 0.000000
# 3 0.000183 -0.004761 0.011389 0.000000 0.000000 0.000000
# 4 0.000000 0.000000 0.000000 0.094646 0.000000 0.000000
# 5 0.000000 0.000000 0.000000 0.000000 0.026281 0.000000
# 6 0.000000 0.000000 0.000000 0.000000 0.000000 0.036252
#
#
# Mechanical properties :
#
#
# Convention : Reuss Voigt Hill
#
# Bulk Modulus (GPa) = 22.80157 28.42206 25.61181
# Shear Modulus (GPa) = 21.02412 29.16264 25.09338
#
# Velocity S-wave (km/s) = 3.03144 3.57028 3.31184
# Velocity P-wave (km/s) = 4.71374 5.42394 5.08126
#
# Compressibility (1/GPa) = 0.04385663
#
# Stress axis : x y z
#
# Youngs Moduli (GPa) = 98.99446 29.89577 87.80082
#
# Poissons Ratio (x) = 0.02882 -0.01605
# Poissons Ratio (y) = 0.09543 0.41799
# Poissons Ratio (z) = -0.01809 0.14232
#
# Static dielectric constant tensor:
#      x y z
#    x 1.843400 0.000000 0.000000 
#    y 0.000000 -1.198940 0.000000 
#    z 0.000000 0.000000 1.873870 
# 
# From -- ./inp_files/9608.got.cif
#   From: 2010.05.17/outbox.cif.g08.bks.cpg/sg54_5_cif.got.tgz:9608.got - 2010.06.03 13:09:01.
