data_PCOD9421099
_publ_section_title
;
Structure prediction by ZEFSAII (Michael W. Deem and Ramdas Pophale) SiO2 
 PCOD9421099
Probable space group: P C C A
;
_chemical_formula_sum "Si O2"
_cell_formula_units_Z 36
_cell_length_a 7.187539
_cell_length_b 12.119627
_cell_length_c 15.141003
_cell_angle_alpha 90.000000
_cell_angle_beta 90.000000
_cell_angle_gamma 90.000000
_cell_volume 1318.937188
_symmetry_space_group_name_H-M "P C C A"
_symmetry_group_IT_number 54
_symmetry_cell_setting 'orthorhombic'
loop_
_space_group_symop_operation_xyz
x,y,z
1/2-x,-y,z
1/2+x,-y,1/2-z
-x,y,1/2-z
-x,-y,-z
1/2+x,y,-z
1/2-x,y,1/2+z
x,-y,1/2+z
loop_
_atom_site_type_symbol
_atom_site_label
_atom_site_fract_x
_atom_site_fract_y
_atom_site_fract_z
Si Si1 0.750000 0.000000 0.362345
Si Si2 0.287520 0.315927 0.057210
Si Si3 0.029026 0.157247 0.440134
Si Si4 0.147107 0.390546 0.863771
Si Si5 0.719633 0.824537 0.222852
O O1 0.903199 0.052540 0.424857
O O2 0.686831 0.095676 0.293547
O O3 0.096917 0.264155 0.093818
O O4 0.425970 0.391285 0.113805
O O5 0.404832 0.205217 0.032657
O O6 0.235625 0.366975 0.961817
O O7 0.206229 0.135705 0.378433
O O8 0.250000 0.500000 0.832619
O O9 0.194885 0.295154 0.793506
O O10 0.500000 0.828513 0.250000
#
# Coordination Sequence:
#
# PCOD9421099 Si02
#       5
#     4   8   8   8   8
#     4  10  20  36  58  76 108 152 188 230 278 332
#     4   9  19  35  55  85 116 141 182 231 284 337
#     4   9  19  35  56  82 114 147 181 231 284 335
#     4  10  19  35  59  84 113 147 183 228 278 331
#     4   9  20  38  55  77 111 148 189 229 274 333
#
# _framework density 27.294702000000001
#
# number of rings (size 3 to 8) (size 9 to 14) (size 15 to 20)
#    0.000    2.667    0.000    0.667    0.000    6.222 
#    0.000   15.556    0.000    1.333    0.000    0.000 
#    0.000    0.000    0.000    0.000    0.000    0.000 
#
# Total GULP energy -201117.556337 kJ/mol
# GULP energy per Si atom -5586.598787 kJ/mol
# Density = 2.723258 g / cm^3
# Si number density = 27.294702 Si / 1000 Ang^3
#
#
#
# Elastic Constant Matrix: (Units=GPa)
#
#
# Indices 1 2 3 4 5 6 
#
# 1 96.2101 13.1354 26.7373 0.0000 0.0000 0.0000
# 2 13.1354 127.6072 38.1076 0.0000 0.0000 0.0000
# 3 26.7373 38.1076 73.5627 0.0000 0.0000 0.0000
# 4 0.0000 0.0000 0.0000 15.3213 0.0000 0.0000
# 5 0.0000 0.0000 0.0000 0.0000 44.5484 0.0000
# 6 0.0000 0.0000 0.0000 0.0000 0.0000 25.1209
#
#
#
# Elastic Compliance Matrix: (Units=1/GPa)
#
#
# Indices 1 2 3 4 5 6 
#
# 1 0.011562 0.000077 -0.004242 0.000000 0.000000 0.000000
# 2 0.000077 0.009271 -0.004831 0.000000 0.000000 0.000000
# 3 -0.004242 -0.004831 0.017638 0.000000 0.000000 0.000000
# 4 0.000000 0.000000 0.000000 0.065269 0.000000 0.000000
# 5 0.000000 0.000000 0.000000 0.000000 0.022447 0.000000
# 6 0.000000 0.000000 0.000000 0.000000 0.000000 0.039808
#
#
# Mechanical properties :
#
#
# Convention : Reuss Voigt Hill
#
# Bulk Modulus (GPa) = 48.82952 50.37116 49.60034
# Shear Modulus (GPa) = 26.20349 31.62476 28.91413
#
# Velocity S-wave (km/s) = 3.10178 3.40757 3.25827
# Velocity P-wave (km/s) = 5.54587 5.82895 5.68917
#
# Compressibility (1/GPa) = 0.02047942
#
# Stress axis : x y z
#
# Youngs Moduli (GPa) = 86.48736 107.86048 56.69539
#
# Poissons Ratio (x) = -0.00827 0.24051
# Poissons Ratio (y) = -0.00663 0.27387
# Poissons Ratio (z) = 0.36690 0.52103
#
# Static dielectric constant tensor:
#      x y z
#    x 2.249380 0.000000 0.000000 
#    y 0.000000 2.177520 0.000000 
#    z 0.000000 0.000000 2.231050 
# 
# From -- ./inp_files/20221.got.cif
#   From: 2010.05.17/outbox.cif.g08.bks.cpg/sg54_11_cif.got.tgz:20221.got - 2010.06.03 13:09:01.
