data_PCOD9421532
_publ_section_title
;
Structure prediction by ZEFSAII (Michael W. Deem and Ramdas Pophale) SiO2 
 PCOD9421532
Probable space group: P C C A
;
_chemical_formula_sum "Si O2"
_cell_formula_units_Z 40
_cell_length_a 5.018160
_cell_length_b 17.715210
_cell_length_c 23.202337
_cell_angle_alpha 90.000000
_cell_angle_beta 90.000000
_cell_angle_gamma 90.000000
_cell_volume 2062.635745
_symmetry_space_group_name_H-M "P C C A"
_symmetry_group_IT_number 54
_symmetry_cell_setting 'orthorhombic'
loop_
_space_group_symop_operation_xyz
x,y,z
1/2-x,-y,z
1/2+x,-y,1/2-z
-x,y,1/2-z
-x,-y,-z
1/2+x,y,-z
1/2-x,y,1/2+z
x,-y,1/2+z
loop_
_atom_site_type_symbol
_atom_site_label
_atom_site_fract_x
_atom_site_fract_y
_atom_site_fract_z
Si Si1 0.140762 0.741452 0.843232
Si Si2 0.250000 0.500000 0.908839
Si Si3 0.250000 0.000000 0.208777
Si Si4 0.750000 0.500000 0.329601
Si Si5 0.057731 0.345966 0.462062
Si Si6 0.500000 0.373797 0.750000
Si Si7 0.619344 0.162501 0.314902
O O1 0.089185 0.699238 0.902905
O O2 0.171220 0.679118 0.792646
O O3 0.394261 0.794945 0.850626
O O4 0.891121 0.791924 0.823004
O O5 0.497093 0.523650 0.868295
O O6 0.372909 0.432507 0.945965
O O7 0.329261 0.074297 0.173537
O O8 0.500000 0.979420 0.250000
O O9 0.670477 0.570825 0.290281
O O10 0.270146 0.329471 0.511937
O O11 0.500000 0.164730 0.250000
#
# Coordination Sequence:
#
# PCOD9421532 Si02
#       7
#     8   4   4   4   8   4   8
#     4  12  25  39  65  93 125 169 207 260 323 369
#     4  12  25  45  64  86 118 167 221 268 332 374
#     4  10  20  36  58  94 140 176 198 234 298 400
#     4  12  27  41  60  92 126 173 207 262 322 394
#     4  12  26  46  64  87 120 164 223 278 318 369
#     4  12  26  42  62  94 134 166 214 260 322 394
#     4  11  21  38  61  97 133 168 197 244 310 390
#
# _framework density 19.392662999999999
#
# number of rings (size 3 to 8) (size 9 to 14) (size 15 to 20)
#    0.000    0.400    4.000    6.000    2.800    1.600 
#    0.000    0.000    0.000    0.000    0.000   14.000 
#    0.000    0.000    0.000    0.000    0.000    0.000 
#
# Total GULP energy -223805.069209 kJ/mol
# GULP energy per Si atom -5595.126730 kJ/mol
# Density = 1.934852 g / cm^3
# Si number density = 19.392663 Si / 1000 Ang^3
#
#
#
# Elastic Constant Matrix: (Units=GPa)
#
#
# Indices 1 2 3 4 5 6 
#
# 1 74.2308 11.7088 -18.3644 0.0000 0.0000 0.0000
# 2 11.7088 113.5336 17.9630 0.0000 0.0000 0.0000
# 3 -18.3644 17.9630 52.6150 0.0000 0.0000 0.0000
# 4 0.0000 0.0000 0.0000 1.6181 0.0000 0.0000
# 5 0.0000 0.0000 0.0000 0.0000 29.5522 0.0000
# 6 0.0000 0.0000 0.0000 0.0000 0.0000 32.2617
#
#
#
# Elastic Compliance Matrix: (Units=1/GPa)
#
#
# Indices 1 2 3 4 5 6 
#
# 1 0.015429 -0.002583 0.006267 0.000000 0.000000 0.000000
# 2 -0.002583 0.009743 -0.004228 0.000000 0.000000 0.000000
# 3 0.006267 -0.004228 0.022637 0.000000 0.000000 0.000000
# 4 0.000000 0.000000 0.000000 0.618012 0.000000 0.000000
# 5 0.000000 0.000000 0.000000 0.000000 0.033838 0.000000
# 6 0.000000 0.000000 0.000000 0.000000 0.000000 0.030997
#
#
# Mechanical properties :
#
#
# Convention : Reuss Voigt Hill
#
# Bulk Modulus (GPa) = 21.40303 29.22158 25.31230
# Shear Modulus (GPa) = 6.69060 27.95785 17.32422
#
# Velocity S-wave (km/s) = 1.85945 3.80105 2.99212
# Velocity P-wave (km/s) = 3.95862 5.86218 5.00179
#
# Compressibility (1/GPa) = 0.04672236
#
# Stress axis : x y z
#
# Youngs Moduli (GPa) = 64.81151 102.63516 44.17578
#
# Poissons Ratio (x) = 0.26509 -0.27686
# Poissons Ratio (y) = 0.16740 0.18677
# Poissons Ratio (z) = -0.40618 0.43393
#
# Static dielectric constant tensor:
#      x y z
#    x 1.695990 0.000000 0.000000 
#    y 0.000000 1.691370 0.000000 
#    z 0.000000 0.000000 1.656110 
# 
# From -- ./inp_files/22859.got.cif
#   From: 2010.05.17/outbox.cif.g08.bks.cpg/sg54_12_cif.got.tgz:22859.got - 2010.06.03 13:09:01.
