data_PCOD9421384
_publ_section_title
;
Structure prediction by ZEFSAII (Michael W. Deem and Ramdas Pophale) SiO2 
 PCOD9421384
Probable space group: P C C A
;
_chemical_formula_sum "Si O2"
_cell_formula_units_Z 44
_cell_length_a 12.469228
_cell_length_b 11.721248
_cell_length_c 16.623262
_cell_angle_alpha 90.000000
_cell_angle_beta 90.000000
_cell_angle_gamma 90.000000
_cell_volume 2429.571424
_symmetry_space_group_name_H-M "P C C A"
_symmetry_group_IT_number 54
_symmetry_cell_setting 'orthorhombic'
loop_
_space_group_symop_operation_xyz
x,y,z
1/2-x,-y,z
1/2+x,-y,1/2-z
-x,y,1/2-z
-x,-y,-z
1/2+x,y,-z
1/2-x,y,1/2+z
x,-y,1/2+z
loop_
_atom_site_type_symbol
_atom_site_label
_atom_site_fract_x
_atom_site_fract_y
_atom_site_fract_z
Si Si1 0.276185 0.867786 0.240056
Si Si2 0.658573 0.280772 0.908078
Si Si3 0.750000 0.500000 0.822366
Si Si4 0.236562 0.370848 0.931600
Si Si5 0.616360 0.674506 0.715300
Si Si6 0.061296 0.279798 0.330569
O O1 0.293360 0.814589 0.151338
O O2 0.179797 0.792995 0.276120
O O3 0.380915 0.831749 0.292305
O O4 0.250000 0.000000 0.239961
O O5 0.684164 0.406391 0.872138
O O6 0.530721 0.264319 0.897394
O O7 0.714703 0.285210 0.994828
O O8 0.674195 0.576940 0.767188
O O9 0.250000 0.500000 0.960838
O O10 0.130814 0.363643 0.876211
O O11 0.339155 0.344168 0.873794
O O12 0.500000 0.688138 0.750000
O O13 0.000000 0.330496 0.250000
#
# Coordination Sequence:
#
# PCOD9421384 Si02
#       6
#     8   8   4   8   8   8
#     4   9  20  41  63  83 111 155 213 256 292 359
#     4  10  21  36  57  88 120 157 196 249 310 361
#     4  10  20  34  52  80 118 162 198 240 288 368
#     4  11  22  35  55  92 127 159 199 246 306 370
#     4  10  22  34  56  84 118 154 204 250 294 355
#     4   9  21  39  61  84 116 166 207 237 300 369
#
# _framework density 18.110189999999999
#
# number of rings (size 3 to 8) (size 9 to 14) (size 15 to 20)
#    0.000    2.182    1.818    1.091    2.545    5.818 
#    0.000    3.636    0.000    9.818    0.000    0.000 
#    0.000    0.000    0.000    0.000    0.000    0.000 
#
# Total GULP energy -244966.420123 kJ/mol
# GULP energy per Si atom -5567.418639 kJ/mol
# Density = 1.806897 g / cm^3
# Si number density = 18.110190 Si / 1000 Ang^3
#
#
#
# Elastic Constant Matrix: (Units=GPa)
#
#
# Indices 1 2 3 4 5 6 
#
# 1 96.8270 41.6008 32.4830 0.0000 0.0000 0.0000
# 2 41.6008 120.1869 31.1239 0.0000 0.0000 0.0000
# 3 32.4830 31.1239 81.4008 0.0000 0.0000 0.0000
# 4 0.0000 0.0000 0.0000 8.1230 0.0000 0.0000
# 5 0.0000 0.0000 0.0000 0.0000 17.5989 0.0000
# 6 0.0000 0.0000 0.0000 0.0000 0.0000 11.8194
#
#
#
# Elastic Compliance Matrix: (Units=1/GPa)
#
#
# Indices 1 2 3 4 5 6 
#
# 1 0.013158 -0.003546 -0.003895 0.000000 0.000000 0.000000
# 2 -0.003546 0.010190 -0.002481 0.000000 0.000000 0.000000
# 3 -0.003895 -0.002481 0.014788 0.000000 0.000000 0.000000
# 4 0.000000 0.000000 0.000000 0.123107 0.000000 0.000000
# 5 0.000000 0.000000 0.000000 0.000000 0.056822 0.000000
# 6 0.000000 0.000000 0.000000 0.000000 0.000000 0.084607
#
#
# Mechanical properties :
#
#
# Convention : Reuss Voigt Hill
#
# Bulk Modulus (GPa) = 54.66880 56.53668 55.60274
# Shear Modulus (GPa) = 15.21549 20.38872 17.80211
#
# Velocity S-wave (km/s) = 2.90170 3.35896 3.13867
# Velocity P-wave (km/s) = 6.44040 6.80657 6.62602
#
# Compressibility (1/GPa) = 0.01829197
#
# Stress axis : x y z
#
# Youngs Moduli (GPa) = 76.00105 98.13304 67.62282
#
# Poissons Ratio (x) = 0.34795 0.26338
# Poissons Ratio (y) = 0.26948 0.16780
# Poissons Ratio (z) = 0.29601 0.24350
#
# Static dielectric constant tensor:
#      x y z
#    x 1.666360 0.000000 0.000000 
#    y 0.000000 1.601560 0.000000 
#    z 0.000000 0.000000 1.672000 
# 
# From -- ./inp_files/17243.got.cif
#   From: 2010.05.17/outbox.cif.g08.bks.cpg/sg54_9_cif.got.tgz:17243.got - 2010.06.03 13:09:01.
