data_PCOD9421110
_publ_section_title
;
Structure prediction by ZEFSAII (Michael W. Deem and Ramdas Pophale) SiO2 
 PCOD9421110
Probable space group: P C C A
;
_chemical_formula_sum "Si O2"
_cell_formula_units_Z 64
_cell_length_a 30.089030
_cell_length_b 5.721942
_cell_length_c 15.575562
_cell_angle_alpha 90.000000
_cell_angle_beta 90.000000
_cell_angle_gamma 90.000000
_cell_volume 2681.608444
_symmetry_space_group_name_H-M "P C C A"
_symmetry_group_IT_number 54
_symmetry_cell_setting 'orthorhombic'
loop_
_space_group_symop_operation_xyz
x,y,z
1/2-x,-y,z
1/2+x,-y,1/2-z
-x,y,1/2-z
-x,-y,-z
1/2+x,y,-z
1/2-x,y,1/2+z
x,-y,1/2+z
loop_
_atom_site_type_symbol
_atom_site_label
_atom_site_fract_x
_atom_site_fract_y
_atom_site_fract_z
Si Si1 0.958972 0.603926 0.918735
Si Si2 0.946461 0.150582 0.071269
Si Si3 0.146337 0.897576 0.016508
Si Si4 0.863223 0.399610 0.487190
Si Si5 0.426267 0.616749 0.257934
Si Si6 0.492477 0.228990 0.335156
Si Si7 0.300846 0.925216 0.336873
Si Si8 0.663017 0.421523 0.191244
O O1 0.917026 0.599770 0.980794
O O2 0.941717 0.729802 0.831306
O O3 0.009086 0.689241 0.941339
O O4 0.965301 0.345653 0.878520
O O5 0.906116 0.118917 0.006733
O O6 0.922862 0.209645 0.161980
O O7 0.968502 0.904549 0.090242
O O8 0.174392 0.910210 0.928524
O O9 0.155404 0.639530 0.053868
O O10 0.152856 0.156342 0.054933
O O11 0.851072 0.407304 0.589025
O O12 0.461664 0.431421 0.295529
O O13 0.380015 0.482806 0.252468
O O14 0.500000 0.075882 0.250000
O O15 0.306758 0.658731 0.300847
O O16 0.250000 0.000000 0.349765
O O17 0.320587 0.157201 0.289185
#
# Coordination Sequence:
#
# PCOD9421110 Si02
#       8
#     8   8   8   8   8   8   8   8
#     4  10  23  32  51  76 108 151 199 225 258 324
#     4  11  19  34  52  72 108 149 193 234 269 319
#     4  10  22  36  57  75 115 141 172 233 289 320
#     4  10  21  39  50  80 110 145 183 228 271 324
#     4  10  19  36  51  76 108 152 187 228 272 320
#     4   9  18  31  47  69 101 144 196 235 255 303
#     4  10  19  35  60  90 108 134 178 227 284 347
#     4  10  20  37  58  83 114 140 172 229 283 325
#
# _framework density 23.866275000000002
#
# number of rings (size 3 to 8) (size 9 to 14) (size 15 to 20)
#    0.000    2.000    2.500    3.750    3.500    1.000 
#    0.000    0.000    0.000    0.000    0.000   21.000 
#    0.000    0.000    0.000    0.000    0.000    0.000 
#
# Total GULP energy -356622.383020 kJ/mol
# GULP energy per Si atom -5572.224735 kJ/mol
# Density = 2.381195 g / cm^3
# Si number density = 23.866275 Si / 1000 Ang^3
#
#
#
# Elastic Constant Matrix: (Units=GPa)
#
#
# Indices 1 2 3 4 5 6 
#
# 1 72.8820 22.8742 3.8599 0.0000 0.0000 0.0000
# 2 22.8742 158.4948 11.1659 0.0000 0.0000 0.0000
# 3 3.8599 11.1659 31.9962 0.0000 0.0000 0.0000
# 4 0.0000 0.0000 0.0000 10.7432 0.0000 0.0000
# 5 0.0000 0.0000 0.0000 0.0000 7.9496 0.0000
# 6 0.0000 0.0000 0.0000 0.0000 0.0000 12.7110
#
#
#
# Elastic Compliance Matrix: (Units=1/GPa)
#
#
# Indices 1 2 3 4 5 6 
#
# 1 0.014405 -0.002006 -0.001038 0.000000 0.000000 0.000000
# 2 -0.002006 0.006748 -0.002113 0.000000 0.000000 0.000000
# 3 -0.001038 -0.002113 0.032116 0.000000 0.000000 0.000000
# 4 0.000000 0.000000 0.000000 0.093083 0.000000 0.000000
# 5 0.000000 0.000000 0.000000 0.000000 0.125793 0.000000
# 6 0.000000 0.000000 0.000000 0.000000 0.000000 0.078672
#
#
# Mechanical properties :
#
#
# Convention : Reuss Voigt Hill
#
# Bulk Modulus (GPa) = 23.27949 37.68588 30.48269
# Shear Modulus (GPa) = 13.31741 21.31229 17.31485
#
# Velocity S-wave (km/s) = 2.36477 2.99153 2.69642
# Velocity P-wave (km/s) = 4.15108 5.26850 4.74281
#
# Compressibility (1/GPa) = 0.04295627
#
# Stress axis : x y z
#
# Youngs Moduli (GPa) = 69.41876 148.19883 31.13695
#
# Poissons Ratio (x) = 0.29727 0.03231
# Poissons Ratio (y) = 0.13925 0.06579
# Poissons Ratio (z) = 0.07204 0.31312
#
# Static dielectric constant tensor:
#      x y z
#    x 1.881380 0.000000 0.000000 
#    y 0.000000 2.157950 0.000000 
#    z 0.000000 0.000000 2.044220 
# 
# From -- ./inp_files/19362.got.cif
#   From: 2010.05.17/outbox.cif.g08.bks.cpg/sg54_10_cif.got.tgz:19362.got - 2010.06.03 13:09:01.
