data_PCOD9421488
_publ_section_title
;
Structure prediction by ZEFSAII (Michael W. Deem and Ramdas Pophale) SiO2 
 PCOD9421488
Probable space group: P C C A
;
_chemical_formula_sum "Si O2"
_cell_formula_units_Z 44
_cell_length_a 8.390030
_cell_length_b 19.566646
_cell_length_c 13.042352
_cell_angle_alpha 90.000000
_cell_angle_beta 90.000000
_cell_angle_gamma 90.000000
_cell_volume 2141.094416
_symmetry_space_group_name_H-M "P C C A"
_symmetry_group_IT_number 54
_symmetry_cell_setting 'orthorhombic'
loop_
_space_group_symop_operation_xyz
x,y,z
1/2-x,-y,z
1/2+x,-y,1/2-z
-x,y,1/2-z
-x,-y,-z
1/2+x,y,-z
1/2-x,y,1/2+z
x,-y,1/2+z
loop_
_atom_site_type_symbol
_atom_site_label
_atom_site_fract_x
_atom_site_fract_y
_atom_site_fract_z
Si Si1 0.136275 0.644747 0.051580
Si Si2 0.379080 0.453113 0.432889
Si Si3 0.000000 0.015079 0.250000
Si Si4 0.682500 0.931820 0.580085
Si Si5 0.982839 0.871249 0.894129
Si Si6 0.437313 0.712683 0.137979
O O1 0.253773 0.691922 0.117216
O O2 0.998486 0.603627 0.112878
O O3 0.261253 0.589664 0.006024
O O4 0.048144 0.682607 0.955216
O O5 0.250000 0.500000 0.371945
O O6 0.500000 0.500000 0.500000
O O7 0.095749 0.966136 0.324615
O O8 0.907967 0.069444 0.322788
O O9 0.829261 0.885044 0.611749
O O10 0.568925 0.888687 0.508628
O O11 0.750000 0.000000 0.523244
O O12 0.944464 0.794662 0.865173
O O13 0.500000 0.689097 0.250000
#
# Coordination Sequence:
#
# PCOD9421488 Si02
#       6
#     8   8   4   8   8   8
#     4   9  19  35  61  89 125 166 206 252 300 363
#     4   8  14  30  61  94 123 165 203 243 307 355
#     4  10  20  36  54  84 108 146 196 256 336 388
#     4  10  22  37  59  82 112 145 196 264 333 386
#     4  11  22  39  57  82 113 156 202 259 322 384
#     4  11  22  41  60  86 125 169 213 257 312 378
#
# _framework density 20.550236999999999
#
# number of rings (size 3 to 8) (size 9 to 14) (size 15 to 20)
#    0.000    2.182    0.909    3.273    0.000    6.545 
#    3.273    3.636    0.000   54.545    0.000    0.000 
#    0.000    0.000    0.000    0.000    0.000    0.000 
#
# Total GULP energy -244954.487693 kJ/mol
# GULP energy per Si atom -5567.147448 kJ/mol
# Density = 2.050346 g / cm^3
# Si number density = 20.550237 Si / 1000 Ang^3
#
#
#
# Elastic Constant Matrix: (Units=GPa)
#
#
# Indices 1 2 3 4 5 6 
#
# 1 133.2469 67.8131 53.6788 0.0000 0.0000 0.0000
# 2 67.8131 106.2133 36.6629 0.0000 0.0000 0.0000
# 3 53.6788 36.6629 95.2982 0.0000 0.0000 0.0000
# 4 0.0000 0.0000 0.0000 -28.9791 0.0000 0.0000
# 5 0.0000 0.0000 0.0000 0.0000 23.0841 0.0000
# 6 0.0000 0.0000 0.0000 0.0000 0.0000 41.7742
#
#
#
# Elastic Compliance Matrix: (Units=1/GPa)
#
#
# Indices 1 2 3 4 5 6 
#
# 1 0.012680 -0.006493 -0.004645 0.000000 0.000000 0.000000
# 2 -0.006493 0.014181 -0.001799 0.000000 0.000000 0.000000
# 3 -0.004645 -0.001799 0.013802 0.000000 0.000000 0.000000
# 4 0.000000 0.000000 0.000000 -0.034508 0.000000 0.000000
# 5 0.000000 0.000000 0.000000 0.000000 0.043320 0.000000
# 6 0.000000 0.000000 0.000000 0.000000 0.000000 0.023938
#
#
# Mechanical properties :
#
#
# Convention : Reuss Voigt Hill
#
# Bulk Modulus (GPa) = 67.60767 72.34089 69.97428
# Shear Modulus (GPa) = 47.97754 18.94941 33.46348
#
# Velocity S-wave (km/s) = 4.83706 3.03991 4.03969
# Velocity P-wave (km/s) = 8.01039 6.89926 7.47550
#
# Compressibility (1/GPa) = 0.01479122
#
# Stress axis : x y z
#
# Youngs Moduli (GPa) = 78.86303 70.51617 72.45580
#
# Poissons Ratio (x) = 0.45783 0.33653
# Poissons Ratio (y) = 0.51203 0.13032
# Poissons Ratio (z) = 0.36629 0.12683
#
# Static dielectric constant tensor:
#      x y z
#    x 1.873070 0.000000 0.000000 
#    y 0.000000 1.758330 0.000000 
#    z 0.000000 0.000000 1.825440 
# 
# From -- ./inp_files/11653.got.cif
#   From: 2010.05.17/outbox.cif.g08.bks.cpg/sg54_6_cif.got.tgz:11653.got - 2010.06.03 13:09:01.
