data_PCOD9421314
_publ_section_title
;
Structure prediction by ZEFSAII (Michael W. Deem and Ramdas Pophale) SiO2 
 PCOD9421314
Probable space group: P C C A
;
_chemical_formula_sum "Si O2"
_cell_formula_units_Z 40
_cell_length_a 20.382269
_cell_length_b 10.865401
_cell_length_c 8.498722
_cell_angle_alpha 90.000000
_cell_angle_beta 90.000000
_cell_angle_gamma 90.000000
_cell_volume 1882.139943
_symmetry_space_group_name_H-M "P C C A"
_symmetry_group_IT_number 54
_symmetry_cell_setting 'orthorhombic'
loop_
_space_group_symop_operation_xyz
x,y,z
1/2-x,-y,z
1/2+x,-y,1/2-z
-x,y,1/2-z
-x,-y,-z
1/2+x,y,-z
1/2-x,y,1/2+z
x,-y,1/2+z
loop_
_atom_site_type_symbol
_atom_site_label
_atom_site_fract_x
_atom_site_fract_y
_atom_site_fract_z
Si Si1 0.684031 0.862227 0.627890
Si Si2 0.000000 0.541586 0.250000
Si Si3 0.500000 0.980056 0.750000
Si Si4 0.172464 0.144125 0.493095
Si Si5 0.062660 0.165727 0.037780
Si Si6 0.555187 0.664009 0.045432
O O1 0.675393 0.856044 0.815921
O O2 0.756783 0.821950 0.579056
O O3 0.632064 0.788367 0.522034
O O4 0.668010 0.002536 0.568452
O O5 0.051131 0.458481 0.350148
O O6 0.044297 0.622781 0.134244
O O7 0.443305 0.064476 0.674488
O O8 0.470593 0.898592 0.886885
O O9 0.114504 0.237906 0.442027
O O10 0.013619 0.271282 0.085481
#
# Coordination Sequence:
#
# PCOD9421314 Si02
#       6
#     8   4   4   8   8   8
#     4  11  22  36  58  93 130 161 195 231 301 402
#     4  10  24  42  64  88 112 154 226 272 296 340
#     4  10  20  30  54  94 126 154 196 232 298 396
#     4  11  23  38  60  90 131 168 195 241 306 372
#     4  11  20  34  57  86 121 156 191 246 306 366
#     4  11  23  41  64  87 115 157 206 265 310 343
#
# _framework density 21.252403999999999
#
# number of rings (size 3 to 8) (size 9 to 14) (size 15 to 20)
#    0.000    1.200    0.000    9.600    0.000    4.800 
#    0.000    0.000    0.000   20.400    0.000    0.000 
#    0.000    0.000    0.000    0.000    0.000    0.000 
#
# Total GULP energy -223492.887961 kJ/mol
# GULP energy per Si atom -5587.322199 kJ/mol
# Density = 2.120403 g / cm^3
# Si number density = 21.252404 Si / 1000 Ang^3
#
#
#
# Elastic Constant Matrix: (Units=GPa)
#
#
# Indices 1 2 3 4 5 6 
#
# 1 123.1701 27.1902 3.6368 0.0000 0.0000 0.0000
# 2 27.1902 56.1559 12.5932 0.0000 0.0000 0.0000
# 3 3.6368 12.5932 85.5331 0.0000 0.0000 0.0000
# 4 0.0000 0.0000 0.0000 20.8219 0.0000 0.0000
# 5 0.0000 0.0000 0.0000 0.0000 28.3072 0.0000
# 6 0.0000 0.0000 0.0000 0.0000 0.0000 0.2758
#
#
#
# Elastic Compliance Matrix: (Units=1/GPa)
#
#
# Indices 1 2 3 4 5 6 
#
# 1 0.009097 -0.004465 0.000271 0.000000 0.000000 0.000000
# 2 -0.004465 0.020607 -0.002844 0.000000 0.000000 0.000000
# 3 0.000271 -0.002844 0.012099 0.000000 0.000000 0.000000
# 4 0.000000 0.000000 0.000000 0.048026 0.000000 0.000000
# 5 0.000000 0.000000 0.000000 0.000000 0.035327 0.000000
# 6 0.000000 0.000000 0.000000 0.000000 0.000000 3.625281
#
#
# Mechanical properties :
#
#
# Convention : Reuss Voigt Hill
#
# Bulk Modulus (GPa) = 36.06838 39.07771 37.57304
# Shear Modulus (GPa) = 1.32494 24.64358 12.98426
#
# Velocity S-wave (km/s) = 0.79043 3.40894 2.47443
# Velocity P-wave (km/s) = 4.22390 5.82424 5.08739
#
# Compressibility (1/GPa) = 0.02772511
#
# Stress axis : x y z
#
# Youngs Moduli (GPa) = 109.93160 48.52627 82.65394
#
# Poissons Ratio (x) = 0.21668 -0.02237
# Poissons Ratio (y) = 0.49086 0.23508
# Poissons Ratio (z) = -0.02975 0.13802
#
# Static dielectric constant tensor:
#      x y z
#    x 1.847450 0.000000 0.000000 
#    y 0.000000 1.802220 0.000000 
#    z 0.000000 0.000000 1.817460 
# 
# From -- ./inp_files/4681.got.cif
#   From: 2010.05.17/outbox.cif.g08.bks.cpg/sg54_3_cif.got.tgz:4681.got - 2010.06.03 13:09:01.
