data_PCOD9421225
_publ_section_title
;
Structure prediction by ZEFSAII (Michael W. Deem and Ramdas Pophale) SiO2 
 PCOD9421225
Probable space group: P C C A
;
_chemical_formula_sum "Si O2"
_cell_formula_units_Z 48
_cell_length_a 5.871717
_cell_length_b 16.899998
_cell_length_c 22.171327
_cell_angle_alpha 90.000000
_cell_angle_beta 90.000000
_cell_angle_gamma 90.000000
_cell_volume 2200.105244
_symmetry_space_group_name_H-M "P C C A"
_symmetry_group_IT_number 54
_symmetry_cell_setting 'orthorhombic'
loop_
_space_group_symop_operation_xyz
x,y,z
1/2-x,-y,z
1/2+x,-y,1/2-z
-x,y,1/2-z
-x,-y,-z
1/2+x,y,-z
1/2-x,y,1/2+z
x,-y,1/2+z
loop_
_atom_site_type_symbol
_atom_site_label
_atom_site_fract_x
_atom_site_fract_y
_atom_site_fract_z
Si Si1 0.003566 0.233382 0.073969
Si Si2 0.497312 0.369791 0.481464
Si Si3 0.250000 0.500000 0.781747
Si Si4 0.163029 0.656596 0.353907
Si Si5 0.767164 0.912502 0.628999
Si Si6 0.500000 0.128214 0.750000
Si Si7 0.375872 0.800009 0.669490
O O1 0.237991 0.216136 0.107765
O O2 0.871167 0.295572 0.116597
O O3 0.866723 0.151132 0.081242
O O4 0.018252 0.281090 0.011412
O O5 0.744684 0.403594 0.501157
O O6 0.493758 0.369872 0.409775
O O7 0.500000 0.500765 0.750000
O O8 0.252946 0.580781 0.819334
O O9 0.021571 0.721979 0.318292
O O10 0.535764 0.874337 0.654383
O O11 0.921469 0.917686 0.689995
O O12 0.750000 0.000000 0.603294
O O13 0.295252 0.180639 0.723519
#
# Coordination Sequence:
#
# PCOD9421225 Si02
#       7
#     8   8   4   8   8   4   8
#     4   9  20  38  65 100 126 173 229 283 343 407
#     4  10  19  37  72 102 129 169 224 289 338 401
#     4  12  32  50  70 102 150 190 220 280 346 418
#     4  10  23  45  69  97 135 178 230 274 348 413
#     4  10  22  36  57  89 136 181 224 289 349 411
#     4  10  22  32  56  94 124 176 238 288 336 402
#     4  10  20  39  61  90 127 174 232 282 336 410
#
# _framework density 21.817138
#
# number of rings (size 3 to 8) (size 9 to 14) (size 15 to 20)
#    0.000    2.000    1.667    0.500    4.667    6.000 
#    6.000    3.333    0.000    9.000    0.000    0.000 
#    0.000    0.000    0.000    0.000    0.000    0.000 
#
# Total GULP energy -267739.201569 kJ/mol
# GULP energy per Si atom -5577.900033 kJ/mol
# Density = 2.176748 g / cm^3
# Si number density = 21.817138 Si / 1000 Ang^3
#
#
#
# Elastic Constant Matrix: (Units=GPa)
#
#
# Indices 1 2 3 4 5 6 
#
# 1 112.9185 28.6839 6.9750 0.0000 0.0000 0.0000
# 2 28.6839 141.4580 13.5160 0.0000 0.0000 0.0000
# 3 6.9750 13.5160 47.4497 0.0000 0.0000 0.0000
# 4 0.0000 0.0000 0.0000 -30.0475 0.0000 0.0000
# 5 0.0000 0.0000 0.0000 0.0000 38.5104 0.0000
# 6 0.0000 0.0000 0.0000 0.0000 0.0000 -12.0392
#
#
#
# Elastic Compliance Matrix: (Units=1/GPa)
#
#
# Indices 1 2 3 4 5 6 
#
# 1 0.009371 -0.001818 -0.000860 0.000000 0.000000 0.000000
# 2 -0.001818 0.007620 -0.001903 0.000000 0.000000 0.000000
# 3 -0.000860 -0.001903 0.021743 0.000000 0.000000 0.000000
# 4 0.000000 0.000000 0.000000 -0.033281 0.000000 0.000000
# 5 0.000000 0.000000 0.000000 0.000000 0.025967 0.000000
# 6 0.000000 0.000000 0.000000 0.000000 0.000000 -0.083062
#
#
# Mechanical properties :
#
#
# Convention : Reuss Voigt Hill
#
# Bulk Modulus (GPa) = 33.81548 44.46402 39.13975
# Shear Modulus (GPa) = -153.27011 16.12816 -68.57098
#
# Velocity S-wave (km/s) = -8.39075 2.72185 -5.61232
# Velocity P-wave (km/s) = 8.85097 5.50477 4.90088
#
# Compressibility (1/GPa) = 0.02957225
#
# Stress axis : x y z
#
# Youngs Moduli (GPa) = 106.71378 131.23822 45.99087
#
# Poissons Ratio (x) = 0.23859 0.03954
# Poissons Ratio (y) = 0.19401 0.08753
# Poissons Ratio (z) = 0.09174 0.24978
#
# Static dielectric constant tensor:
#      x y z
#    x 1.806300 0.000000 0.000000 
#    y 0.000000 1.775250 0.000000 
#    z 0.000000 0.000000 1.826080 
# 
# From -- ./inp_files/25372.got.cif
#   From: 2010.05.17/outbox.cif.g08.bks.cpg/sg54_13_cif.got.tgz:25372.got - 2010.06.03 13:09:01.
