data_PCOD9421306
_publ_section_title
;
Structure prediction by ZEFSAII (Michael W. Deem and Ramdas Pophale) SiO2 
 PCOD9421306
Probable space group: P C C A
;
_chemical_formula_sum "Si O2"
_cell_formula_units_Z 52
_cell_length_a 8.818838
_cell_length_b 14.450040
_cell_length_c 22.001885
_cell_angle_alpha 90.000000
_cell_angle_beta 90.000000
_cell_angle_gamma 90.000000
_cell_volume 2803.756571
_symmetry_space_group_name_H-M "P C C A"
_symmetry_group_IT_number 54
_symmetry_cell_setting 'orthorhombic'
loop_
_space_group_symop_operation_xyz
x,y,z
1/2-x,-y,z
1/2+x,-y,1/2-z
-x,y,1/2-z
-x,-y,-z
1/2+x,y,-z
1/2-x,y,1/2+z
x,-y,1/2+z
loop_
_atom_site_type_symbol
_atom_site_label
_atom_site_fract_x
_atom_site_fract_y
_atom_site_fract_z
Si Si1 0.264157 0.392571 0.082547
Si Si2 0.173897 0.283730 0.194695
Si Si3 0.144733 0.637139 0.292374
Si Si4 0.932821 0.644695 0.535217
Si Si5 0.847591 0.232661 0.135594
Si Si6 0.673113 0.097433 0.733012
Si Si7 0.750000 0.500000 0.618362
O O1 0.250000 0.500000 0.101833
O O2 0.267890 0.320526 0.137518
O O3 0.109048 0.370602 0.046658
O O4 0.395792 0.374431 0.034392
O O5 0.212132 0.360633 0.245707
O O6 0.223869 0.186022 0.225428
O O7 0.000531 0.270301 0.171394
O O8 0.198290 0.714060 0.340895
O O9 0.132888 0.548009 0.334924
O O10 0.000000 0.653731 0.250000
O O11 0.881102 0.742050 0.565846
O O12 0.839992 0.570760 0.575997
O O13 0.823628 0.131106 0.162840
O O14 0.500000 0.084849 0.750000
O O15 0.750000 0.000000 0.743524
#
# Coordination Sequence:
#
# PCOD9421306 Si02
#       7
#     8   8   8   8   8   8   4
#     4  11  22  33  55  71 102 141 184 216 253 300
#     4   9  20  35  51  76 105 140 168 207 265 318
#     4  10  20  29  48  70  96 127 172 216 250 297
#     4  10  21  36  50  70  99 138 181 217 253 296
#     4   8  18  37  52  70 106 137 163 208 267 315
#     4   9  17  33  57  81 106 132 163 204 266 326
#     4  10  22  32  44  64 104 132 168 218 260 288
#
# _framework density 18.546544999999998
#
# number of rings (size 3 to 8) (size 9 to 14) (size 15 to 20)
#    0.000    2.462    0.769    1.846    3.231    6.154 
#    0.000    0.000    0.000    0.923    0.000    6.462 
#    0.000    0.000    0.000    0.000    0.000    0.000 
#
# Total GULP energy -289472.488785 kJ/mol
# GULP energy per Si atom -5566.778630 kJ/mol
# Density = 1.850433 g / cm^3
# Si number density = 18.546545 Si / 1000 Ang^3
#
#
#
# Elastic Constant Matrix: (Units=GPa)
#
#
# Indices 1 2 3 4 5 6 
#
# 1 19.8738 8.1473 -0.8961 0.0000 0.0000 0.0000
# 2 8.1473 85.9297 39.9206 0.0000 0.0000 0.0000
# 3 -0.8961 39.9206 53.8591 0.0000 0.0000 0.0000
# 4 0.0000 0.0000 0.0000 13.2339 0.0000 0.0000
# 5 0.0000 0.0000 0.0000 0.0000 23.4166 0.0000
# 6 0.0000 0.0000 0.0000 0.0000 0.0000 19.5424
#
#
#
# Elastic Compliance Matrix: (Units=1/GPa)
#
#
# Indices 1 2 3 4 5 6 
#
# 1 0.054110 -0.008463 0.007173 0.000000 0.000000 0.000000
# 2 -0.008463 0.019073 -0.014278 0.000000 0.000000 0.000000
# 3 0.007173 -0.014278 0.029269 0.000000 0.000000 0.000000
# 4 0.000000 0.000000 0.000000 0.075564 0.000000 0.000000
# 5 0.000000 0.000000 0.000000 0.000000 0.042705 0.000000
# 6 0.000000 0.000000 0.000000 0.000000 0.000000 0.051171
#
#
# Mechanical properties :
#
#
# Convention : Reuss Voigt Hill
#
# Bulk Modulus (GPa) = 14.02193 28.22293 21.12243
# Shear Modulus (GPa) = 15.29996 18.73795 17.01895
#
# Velocity S-wave (km/s) = 2.87531 3.18200 3.03254
# Velocity P-wave (km/s) = 4.31277 5.36196 4.86573
#
# Compressibility (1/GPa) = 0.07131684
#
# Stress axis : x y z
#
# Youngs Moduli (GPa) = 18.48085 52.43071 34.16590
#
# Poissons Ratio (x) = 0.44370 -0.24507
# Poissons Ratio (y) = 0.15640 0.48781
# Poissons Ratio (z) = -0.13256 0.74859
#
# Static dielectric constant tensor:
#      x y z
#    x 1.690530 0.000000 0.000000 
#    y 0.000000 1.686370 0.000000 
#    z 0.000000 0.000000 1.683970 
# 
# From -- ./inp_files/20478.got.cif
#   From: 2010.05.17/outbox.cif.g08.bks.cpg/sg54_11_cif.got.tgz:20478.got - 2010.06.03 13:09:01.
