data_PCOD9421989
_publ_section_title
;
Structure prediction by ZEFSAII (Michael W. Deem and Ramdas Pophale) SiO2 
 PCOD9421989
Probable space group: P C C A
;
_chemical_formula_sum "Si O2"
_cell_formula_units_Z 48
_cell_length_a 25.910693
_cell_length_b 5.172343
_cell_length_c 14.723899
_cell_angle_alpha 90.000000
_cell_angle_beta 90.000000
_cell_angle_gamma 90.000000
_cell_volume 1973.282096
_symmetry_space_group_name_H-M "P C C A"
_symmetry_group_IT_number 54
_symmetry_cell_setting 'orthorhombic'
loop_
_space_group_symop_operation_xyz
x,y,z
1/2-x,-y,z
1/2+x,-y,1/2-z
-x,y,1/2-z
-x,-y,-z
1/2+x,y,-z
1/2-x,y,1/2+z
x,-y,1/2+z
loop_
_atom_site_type_symbol
_atom_site_label
_atom_site_fract_x
_atom_site_fract_y
_atom_site_fract_z
Si Si1 0.250000 0.500000 0.242849
Si Si2 0.941321 0.165551 0.732006
Si Si3 0.641991 0.111252 0.834228
Si Si4 0.750000 0.000000 0.872417
Si Si5 0.851083 0.453461 0.169151
Si Si6 0.888068 0.438050 0.485951
Si Si7 0.446048 0.074982 0.958382
O O1 0.239138 0.262886 0.178711
O O2 0.298616 0.409915 0.300630
O O3 0.902563 0.389442 0.696281
O O4 0.000000 0.256418 0.750000
O O5 0.911400 0.046618 0.819099
O O6 0.947379 0.952449 0.651083
O O7 0.652007 0.188961 0.727539
O O8 0.631349 0.383418 0.885111
O O9 0.687206 0.967269 0.892925
O O10 0.848710 0.449784 0.060594
O O11 0.932973 0.644133 0.502055
O O12 0.905554 0.148312 0.513540
O O13 0.500000 0.000000 0.000000
#
# Coordination Sequence:
#
# PCOD9421989 Si02
#       7
#     4   8   8   4   8   8   8
#     4  10  20  40  74  88 138 174 224 282 354 410
#     4  11  23  40  68 101 139 193 239 290 359 429
#     4  11  23  43  70  99 146 181 246 285 368 423
#     4  10  22  40  70 102 126 184 224 300 342 430
#     4  10  23  44  64 102 137 180 235 284 358 422
#     4  11  25  41  68  98 139 179 230 298 345 426
#     4  11  24  44  62  97 141 183 241 292 346 417
#
# _framework density 24.324957000000001
#
# number of rings (size 3 to 8) (size 9 to 14) (size 15 to 20)
#    0.000    1.333    3.333    1.500    4.667    0.667 
#    0.000    5.833    0.000    0.000    0.000    0.000 
#    0.000    0.000    0.000    0.000    0.000    0.000 
#
# Total GULP energy -267209.248777 kJ/mol
# GULP energy per Si atom -5566.859350 kJ/mol
# Density = 2.426959 g / cm^3
# Si number density = 24.324957 Si / 1000 Ang^3
#
#
#
# Elastic Constant Matrix: (Units=GPa)
#
#
# Indices 1 2 3 4 5 6 
#
# 1 137.3437 28.5481 15.2462 0.0000 0.0000 0.0000
# 2 28.5481 86.1029 20.3236 0.0000 0.0000 0.0000
# 3 15.2462 20.3236 81.9039 0.0000 0.0000 0.0000
# 4 0.0000 0.0000 0.0000 40.8808 0.0000 0.0000
# 5 0.0000 0.0000 0.0000 0.0000 17.2468 0.0000
# 6 0.0000 0.0000 0.0000 0.0000 0.0000 41.3197
#
#
#
# Elastic Compliance Matrix: (Units=1/GPa)
#
#
# Indices 1 2 3 4 5 6 
#
# 1 0.007878 -0.002407 -0.000869 0.000000 0.000000 0.000000
# 2 -0.002407 0.013072 -0.002796 0.000000 0.000000 0.000000
# 3 -0.000869 -0.002796 0.013065 0.000000 0.000000 0.000000
# 4 0.000000 0.000000 0.000000 0.024461 0.000000 0.000000
# 5 0.000000 0.000000 0.000000 0.000000 0.057982 0.000000
# 6 0.000000 0.000000 0.000000 0.000000 0.000000 0.024202
#
#
# Mechanical properties :
#
#
# Convention : Reuss Voigt Hill
#
# Bulk Modulus (GPa) = 45.72190 48.17624 46.94907
# Shear Modulus (GPa) = 31.23189 35.97165 33.60177
#
# Velocity S-wave (km/s) = 3.58710 3.84968 3.72071
# Velocity P-wave (km/s) = 5.99946 6.29352 6.14825
#
# Compressibility (1/GPa) = 0.02187136
#
# Stress axis : x y z
#
# Youngs Moduli (GPa) = 126.93970 76.50013 76.54068
#
# Poissons Ratio (x) = 0.18412 0.06653
# Poissons Ratio (y) = 0.30551 0.21398
# Poissons Ratio (z) = 0.11034 0.21387
#
# Static dielectric constant tensor:
#      x y z
#    x 2.237620 0.000000 0.000000 
#    y 0.000000 1.958300 0.000000 
#    z 0.000000 0.000000 2.036920 
# 
# From -- ./inp_files/15212.got.cif
#   From: 2010.05.17/outbox.cif.g08.bks.cpg/sg54_8_cif.got.tgz:15212.got - 2010.06.03 13:09:01.
