data_PCOD9421118
_publ_section_title
;
Structure prediction by ZEFSAII (Michael W. Deem and Ramdas Pophale) SiO2 
 PCOD9421118
Probable space group: P C C A
;
_chemical_formula_sum "Si O2"
_cell_formula_units_Z 52
_cell_length_a 13.738693
_cell_length_b 20.122658
_cell_length_c 8.328091
_cell_angle_alpha 90.000000
_cell_angle_beta 90.000000
_cell_angle_gamma 90.000000
_cell_volume 2302.375881
_symmetry_space_group_name_H-M "P C C A"
_symmetry_group_IT_number 54
_symmetry_cell_setting 'orthorhombic'
loop_
_space_group_symop_operation_xyz
x,y,z
1/2-x,-y,z
1/2+x,-y,1/2-z
-x,y,1/2-z
-x,-y,-z
1/2+x,y,-z
1/2-x,y,1/2+z
x,-y,1/2+z
loop_
_atom_site_type_symbol
_atom_site_label
_atom_site_fract_x
_atom_site_fract_y
_atom_site_fract_z
Si Si1 0.155764 0.207354 0.171296
Si Si2 0.290006 0.640559 0.230066
Si Si3 0.750000 0.000000 0.107013
Si Si4 0.044587 0.432498 0.072249
Si Si5 0.104590 0.656798 0.075436
Si Si6 0.829109 0.098931 0.853174
Si Si7 0.039781 0.801012 0.009962
O O1 0.190919 0.284011 0.166601
O O2 0.100490 0.196666 0.341305
O O3 0.073391 0.199404 0.035279
O O4 0.242777 0.154509 0.155645
O O5 0.344580 0.586577 0.116435
O O6 0.334080 0.642727 0.409646
O O7 0.174807 0.630391 0.214290
O O8 0.688771 0.949101 0.002834
O O9 0.819541 0.952034 0.208194
O O10 0.000000 0.425214 0.250000
O O11 0.997316 0.378415 0.955776
O O12 0.000000 0.500000 0.000000
O O13 0.077839 0.733574 0.090588
O O14 0.926929 0.138264 0.883026
#
# Coordination Sequence:
#
# PCOD9421118 Si02
#       7
#     8   8   4   8   8   8   8
#     4  10  19  35  62  90 114 150 197 243 292 339
#     4  10  20  36  60  89 118 151 197 244 289 343
#     4  10  24  38  58  86 124 152 190 230 298 358
#     4  10  22  40  60  84 124 163 193 236 294 351
#     4  10  20  36  60  89 118 151 197 244 289 343
#     4  11  20  40  60  84 117 160 186 240 291 350
#     4  10  19  35  62  90 114 150 197 243 292 339
#
# _framework density 22.585364999999999
#
# number of rings (size 3 to 8) (size 9 to 14) (size 15 to 20)
#    0.000    1.846    4.615    0.000    0.000    1.846 
#    0.000    8.462    0.000    0.000    0.000    0.000 
#    0.000    0.000    0.000    0.000    0.000    0.000 
#
# Total GULP energy -290471.173178 kJ/mol
# GULP energy per Si atom -5585.984100 kJ/mol
# Density = 2.253396 g / cm^3
# Si number density = 22.585365 Si / 1000 Ang^3
#
#
#
# Elastic Constant Matrix: (Units=GPa)
#
#
# Indices 1 2 3 4 5 6 
#
# 1 72.3168 -3.1536 23.4762 0.0000 0.0000 0.0000
# 2 -3.1536 81.6140 14.3010 0.0000 0.0000 0.0000
# 3 23.4762 14.3010 52.5585 0.0000 0.0000 0.0000
# 4 0.0000 0.0000 0.0000 22.2514 0.0000 0.0000
# 5 0.0000 0.0000 0.0000 0.0000 43.3995 0.0000
# 6 0.0000 0.0000 0.0000 0.0000 0.0000 20.3367
#
#
#
# Elastic Compliance Matrix: (Units=1/GPa)
#
#
# Indices 1 2 3 4 5 6 
#
# 1 0.016485 0.002024 -0.007914 0.000000 0.000000 0.000000
# 2 0.002024 0.013115 -0.004472 0.000000 0.000000 0.000000
# 3 -0.007914 -0.004472 0.023778 0.000000 0.000000 0.000000
# 4 0.000000 0.000000 0.000000 0.044941 0.000000 0.000000
# 5 0.000000 0.000000 0.000000 0.000000 0.023042 0.000000
# 6 0.000000 0.000000 0.000000 0.000000 0.000000 0.049172
#
#
# Mechanical properties :
#
#
# Convention : Reuss Voigt Hill
#
# Bulk Modulus (GPa) = 30.62518 30.63739 30.63129
# Shear Modulus (GPa) = 24.73489 28.65523 26.69506
#
# Velocity S-wave (km/s) = 3.31293 3.56582 3.44170
# Velocity P-wave (km/s) = 5.31255 5.52703 5.42085
#
# Compressibility (1/GPa) = 0.03265287
#
# Stress axis : x y z
#
# Youngs Moduli (GPa) = 60.65941 76.25034 42.05501
#
# Poissons Ratio (x) = -0.15432 0.33283
# Poissons Ratio (y) = -0.12276 0.18809
# Poissons Ratio (z) = 0.48007 0.34102
#
# Static dielectric constant tensor:
#      x y z
#    x 1.816790 0.000000 0.000000 
#    y 0.000000 1.795900 0.000000 
#    z 0.000000 0.000000 1.894880 
# 
# From -- ./inp_files/3654.got.cif
#   From: 2010.05.17/outbox.cif.g08.bks.cpg/sg54_2_cif.got.tgz:3654.got - 2010.06.03 13:09:01.
