data_PCOD9421389
_publ_section_title
;
Structure prediction by ZEFSAII (Michael W. Deem and Ramdas Pophale) SiO2 
 PCOD9421389
Probable space group: P C C A
;
_chemical_formula_sum "Si O2"
_cell_formula_units_Z 60
_cell_length_a 9.212040
_cell_length_b 16.284951
_cell_length_c 19.746356
_cell_angle_alpha 90.000000
_cell_angle_beta 90.000000
_cell_angle_gamma 90.000000
_cell_volume 2962.301331
_symmetry_space_group_name_H-M "P C C A"
_symmetry_group_IT_number 54
_symmetry_cell_setting 'orthorhombic'
loop_
_space_group_symop_operation_xyz
x,y,z
1/2-x,-y,z
1/2+x,-y,1/2-z
-x,y,1/2-z
-x,-y,-z
1/2+x,y,-z
1/2-x,y,1/2+z
x,-y,1/2+z
loop_
_atom_site_type_symbol
_atom_site_label
_atom_site_fract_x
_atom_site_fract_y
_atom_site_fract_z
Si Si1 0.589918 0.250182 0.567173
Si Si2 0.897304 0.220789 0.310334
Si Si3 0.171669 0.664885 0.500367
Si Si4 0.522199 0.503940 0.330180
Si Si5 0.269830 0.637259 0.646580
Si Si6 0.020152 0.902404 0.495035
Si Si7 0.771526 0.903659 0.406322
Si Si8 0.250000 0.500000 0.425788
O O1 0.517177 0.261066 0.639605
O O2 0.489443 0.305435 0.517270
O O3 0.752484 0.278576 0.555833
O O4 0.563237 0.155925 0.547950
O O5 0.780202 0.293909 0.299483
O O6 0.806726 0.150886 0.349620
O O7 0.000000 0.190812 0.250000
O O8 0.255889 0.676036 0.571867
O O9 0.193089 0.573072 0.473619
O O10 0.500000 0.513693 0.250000
O O11 0.580875 0.411226 0.342619
O O12 0.646965 0.567038 0.351399
O O13 0.382435 0.522485 0.375919
O O14 0.183056 0.889522 0.522838
O O15 0.939341 0.882555 0.423903
O O16 0.000000 0.000000 0.500000
O O17 0.750000 0.000000 0.389965
#
# Coordination Sequence:
#
# PCOD9421389 Si02
#       8
#     8   8   8   8   8   8   8   4
#     4  10  20  34  53  81 108 135 175 225 272 321
#     4  10  20  35  58  80 108 151 191 222 269 337
#     4  11  22  35  53  78 107 135 175 227 277 324
#     4  11  23  37  54  76 105 139 179 220 263 324
#     4  10  21  37  55  76 104 137 176 227 272 316
#     4   9  16  30  54  85 113 141 178 226 287 340
#     4   9  18  32  56  86 115 145 182 230 281 337
#     4  12  22  34  54  78 104 142 178 216 276 336
#
# _framework density 20.254522999999999
#
# number of rings (size 3 to 8) (size 9 to 14) (size 15 to 20)
#    0.000    1.867    0.000    6.800    0.000    2.667 
#    0.000    0.000    0.000   18.400    0.000    0.000 
#    0.000    0.000    0.000    0.000    0.000    0.000 
#
# Total GULP energy -334240.666900 kJ/mol
# GULP energy per Si atom -5570.677782 kJ/mol
# Density = 2.020842 g / cm^3
# Si number density = 20.254523 Si / 1000 Ang^3
#
#
#
# Elastic Constant Matrix: (Units=GPa)
#
#
# Indices 1 2 3 4 5 6 
#
# 1 67.6608 18.9207 27.5221 0.0000 0.0000 0.0000
# 2 18.9207 77.2931 10.7391 0.0000 0.0000 0.0000
# 3 27.5221 10.7391 59.8816 0.0000 0.0000 0.0000
# 4 0.0000 0.0000 0.0000 10.7522 0.0000 0.0000
# 5 0.0000 0.0000 0.0000 0.0000 24.7652 0.0000
# 6 0.0000 0.0000 0.0000 0.0000 0.0000 22.8895
#
#
#
# Elastic Compliance Matrix: (Units=1/GPa)
#
#
# Indices 1 2 3 4 5 6 
#
# 1 0.019078 -0.003540 -0.008134 0.000000 0.000000 0.000000
# 2 -0.003540 0.013925 -0.000870 0.000000 0.000000 0.000000
# 3 -0.008134 -0.000870 0.020594 0.000000 0.000000 0.000000
# 4 0.000000 0.000000 0.000000 0.093004 0.000000 0.000000
# 5 0.000000 0.000000 0.000000 0.000000 0.040379 0.000000
# 6 0.000000 0.000000 0.000000 0.000000 0.000000 0.043688
#
#
# Mechanical properties :
#
#
# Convention : Reuss Voigt Hill
#
# Bulk Modulus (GPa) = 35.07615 35.46660 35.27137
# Shear Modulus (GPa) = 18.84946 21.52496 20.18721
#
# Velocity S-wave (km/s) = 3.05393 3.26348 3.16044
# Velocity P-wave (km/s) = 5.45808 5.63461 5.54705
#
# Compressibility (1/GPa) = 0.02850940
#
# Stress axis : x y z
#
# Youngs Moduli (GPa) = 52.41646 71.81195 48.55801
#
# Poissons Ratio (x) = 0.25422 0.39495
# Poissons Ratio (y) = 0.18556 0.04226
# Poissons Ratio (z) = 0.42633 0.06250
#
# Static dielectric constant tensor:
#      x y z
#    x 1.765680 0.000000 0.000000 
#    y 0.000000 1.782350 0.000000 
#    z 0.000000 0.000000 1.730620 
# 
# From -- ./inp_files/16826.got.cif
#   From: 2010.05.17/outbox.cif.g08.bks.cpg/sg54_9_cif.got.tgz:16826.got - 2010.06.03 13:09:01.
