data_PCOD9421077
_publ_section_title
;
Structure prediction by ZEFSAII (Michael W. Deem and Ramdas Pophale) SiO2 
 PCOD9421077
Probable space group: P C C A
;
_chemical_formula_sum "Si O2"
_cell_formula_units_Z 32
_cell_length_a 13.431210
_cell_length_b 10.598724
_cell_length_c 8.909617
_cell_angle_alpha 90.000000
_cell_angle_beta 90.000000
_cell_angle_gamma 90.000000
_cell_volume 1268.316837
_symmetry_space_group_name_H-M "P C C A"
_symmetry_group_IT_number 54
_symmetry_cell_setting 'orthorhombic'
loop_
_space_group_symop_operation_xyz
x,y,z
1/2-x,-y,z
1/2+x,-y,1/2-z
-x,y,1/2-z
-x,-y,-z
1/2+x,y,-z
1/2-x,y,1/2+z
x,-y,1/2+z
loop_
_atom_site_type_symbol
_atom_site_label
_atom_site_fract_x
_atom_site_fract_y
_atom_site_fract_z
Si Si1 0.144759 0.371470 0.701900
Si Si2 0.620576 0.108009 0.981747
Si Si3 0.500000 0.855396 0.750000
Si Si4 0.250000 0.000000 0.281043
Si Si5 0.638966 0.617175 0.447529
O O1 0.253391 0.361690 0.629277
O O2 0.093437 0.491498 0.623002
O O3 0.083905 0.242354 0.690139
O O4 0.153670 0.402698 0.876470
O O5 0.539917 0.068233 0.107673
O O6 0.716064 0.107540 0.099530
O O7 0.586900 0.247669 0.933134
O O8 0.662409 0.039683 0.834193
#
# Coordination Sequence:
#
# PCOD9421077 Si02
#       5
#     8   8   4   4   8
#     4  10  20  34  58  87 116 148 185 225 280 353
#     4  10  21  38  59  82 112 149 192 240 279 325
#     4  10  22  36  58  90 122 140 178 244 292 324
#     4  10  22  40  62  80 106 156 206 228 272 340
#     4  10  19  35  57  81 114 151 185 220 277 349
#
# _framework density 25.23029
#
# number of rings (size 3 to 8) (size 9 to 14) (size 15 to 20)
#    0.000    2.000    0.000    6.000    0.000    5.000 
#    0.000    0.000    0.000   37.500    0.000    0.000 
#    0.000    0.000    0.000    0.000    0.000    0.000 
#
# Total GULP energy -178655.153355 kJ/mol
# GULP energy per Si atom -5582.973542 kJ/mol
# Density = 2.517286 g / cm^3
# Si number density = 25.230290 Si / 1000 Ang^3
#
#
#
# Elastic Constant Matrix: (Units=GPa)
#
#
# Indices 1 2 3 4 5 6 
#
# 1 45.0039 -9.8647 25.2202 0.0000 0.0000 0.0000
# 2 -9.8647 80.2874 64.7767 0.0000 0.0000 0.0000
# 3 25.2202 64.7767 186.1754 0.0000 0.0000 0.0000
# 4 0.0000 0.0000 0.0000 41.8112 0.0000 0.0000
# 5 0.0000 0.0000 0.0000 0.0000 22.9031 0.0000
# 6 0.0000 0.0000 0.0000 0.0000 0.0000 13.7079
#
#
#
# Elastic Compliance Matrix: (Units=1/GPa)
#
#
# Indices 1 2 3 4 5 6 
#
# 1 0.028113 0.009074 -0.006965 0.000000 0.000000 0.000000
# 2 0.009074 0.020245 -0.008273 0.000000 0.000000 0.000000
# 3 -0.006965 -0.008273 0.009193 0.000000 0.000000 0.000000
# 4 0.000000 0.000000 0.000000 0.023917 0.000000 0.000000
# 5 0.000000 0.000000 0.000000 0.000000 0.043662 0.000000
# 6 0.000000 0.000000 0.000000 0.000000 0.000000 0.072951
#
#
# Mechanical properties :
#
#
# Convention : Reuss Voigt Hill
#
# Bulk Modulus (GPa) = 22.11328 52.41456 37.26392
# Shear Modulus (GPa) = 22.17453 31.10674 26.64063
#
# Velocity S-wave (km/s) = 2.96782 3.51509 3.25298
# Velocity P-wave (km/s) = 4.53073 6.10689 5.37688
#
# Compressibility (1/GPa) = 0.04522170
#
# Stress axis : x y z
#
# Youngs Moduli (GPa) = 35.57117 49.39511 108.77469
#
# Poissons Ratio (x) = -0.44820 0.75766
# Poissons Ratio (y) = -0.32277 0.89990
# Poissons Ratio (z) = 0.24777 0.40865
#
# Static dielectric constant tensor:
#      x y z
#    x 2.151150 0.000000 0.000000 
#    y 0.000000 2.059230 0.000000 
#    z 0.000000 0.000000 1.911900 
# 
# From -- ./inp_files/3271.got.cif
#   From: 2010.05.17/outbox.cif.g08.bks.cpg/sg54_2_cif.got.tgz:3271.got - 2010.06.03 13:09:01.
