data_PCOD9421982
_publ_section_title
;
Structure prediction by ZEFSAII (Michael W. Deem and Ramdas Pophale) SiO2 
 PCOD9421982
Probable space group: P C C A
;
_chemical_formula_sum "Si O2"
_cell_formula_units_Z 60
_cell_length_a 28.380355
_cell_length_b 10.661290
_cell_length_c 9.727414
_cell_angle_alpha 90.000000
_cell_angle_beta 90.000000
_cell_angle_gamma 90.000000
_cell_volume 2943.235278
_symmetry_space_group_name_H-M "P C C A"
_symmetry_group_IT_number 54
_symmetry_cell_setting 'orthorhombic'
loop_
_space_group_symop_operation_xyz
x,y,z
1/2-x,-y,z
1/2+x,-y,1/2-z
-x,y,1/2-z
-x,-y,-z
1/2+x,y,-z
1/2-x,y,1/2+z
x,-y,1/2+z
loop_
_atom_site_type_symbol
_atom_site_label
_atom_site_fract_x
_atom_site_fract_y
_atom_site_fract_z
Si Si1 0.901021 0.671348 0.569195
Si Si2 0.627515 0.187257 0.844564
Si Si3 0.466268 0.982429 0.131938
Si Si4 0.250000 0.000000 0.517293
Si Si5 0.813081 0.043195 0.744217
Si Si6 0.900058 0.371313 0.544874
Si Si7 0.996241 0.622102 0.908905
Si Si8 0.098489 0.795264 0.203889
O O1 0.883958 0.727114 0.711855
O O2 0.893475 0.521343 0.551361
O O3 0.957176 0.699095 0.559473
O O4 0.881560 0.746183 0.440273
O O5 0.582444 0.096856 0.883443
O O6 0.669007 0.094166 0.794963
O O7 0.638424 0.285100 0.967873
O O8 0.500000 0.925171 0.250000
O O9 0.446795 0.116697 0.184212
O O10 0.500000 0.000000 0.000000
O O11 0.221183 0.084293 0.629346
O O12 0.287969 0.047148 0.403934
O O13 0.860503 0.121690 0.731749
O O14 0.910548 0.321706 0.696995
O O15 0.945316 0.333230 0.452385
O O16 0.000000 0.590137 0.750000
O O17 0.000000 0.500000 0.000000
#
# Coordination Sequence:
#
# PCOD9421982 Si02
#       8
#     8   8   8   4   8   8   8   8
#     4  11  23  36  56  81 117 166 210 252 294 328
#     4  11  22  39  59  83 125 151 197 259 289 361
#     4  11  24  37  54  78 111 164 203 238 307 349
#     4  10  20  40  72  94 120 140 186 240 316 390
#     4  10  22  41  65 100 117 147 186 246 315 367
#     4  11  23  37  56  82 117 167 213 251 295 333
#     4  10  22  35  51  75 112 163 230 264 279 317
#     4  11  24  38  58  87 124 150 202 257 289 369
#
# _framework density 20.385729999999999
#
# number of rings (size 3 to 8) (size 9 to 14) (size 15 to 20)
#    0.000    1.333    1.333    4.000   11.200    4.267 
#    0.000    0.000    0.000    0.000    0.000   65.333 
#    0.000    0.000    0.000    0.000    0.000    0.000 
#
# Total GULP energy -334513.269695 kJ/mol
# GULP energy per Si atom -5575.221162 kJ/mol
# Density = 2.033933 g / cm^3
# Si number density = 20.385730 Si / 1000 Ang^3
#
#
#
# Elastic Constant Matrix: (Units=GPa)
#
#
# Indices 1 2 3 4 5 6 
#
# 1 65.0597 8.1061 11.2050 0.0000 0.0000 0.0000
# 2 8.1061 73.8175 -2.5506 0.0000 0.0000 0.0000
# 3 11.2050 -2.5506 99.5791 0.0000 0.0000 0.0000
# 4 0.0000 0.0000 0.0000 13.7057 0.0000 0.0000
# 5 0.0000 0.0000 0.0000 0.0000 31.2334 0.0000
# 6 0.0000 0.0000 0.0000 0.0000 0.0000 28.4514
#
#
#
# Elastic Compliance Matrix: (Units=1/GPa)
#
#
# Indices 1 2 3 4 5 6 
#
# 1 0.015912 -0.001811 -0.001837 0.000000 0.000000 0.000000
# 2 -0.001811 0.013765 0.000556 0.000000 0.000000 0.000000
# 3 -0.001837 0.000556 0.010263 0.000000 0.000000 0.000000
# 4 0.000000 0.000000 0.000000 0.072962 0.000000 0.000000
# 5 0.000000 0.000000 0.000000 0.000000 0.032017 0.000000
# 6 0.000000 0.000000 0.000000 0.000000 0.000000 0.035148
#
#
# Mechanical properties :
#
#
# Convention : Reuss Voigt Hill
#
# Bulk Modulus (GPa) = 29.62276 30.21970 29.92123
# Shear Modulus (GPa) = 25.31606 29.45782 27.38694
#
# Velocity S-wave (km/s) = 3.52781 3.80547 3.66927
# Velocity P-wave (km/s) = 5.58181 5.84508 5.71496
#
# Compressibility (1/GPa) = 0.03375782
#
# Stress axis : x y z
#
# Youngs Moduli (GPa) = 62.84369 72.64803 97.43538
#
# Poissons Ratio (x) = 0.13156 0.17898
# Poissons Ratio (y) = 0.11380 -0.05421
# Poissons Ratio (z) = 0.11544 -0.04042
#
# Static dielectric constant tensor:
#      x y z
#    x 1.857970 0.000000 0.000000 
#    y 0.000000 1.755690 0.000000 
#    z 0.000000 0.000000 1.802060 
# 
# From -- ./inp_files/5946.got.cif
#   From: 2010.05.17/outbox.cif.g08.bks.cpg/sg54_3_cif.got.tgz:5946.got - 2010.06.03 13:09:01.
