data_PCOD9421330
_publ_section_title
;
Structure prediction by ZEFSAII (Michael W. Deem and Ramdas Pophale) SiO2 
 PCOD9421330
Probable space group: P C C A
;
_chemical_formula_sum "Si O2"
_cell_formula_units_Z 56
_cell_length_a 4.977509
_cell_length_b 16.615789
_cell_length_c 34.425778
_cell_angle_alpha 90.000000
_cell_angle_beta 90.000000
_cell_angle_gamma 90.000000
_cell_volume 2847.192207
_symmetry_space_group_name_H-M "P C C A"
_symmetry_group_IT_number 54
_symmetry_cell_setting 'orthorhombic'
loop_
_space_group_symop_operation_xyz
x,y,z
1/2-x,-y,z
1/2+x,-y,1/2-z
-x,y,1/2-z
-x,-y,-z
1/2+x,y,-z
1/2-x,y,1/2+z
x,-y,1/2+z
loop_
_atom_site_type_symbol
_atom_site_label
_atom_site_fract_x
_atom_site_fract_y
_atom_site_fract_z
Si Si1 0.768729 0.735707 0.723835
Si Si2 0.202585 0.704401 0.864415
Si Si3 0.216220 0.783896 0.097574
Si Si4 0.910460 0.685522 0.974300
Si Si5 0.664532 0.092762 0.210247
Si Si6 0.496909 0.941484 0.627449
Si Si7 0.992484 0.554339 0.912912
O O1 0.500000 0.735084 0.750000
O O2 0.740578 0.698165 0.681302
O O3 0.850641 0.829288 0.714756
O O4 0.000000 0.698063 0.750000
O O5 0.474916 0.727662 0.886923
O O6 0.973252 0.771743 0.873943
O O7 0.084856 0.622819 0.882695
O O8 0.324350 0.753820 0.056231
O O9 0.091611 0.873086 0.097320
O O10 0.886328 0.602229 0.950688
O O11 0.714230 0.690781 0.010932
O O12 0.500000 0.093430 0.250000
O O13 0.530758 0.105690 0.168330
O O14 0.750000 0.000000 0.207206
O O15 0.250000 0.000000 0.633570
O O16 0.750000 0.000000 0.618768
O O17 0.750000 0.500000 0.897608
O O18 0.250000 0.500000 0.922288
#
# Coordination Sequence:
#
# PCOD9421330 Si02
#       7
#     8   8   8   8   8   8   8
#     4  11  23  36  57  85 119 163 212 259 302 345
#     4  11  22  40  63  87 121 165 210 251 297 366
#     4  11  22  40  63  86 121 165 211 251 298 366
#     4  11  23  40  64  96 127 159 190 236 305 376
#     4  10  20  32  50  80 121 159 192 247 307 360
#     4  11  23  36  57  84 117 163 211 259 305 345
#     4  11  23  40  64  97 128 159 190 236 304 376
#
# _framework density 19.668500999999999
#
# number of rings (size 3 to 8) (size 9 to 14) (size 15 to 20)
#    0.000    1.143    1.429    6.857    4.000    1.714 
#    0.000    0.000    0.000    4.286    0.000    0.000 
#    0.000    0.000    0.000    0.000    0.000    0.000 
#
# Total GULP energy -312511.308609 kJ/mol
# GULP energy per Si atom -5580.559082 kJ/mol
# Density = 1.962373 g / cm^3
# Si number density = 19.668501 Si / 1000 Ang^3
#
#
#
# Elastic Constant Matrix: (Units=GPa)
#
#
# Indices 1 2 3 4 5 6 
#
# 1 92.8973 10.0427 17.1866 0.0000 0.0000 0.0000
# 2 10.0427 58.3019 31.5891 0.0000 0.0000 0.0000
# 3 17.1866 31.5891 84.8989 0.0000 0.0000 0.0000
# 4 0.0000 0.0000 0.0000 38.2040 0.0000 0.0000
# 5 0.0000 0.0000 0.0000 0.0000 35.0969 0.0000
# 6 0.0000 0.0000 0.0000 0.0000 0.0000 16.2740
#
#
#
# Elastic Compliance Matrix: (Units=1/GPa)
#
#
# Indices 1 2 3 4 5 6 
#
# 1 0.011219 -0.000879 -0.001944 0.000000 0.000000 0.000000
# 2 -0.000879 0.021552 -0.007841 0.000000 0.000000 0.000000
# 3 -0.001944 -0.007841 0.015090 0.000000 0.000000 0.000000
# 4 0.000000 0.000000 0.000000 0.026175 0.000000 0.000000
# 5 0.000000 0.000000 0.000000 0.000000 0.028493 0.000000
# 6 0.000000 0.000000 0.000000 0.000000 0.000000 0.061448
#
#
# Mechanical properties :
#
#
# Convention : Reuss Voigt Hill
#
# Bulk Modulus (GPa) = 37.68984 39.30388 38.49686
# Shear Modulus (GPa) = 25.75339 29.73364 27.74352
#
# Velocity S-wave (km/s) = 3.62245 3.89233 3.75981
# Velocity P-wave (km/s) = 6.05808 6.34246 6.20190
#
# Compressibility (1/GPa) = 0.02653235
#
# Stress axis : x y z
#
# Youngs Moduli (GPa) = 89.13224 46.39951 66.27024
#
# Poissons Ratio (x) = 0.04080 0.12883
# Poissons Ratio (y) = 0.07837 0.51963
# Poissons Ratio (z) = 0.17328 0.36382
#
# Static dielectric constant tensor:
#      x y z
#    x 1.736360 0.000000 0.000000 
#    y 0.000000 1.700130 0.000000 
#    z 0.000000 0.000000 1.717170 
# 
# From -- ./inp_files/27204.got.cif
#   From: 2010.05.17/outbox.cif.g08.bks.cpg/sg54_14_cif.got.tgz:27204.got - 2010.06.03 13:09:01.
