data_PCOD9421436
_publ_section_title
;
Structure prediction by ZEFSAII (Michael W. Deem and Ramdas Pophale) SiO2 
 PCOD9421436
Probable space group: P C C A
;
_chemical_formula_sum "Si O2"
_cell_formula_units_Z 48
_cell_length_a 23.291833
_cell_length_b 6.240705
_cell_length_c 15.322272
_cell_angle_alpha 90.000000
_cell_angle_beta 90.000000
_cell_angle_gamma 90.000000
_cell_volume 2227.206519
_symmetry_space_group_name_H-M "P C C A"
_symmetry_group_IT_number 54
_symmetry_cell_setting 'orthorhombic'
loop_
_space_group_symop_operation_xyz
x,y,z
1/2-x,-y,z
1/2+x,-y,1/2-z
-x,y,1/2-z
-x,-y,-z
1/2+x,y,-z
1/2-x,y,1/2+z
x,-y,1/2+z
loop_
_atom_site_type_symbol
_atom_site_label
_atom_site_fract_x
_atom_site_fract_y
_atom_site_fract_z
Si Si1 0.000000 0.935004 0.250000
Si Si2 0.647305 0.211083 0.497060
Si Si3 0.169936 0.166655 0.138511
Si Si4 0.430902 0.422451 0.557959
Si Si5 0.888803 0.199698 0.193672
Si Si6 0.750000 0.500000 0.950484
Si Si7 0.543279 0.581506 0.627561
O O1 0.006470 0.765964 0.328382
O O2 0.056655 0.074636 0.265742
O O3 0.593691 0.338554 0.455095
O O4 0.628424 0.140219 0.594008
O O5 0.699183 0.384805 0.504189
O O6 0.666910 0.033638 0.427207
O O7 0.112208 0.299065 0.118433
O O8 0.163943 0.140746 0.242271
O O9 0.221647 0.317902 0.109469
O O10 0.495113 0.414133 0.593815
O O11 0.428360 0.329807 0.460220
O O12 0.910865 0.448625 0.184609
#
# Coordination Sequence:
#
# PCOD9421436 Si02
#       7
#     4   8   8   8   8   4   8
#     4  12  20  32  54  88 126 160 190 230 280 344
#     4  10  22  42  62  88 120 156 204 253 302 359
#     4  11  21  40  62  87 117 150 197 249 301 355
#     4   9  19  35  58  82 118 165 197 237 288 337
#     4  11  24  37  61  93 123 160 199 240 294 358
#     4  10  24  44  66  82 110 154 198 260 318 356
#     4  10  20  35  53  85 126 161 199 234 277 346
#
# _framework density 21.551662
#
# number of rings (size 3 to 8) (size 9 to 14) (size 15 to 20)
#    0.000    1.667    0.000    5.000    0.000    2.000 
#    0.000   10.000    0.000    0.000    0.000    0.000 
#    0.000    0.000    0.000    0.000    0.000    0.000 
#
# Total GULP energy -267648.496819 kJ/mol
# GULP energy per Si atom -5576.010350 kJ/mol
# Density = 2.150261 g / cm^3
# Si number density = 21.551662 Si / 1000 Ang^3
#
#
#
# Elastic Constant Matrix: (Units=GPa)
#
#
# Indices 1 2 3 4 5 6 
#
# 1 81.0397 19.1717 27.4057 0.0000 0.0000 0.0000
# 2 19.1717 61.4305 52.7959 0.0000 0.0000 0.0000
# 3 27.4057 52.7959 107.1909 0.0000 0.0000 0.0000
# 4 0.0000 0.0000 0.0000 72.0496 0.0000 0.0000
# 5 0.0000 0.0000 0.0000 0.0000 -5.5292 0.0000
# 6 0.0000 0.0000 0.0000 0.0000 0.0000 8.2217
#
#
#
# Elastic Compliance Matrix: (Units=1/GPa)
#
#
# Indices 1 2 3 4 5 6 
#
# 1 0.013675 -0.002190 -0.002418 0.000000 0.000000 0.000000
# 2 -0.002190 0.028578 -0.013516 0.000000 0.000000 0.000000
# 3 -0.002418 -0.013516 0.016605 0.000000 0.000000 0.000000
# 4 0.000000 0.000000 0.000000 0.013879 0.000000 0.000000
# 5 0.000000 0.000000 0.000000 0.000000 -0.180859 0.000000
# 6 0.000000 0.000000 0.000000 0.000000 0.000000 0.121630
#
#
# Mechanical properties :
#
#
# Convention : Reuss Voigt Hill
#
# Bulk Modulus (GPa) = 44.22711 49.82305 47.02508
# Shear Modulus (GPa) = 87.27130 24.96760 56.11945
#
# Velocity S-wave (km/s) = 6.37039 3.40737 5.10843
# Velocity P-wave (km/s) = 8.64148 6.21678 7.52740
#
# Compressibility (1/GPa) = 0.02261057
#
# Stress axis : x y z
#
# Youngs Moduli (GPa) = 73.12431 34.99155 60.22456
#
# Poissons Ratio (x) = 0.07663 0.14561
# Poissons Ratio (y) = 0.16014 0.81400
# Poissons Ratio (z) = 0.17679 0.47295
#
# Static dielectric constant tensor:
#      x y z
#    x 2.110470 0.000000 0.000000 
#    y 0.000000 1.836660 0.000000 
#    z 0.000000 0.000000 1.889460 
# 
# From -- ./inp_files/15181.got.cif
#   From: 2010.05.17/outbox.cif.g08.bks.cpg/sg54_8_cif.got.tgz:15181.got - 2010.06.03 13:09:01.
