data_PCOD9421845
_publ_section_title
;
Structure prediction by ZEFSAII (Michael W. Deem and Ramdas Pophale) SiO2 
 PCOD9421845
Probable space group: P C C A
;
_chemical_formula_sum "Si O2"
_cell_formula_units_Z 28
_cell_length_a 5.677477
_cell_length_b 7.416224
_cell_length_c 27.854480
_cell_angle_alpha 90.000000
_cell_angle_beta 90.000000
_cell_angle_gamma 90.000000
_cell_volume 1172.825169
_symmetry_space_group_name_H-M "P C C A"
_symmetry_group_IT_number 54
_symmetry_cell_setting 'orthorhombic'
loop_
_space_group_symop_operation_xyz
x,y,z
1/2-x,-y,z
1/2+x,-y,1/2-z
-x,y,1/2-z
-x,-y,-z
1/2+x,y,-z
1/2-x,y,1/2+z
x,-y,1/2+z
loop_
_atom_site_type_symbol
_atom_site_label
_atom_site_fract_x
_atom_site_fract_y
_atom_site_fract_z
Si Si1 0.250000 0.500000 0.332647
Si Si2 0.750000 0.000000 0.797851
Si Si3 0.554061 0.795376 0.982768
Si Si4 0.000000 0.311802 0.250000
Si Si5 0.065943 0.145290 0.881453
O O1 0.450234 0.567079 0.295953
O O2 0.319699 0.329785 0.363942
O O3 0.543724 0.950457 0.834855
O O4 0.796086 0.827739 0.764719
O O5 0.602888 0.805174 0.925623
O O6 0.790530 0.714818 0.007227
O O7 0.500000 0.000000 0.000000
O O8 0.250000 0.000000 0.901237
#
# Coordination Sequence:
#
# PCOD9421845 Si02
#       5
#     4   4   8   4   8
#     4  12  26  44  64 106 134 184 226 306 342 428
#     4  12  24  44  74  98 130 202 224 296 348 432
#     4  10  20  38  70 101 136 185 231 289 352 428
#     4  12  24  44  68  98 142 174 248 282 360 412
#     4  12  24  44  70 101 139 180 236 283 359 419
#
# _framework density 23.873975000000002
#
# number of rings (size 3 to 8) (size 9 to 14) (size 15 to 20)
#    0.000    0.571    5.714    5.143    0.000    0.000 
#    0.000    1.429    0.000    0.000    0.000    0.000 
#    0.000    0.000    0.000    0.000    0.000    0.000 
#
# Total GULP energy -156515.024374 kJ/mol
# GULP energy per Si atom -5589.822299 kJ/mol
# Density = 2.381964 g / cm^3
# Si number density = 23.873975 Si / 1000 Ang^3
#
#
#
# Elastic Constant Matrix: (Units=GPa)
#
#
# Indices 1 2 3 4 5 6 
#
# 1 99.5727 13.1046 7.8357 0.0000 0.0000 0.0000
# 2 13.1046 124.2499 20.1138 0.0000 0.0000 0.0000
# 3 7.8357 20.1138 110.8363 0.0000 0.0000 0.0000
# 4 0.0000 0.0000 0.0000 -56.2427 0.0000 0.0000
# 5 0.0000 0.0000 0.0000 0.0000 81.1665 0.0000
# 6 0.0000 0.0000 0.0000 0.0000 0.0000 26.7452
#
#
#
# Elastic Compliance Matrix: (Units=1/GPa)
#
#
# Indices 1 2 3 4 5 6 
#
# 1 0.010216 -0.000990 -0.000543 0.000000 0.000000 0.000000
# 2 -0.000990 0.008388 -0.001452 0.000000 0.000000 0.000000
# 3 -0.000543 -0.001452 0.009324 0.000000 0.000000 0.000000
# 4 0.000000 0.000000 0.000000 -0.017780 0.000000 0.000000
# 5 0.000000 0.000000 0.000000 0.000000 0.012320 0.000000
# 6 0.000000 0.000000 0.000000 0.000000 0.000000 0.037390
#
#
# Mechanical properties :
#
#
# Convention : Reuss Voigt Hill
#
# Bulk Modulus (GPa) = 45.53956 46.30747 45.92352
# Shear Modulus (GPa) = 68.35593 29.90744 49.13169
#
# Velocity S-wave (km/s) = 5.35669 3.54322 4.54140
# Velocity P-wave (km/s) = 7.57465 6.01481 6.83934
#
# Compressibility (1/GPa) = 0.02195893
#
# Stress axis : x y z
#
# Youngs Moduli (GPa) = 97.88704 119.22139 107.24769
#
# Poissons Ratio (x) = 0.11798 0.05820
# Poissons Ratio (y) = 0.09687 0.15574
# Poissons Ratio (z) = 0.05312 0.17313
#
# Static dielectric constant tensor:
#      x y z
#    x 2.055700 0.000000 0.000000 
#    y 0.000000 1.876270 0.000000 
#    z 0.000000 0.000000 1.858510 
# 
# From -- ./inp_files/25074.got.cif
#   From: 2010.05.17/outbox.cif.g08.bks.cpg/sg54_13_cif.got.tgz:25074.got - 2010.06.03 13:09:01.
