data_PCOD9421858
_publ_section_title
;
Structure prediction by ZEFSAII (Michael W. Deem and Ramdas Pophale) SiO2 
 PCOD9421858
Probable space group: P C C A
;
_chemical_formula_sum "Si O2"
_cell_formula_units_Z 52
_cell_length_a 23.449751
_cell_length_b 12.526544
_cell_length_c 9.460521
_cell_angle_alpha 90.000000
_cell_angle_beta 90.000000
_cell_angle_gamma 90.000000
_cell_volume 2778.974475
_symmetry_space_group_name_H-M "P C C A"
_symmetry_group_IT_number 54
_symmetry_cell_setting 'orthorhombic'
loop_
_space_group_symop_operation_xyz
x,y,z
1/2-x,-y,z
1/2+x,-y,1/2-z
-x,y,1/2-z
-x,-y,-z
1/2+x,y,-z
1/2-x,y,1/2+z
x,-y,1/2+z
loop_
_atom_site_type_symbol
_atom_site_label
_atom_site_fract_x
_atom_site_fract_y
_atom_site_fract_z
Si Si1 0.418021 0.653987 0.263899
Si Si2 0.778679 0.883664 0.415601
Si Si3 0.185086 0.791944 0.790081
Si Si4 0.000000 0.458093 0.750000
Si Si5 0.955019 0.068883 0.586665
Si Si6 0.495608 0.292359 0.502172
Si Si7 0.383912 0.987129 0.170193
O O1 0.351595 0.683563 0.273246
O O2 0.444686 0.534656 0.272003
O O3 0.449733 0.715008 0.393884
O O4 0.444092 0.690723 0.113795
O O5 0.792563 0.815932 0.553808
O O6 0.736913 0.815494 0.316591
O O7 0.750000 0.000000 0.450777
O O8 0.837046 0.919756 0.339887
O O9 0.140827 0.886545 0.753631
O O10 0.004883 0.386715 0.609745
O O11 0.979065 0.187472 0.582487
O O12 0.899444 0.053963 0.485963
O O13 0.937069 0.029198 0.739970
O O14 0.000000 0.000000 0.500000
#
# Coordination Sequence:
#
# PCOD9421858 Si02
#       7
#     8   8   8   4   8   8   8
#     4  10  20  39  61  81 119 155 202 257 308 349
#     4  10  22  36  56  82 120 159 214 251 301 373
#     4  11  21  37  58  83 115 159 205 258 302 351
#     4  10  22  40  62  96 118 154 208 252 300 380
#     4  12  24  34  55  90 136 164 191 232 297 382
#     4  10  22  37  59  90 124 160 195 233 304 385
#     4  11  22  37  53  83 128 169 195 240 301 364
#
# _framework density 18.711939000000001
#
# number of rings (size 3 to 8) (size 9 to 14) (size 15 to 20)
#    0.000    1.538    3.077    4.615    6.462    0.000 
#    0.000    0.000    0.000    0.000    0.000   22.615 
#    0.000    0.000    0.000    0.000    0.000    0.000 
#
# Total GULP energy -290114.053547 kJ/mol
# GULP energy per Si atom -5579.116414 kJ/mol
# Density = 1.866935 g / cm^3
# Si number density = 18.711939 Si / 1000 Ang^3
#
#
#
# Elastic Constant Matrix: (Units=GPa)
#
#
# Indices 1 2 3 4 5 6 
#
# 1 95.6988 37.9163 39.3905 0.0000 0.0000 0.0000
# 2 37.9163 69.8146 36.4046 0.0000 0.0000 0.0000
# 3 39.3905 36.4046 113.2756 0.0000 0.0000 0.0000
# 4 0.0000 0.0000 0.0000 28.6883 0.0000 0.0000
# 5 0.0000 0.0000 0.0000 0.0000 32.4048 0.0000
# 6 0.0000 0.0000 0.0000 0.0000 0.0000 14.5186
#
#
#
# Elastic Compliance Matrix: (Units=1/GPa)
#
#
# Indices 1 2 3 4 5 6 
#
# 1 0.014080 -0.006119 -0.002930 0.000000 0.000000 0.000000
# 2 -0.006119 0.019867 -0.004257 0.000000 0.000000 0.000000
# 3 -0.002930 -0.004257 0.011215 0.000000 0.000000 0.000000
# 4 0.000000 0.000000 0.000000 0.034857 0.000000 0.000000
# 5 0.000000 0.000000 0.000000 0.000000 0.030860 0.000000
# 6 0.000000 0.000000 0.000000 0.000000 0.000000 0.068877
#
#
# Mechanical properties :
#
#
# Convention : Reuss Voigt Hill
#
# Bulk Modulus (GPa) = 53.90791 56.24576 55.07684
# Shear Modulus (GPa) = 23.52390 26.12751 24.82571
#
# Velocity S-wave (km/s) = 3.54949 3.74077 3.64638
# Velocity P-wave (km/s) = 6.75799 6.98440 6.87213
#
# Compressibility (1/GPa) = 0.01855015
#
# Stress axis : x y z
#
# Youngs Moduli (GPa) = 71.02438 50.33553 89.16770
#
# Poissons Ratio (x) = 0.30801 0.26122
# Poissons Ratio (y) = 0.43460 0.37958
# Poissons Ratio (z) = 0.20807 0.21427
#
# Static dielectric constant tensor:
#      x y z
#    x 1.703760 0.000000 0.000000 
#    y 0.000000 1.664810 0.000000 
#    z 0.000000 0.000000 1.645860 
# 
# From -- ./inp_files/5535.got.cif
#   From: 2010.05.17/outbox.cif.g08.bks.cpg/sg54_3_cif.got.tgz:5535.got - 2010.06.03 13:09:01.
