data_PCOD9421930
_publ_section_title
;
Structure prediction by ZEFSAII (Michael W. Deem and Ramdas Pophale) SiO2 
 PCOD9421930
Probable space group: P C C A
;
_chemical_formula_sum "Si O2"
_cell_formula_units_Z 60
_cell_length_a 11.650044
_cell_length_b 8.731998
_cell_length_c 23.674073
_cell_angle_alpha 90.000000
_cell_angle_beta 90.000000
_cell_angle_gamma 90.000000
_cell_volume 2408.319907
_symmetry_space_group_name_H-M "P C C A"
_symmetry_group_IT_number 54
_symmetry_cell_setting 'orthorhombic'
loop_
_space_group_symop_operation_xyz
x,y,z
1/2-x,-y,z
1/2+x,-y,1/2-z
-x,y,1/2-z
-x,-y,-z
1/2+x,y,-z
1/2-x,y,1/2+z
x,-y,1/2+z
loop_
_atom_site_type_symbol
_atom_site_label
_atom_site_fract_x
_atom_site_fract_y
_atom_site_fract_z
Si Si1 0.000000 0.397312 0.750000
Si Si2 0.698229 0.344975 0.543548
Si Si3 0.017261 0.185263 0.647690
Si Si4 0.658125 0.105075 0.972124
Si Si5 0.130331 0.056913 0.221330
Si Si6 0.638283 0.604077 0.328123
Si Si7 0.423064 0.921688 0.418764
Si Si8 0.383221 0.442991 0.066393
O O1 0.033822 0.291472 0.802948
O O2 0.909058 0.513093 0.774812
O O3 0.750000 0.500000 0.567806
O O4 0.789059 0.250875 0.504134
O O5 0.655283 0.225381 0.590139
O O6 0.597258 0.396012 0.499547
O O7 0.076844 0.287898 0.599163
O O8 0.111868 0.081021 0.677573
O O9 0.927218 0.062988 0.623519
O O10 0.551927 0.130350 0.931901
O O11 0.750000 0.000000 0.940200
O O12 0.619516 0.992874 0.022389
O O13 0.148083 0.220538 0.190246
O O14 0.000000 0.067393 0.250000
O O15 0.250000 0.000000 0.251919
O O16 0.750000 0.500000 0.338192
O O17 0.571292 0.566833 0.387219
O O18 0.250000 0.500000 0.058765
#
# Coordination Sequence:
#
# PCOD9421930 Si02
#       8
#     4   8   8   8   8   8   8   8
#     4  10  20  40  62  92 126 180 232 298 364 418
#     4  10  21  38  62  93 137 177 227 284 350 427
#     4  11  22  38  66  95 133 178 244 301 356 426
#     4   9  18  35  59  86 125 168 219 272 348 420
#     4  12  25  44  72 108 144 187 246 308 365 434
#     4  10  21  39  65  94 140 183 237 300 366 433
#     4  10  21  37  60  94 127 178 225 283 352 413
#     4   9  18  34  59  97 132 178 225 291 354 419
#
# _framework density 24.913633999999998
#
# number of rings (size 3 to 8) (size 9 to 14) (size 15 to 20)
#    0.000    1.867    1.333    4.800    0.000    5.333 
#    0.000    4.667    0.000    0.000    0.000    0.000 
#    0.000    0.000    0.000    0.000    0.000    0.133 
#
# Total GULP energy -334217.946611 kJ/mol
# GULP energy per Si atom -5570.299110 kJ/mol
# Density = 2.485693 g / cm^3
# Si number density = 24.913634 Si / 1000 Ang^3
#
#
#
# Elastic Constant Matrix: (Units=GPa)
#
#
# Indices 1 2 3 4 5 6 
#
# 1 74.3537 51.9505 21.6711 0.0000 0.0000 0.0000
# 2 51.9505 193.1687 29.6077 0.0000 0.0000 0.0000
# 3 21.6711 29.6077 55.8940 0.0000 0.0000 0.0000
# 4 0.0000 0.0000 0.0000 -20.0852 0.0000 0.0000
# 5 0.0000 0.0000 0.0000 0.0000 1.4358 0.0000
# 6 0.0000 0.0000 0.0000 0.0000 0.0000 32.8514
#
#
#
# Elastic Compliance Matrix: (Units=1/GPa)
#
#
# Indices 1 2 3 4 5 6 
#
# 1 0.017630 -0.004020 -0.004706 0.000000 0.000000 0.000000
# 2 -0.004020 0.006551 -0.001911 0.000000 0.000000 0.000000
# 3 -0.004706 -0.001911 0.020728 0.000000 0.000000 0.000000
# 4 0.000000 0.000000 0.000000 -0.049788 0.000000 0.000000
# 5 0.000000 0.000000 0.000000 0.000000 0.696458 0.000000
# 6 0.000000 0.000000 0.000000 0.000000 0.000000 0.030440
#
#
# Mechanical properties :
#
#
# Convention : Reuss Voigt Hill
#
# Bulk Modulus (GPa) = 42.31210 58.87501 50.59355
# Shear Modulus (GPa) = 6.65627 17.51955 12.08791
#
# Velocity S-wave (km/s) = 1.63632 2.65469 2.20510
# Velocity P-wave (km/s) = 4.53767 5.75147 5.18025
#
# Compressibility (1/GPa) = 0.02363390
#
# Stress axis : x y z
#
# Youngs Moduli (GPa) = 56.72302 152.65011 48.24377
#
# Poissons Ratio (x) = 0.61365 0.22703
# Poissons Ratio (y) = 0.22803 0.09222
# Poissons Ratio (z) = 0.26693 0.29179
#
# Static dielectric constant tensor:
#      x y z
#    x 2.131740 0.000000 0.000000 
#    y 0.000000 2.500990 0.000000 
#    z 0.000000 0.000000 2.287220 
# 
# From -- ./inp_files/26294.got.cif
#   From: 2010.05.17/outbox.cif.g08.bks.cpg/sg54_14_cif.got.tgz:26294.got - 2010.06.03 13:09:01.
