data_PCOD9421494
_publ_section_title
;
Structure prediction by ZEFSAII (Michael W. Deem and Ramdas Pophale) SiO2 
 PCOD9421494
Probable space group: P C C A
;
_chemical_formula_sum "Si O2"
_cell_formula_units_Z 40
_cell_length_a 9.044474
_cell_length_b 14.061931
_cell_length_c 16.781958
_cell_angle_alpha 90.000000
_cell_angle_beta 90.000000
_cell_angle_gamma 90.000000
_cell_volume 2134.375893
_symmetry_space_group_name_H-M "P C C A"
_symmetry_group_IT_number 54
_symmetry_cell_setting 'orthorhombic'
loop_
_space_group_symop_operation_xyz
x,y,z
1/2-x,-y,z
1/2+x,-y,1/2-z
-x,y,1/2-z
-x,-y,-z
1/2+x,y,-z
1/2-x,y,1/2+z
x,-y,1/2+z
loop_
_atom_site_type_symbol
_atom_site_label
_atom_site_fract_x
_atom_site_fract_y
_atom_site_fract_z
Si Si1 0.253672 0.301810 0.611035
Si Si2 0.001034 0.768333 0.498270
Si Si3 0.674875 0.197789 0.239992
Si Si4 0.173468 0.590785 0.259752
Si Si5 0.254769 0.110332 0.913678
O O1 0.396489 0.294050 0.556384
O O2 0.106877 0.293246 0.557622
O O3 0.244982 0.212015 0.672696
O O4 0.244243 0.389200 0.672331
O O5 0.895287 0.837179 0.548982
O O6 0.111394 0.833977 0.446991
O O7 0.500000 0.179824 0.250000
O O8 0.690087 0.304576 0.201352
O O9 0.750341 0.124615 0.181442
O O10 0.250000 0.500000 0.298080
O O11 0.000000 0.573813 0.250000
O O12 0.250000 0.000000 0.935147
#
# Coordination Sequence:
#
# PCOD9421494 Si02
#       5
#     8   8   8   8   8
#     4   9  19  37  57  78 111 147 181 221 279 322
#     4  10  20  36  56  77 111 151 178 225 274 328
#     4   9  18  38  55  75 112 143 178 231 270 314
#     4   9  18  34  58  82 108 140 179 226 275 327
#     4  11  21  36  55  82 109 149 185 225 272 320
#
# _framework density 18.740839999999999
#
# number of rings (size 3 to 8) (size 9 to 14) (size 15 to 20)
#    1.200    1.200    2.000    0.600    0.000    2.400 
#    3.600    2.000    0.000    4.800    0.000    0.000 
#    0.000    0.000    0.000    0.000    0.000    0.000 
#
# Total GULP energy -222676.873093 kJ/mol
# GULP energy per Si atom -5566.921827 kJ/mol
# Density = 1.869818 g / cm^3
# Si number density = 18.740840 Si / 1000 Ang^3
#
#
#
# Elastic Constant Matrix: (Units=GPa)
#
#
# Indices 1 2 3 4 5 6 
#
# 1 63.1242 9.1131 11.1588 0.0000 0.0000 0.0000
# 2 9.1131 40.9591 -12.1754 0.0000 0.0000 0.0000
# 3 11.1588 -12.1754 60.4527 0.0000 0.0000 0.0000
# 4 0.0000 0.0000 0.0000 15.8648 0.0000 0.0000
# 5 0.0000 0.0000 0.0000 0.0000 11.4090 0.0000
# 6 0.0000 0.0000 0.0000 0.0000 0.0000 4.1052
#
#
#
# Elastic Compliance Matrix: (Units=1/GPa)
#
#
# Indices 1 2 3 4 5 6 
#
# 1 0.017327 -0.005112 -0.004228 0.000000 0.000000 0.000000
# 2 -0.005112 0.027478 0.006478 0.000000 0.000000 0.000000
# 3 -0.004228 0.006478 0.018627 0.000000 0.000000 0.000000
# 4 0.000000 0.000000 0.000000 0.063033 0.000000 0.000000
# 5 0.000000 0.000000 0.000000 0.000000 0.087650 0.000000
# 6 0.000000 0.000000 0.000000 0.000000 0.000000 0.243593
#
#
# Mechanical properties :
#
#
# Convention : Reuss Voigt Hill
#
# Bulk Modulus (GPa) = 17.32885 20.08098 18.70491
# Shear Modulus (GPa) = 10.35910 16.70512 13.53211
#
# Velocity S-wave (km/s) = 2.35363 2.98883 2.69004
# Velocity P-wave (km/s) = 4.08077 4.75911 4.43294
#
# Compressibility (1/GPa) = 0.05770723
#
# Stress axis : x y z
#
# Youngs Moduli (GPa) = 57.71284 36.39339 53.68575
#
# Poissons Ratio (x) = 0.18604 0.22698
# Poissons Ratio (y) = 0.29502 -0.34776
# Poissons Ratio (z) = 0.24401 -0.23575
#
# Static dielectric constant tensor:
#      x y z
#    x 1.629130 0.000000 0.000000 
#    y 0.000000 1.632410 0.000000 
#    z 0.000000 0.000000 1.676100 
# 
# From -- ./inp_files/16470.got.cif
#   From: 2010.05.17/outbox.cif.g08.bks.cpg/sg54_9_cif.got.tgz:16470.got - 2010.06.03 13:09:01.
