data_PCOD9421921
_publ_section_title
;
Structure prediction by ZEFSAII (Michael W. Deem and Ramdas Pophale) SiO2 
 PCOD9421921
Probable space group: P C C A
;
_chemical_formula_sum "Si O2"
_cell_formula_units_Z 36
_cell_length_a 14.017525
_cell_length_b 9.078412
_cell_length_c 14.288373
_cell_angle_alpha 90.000000
_cell_angle_beta 90.000000
_cell_angle_gamma 90.000000
_cell_volume 1818.293585
_symmetry_space_group_name_H-M "P C C A"
_symmetry_group_IT_number 54
_symmetry_cell_setting 'orthorhombic'
loop_
_space_group_symop_operation_xyz
x,y,z
1/2-x,-y,z
1/2+x,-y,1/2-z
-x,y,1/2-z
-x,-y,-z
1/2+x,y,-z
1/2-x,y,1/2+z
x,-y,1/2+z
loop_
_atom_site_type_symbol
_atom_site_label
_atom_site_fract_x
_atom_site_fract_y
_atom_site_fract_z
Si Si1 0.052211 0.555131 0.595833
Si Si2 0.264907 0.344895 0.491689
Si Si3 0.593445 0.125090 0.103896
Si Si4 0.000000 0.681530 0.250000
Si Si5 0.927954 0.195971 0.045498
O O1 0.986133 0.697507 0.615780
O O2 0.000000 0.500000 0.500000
O O3 0.160691 0.605019 0.573145
O O4 0.043256 0.428842 0.672613
O O5 0.250000 0.500000 0.437365
O O6 0.320495 0.216104 0.439935
O O7 0.160089 0.278903 0.504229
O O8 0.573154 0.206788 0.200858
O O9 0.606466 0.950330 0.099130
O O10 0.502436 0.154173 0.036150
#
# Coordination Sequence:
#
# PCOD9421921 Si02
#       5
#     8   8   8   4   8
#     4  11  21  39  62  93 120 172 214 262 326 376
#     4  11  18  36  63  87 120 164 216 259 320 381
#     4  10  22  36  61  91 125 169 207 268 323 382
#     4  12  20  40  62  92 134 160 218 266 318 390
#     4  10  20  40  61  87 123 169 215 256 327 382
#
# _framework density 19.798781999999999
#
# number of rings (size 3 to 8) (size 9 to 14) (size 15 to 20)
#    0.000    1.333    6.667    0.667    0.000    0.889 
#    0.000   10.000    0.000   16.000    0.000    0.000 
#    0.000    0.000    0.000    0.000    0.000    0.000 
#
# Total GULP energy -200530.036847 kJ/mol
# GULP energy per Si atom -5570.278801 kJ/mol
# Density = 1.975372 g / cm^3
# Si number density = 19.798782 Si / 1000 Ang^3
#
#
#
# Elastic Constant Matrix: (Units=GPa)
#
#
# Indices 1 2 3 4 5 6 
#
# 1 132.0074 44.0717 17.2275 0.0000 0.0000 0.0000
# 2 44.0717 174.2929 33.1035 0.0000 0.0000 0.0000
# 3 17.2275 33.1035 62.5607 0.0000 0.0000 0.0000
# 4 0.0000 0.0000 0.0000 37.9274 0.0000 0.0000
# 5 0.0000 0.0000 0.0000 0.0000 4.6203 0.0000
# 6 0.0000 0.0000 0.0000 0.0000 0.0000 40.6484
#
#
#
# Elastic Compliance Matrix: (Units=1/GPa)
#
#
# Indices 1 2 3 4 5 6 
#
# 1 0.008370 -0.001866 -0.001317 0.000000 0.000000 0.000000
# 2 -0.001866 0.006795 -0.003081 0.000000 0.000000 0.000000
# 3 -0.001317 -0.003081 0.017978 0.000000 0.000000 0.000000
# 4 0.000000 0.000000 0.000000 0.026366 0.000000 0.000000
# 5 0.000000 0.000000 0.000000 0.000000 0.216436 0.000000
# 6 0.000000 0.000000 0.000000 0.000000 0.000000 0.024601
#
#
# Mechanical properties :
#
#
# Convention : Reuss Voigt Hill
#
# Bulk Modulus (GPa) = 48.51428 61.96292 55.23860
# Shear Modulus (GPa) = 15.62760 34.93645 25.28202
#
# Velocity S-wave (km/s) = 2.81253 4.20524 3.57732
# Velocity P-wave (km/s) = 5.92486 7.41236 6.70996
#
# Compressibility (1/GPa) = 0.02061249
#
# Stress axis : x y z
#
# Youngs Moduli (GPa) = 119.46947 147.17501 55.62429
#
# Poissons Ratio (x) = 0.27467 0.07328
# Poissons Ratio (y) = 0.22297 0.17140
# Poissons Ratio (z) = 0.15739 0.45350
#
# Static dielectric constant tensor:
#      x y z
#    x 1.772610 0.000000 0.000000 
#    y 0.000000 1.775800 0.000000 
#    z 0.000000 0.000000 1.699610 
# 
# From -- ./inp_files/13057.got.cif
#   From: 2010.05.17/outbox.cif.g08.bks.cpg/sg54_7_cif.got.tgz:13057.got - 2010.06.03 13:09:01.
