data_PCOD9421267
_publ_section_title
;
Structure prediction by ZEFSAII (Michael W. Deem and Ramdas Pophale) SiO2 
 PCOD9421267
Probable space group: P C C A
;
_chemical_formula_sum "Si O2"
_cell_formula_units_Z 32
_cell_length_a 5.314537
_cell_length_b 21.103318
_cell_length_c 11.960953
_cell_angle_alpha 90.000000
_cell_angle_beta 90.000000
_cell_angle_gamma 90.000000
_cell_volume 1341.473081
_symmetry_space_group_name_H-M "P C C A"
_symmetry_group_IT_number 54
_symmetry_cell_setting 'orthorhombic'
loop_
_space_group_symop_operation_xyz
x,y,z
1/2-x,-y,z
1/2+x,-y,1/2-z
-x,y,1/2-z
-x,-y,-z
1/2+x,y,-z
1/2-x,y,1/2+z
x,-y,1/2+z
loop_
_atom_site_type_symbol
_atom_site_label
_atom_site_fract_x
_atom_site_fract_y
_atom_site_fract_z
Si Si1 0.757238 0.727034 0.930257
Si Si2 0.750000 0.000000 0.327024
Si Si3 0.500000 0.355791 0.250000
Si Si4 0.964995 0.427719 0.542241
Si Si5 0.249936 0.137511 0.672813
O O1 0.687616 0.691516 0.814507
O O2 0.749875 0.802122 0.906490
O O3 0.527855 0.713188 0.015933
O O4 0.749701 0.931659 0.386389
O O5 0.500000 0.999979 0.250000
O O6 0.371967 0.405111 0.337057
O O7 0.248454 0.403138 0.537739
O O8 0.000000 0.500000 0.500000
O O9 0.500000 0.141486 0.750000
O O10 0.000000 0.141074 0.750000
#
# Coordination Sequence:
#
# PCOD9421267 Si02
#       5
#     8   4   4   8   8
#     4  12  27  43  65 100 137 177 234 281 331 418
#     4   8  16  30  60  92 122 170 230 276 340 418
#     4  12  26  46  72  96 142 184 216 282 356 390
#     4  10  24  45  70 104 134 171 225 273 330 410
#     4  10  19  39  64  93 131 180 226 284 351 401
#
# _framework density 23.854371
#
# number of rings (size 3 to 8) (size 9 to 14) (size 15 to 20)
#    0.000    1.500    1.250    3.000    0.000    7.000 
#    0.000    1.250    0.000    0.000    0.000    0.000 
#    0.000    0.000    0.000    0.000    0.000    0.000 
#
# Total GULP energy -178489.339417 kJ/mol
# GULP energy per Si atom -5577.791857 kJ/mol
# Density = 2.380008 g / cm^3
# Si number density = 23.854371 Si / 1000 Ang^3
#
#
#
# Elastic Constant Matrix: (Units=GPa)
#
#
# Indices 1 2 3 4 5 6 
#
# 1 156.6177 34.1747 14.6512 0.0000 0.0000 0.0000
# 2 34.1747 199.1934 47.8488 0.0000 0.0000 0.0000
# 3 14.6512 47.8488 58.9228 0.0000 0.0000 0.0000
# 4 0.0000 0.0000 0.0000 30.5410 0.0000 0.0000
# 5 0.0000 0.0000 0.0000 0.0000 31.1510 0.0000
# 6 0.0000 0.0000 0.0000 0.0000 0.0000 38.8414
#
#
#
# Elastic Compliance Matrix: (Units=1/GPa)
#
#
# Indices 1 2 3 4 5 6 
#
# 1 0.006672 -0.000927 -0.000906 0.000000 0.000000 0.000000
# 2 -0.000927 0.006366 -0.004939 0.000000 0.000000 0.000000
# 3 -0.000906 -0.004939 0.021207 0.000000 0.000000 0.000000
# 4 0.000000 0.000000 0.000000 0.032743 0.000000 0.000000
# 5 0.000000 0.000000 0.000000 0.000000 0.032102 0.000000
# 6 0.000000 0.000000 0.000000 0.000000 0.000000 0.025746
#
#
# Mechanical properties :
#
#
# Convention : Reuss Voigt Hill
#
# Bulk Modulus (GPa) = 48.30702 67.56482 57.93592
# Shear Modulus (GPa) = 34.41642 41.31064 37.86353
#
# Velocity S-wave (km/s) = 3.80250 4.16599 3.98839
# Velocity P-wave (km/s) = 6.29075 7.17816 6.74905
#
# Compressibility (1/GPa) = 0.02070093
#
# Stress axis : x y z
#
# Youngs Moduli (GPa) = 149.87951 157.09319 47.15361
#
# Poissons Ratio (x) = 0.14563 0.04273
# Poissons Ratio (y) = 0.13894 0.23288
# Poissons Ratio (z) = 0.13583 0.77585
#
# Static dielectric constant tensor:
#      x y z
#    x 1.943280 0.000000 0.000000 
#    y 0.000000 -4.900660 0.000000 
#    z 0.000000 0.000000 1.884530 
# 
# From -- ./inp_files/6287.got.cif
#   From: 2010.05.17/outbox.cif.g08.bks.cpg/sg54_4_cif.got.tgz:6287.got - 2010.06.03 13:09:01.
