data_PCOD9421508
_publ_section_title
;
Structure prediction by ZEFSAII (Michael W. Deem and Ramdas Pophale) SiO2 
 PCOD9421508
Probable space group: P C C A
;
_chemical_formula_sum "Si O2"
_cell_formula_units_Z 60
_cell_length_a 10.074194
_cell_length_b 11.585130
_cell_length_c 23.440077
_cell_angle_alpha 90.000000
_cell_angle_beta 90.000000
_cell_angle_gamma 90.000000
_cell_volume 2735.711244
_symmetry_space_group_name_H-M "P C C A"
_symmetry_group_IT_number 54
_symmetry_cell_setting 'orthorhombic'
loop_
_space_group_symop_operation_xyz
x,y,z
1/2-x,-y,z
1/2+x,-y,1/2-z
-x,y,1/2-z
-x,-y,-z
1/2+x,y,-z
1/2-x,y,1/2+z
x,-y,1/2+z
loop_
_atom_site_type_symbol
_atom_site_label
_atom_site_fract_x
_atom_site_fract_y
_atom_site_fract_z
Si Si1 0.064118 0.756398 0.122911
Si Si2 0.315735 0.385970 0.346492
Si Si3 0.923453 0.605167 0.939019
Si Si4 0.151213 0.357651 0.521106
Si Si5 0.171762 0.315307 0.182454
Si Si6 0.500000 0.502689 0.750000
Si Si7 0.552371 0.041564 0.186501
Si Si8 0.325422 0.817735 0.296776
O O1 0.119303 0.752403 0.059288
O O2 0.171888 0.694921 0.165275
O O3 0.923199 0.690433 0.120952
O O4 0.040214 0.884671 0.145708
O O5 0.250000 0.500000 0.372710
O O6 0.403516 0.425528 0.291620
O O7 0.195388 0.304666 0.326615
O O8 0.808721 0.638147 0.984651
O O9 0.896131 0.466688 0.938392
O O10 0.893556 0.671139 0.880444
O O11 0.065924 0.631529 0.964732
O O12 0.102897 0.423805 0.213944
O O13 0.151556 0.213755 0.229931
O O14 0.500000 0.041956 0.250000
O O15 0.687608 0.114705 0.193683
O O16 0.575354 0.907241 0.173539
#
# Coordination Sequence:
#
# PCOD9421508 Si02
#       8
#     8   8   8   8   8   4   8   8
#     4  10  21  38  61  82 118 169 212 247 318 370
#     4  11  22  34  51  85 120 163 195 253 306 384
#     4   9  19  35  59  84 122 161 213 258 325 382
#     4   9  18  37  58  86 117 166 211 266 314 393
#     4  11  21  38  57  88 121 169 203 253 307 389
#     4  12  24  32  52  88 136 162 202 244 316 398
#     4  10  20  36  57  81 115 159 206 260 292 370
#     4  10  21  35  53  81 122 157 210 242 305 369
#
# _framework density 21.932137999999998
#
# number of rings (size 3 to 8) (size 9 to 14) (size 15 to 20)
#    0.000    1.867    2.667    1.600    2.800    4.267 
#    7.200    0.000    0.000    0.000    0.000    8.400 
#    0.000    0.133    0.000    0.000    0.000    0.000 
#
# Total GULP energy -334663.197071 kJ/mol
# GULP energy per Si atom -5577.719951 kJ/mol
# Density = 2.188222 g / cm^3
# Si number density = 21.932138 Si / 1000 Ang^3
#
#
#
# Elastic Constant Matrix: (Units=GPa)
#
#
# Indices 1 2 3 4 5 6 
#
# 1 81.3715 37.7058 31.8681 0.0000 0.0000 0.0000
# 2 37.7058 109.0260 32.6821 0.0000 0.0000 0.0000
# 3 31.8681 32.6821 61.7226 0.0000 0.0000 0.0000
# 4 0.0000 0.0000 0.0000 11.4952 0.0000 0.0000
# 5 0.0000 0.0000 0.0000 0.0000 23.6348 0.0000
# 6 0.0000 0.0000 0.0000 0.0000 0.0000 42.3265
#
#
#
# Elastic Compliance Matrix: (Units=1/GPa)
#
#
# Indices 1 2 3 4 5 6 
#
# 1 0.016615 -0.003774 -0.006580 0.000000 0.000000 0.000000
# 2 -0.003774 0.011760 -0.004278 0.000000 0.000000 0.000000
# 3 -0.006580 -0.004278 0.021864 0.000000 0.000000 0.000000
# 4 0.000000 0.000000 0.000000 0.086993 0.000000 0.000000
# 5 0.000000 0.000000 0.000000 0.000000 0.042311 0.000000
# 6 0.000000 0.000000 0.000000 0.000000 0.000000 0.023626
#
#
# Mechanical properties :
#
#
# Convention : Reuss Voigt Hill
#
# Bulk Modulus (GPa) = 47.67719 50.73688 49.20703
# Shear Modulus (GPa) = 20.88338 25.48224 23.18281
#
# Velocity S-wave (km/s) = 3.08909 3.41232 3.25472
# Velocity P-wave (km/s) = 5.87444 6.22166 6.05054
#
# Compressibility (1/GPa) = 0.02097439
#
# Stress axis : x y z
#
# Youngs Moduli (GPa) = 60.18632 85.03611 45.73625
#
# Poissons Ratio (x) = 0.32089 0.30096
# Poissons Ratio (y) = 0.22712 0.19568
# Poissons Ratio (z) = 0.39605 0.36382
#
# Static dielectric constant tensor:
#      x y z
#    x 1.880450 0.000000 0.000000 
#    y 0.000000 1.857310 0.000000 
#    z 0.000000 0.000000 1.794440 
# 
# From -- ./inp_files/21231.got.cif
#   From: 2010.05.17/outbox.cif.g08.bks.cpg/sg54_11_cif.got.tgz:21231.got - 2010.06.03 13:09:01.
