data_PCOD9421298
_publ_section_title
;
Structure prediction by ZEFSAII (Michael W. Deem and Ramdas Pophale) SiO2 
 PCOD9421298
Probable space group: P C C A
;
_chemical_formula_sum "Si O2"
_cell_formula_units_Z 64
_cell_length_a 14.611595
_cell_length_b 9.406901
_cell_length_c 22.356764
_cell_angle_alpha 90.000000
_cell_angle_beta 90.000000
_cell_angle_gamma 90.000000
_cell_volume 3072.933358
_symmetry_space_group_name_H-M "P C C A"
_symmetry_group_IT_number 54
_symmetry_cell_setting 'orthorhombic'
loop_
_space_group_symop_operation_xyz
x,y,z
1/2-x,-y,z
1/2+x,-y,1/2-z
-x,y,1/2-z
-x,-y,-z
1/2+x,y,-z
1/2-x,y,1/2+z
x,-y,1/2+z
loop_
_atom_site_type_symbol
_atom_site_label
_atom_site_fract_x
_atom_site_fract_y
_atom_site_fract_z
Si Si1 0.216674 0.153058 0.592542
Si Si2 0.018182 0.965757 0.070215
Si Si3 0.307068 0.369530 0.681602
Si Si4 0.259746 0.169606 0.957636
Si Si5 0.722981 0.849154 0.219107
Si Si6 0.420811 0.204100 0.878667
Si Si7 0.119122 0.250903 0.867155
Si Si8 0.997333 0.484035 0.177568
O O1 0.109963 0.123155 0.580347
O O2 0.246406 0.282977 0.633840
O O3 0.260581 0.177806 0.527386
O O4 0.250000 0.000000 0.616016
O O5 0.939254 0.875172 0.102669
O O6 0.011813 0.115444 0.105994
O O7 0.000000 0.000000 0.000000
O O8 0.250000 0.500000 0.707981
O O9 0.322410 0.255680 0.733666
O O10 0.399805 0.441415 0.658214
O O11 0.362462 0.212787 0.939612
O O12 0.194332 0.271827 0.919371
O O13 0.250000 0.000000 0.942474
O O14 0.649266 0.873410 0.166660
O O15 0.815824 0.786387 0.189450
O O16 0.750000 0.000000 0.246005
O O17 0.439138 0.353241 0.847978
O O18 0.049468 0.374780 0.848689
O O19 0.000000 0.491670 0.250000
#
# Coordination Sequence:
#
# PCOD9421298 Si02
#       8
#     8   8   8   8   8   8   8   8
#     4  11  23  42  67  99 137 182 230 285 360 419
#     4  12  21  41  72 104 138 175 230 301 357 413
#     4  12  26  47  64  93 144 191 227 289 357 421
#     4  10  19  42  71 102 135 174 228 294 350 409
#     4  11  22  42  73 102 135 177 241 293 352 421
#     4  11  21  41  69 102 137 173 223 292 350 419
#     4  11  23  41  70 103 131 180 236 283 345 434
#     4  12  26  45  65 100 143 186 235 288 354 418
#
# _framework density 20.827003999999999
#
# number of rings (size 3 to 8) (size 9 to 14) (size 15 to 20)
#    0.000    0.750    5.000    4.125    0.000    1.500 
#    2.250    1.875    0.000    0.000    0.000    0.000 
#    0.000    0.000    0.000    0.000    0.000    0.000 
#
# Total GULP energy -357099.543271 kJ/mol
# GULP energy per Si atom -5579.680364 kJ/mol
# Density = 2.077960 g / cm^3
# Si number density = 20.827004 Si / 1000 Ang^3
#
#
#
# Elastic Constant Matrix: (Units=GPa)
#
#
# Indices 1 2 3 4 5 6 
#
# 1 96.5443 31.1072 19.5930 0.0000 0.0000 0.0000
# 2 31.1072 101.5008 50.4888 0.0000 0.0000 0.0000
# 3 19.5930 50.4888 100.1206 0.0000 0.0000 0.0000
# 4 0.0000 0.0000 0.0000 20.6823 0.0000 0.0000
# 5 0.0000 0.0000 0.0000 0.0000 23.9301 0.0000
# 6 0.0000 0.0000 0.0000 0.0000 0.0000 47.4091
#
#
#
# Elastic Compliance Matrix: (Units=1/GPa)
#
#
# Indices 1 2 3 4 5 6 
#
# 1 0.011523 -0.003217 -0.000633 0.000000 0.000000 0.000000
# 2 -0.003217 0.014049 -0.006455 0.000000 0.000000 0.000000
# 3 -0.000633 -0.006455 0.013367 0.000000 0.000000 0.000000
# 4 0.000000 0.000000 0.000000 0.048351 0.000000 0.000000
# 5 0.000000 0.000000 0.000000 0.000000 0.041788 0.000000
# 6 0.000000 0.000000 0.000000 0.000000 0.000000 0.021093
#
#
# Mechanical properties :
#
#
# Convention : Reuss Voigt Hill
#
# Bulk Modulus (GPa) = 54.55692 55.61598 55.08645
# Shear Modulus (GPa) = 28.26622 31.53607 29.90115
#
# Velocity S-wave (km/s) = 3.68800 3.89548 3.79316
# Velocity P-wave (km/s) = 6.66238 6.85528 6.75952
#
# Compressibility (1/GPa) = 0.01832948
#
# Stress axis : x y z
#
# Youngs Moduli (GPa) = 86.78451 71.18013 74.81125
#
# Poissons Ratio (x) = 0.22896 0.04735
# Poissons Ratio (y) = 0.27915 0.48291
# Poissons Ratio (z) = 0.05492 0.45947
#
# Static dielectric constant tensor:
#      x y z
#    x 1.814900 0.000000 0.000000 
#    y 0.000000 1.763980 0.000000 
#    z 0.000000 0.000000 1.743480 
# 
# From -- ./inp_files/24533.got.cif
#   From: 2010.05.17/outbox.cif.g08.bks.cpg/sg54_13_cif.got.tgz:24533.got - 2010.06.03 13:09:01.
