data_PCOD9421795
_publ_section_title
;
Structure prediction by ZEFSAII (Michael W. Deem and Ramdas Pophale) SiO2 
 PCOD9421795
Probable space group: P C C A
;
_chemical_formula_sum "Si O2"
_cell_formula_units_Z 40
_cell_length_a 23.160066
_cell_length_b 5.618750
_cell_length_c 12.537443
_cell_angle_alpha 90.000000
_cell_angle_beta 90.000000
_cell_angle_gamma 90.000000
_cell_volume 1631.505241
_symmetry_space_group_name_H-M "P C C A"
_symmetry_group_IT_number 54
_symmetry_cell_setting 'orthorhombic'
loop_
_space_group_symop_operation_xyz
x,y,z
1/2-x,-y,z
1/2+x,-y,1/2-z
-x,y,1/2-z
-x,-y,-z
1/2+x,y,-z
1/2-x,y,1/2+z
x,-y,1/2+z
loop_
_atom_site_type_symbol
_atom_site_label
_atom_site_fract_x
_atom_site_fract_y
_atom_site_fract_z
Si Si1 0.645830 0.393261 0.734031
Si Si2 0.088736 0.802714 0.410304
Si Si3 0.000000 0.146520 0.750000
Si Si4 0.931843 0.502917 0.904102
Si Si5 0.167344 0.819279 0.985424
Si Si6 0.750000 0.500000 0.891966
O O1 0.621944 0.623446 0.669504
O O2 0.594317 0.323915 0.813262
O O3 0.667803 0.225077 0.641129
O O4 0.698432 0.436005 0.813064
O O5 0.049056 0.665109 0.497060
O O6 0.047860 0.962228 0.332382
O O7 0.138241 0.922235 0.483722
O O8 0.031797 0.320578 0.666157
O O9 0.881421 0.344558 0.958763
O O10 0.226461 0.721356 0.036637
#
# Coordination Sequence:
#
# PCOD9421795 Si02
#       6
#     8   8   4   8   8   4
#     4   9  20  39  59  84 121 162 207 261 321 378
#     4  10  21  39  62  91 125 168 215 264 316 377
#     4  10  20  38  64  92 130 178 214 258 324 372
#     4   9  20  38  60  89 128 168 210 260 313 376
#     4  10  21  39  61  90 128 161 212 271 314 380
#     4  10  20  40  64  86 122 168 204 262 334 382
#
# _framework density 24.517237999999999
#
# number of rings (size 3 to 8) (size 9 to 14) (size 15 to 20)
#    0.000    2.400    0.000    1.200    0.000    5.600 
#    0.000   32.000    0.000    0.000    0.000    0.000 
#    0.000    0.000    0.000    0.000    0.000    0.000 
#
# Total GULP energy -222726.089954 kJ/mol
# GULP energy per Si atom -5568.152249 kJ/mol
# Density = 2.446144 g / cm^3
# Si number density = 24.517238 Si / 1000 Ang^3
#
#
#
# Elastic Constant Matrix: (Units=GPa)
#
#
# Indices 1 2 3 4 5 6 
#
# 1 44.9409 3.8130 44.1933 0.0000 0.0000 0.0000
# 2 3.8130 42.9957 38.1161 0.0000 0.0000 0.0000
# 3 44.1933 38.1161 151.3678 0.0000 0.0000 0.0000
# 4 0.0000 0.0000 0.0000 79.4677 0.0000 0.0000
# 5 0.0000 0.0000 0.0000 0.0000 36.3862 0.0000
# 6 0.0000 0.0000 0.0000 0.0000 0.0000 36.8843
#
#
#
# Elastic Compliance Matrix: (Units=1/GPa)
#
#
# Indices 1 2 3 4 5 6 
#
# 1 0.032856 0.007197 -0.011405 0.000000 0.000000 0.000000
# 2 0.007197 0.031519 -0.010038 0.000000 0.000000 0.000000
# 3 -0.011405 -0.010038 0.012464 0.000000 0.000000 0.000000
# 4 0.000000 0.000000 0.000000 0.012584 0.000000 0.000000
# 5 0.000000 0.000000 0.000000 0.000000 0.027483 0.000000
# 6 0.000000 0.000000 0.000000 0.000000 0.000000 0.027112
#
#
# Mechanical properties :
#
#
# Convention : Reuss Voigt Hill
#
# Bulk Modulus (GPa) = 20.68410 45.72769 33.20589
# Shear Modulus (GPa) = 26.50774 40.75979 33.63376
#
# Velocity S-wave (km/s) = 3.29171 4.08179 3.70786
# Velocity P-wave (km/s) = 4.78560 6.39582 5.64838
#
# Compressibility (1/GPa) = 0.04834632
#
# Stress axis : x y z
#
# Youngs Moduli (GPa) = 30.43595 31.72728 80.23227
#
# Poissons Ratio (x) = -0.22833 0.91503
# Poissons Ratio (y) = -0.21904 0.80536
# Poissons Ratio (z) = 0.34712 0.31847
#
# Static dielectric constant tensor:
#      x y z
#    x 2.052870 0.000000 0.000000 
#    y 0.000000 2.175040 0.000000 
#    z 0.000000 0.000000 1.970620 
# 
# From -- ./inp_files/10196.got.cif
#   From: 2010.05.17/outbox.cif.g08.bks.cpg/sg54_6_cif.got.tgz:10196.got - 2010.06.03 13:09:01.
