data_PCOD9421395
_publ_section_title
;
Structure prediction by ZEFSAII (Michael W. Deem and Ramdas Pophale) SiO2 
 PCOD9421395
Probable space group: P C C A
;
_chemical_formula_sum "Si O2"
_cell_formula_units_Z 52
_cell_length_a 11.003206
_cell_length_b 7.975133
_cell_length_c 30.365864
_cell_angle_alpha 90.000000
_cell_angle_beta 90.000000
_cell_angle_gamma 90.000000
_cell_volume 2664.666247
_symmetry_space_group_name_H-M "P C C A"
_symmetry_group_IT_number 54
_symmetry_cell_setting 'orthorhombic'
loop_
_space_group_symop_operation_xyz
x,y,z
1/2-x,-y,z
1/2+x,-y,1/2-z
-x,y,1/2-z
-x,-y,-z
1/2+x,y,-z
1/2-x,y,1/2+z
x,-y,1/2+z
loop_
_atom_site_type_symbol
_atom_site_label
_atom_site_fract_x
_atom_site_fract_y
_atom_site_fract_z
Si Si1 0.500000 0.417481 0.750000
Si Si2 0.683842 0.236255 0.452513
Si Si3 0.190191 0.683066 0.952389
Si Si4 0.203178 0.817319 0.858663
Si Si5 0.931035 0.257084 0.340416
Si Si6 0.250000 0.500000 0.295751
Si Si7 0.426396 0.431683 0.575136
Si Si8 0.250000 0.000000 0.118257
O O1 0.447532 0.307707 0.709798
O O2 0.622126 0.508823 0.731307
O O3 0.692157 0.202439 0.504222
O O4 0.588531 0.384054 0.444004
O O5 0.813940 0.318568 0.440399
O O6 0.661762 0.092272 0.416906
O O7 0.250000 0.500000 0.961439
O O8 0.243031 0.765966 0.908177
O O9 0.050787 0.644323 0.941425
O O10 0.241089 0.665541 0.826371
O O11 0.057097 0.825319 0.855886
O O12 0.250000 0.000000 0.846274
O O13 0.920305 0.421357 0.371774
O O14 0.821126 0.133638 0.352166
#
# Coordination Sequence:
#
# PCOD9421395 Si02
#       8
#     4   8   8   8   8   4   8   4
#     4  10  22  44  72  94 126 156 220 272 312 410
#     4  10  20  34  55  82 120 159 207 251 292 371
#     4  11  20  33  58  87 117 167 215 251 299 371
#     4  10  22  42  62  92 132 169 208 262 315 378
#     4   9  21  43  61  86 126 156 205 266 312 381
#     4  10  22  46  68  98 130 170 208 272 334 384
#     4   9  19  36  55  78 113 157 199 254 306 353
#     4  10  22  40  56  90 124 166 198 254 328 366
#
# _framework density 19.514638999999999
#
# number of rings (size 3 to 8) (size 9 to 14) (size 15 to 20)
#    0.000    2.154    2.308    0.462    1.077    3.692 
#    8.308    3.077    0.000    0.000    0.000    0.000 
#    0.000    0.000    0.000    0.000    0.000    0.000 
#
# Total GULP energy -289849.574247 kJ/mol
# GULP energy per Si atom -5574.030274 kJ/mol
# Density = 1.947022 g / cm^3
# Si number density = 19.514639 Si / 1000 Ang^3
#
#
#
# Elastic Constant Matrix: (Units=GPa)
#
#
# Indices 1 2 3 4 5 6 
#
# 1 64.4934 19.0669 33.8072 0.0000 0.0000 0.0000
# 2 19.0669 70.7895 30.0642 0.0000 0.0000 0.0000
# 3 33.8072 30.0642 145.6445 0.0000 0.0000 0.0000
# 4 0.0000 0.0000 0.0000 6.2683 0.0000 0.0000
# 5 0.0000 0.0000 0.0000 0.0000 22.2645 0.0000
# 6 0.0000 0.0000 0.0000 0.0000 0.0000 19.8699
#
#
#
# Elastic Compliance Matrix: (Units=1/GPa)
#
#
# Indices 1 2 3 4 5 6 
#
# 1 0.018388 -0.003442 -0.003558 0.000000 0.000000 0.000000
# 2 -0.003442 0.016128 -0.002530 0.000000 0.000000 0.000000
# 3 -0.003558 -0.002530 0.008214 0.000000 0.000000 0.000000
# 4 0.000000 0.000000 0.000000 0.159533 0.000000 0.000000
# 5 0.000000 0.000000 0.000000 0.000000 0.044915 0.000000
# 6 0.000000 0.000000 0.000000 0.000000 0.000000 0.050327
#
#
# Mechanical properties :
#
#
# Convention : Reuss Voigt Hill
#
# Bulk Modulus (GPa) = 42.24658 49.64488 45.94573
# Shear Modulus (GPa) = 15.41047 22.87981 19.14514
#
# Velocity S-wave (km/s) = 2.81319 3.42781 3.13559
# Velocity P-wave (km/s) = 5.67870 6.41573 6.05843
#
# Compressibility (1/GPa) = 0.02367056
#
# Stress axis : x y z
#
# Youngs Moduli (GPa) = 54.38336 62.00395 121.74078
#
# Poissons Ratio (x) = 0.21340 0.43313
# Poissons Ratio (y) = 0.18717 0.30804
# Poissons Ratio (z) = 0.19348 0.15689
#
# Static dielectric constant tensor:
#      x y z
#    x 1.697750 0.000000 0.000000 
#    y 0.000000 1.695480 0.000000 
#    z 0.000000 0.000000 1.723880 
# 
# From -- ./inp_files/28086.got.cif
#   From: 2010.05.17/outbox.cif.g08.bks.cpg/sg54_15_cif.got.tgz:28086.got - 2010.06.03 13:09:01.
