data_PCOD9421212
_publ_section_title
;
Structure prediction by ZEFSAII (Michael W. Deem and Ramdas Pophale) SiO2 
 PCOD9421212
Probable space group: P C C A
;
_chemical_formula_sum "Si O2"
_cell_formula_units_Z 64
_cell_length_a 25.575128
_cell_length_b 11.370791
_cell_length_c 11.968973
_cell_angle_alpha 90.000000
_cell_angle_beta 90.000000
_cell_angle_gamma 90.000000
_cell_volume 3480.690279
_symmetry_space_group_name_H-M "P C C A"
_symmetry_group_IT_number 54
_symmetry_cell_setting 'orthorhombic'
loop_
_space_group_symop_operation_xyz
x,y,z
1/2-x,-y,z
1/2+x,-y,1/2-z
-x,y,1/2-z
-x,-y,-z
1/2+x,y,-z
1/2-x,y,1/2+z
x,-y,1/2+z
loop_
_atom_site_type_symbol
_atom_site_label
_atom_site_fract_x
_atom_site_fract_y
_atom_site_fract_z
Si Si1 0.255751 0.137980 0.948769
Si Si2 0.992362 0.126373 0.941402
Si Si3 0.821220 0.264329 0.720023
Si Si4 0.843136 0.287552 0.148867
Si Si5 0.921723 0.895609 0.221759
Si Si6 0.551114 0.166887 0.671131
Si Si7 0.770991 0.684022 0.865178
Si Si8 0.191907 0.472872 0.934033
O O1 0.232100 0.199597 0.058282
O O2 0.250000 0.000000 0.956460
O O3 0.221325 0.187210 0.846982
O O4 0.314203 0.184921 0.922645
O O5 0.953384 0.114592 0.837344
O O6 0.046408 0.162745 0.881915
O O7 0.968521 0.194970 0.045301
O O8 0.000000 0.000000 0.000000
O O9 0.868220 0.174335 0.740891
O O10 0.788808 0.323134 0.821256
O O11 0.835632 0.372226 0.638858
O O12 0.900580 0.253464 0.188621
O O13 0.808625 0.306976 0.259669
O O14 0.838757 0.405686 0.075221
O O15 0.924316 0.034890 0.189835
O O16 0.500000 0.174430 0.750000
O O17 0.793393 0.583784 0.946905
O O18 0.250000 0.500000 0.883795
#
# Coordination Sequence:
#
# PCOD9421212 Si02
#       8
#     8   8   8   8   8   8   8   8
#     4  10  21  36  52  89 125 152 190 242 307 377
#     4   9  18  37  59  86 119 158 208 249 303 374
#     4  10  22  36  60  87 119 159 202 251 302 375
#     4  11  24  39  61  88 121 162 212 254 307 377
#     4  10  19  37  62  91 119 161 204 254 313 366
#     4  11  22  39  62  89 125 167 208 257 320 377
#     4  10  22  38  60  87 120 165 195 251 311 372
#     4  11  21  40  61  83 119 160 209 249 300 363
#
# _framework density 18.387156999999998
#
# number of rings (size 3 to 8) (size 9 to 14) (size 15 to 20)
#    0.000    1.750    6.250    0.750    3.500    5.000 
#    0.000    0.000    2.750    1.500    0.000    0.000 
#    0.000    0.000    0.000    0.000    0.000    0.000 
#
# Total GULP energy -356389.332734 kJ/mol
# GULP energy per Si atom -5568.583324 kJ/mol
# Density = 1.834531 g / cm^3
# Si number density = 18.387157 Si / 1000 Ang^3
#
#
#
# Elastic Constant Matrix: (Units=GPa)
#
#
# Indices 1 2 3 4 5 6 
#
# 1 106.2438 42.7798 35.8770 0.0000 0.0000 0.0000
# 2 42.7798 108.6241 45.2602 0.0000 0.0000 0.0000
# 3 35.8770 45.2602 104.4187 0.0000 0.0000 0.0000
# 4 0.0000 0.0000 0.0000 11.7092 0.0000 0.0000
# 5 0.0000 0.0000 0.0000 0.0000 16.1969 0.0000
# 6 0.0000 0.0000 0.0000 0.0000 0.0000 14.2855
#
#
#
# Elastic Compliance Matrix: (Units=1/GPa)
#
#
# Indices 1 2 3 4 5 6 
#
# 1 0.011684 -0.003574 -0.002465 0.000000 0.000000 0.000000
# 2 -0.003574 0.012329 -0.004116 0.000000 0.000000 0.000000
# 3 -0.002465 -0.004116 0.012208 0.000000 0.000000 0.000000
# 4 0.000000 0.000000 0.000000 0.085403 0.000000 0.000000
# 5 0.000000 0.000000 0.000000 0.000000 0.061740 0.000000
# 6 0.000000 0.000000 0.000000 0.000000 0.000000 0.070001
#
#
# Mechanical properties :
#
#
# Convention : Reuss Voigt Hill
#
# Bulk Modulus (GPa) = 62.85399 63.01339 62.93369
# Shear Modulus (GPa) = 17.92252 21.46296 19.69274
#
# Velocity S-wave (km/s) = 3.12545 3.42025 3.27617
# Velocity P-wave (km/s) = 6.87622 7.06698 6.97226
#
# Compressibility (1/GPa) = 0.01590989
#
# Stress axis : x y z
#
# Youngs Moduli (GPa) = 85.58689 81.11172 81.91492
#
# Poissons Ratio (x) = 0.28993 0.20193
# Poissons Ratio (y) = 0.30592 0.33714
# Poissons Ratio (z) = 0.21099 0.33383
#
# Static dielectric constant tensor:
#      x y z
#    x 1.638190 0.000000 0.000000 
#    y 0.000000 1.650770 0.000000 
#    z 0.000000 0.000000 1.664110 
# 
# From -- ./inp_files/10074.got.cif
#   From: 2010.05.17/outbox.cif.g08.bks.cpg/sg54_6_cif.got.tgz:10074.got - 2010.06.03 13:09:01.
