data_PCOD9421191
_publ_section_title
;
Structure prediction by ZEFSAII (Michael W. Deem and Ramdas Pophale) SiO2 
 PCOD9421191
Probable space group: P C C A
;
_chemical_formula_sum "Si O2"
_cell_formula_units_Z 56
_cell_length_a 19.441660
_cell_length_b 5.906422
_cell_length_c 22.184645
_cell_angle_alpha 90.000000
_cell_angle_beta 90.000000
_cell_angle_gamma 90.000000
_cell_volume 2547.477169
_symmetry_space_group_name_H-M "P C C A"
_symmetry_group_IT_number 54
_symmetry_cell_setting 'orthorhombic'
loop_
_space_group_symop_operation_xyz
x,y,z
1/2-x,-y,z
1/2+x,-y,1/2-z
-x,y,1/2-z
-x,-y,-z
1/2+x,y,-z
1/2-x,y,1/2+z
x,-y,1/2+z
loop_
_atom_site_type_symbol
_atom_site_label
_atom_site_fract_x
_atom_site_fract_y
_atom_site_fract_z
Si Si1 0.667691 0.501153 0.240688
Si Si2 0.046065 0.750677 0.932387
Si Si3 0.680765 0.126508 0.824719
Si Si4 0.681188 0.411495 0.938876
Si Si5 0.579805 0.242315 0.026737
Si Si6 0.469823 0.512469 0.316953
Si Si7 0.099696 0.731952 0.142991
O O1 0.750000 0.500000 0.228504
O O2 0.653123 0.753038 0.265537
O O3 0.610515 0.449154 0.190775
O O4 0.643894 0.353136 0.298598
O O5 0.022413 0.718520 0.863305
O O6 0.986446 0.756568 0.982652
O O7 0.081034 0.498419 0.943810
O O8 0.079798 0.001548 0.938086
O O9 0.704694 0.297665 0.876550
O O10 0.750000 0.000000 0.807697
O O11 0.620974 0.989502 0.857496
O O12 0.750000 0.500000 0.968954
O O13 0.644783 0.240035 0.982792
O O14 0.627244 0.602033 0.915948
O O15 0.500000 0.556404 0.250000
O O16 0.520721 0.323197 0.344868
#
# Coordination Sequence:
#
# PCOD9421191 Si02
#       7
#     8   8   8   8   8   8   8
#     4  10  20  38  59  88 134 182 227 274 352 429
#     4  10  22  45  63  94 133 182 232 277 350 418
#     4  11  19  33  63  92 132 177 221 289 363 419
#     4  11  21  34  61 100 133 169 223 292 356 410
#     4  10  23  40  69  89 134 186 221 283 351 428
#     4  10  22  42  63  98 136 179 237 294 346 415
#     4  10  19  37  57  94 135 167 225 291 349 411
#
# _framework density 21.982534000000001
#
# number of rings (size 3 to 8) (size 9 to 14) (size 15 to 20)
#    0.000    1.714    4.286    0.857    2.000    1.143 
#    5.143    3.571    0.000    0.000    0.000    0.000 
#    0.000    0.000    0.000    0.000    0.000    0.000 
#
# Total GULP energy -311922.655468 kJ/mol
# GULP energy per Si atom -5570.047419 kJ/mol
# Density = 2.193250 g / cm^3
# Si number density = 21.982534 Si / 1000 Ang^3
#
#
#
# Elastic Constant Matrix: (Units=GPa)
#
#
# Indices 1 2 3 4 5 6 
#
# 1 125.6727 41.5481 9.8642 0.0000 0.0000 0.0000
# 2 41.5481 105.2010 29.4908 0.0000 0.0000 0.0000
# 3 9.8642 29.4908 56.7206 0.0000 0.0000 0.0000
# 4 0.0000 0.0000 0.0000 1.7420 0.0000 0.0000
# 5 0.0000 0.0000 0.0000 0.0000 20.0458 0.0000
# 6 0.0000 0.0000 0.0000 0.0000 0.0000 35.5286
#
#
#
# Elastic Compliance Matrix: (Units=1/GPa)
#
#
# Indices 1 2 3 4 5 6 
#
# 1 0.009158 -0.003711 0.000337 0.000000 0.000000 0.000000
# 2 -0.003711 0.012631 -0.005922 0.000000 0.000000 0.000000
# 3 0.000337 -0.005922 0.020651 0.000000 0.000000 0.000000
# 4 0.000000 0.000000 0.000000 0.574036 0.000000 0.000000
# 5 0.000000 0.000000 0.000000 0.000000 0.049886 0.000000
# 6 0.000000 0.000000 0.000000 0.000000 0.000000 0.028146
#
#
# Mechanical properties :
#
#
# Convention : Reuss Voigt Hill
#
# Bulk Modulus (GPa) = 41.93356 49.93341 45.93349
# Shear Modulus (GPa) = 6.93433 25.24271 16.08852
#
# Velocity S-wave (km/s) = 1.77801 3.39235 2.70826
# Velocity P-wave (km/s) = 4.83036 6.17320 5.54260
#
# Compressibility (1/GPa) = 0.02384725
#
# Stress axis : x y z
#
# Youngs Moduli (GPa) = 109.19807 79.16755 48.42443
#
# Poissons Ratio (x) = 0.29381 -0.01632
# Poissons Ratio (y) = 0.40526 0.28677
# Poissons Ratio (z) = -0.03680 0.46884
#
# Static dielectric constant tensor:
#      x y z
#    x 1.923940 0.000000 0.000000 
#    y 0.000000 1.968940 0.000000 
#    z 0.000000 0.000000 1.805860 
# 
# From -- ./inp_files/24745.got.cif
#   From: 2010.05.17/outbox.cif.g08.bks.cpg/sg54_13_cif.got.tgz:24745.got - 2010.06.03 13:09:01.
