data_PCOD9421152
_publ_section_title
;
Structure prediction by ZEFSAII (Michael W. Deem and Ramdas Pophale) SiO2 
 PCOD9421152
Probable space group: P C C A
;
_chemical_formula_sum "Si O2"
_cell_formula_units_Z 40
_cell_length_a 5.342052
_cell_length_b 22.558294
_cell_length_c 15.617627
_cell_angle_alpha 90.000000
_cell_angle_beta 90.000000
_cell_angle_gamma 90.000000
_cell_volume 1882.042429
_symmetry_space_group_name_H-M "P C C A"
_symmetry_group_IT_number 54
_symmetry_cell_setting 'orthorhombic'
loop_
_space_group_symop_operation_xyz
x,y,z
1/2-x,-y,z
1/2+x,-y,1/2-z
-x,y,1/2-z
-x,-y,-z
1/2+x,y,-z
1/2-x,y,1/2+z
x,-y,1/2+z
loop_
_atom_site_type_symbol
_atom_site_label
_atom_site_fract_x
_atom_site_fract_y
_atom_site_fract_z
Si Si1 0.250106 0.763490 0.694054
Si Si2 0.750000 0.000000 0.942176
Si Si3 0.869355 0.580528 0.543179
Si Si4 0.297157 0.870395 0.058544
Si Si5 0.750000 0.500000 0.196351
Si Si6 0.154748 0.712322 0.027618
O O1 0.500000 0.768788 0.750000
O O2 0.223276 0.819680 0.630442
O O3 0.287045 0.708617 0.627762
O O4 0.000000 0.757009 0.750000
O O5 0.733886 0.064226 0.897946
O O6 0.500000 0.000000 0.000000
O O7 0.643200 0.559247 0.482777
O O8 0.798872 0.556836 0.635707
O O9 0.874632 0.651030 0.524794
O O10 0.564387 0.867323 0.008911
O O11 0.500000 0.490176 0.250000
O O12 0.388515 0.743432 0.982981
#
# Coordination Sequence:
#
# PCOD9421152 Si02
#       6
#     8   4   8   8   4   8
#     4  12  24  38  57  88 119 149 193 249 297 340
#     4   8  16  30  54  84 108 142 198 244 274 336
#     4  10  21  41  65  87 117 160 197 226 277 352
#     4  10  19  36  60  83 112 154 198 238 287 353
#     4  12  24  40  64  98 126 148 186 246 294 334
#     4  10  21  41  63  84 112 157 200 233 282 347
#
# _framework density 21.253506000000002
#
# number of rings (size 3 to 8) (size 9 to 14) (size 15 to 20)
#    0.000    1.600    0.000    5.400    0.000    0.000 
#    0.000   25.000    0.000    0.000    0.000    0.000 
#    0.000    0.000    0.000    0.000    0.000    0.000 
#
# Total GULP energy -223088.205344 kJ/mol
# GULP energy per Si atom -5577.205134 kJ/mol
# Density = 2.120513 g / cm^3
# Si number density = 21.253506 Si / 1000 Ang^3
#
#
#
# Elastic Constant Matrix: (Units=GPa)
#
#
# Indices 1 2 3 4 5 6 
#
# 1 188.3197 7.1521 52.0040 0.0000 0.0000 0.0000
# 2 7.1521 102.0669 32.2126 0.0000 0.0000 0.0000
# 3 52.0040 32.2126 113.6439 0.0000 0.0000 0.0000
# 4 0.0000 0.0000 0.0000 158.8914 0.0000 0.0000
# 5 0.0000 0.0000 0.0000 0.0000 58.8363 0.0000
# 6 0.0000 0.0000 0.0000 0.0000 0.0000 23.8315
#
#
#
# Elastic Compliance Matrix: (Units=1/GPa)
#
#
# Indices 1 2 3 4 5 6 
#
# 1 0.006101 0.000498 -0.002933 0.000000 0.000000 0.000000
# 2 0.000498 0.010801 -0.003289 0.000000 0.000000 0.000000
# 3 -0.002933 -0.003289 0.011074 0.000000 0.000000 0.000000
# 4 0.000000 0.000000 0.000000 0.006294 0.000000 0.000000
# 5 0.000000 0.000000 0.000000 0.000000 0.016996 0.000000
# 6 0.000000 0.000000 0.000000 0.000000 0.000000 0.041961
#
#
# Mechanical properties :
#
#
# Convention : Reuss Voigt Hill
#
# Bulk Modulus (GPa) = 60.50660 65.19644 62.85152
# Shear Modulus (GPa) = 45.37824 69.15597 57.26710
#
# Velocity S-wave (km/s) = 4.62572 5.71045 5.19647
# Velocity P-wave (km/s) = 7.55384 8.61517 8.10191
#
# Compressibility (1/GPa) = 0.01652712
#
# Stress axis : x y z
#
# Youngs Moduli (GPa) = 163.90281 92.58616 90.30128
#
# Poissons Ratio (x) = -0.04612 0.26487
# Poissons Ratio (y) = -0.08165 0.29704
# Poissons Ratio (z) = 0.48075 0.30456
#
# Static dielectric constant tensor:
#      x y z
#    x 1.803030 0.000000 0.000000 
#    y 0.000000 1.950350 0.000000 
#    z 0.000000 0.000000 1.746520 
# 
# From -- ./inp_files/6447.got.cif
#   From: 2010.05.17/outbox.cif.g08.bks.cpg/sg54_4_cif.got.tgz:6447.got - 2010.06.03 13:09:01.
