data_PCOD9421177
_publ_section_title
;
Structure prediction by ZEFSAII (Michael W. Deem and Ramdas Pophale) SiO2 
 PCOD9421177
Probable space group: P C C A
;
_chemical_formula_sum "Si O2"
_cell_formula_units_Z 32
_cell_length_a 16.869131
_cell_length_b 5.628097
_cell_length_c 14.333828
_cell_angle_alpha 90.000000
_cell_angle_beta 90.000000
_cell_angle_gamma 90.000000
_cell_volume 1360.869477
_symmetry_space_group_name_H-M "P C C A"
_symmetry_group_IT_number 54
_symmetry_cell_setting 'orthorhombic'
loop_
_space_group_symop_operation_xyz
x,y,z
1/2-x,-y,z
1/2+x,-y,1/2-z
-x,y,1/2-z
-x,-y,-z
1/2+x,y,-z
1/2-x,y,1/2+z
x,-y,1/2+z
loop_
_atom_site_type_symbol
_atom_site_label
_atom_site_fract_x
_atom_site_fract_y
_atom_site_fract_z
Si Si1 0.207329 0.250487 0.879653
Si Si2 0.236910 0.755313 0.087176
Si Si3 0.454793 0.466437 0.345584
Si Si4 0.062170 0.214111 0.504911
O O1 0.250000 0.500000 0.853673
O O2 0.118181 0.281954 0.841105
O O3 0.250000 0.000000 0.856793
O O4 0.207179 0.256401 0.994212
O O5 0.250000 0.500000 0.134328
O O6 0.250000 0.000000 0.142334
O O7 0.149279 0.795581 0.047720
O O8 0.500000 0.507131 0.250000
O O9 0.423489 0.698657 0.399090
O O10 0.519336 0.382917 0.420447
O O11 0.000000 0.000000 0.500000
#
# Coordination Sequence:
#
# PCOD9421177 Si02
#       4
#     8   8   8   8
#     4  10  19  39  66  93 134 186 223 275 350 415
#     4  10  19  36  66  94 128 181 228 276 344 416
#     4  11  25  43  67 105 140 182 234 295 356 424
#     4  11  23  42  70  99 137 183 232 292 356 423
#
# _framework density 23.514377
#
# number of rings (size 3 to 8) (size 9 to 14) (size 15 to 20)
#    0.000    1.500    5.000    3.000    3.500    1.000 
#    0.000    2.500    0.000    0.000    0.000    0.000 
#    0.000    0.000    0.000    0.000    0.000    0.000 
#
# Total GULP energy -178428.048228 kJ/mol
# GULP energy per Si atom -5575.876507 kJ/mol
# Density = 2.346086 g / cm^3
# Si number density = 23.514377 Si / 1000 Ang^3
#
#
#
# Elastic Constant Matrix: (Units=GPa)
#
#
# Indices 1 2 3 4 5 6 
#
# 1 101.2014 40.5769 9.8896 0.0000 0.0000 0.0000
# 2 40.5769 191.6161 27.9860 0.0000 0.0000 0.0000
# 3 9.8896 27.9860 103.4246 0.0000 0.0000 0.0000
# 4 0.0000 0.0000 0.0000 -15.5643 0.0000 0.0000
# 5 0.0000 0.0000 0.0000 0.0000 -2.7254 0.0000
# 6 0.0000 0.0000 0.0000 0.0000 0.0000 42.2843
#
#
#
# Elastic Compliance Matrix: (Units=1/GPa)
#
#
# Indices 1 2 3 4 5 6 
#
# 1 0.010817 -0.002228 -0.000432 0.000000 0.000000 0.000000
# 2 -0.002228 0.005892 -0.001381 0.000000 0.000000 0.000000
# 3 -0.000432 -0.001381 0.010084 0.000000 0.000000 0.000000
# 4 0.000000 0.000000 0.000000 -0.064250 0.000000 0.000000
# 5 0.000000 0.000000 0.000000 0.000000 -0.366924 0.000000
# 6 0.000000 0.000000 0.000000 0.000000 0.000000 0.023649
#
#
# Mechanical properties :
#
#
# Convention : Reuss Voigt Hill
#
# Bulk Modulus (GPa) = 53.44209 61.46079 57.45144
# Shear Modulus (GPa) = -13.64579 25.98490 6.16956
#
# Velocity S-wave (km/s) = -2.41159 3.32786 1.62155
# Velocity P-wave (km/s) = 3.87587 6.40004 5.29069
#
# Compressibility (1/GPa) = 0.01871184
#
# Stress axis : x y z
#
# Youngs Moduli (GPa) = 92.45068 169.71523 99.16759
#
# Poissons Ratio (x) = 0.37804 0.04280
# Poissons Ratio (y) = 0.20593 0.13699
# Poissons Ratio (z) = 0.03990 0.23444
#
# Static dielectric constant tensor:
#      x y z
#    x 2.238960 0.000000 0.000000 
#    y 0.000000 2.047480 0.000000 
#    z 0.000000 0.000000 1.895430 
# 
# From -- ./inp_files/13698.got.cif
#   From: 2010.05.17/outbox.cif.g08.bks.cpg/sg54_7_cif.got.tgz:13698.got - 2010.06.03 13:09:01.
