data_PCOD9421171
_publ_section_title
;
Structure prediction by ZEFSAII (Michael W. Deem and Ramdas Pophale) SiO2 
 PCOD9421171
Probable space group: P C C A
;
_chemical_formula_sum "Si O2"
_cell_formula_units_Z 48
_cell_length_a 16.025275
_cell_length_b 15.451074
_cell_length_c 9.725646
_cell_angle_alpha 90.000000
_cell_angle_beta 90.000000
_cell_angle_gamma 90.000000
_cell_volume 2408.144933
_symmetry_space_group_name_H-M "P C C A"
_symmetry_group_IT_number 54
_symmetry_cell_setting 'orthorhombic'
loop_
_space_group_symop_operation_xyz
x,y,z
1/2-x,-y,z
1/2+x,-y,1/2-z
-x,y,1/2-z
-x,-y,-z
1/2+x,y,-z
1/2-x,y,1/2+z
x,-y,1/2+z
loop_
_atom_site_type_symbol
_atom_site_label
_atom_site_fract_x
_atom_site_fract_y
_atom_site_fract_z
Si Si1 0.698231 0.591657 0.230573
Si Si2 0.443960 0.479936 0.370530
Si Si3 0.555748 0.814843 0.617828
Si Si4 0.568026 0.072828 0.532263
Si Si5 0.153182 0.976713 0.244777
Si Si6 0.820508 0.665686 0.025420
O O1 0.750000 0.500000 0.250172
O O2 0.605545 0.561605 0.190645
O O3 0.736978 0.651986 0.112971
O O4 0.699448 0.647302 0.368119
O O5 0.500000 0.441606 0.250000
O O6 0.500000 0.500000 0.500000
O O7 0.375730 0.414120 0.422813
O O8 0.500000 0.786098 0.750000
O O9 0.485054 0.842097 0.506259
O O10 0.611761 0.896374 0.671375
O O11 0.622866 0.748081 0.558779
O O12 0.636476 0.050313 0.413910
O O13 0.500000 0.000000 0.500000
O O14 0.603423 0.057665 0.685129
O O15 0.250000 0.000000 0.263663
#
# Coordination Sequence:
#
# PCOD9421171 Si02
#       6
#     8   8   8   8   8   8
#     4  10  22  39  62  88 121 160 198 248 296 362
#     4  11  21  37  65  89 115 156 209 243 290 362
#     4   9  20  40  59  84 121 162 198 246 310 361
#     4   9  18  36  62  83 118 153 201 238 297 362
#     4  10  19  36  63  91 115 154 201 246 297 372
#     4  11  22  40  59  86 125 156 198 250 308 345
#
# _framework density 19.932355000000001
#
# number of rings (size 3 to 8) (size 9 to 14) (size 15 to 20)
#    0.000    2.000    1.667    4.000    2.333    0.000 
#   12.000    0.000    7.333    0.000    0.000    0.000 
#    0.000    0.000    0.000    0.000    0.000    0.000 
#
# Total GULP energy -267393.725141 kJ/mol
# GULP energy per Si atom -5570.702607 kJ/mol
# Density = 1.988699 g / cm^3
# Si number density = 19.932355 Si / 1000 Ang^3
#
#
#
# Elastic Constant Matrix: (Units=GPa)
#
#
# Indices 1 2 3 4 5 6 
#
# 1 75.2073 8.0083 12.7717 0.0000 0.0000 0.0000
# 2 8.0083 49.9553 20.7675 0.0000 0.0000 0.0000
# 3 12.7717 20.7675 82.7360 0.0000 0.0000 0.0000
# 4 0.0000 0.0000 0.0000 14.6597 0.0000 0.0000
# 5 0.0000 0.0000 0.0000 0.0000 29.0906 0.0000
# 6 0.0000 0.0000 0.0000 0.0000 0.0000 2.4602
#
#
#
# Elastic Compliance Matrix: (Units=1/GPa)
#
#
# Indices 1 2 3 4 5 6 
#
# 1 0.013751 -0.001476 -0.001752 0.000000 0.000000 0.000000
# 2 -0.001476 0.022509 -0.005422 0.000000 0.000000 0.000000
# 3 -0.001752 -0.005422 0.013718 0.000000 0.000000 0.000000
# 4 0.000000 0.000000 0.000000 0.068214 0.000000 0.000000
# 5 0.000000 0.000000 0.000000 0.000000 0.034375 0.000000
# 6 0.000000 0.000000 0.000000 0.000000 0.000000 0.406473
#
#
# Mechanical properties :
#
#
# Convention : Reuss Voigt Hill
#
# Bulk Modulus (GPa) = 30.60218 32.33262 31.46740
# Shear Modulus (GPa) = 8.51450 20.33218 14.42334
#
# Velocity S-wave (km/s) = 2.06905 3.19730 2.69293
# Velocity P-wave (km/s) = 4.59285 5.46687 5.04881
#
# Compressibility (1/GPa) = 0.03267741
#
# Stress axis : x y z
#
# Youngs Moduli (GPa) = 72.72029 44.42756 72.89636
#
# Poissons Ratio (x) = 0.06558 0.12773
# Poissons Ratio (y) = 0.10734 0.39524
# Poissons Ratio (z) = 0.12742 0.24089
#
# Static dielectric constant tensor:
#      x y z
#    x 1.779770 0.000000 0.000000 
#    y 0.000000 1.743780 0.000000 
#    z 0.000000 0.000000 1.705320 
# 
# From -- ./inp_files/3591.got.cif
#   From: 2010.05.17/outbox.cif.g08.bks.cpg/sg54_2_cif.got.tgz:3591.got - 2010.06.03 13:09:01.
