data_PCOD9421750
_publ_section_title
;
Structure prediction by ZEFSAII (Michael W. Deem and Ramdas Pophale) SiO2 
 PCOD9421750
Probable space group: P C C A
;
_chemical_formula_sum "Si O2"
_cell_formula_units_Z 28
_cell_length_a 13.014097
_cell_length_b 10.897073
_cell_length_c 8.444242
_cell_angle_alpha 90.000000
_cell_angle_beta 90.000000
_cell_angle_gamma 90.000000
_cell_volume 1197.524951
_symmetry_space_group_name_H-M "P C C A"
_symmetry_group_IT_number 54
_symmetry_cell_setting 'orthorhombic'
loop_
_space_group_symop_operation_xyz
x,y,z
1/2-x,-y,z
1/2+x,-y,1/2-z
-x,y,1/2-z
-x,-y,-z
1/2+x,y,-z
1/2-x,y,1/2+z
x,-y,1/2+z
loop_
_atom_site_type_symbol
_atom_site_label
_atom_site_fract_x
_atom_site_fract_y
_atom_site_fract_z
Si Si1 0.218204 0.639408 0.257655
Si Si2 0.250000 0.000000 0.476972
Si Si3 0.928906 0.183280 0.596269
Si Si4 0.867869 0.765683 0.536062
O O1 0.250000 0.500000 0.276786
O O2 0.136011 0.692058 0.383752
O O3 0.162499 0.659768 0.089065
O O4 0.316648 0.726150 0.298322
O O5 0.151269 0.928582 0.404556
O O6 0.308422 0.881706 0.543030
O O7 0.000000 0.169743 0.750000
O O8 0.012927 0.199368 0.458857
#
# Coordination Sequence:
#
# PCOD9421750 Si02
#       4
#     8   4   8   8
#     4  10  21  38  58  83 118 155 195 240 286 342
#     4  10  20  38  60  88 122 152 192 240 294 348
#     4   9  20  37  60  88 118 152 192 240 291 346
#     4  10  21  38  60  87 117 154 194 240 291 343
#
# _framework density 23.381558999999999
#
# number of rings (size 3 to 8) (size 9 to 14) (size 15 to 20)
#    0.000    2.286    0.000    1.714    0.000   11.429 
#    0.000   14.286    0.000    5.143    0.000    0.000 
#    0.000    0.000    0.000    0.000    0.000    0.000 
#
# Total GULP energy -155882.708487 kJ/mol
# GULP energy per Si atom -5567.239589 kJ/mol
# Density = 2.332834 g / cm^3
# Si number density = 23.381559 Si / 1000 Ang^3
#
#
#
# Elastic Constant Matrix: (Units=GPa)
#
#
# Indices 1 2 3 4 5 6 
#
# 1 183.7937 60.1810 23.9715 0.0000 0.0000 0.0000
# 2 60.1810 142.2383 13.5905 0.0000 0.0000 0.0000
# 3 23.9715 13.5905 37.9240 0.0000 0.0000 0.0000
# 4 0.0000 0.0000 0.0000 15.9381 0.0000 0.0000
# 5 0.0000 0.0000 0.0000 0.0000 43.6390 0.0000
# 6 0.0000 0.0000 0.0000 0.0000 0.0000 36.7798
#
#
#
# Elastic Compliance Matrix: (Units=1/GPa)
#
#
# Indices 1 2 3 4 5 6 
#
# 1 0.006699 -0.002516 -0.003333 0.000000 0.000000 0.000000
# 2 -0.002516 0.008225 -0.001357 0.000000 0.000000 0.000000
# 3 -0.003333 -0.001357 0.028962 0.000000 0.000000 0.000000
# 4 0.000000 0.000000 0.000000 0.062743 0.000000 0.000000
# 5 0.000000 0.000000 0.000000 0.000000 0.022915 0.000000
# 6 0.000000 0.000000 0.000000 0.000000 0.000000 0.027189
#
#
# Mechanical properties :
#
#
# Convention : Reuss Voigt Hill
#
# Bulk Modulus (GPa) = 33.92875 62.16022 48.04448
# Shear Modulus (GPa) = 27.62899 37.01890 32.32395
#
# Velocity S-wave (km/s) = 3.44125 3.98333 3.72217
# Velocity P-wave (km/s) = 5.50745 6.91366 6.25023
#
# Compressibility (1/GPa) = 0.02947353
#
# Stress axis : x y z
#
# Youngs Moduli (GPa) = 149.26587 121.58546 34.52848
#
# Poissons Ratio (x) = 0.30592 0.11508
# Poissons Ratio (y) = 0.37556 0.04686
# Poissons Ratio (z) = 0.49750 0.16499
#
# Static dielectric constant tensor:
#      x y z
#    x 1.932500 0.000000 0.000000 
#    y 0.000000 1.828530 0.000000 
#    z 0.000000 0.000000 1.974000 
# 
# From -- ./inp_files/7194.got.cif
#   From: 2010.05.17/outbox.cif.g08.bks.cpg/sg54_4_cif.got.tgz:7194.got - 2010.06.03 13:09:01.
