data_PCOD9421820
_publ_section_title
;
Structure prediction by ZEFSAII (Michael W. Deem and Ramdas Pophale) SiO2 
 PCOD9421820
Probable space group: P C C A
;
_chemical_formula_sum "Si O2"
_cell_formula_units_Z 40
_cell_length_a 10.491741
_cell_length_b 19.340056
_cell_length_c 9.536399
_cell_angle_alpha 90.000000
_cell_angle_beta 90.000000
_cell_angle_gamma 90.000000
_cell_volume 1935.038908
_symmetry_space_group_name_H-M "P C C A"
_symmetry_group_IT_number 54
_symmetry_cell_setting 'orthorhombic'
loop_
_space_group_symop_operation_xyz
x,y,z
1/2-x,-y,z
1/2+x,-y,1/2-z
-x,y,1/2-z
-x,-y,-z
1/2+x,y,-z
1/2-x,y,1/2+z
x,-y,1/2+z
loop_
_atom_site_type_symbol
_atom_site_label
_atom_site_fract_x
_atom_site_fract_y
_atom_site_fract_z
Si Si1 0.356895 0.413407 0.197490
Si Si2 0.500000 0.879689 0.250000
Si Si3 0.750000 0.500000 0.550608
Si Si4 0.372164 0.047117 0.519460
Si Si5 0.717670 0.822704 0.059903
Si Si6 0.649163 0.257567 0.287022
O O1 0.500000 0.412309 0.250000
O O2 0.343602 0.463371 0.062612
O O3 0.285760 0.440899 0.336753
O O4 0.319429 0.334925 0.161697
O O5 0.606153 0.925593 0.324396
O O6 0.581173 0.841019 0.130790
O O7 0.325043 0.116061 0.435600
O O8 0.250000 0.000000 0.506916
O O9 0.500000 0.000000 0.500000
O O10 0.774012 0.759541 0.147117
O O11 0.690411 0.798917 0.901952
O O12 0.500000 0.252822 0.250000
#
# Coordination Sequence:
#
# PCOD9421820 Si02
#       6
#     8   4   4   8   8   8
#     4  10  21  39  63  98 131 177 223 268 331 392
#     4  12  26  44  66  96 126 176 218 282 344 412
#     4  10  20  38  66  94 138 172 218 276 322 388
#     4  12  27  45  68  97 130 175 226 287 348 415
#     4  12  25  47  67  97 135 174 231 281 347 407
#     4  11  25  42  69  96 137 180 225 279 339 405
#
# _framework density 20.671419
#
# number of rings (size 3 to 8) (size 9 to 14) (size 15 to 20)
#    0.000    0.800    4.000    3.000    2.800    0.000 
#    0.000    0.000    4.400    0.000    0.000    0.000 
#    0.000    0.000    0.000    0.000    0.000    0.000 
#
# Total GULP energy -222826.028933 kJ/mol
# GULP energy per Si atom -5570.650723 kJ/mol
# Density = 2.062437 g / cm^3
# Si number density = 20.671419 Si / 1000 Ang^3
#
#
#
# Elastic Constant Matrix: (Units=GPa)
#
#
# Indices 1 2 3 4 5 6 
#
# 1 84.8542 37.9958 23.3911 0.0000 0.0000 0.0000
# 2 37.9958 84.3079 16.1267 0.0000 0.0000 0.0000
# 3 23.3911 16.1267 92.7491 0.0000 0.0000 0.0000
# 4 0.0000 0.0000 0.0000 31.1065 0.0000 0.0000
# 5 0.0000 0.0000 0.0000 0.0000 34.9595 0.0000
# 6 0.0000 0.0000 0.0000 0.0000 0.0000 27.6727
#
#
#
# Elastic Compliance Matrix: (Units=1/GPa)
#
#
# Indices 1 2 3 4 5 6 
#
# 1 0.015425 -0.006421 -0.002774 0.000000 0.000000 0.000000
# 2 -0.006421 0.014942 -0.000979 0.000000 0.000000 0.000000
# 3 -0.002774 -0.000979 0.011651 0.000000 0.000000 0.000000
# 4 0.000000 0.000000 0.000000 0.032148 0.000000 0.000000
# 5 0.000000 0.000000 0.000000 0.000000 0.028605 0.000000
# 6 0.000000 0.000000 0.000000 0.000000 0.000000 0.036137
#
#
# Mechanical properties :
#
#
# Convention : Reuss Voigt Hill
#
# Bulk Modulus (GPa) = 46.14308 46.32649 46.23479
# Shear Modulus (GPa) = 30.03399 31.04090 30.53744
#
# Velocity S-wave (km/s) = 3.81586 3.87930 3.84771
# Velocity P-wave (km/s) = 6.46413 6.52110 6.49268
#
# Compressibility (1/GPa) = 0.02167172
#
# Stress axis : x y z
#
# Youngs Moduli (GPa) = 64.83111 66.92404 85.82620
#
# Poissons Ratio (x) = 0.42972 0.23805
# Poissons Ratio (y) = 0.41628 0.08400
# Poissons Ratio (z) = 0.17982 0.06550
#
# Static dielectric constant tensor:
#      x y z
#    x 1.782320 0.000000 0.000000 
#    y 0.000000 1.839360 0.000000 
#    z 0.000000 0.000000 1.724890 
# 
# From -- ./inp_files/2954.got.cif
#   From: 2010.05.17/outbox.cif.g08.bks.cpg/sg54_2_cif.got.tgz:2954.got - 2010.06.03 13:09:01.
