data_PCOD9421386
_publ_section_title
;
Structure prediction by ZEFSAII (Michael W. Deem and Ramdas Pophale) SiO2 
 PCOD9421386
Probable space group: P C C A
;
_chemical_formula_sum "Si O2"
_cell_formula_units_Z 60
_cell_length_a 12.838818
_cell_length_b 26.100229
_cell_length_c 8.967742
_cell_angle_alpha 90.000000
_cell_angle_beta 90.000000
_cell_angle_gamma 90.000000
_cell_volume 3005.055279
_symmetry_space_group_name_H-M "P C C A"
_symmetry_group_IT_number 54
_symmetry_cell_setting 'orthorhombic'
loop_
_space_group_symop_operation_xyz
x,y,z
1/2-x,-y,z
1/2+x,-y,1/2-z
-x,y,1/2-z
-x,-y,-z
1/2+x,y,-z
1/2-x,y,1/2+z
x,-y,1/2+z
loop_
_atom_site_type_symbol
_atom_site_label
_atom_site_fract_x
_atom_site_fract_y
_atom_site_fract_z
Si Si1 0.750000 0.500000 0.027972
Si Si2 0.382607 0.097678 0.225717
Si Si3 0.378740 0.206574 0.713826
Si Si4 0.703340 0.111555 0.958012
Si Si5 0.246663 0.263878 0.463227
Si Si6 0.576094 0.016371 0.866123
Si Si7 0.620949 0.557524 0.777160
Si Si8 0.620012 0.320204 0.285639
O O1 0.811951 0.538834 0.135416
O O2 0.669208 0.529371 0.920753
O O3 0.500000 0.114810 0.250000
O O4 0.320441 0.116206 0.369110
O O5 0.324252 0.117730 0.080900
O O6 0.384851 0.035939 0.210344
O O7 0.500000 0.215305 0.750000
O O8 0.359935 0.150041 0.647179
O O9 0.330428 0.240593 0.578882
O O10 0.311202 0.221778 0.859782
O O11 0.665624 0.054200 0.917185
O O12 0.307329 0.300622 0.349057
O O13 0.162054 0.293336 0.564382
O O14 0.500000 0.044071 0.750000
O O15 0.500000 0.000000 0.000000
O O16 0.500000 0.544117 0.750000
O O17 0.628104 0.618543 0.797727
O O18 0.500000 0.306773 0.250000
#
# Coordination Sequence:
#
# PCOD9421386 Si02
#       8
#     4   8   8   8   8   8   8   8
#     4  10  20  34  52  82 130 166 202 266 304 374
#     4  11  26  44  63  96 124 160 201 242 289 350
#     4  11  24  43  65  93 121 160 196 249 315 373
#     4  12  25  42  66  90 126 160 198 241 296 364
#     4  10  22  41  62  91 122 154 206 257 319 363
#     4  11  22  42  66  94 122 158 198 240 288 346
#     4  10  20  34  55  85 119 167 214 252 317 363
#     4  10  20  37  63  88 118 162 210 264 305 371
#
# _framework density 19.966356999999999
#
# number of rings (size 3 to 8) (size 9 to 14) (size 15 to 20)
#    0.000    1.333    2.667    3.600    1.867    3.200 
#    0.000    3.333    0.000   12.800    0.000    0.000 
#    0.000    0.000    0.000    0.000    0.000    0.000 
#
# Total GULP energy -335227.474532 kJ/mol
# GULP energy per Si atom -5587.124576 kJ/mol
# Density = 1.992091 g / cm^3
# Si number density = 19.966357 Si / 1000 Ang^3
#
#
#
# Elastic Constant Matrix: (Units=GPa)
#
#
# Indices 1 2 3 4 5 6 
#
# 1 92.5613 36.8763 32.0394 0.0000 0.0000 0.0000
# 2 36.8763 72.5839 45.1234 0.0000 0.0000 0.0000
# 3 32.0394 45.1234 116.3264 0.0000 0.0000 0.0000
# 4 0.0000 0.0000 0.0000 20.1180 0.0000 0.0000
# 5 0.0000 0.0000 0.0000 0.0000 32.4164 0.0000
# 6 0.0000 0.0000 0.0000 0.0000 0.0000 30.1751
#
#
#
# Elastic Compliance Matrix: (Units=1/GPa)
#
#
# Indices 1 2 3 4 5 6 
#
# 1 0.013720 -0.006090 -0.001417 0.000000 0.000000 0.000000
# 2 -0.006090 0.020858 -0.006414 0.000000 0.000000 0.000000
# 3 -0.001417 -0.006414 0.011475 0.000000 0.000000 0.000000
# 4 0.000000 0.000000 0.000000 0.049707 0.000000 0.000000
# 5 0.000000 0.000000 0.000000 0.000000 0.030849 0.000000
# 6 0.000000 0.000000 0.000000 0.000000 0.000000 0.033140
#
#
# Mechanical properties :
#
#
# Convention : Reuss Voigt Hill
#
# Bulk Modulus (GPa) = 54.90675 56.61665 55.76170
# Shear Modulus (GPa) = 25.81849 27.70408 26.76128
#
# Velocity S-wave (km/s) = 3.59987 3.72901 3.66501
# Velocity P-wave (km/s) = 6.69613 6.85261 6.77482
#
# Compressibility (1/GPa) = 0.01821270
#
# Stress axis : x y z
#
# Youngs Moduli (GPa) = 72.88516 47.94242 87.14924
#
# Poissons Ratio (x) = 0.29196 0.12346
# Poissons Ratio (y) = 0.44386 0.55895
# Poissons Ratio (z) = 0.10325 0.30749
#
# Static dielectric constant tensor:
#      x y z
#    x 1.695130 0.000000 0.000000 
#    y 0.000000 1.694350 0.000000 
#    z 0.000000 0.000000 1.710290 
# 
# From -- ./inp_files/3059.got.cif
#   From: 2010.05.17/outbox.cif.g08.bks.cpg/sg54_2_cif.got.tgz:3059.got - 2010.06.03 13:09:01.
