data_PCOD9421837
_publ_section_title
;
Structure prediction by ZEFSAII (Michael W. Deem and Ramdas Pophale) SiO2 
 PCOD9421837
Probable space group: P C C A
;
_chemical_formula_sum "Si O2"
_cell_formula_units_Z 40
_cell_length_a 14.418363
_cell_length_b 14.922993
_cell_length_c 8.521495
_cell_angle_alpha 90.000000
_cell_angle_beta 90.000000
_cell_angle_gamma 90.000000
_cell_volume 1833.528580
_symmetry_space_group_name_H-M "P C C A"
_symmetry_group_IT_number 54
_symmetry_cell_setting 'orthorhombic'
loop_
_space_group_symop_operation_xyz
x,y,z
1/2-x,-y,z
1/2+x,-y,1/2-z
-x,y,1/2-z
-x,-y,-z
1/2+x,y,-z
1/2-x,y,1/2+z
x,-y,1/2+z
loop_
_atom_site_type_symbol
_atom_site_label
_atom_site_fract_x
_atom_site_fract_y
_atom_site_fract_z
Si Si1 0.023691 0.097428 0.432991
Si Si2 0.359705 0.594213 0.510583
Si Si3 0.816349 0.792849 0.462956
Si Si4 0.750000 0.500000 0.247438
Si Si5 0.619941 0.224839 0.112333
Si Si6 0.000000 0.384038 0.750000
O O1 0.130938 0.126061 0.452665
O O2 0.000000 0.103095 0.250000
O O3 0.961509 0.165664 0.537128
O O4 0.000000 0.000000 0.500000
O O5 0.363713 0.699663 0.477850
O O6 0.332163 0.534571 0.363597
O O7 0.277127 0.580100 0.637084
O O8 0.447538 0.565141 0.612270
O O9 0.839475 0.806444 0.279978
O O10 0.708110 0.779327 0.497734
O O11 0.574154 0.320033 0.159781
#
# Coordination Sequence:
#
# PCOD9421837 Si02
#       6
#     8   8   8   4   8   4
#     4  12  25  43  67 101 136 170 219 277 334 400
#     4  10  20  39  60  91 128 172 213 278 336 387
#     4  11  22  41  69  94 131 182 221 273 337 405
#     4  10  22  36  62  92 128 168 226 282 328 404
#     4  11  21  42  66  99 132 178 226 272 335 399
#     4  10  20  38  68  86 138 170 226 276 336 402
#
# _framework density 21.815857000000001
#
# number of rings (size 3 to 8) (size 9 to 14) (size 15 to 20)
#    0.000    1.200    4.000    4.800    0.000    1.600 
#    0.000    4.000    2.200    0.000    0.000    0.000 
#    0.000    0.000    0.000    0.000    0.000    0.000 
#
# Total GULP energy -223376.427809 kJ/mol
# GULP energy per Si atom -5584.410695 kJ/mol
# Density = 2.176620 g / cm^3
# Si number density = 21.815857 Si / 1000 Ang^3
#
#
#
# Elastic Constant Matrix: (Units=GPa)
#
#
# Indices 1 2 3 4 5 6 
#
# 1 98.0615 9.0289 23.0748 0.0000 0.0000 0.0000
# 2 9.0289 78.2422 21.1170 0.0000 0.0000 0.0000
# 3 23.0748 21.1170 101.5802 0.0000 0.0000 0.0000
# 4 0.0000 0.0000 0.0000 28.9903 0.0000 0.0000
# 5 0.0000 0.0000 0.0000 0.0000 40.6992 0.0000
# 6 0.0000 0.0000 0.0000 0.0000 0.0000 24.9213
#
#
#
# Elastic Compliance Matrix: (Units=1/GPa)
#
#
# Indices 1 2 3 4 5 6 
#
# 1 0.010802 -0.000619 -0.002325 0.000000 0.000000 0.000000
# 2 -0.000619 0.013576 -0.002682 0.000000 0.000000 0.000000
# 3 -0.002325 -0.002682 0.010930 0.000000 0.000000 0.000000
# 4 0.000000 0.000000 0.000000 0.034494 0.000000 0.000000
# 5 0.000000 0.000000 0.000000 0.000000 0.024571 0.000000
# 6 0.000000 0.000000 0.000000 0.000000 0.000000 0.040126
#
#
# Mechanical properties :
#
#
# Convention : Reuss Voigt Hill
#
# Bulk Modulus (GPa) = 41.56876 42.70281 42.13578
# Shear Modulus (GPa) = 32.51627 33.89970 33.20798
#
# Velocity S-wave (km/s) = 3.86487 3.94623 3.90576
# Velocity P-wave (km/s) = 6.24596 6.35456 6.30049
#
# Compressibility (1/GPa) = 0.02405653
#
# Stress axis : x y z
#
# Youngs Moduli (GPa) = 92.57735 73.65934 91.49071
#
# Poissons Ratio (x) = 0.04559 0.21272
# Poissons Ratio (y) = 0.05730 0.24535
# Poissons Ratio (z) = 0.21525 0.19753
#
# Static dielectric constant tensor:
#      x y z
#    x 1.869090 0.000000 0.000000 
#    y 0.000000 1.789480 0.000000 
#    z 0.000000 0.000000 1.785900 
# 
# From -- ./inp_files/3465.got.cif
#   From: 2010.05.17/outbox.cif.g08.bks.cpg/sg54_2_cif.got.tgz:3465.got - 2010.06.03 13:09:01.
