data_PCOD9421829
_publ_section_title
;
Structure prediction by ZEFSAII (Michael W. Deem and Ramdas Pophale) SiO2 
 PCOD9421829
Probable space group: P C C A
;
_chemical_formula_sum "Si O2"
_cell_formula_units_Z 60
_cell_length_a 15.673276
_cell_length_b 9.801993
_cell_length_c 16.796549
_cell_angle_alpha 90.000000
_cell_angle_beta 90.000000
_cell_angle_gamma 90.000000
_cell_volume 2580.442765
_symmetry_space_group_name_H-M "P C C A"
_symmetry_group_IT_number 54
_symmetry_cell_setting 'orthorhombic'
loop_
_space_group_symop_operation_xyz
x,y,z
1/2-x,-y,z
1/2+x,-y,1/2-z
-x,y,1/2-z
-x,-y,-z
1/2+x,y,-z
1/2-x,y,1/2+z
x,-y,1/2+z
loop_
_atom_site_type_symbol
_atom_site_label
_atom_site_fract_x
_atom_site_fract_y
_atom_site_fract_z
Si Si1 0.574828 0.127882 0.897039
Si Si2 0.750000 0.500000 0.882476
Si Si3 0.336436 0.329991 0.485293
Si Si4 0.550134 0.698665 0.176040
Si Si5 0.999839 0.150859 0.846695
Si Si6 0.209967 0.741208 0.726362
Si Si7 0.798331 0.135572 0.629731
Si Si8 0.012577 0.440781 0.910895
O O1 0.611067 0.206335 0.973982
O O2 0.479064 0.194276 0.890087
O O3 0.648105 0.174071 0.832930
O O4 0.558338 0.968340 0.884381
O O5 0.817633 0.561887 0.945317
O O6 0.761021 0.371540 0.824153
O O7 0.266799 0.250029 0.434060
O O8 0.387359 0.407068 0.416380
O O9 0.500000 0.762533 0.250000
O O10 0.644100 0.677205 0.208609
O O11 0.501721 0.560484 0.151962
O O12 0.099211 0.123644 0.868704
O O13 0.972595 0.298633 0.882745
O O14 0.000000 0.151991 0.750000
O O15 0.271796 0.829338 0.780273
O O16 0.750000 0.000000 0.606465
O O17 0.000000 0.500000 0.000000
#
# Coordination Sequence:
#
# PCOD9421829 Si02
#       8
#     8   4   8   8   8   8   8   8
#     4  10  20  45  68  93 131 178 221 275 336 396
#     4  10  24  42  62  92 132 176 218 264 336 404
#     4  10  24  42  61  92 137 171 218 267 335 409
#     4  10  20  38  67  92 129 170 224 272 328 391
#     4  11  24  42  70  97 131 172 228 284 325 397
#     4  10  23  40  70  94 128 179 220 275 338 396
#     4  11  24  42  64 100 133 170 227 274 337 407
#     4  11  23  39  60  98 132 166 215 277 330 391
#
# _framework density 23.251822000000001
#
# number of rings (size 3 to 8) (size 9 to 14) (size 15 to 20)
#    0.000    1.600    1.333    3.200    5.600    3.200 
#    2.400    5.333    0.000    0.000    0.000    0.000 
#    0.000    0.000    0.000    0.000    0.000    0.000 
#
# Total GULP energy -334008.338907 kJ/mol
# GULP energy per Si atom -5566.805648 kJ/mol
# Density = 2.319890 g / cm^3
# Si number density = 23.251822 Si / 1000 Ang^3
#
#
#
# Elastic Constant Matrix: (Units=GPa)
#
#
# Indices 1 2 3 4 5 6 
#
# 1 54.0800 23.5796 28.9272 0.0000 0.0000 0.0000
# 2 23.5796 114.8674 4.2455 0.0000 0.0000 0.0000
# 3 28.9272 4.2455 69.9198 0.0000 0.0000 0.0000
# 4 0.0000 0.0000 0.0000 18.2046 0.0000 0.0000
# 5 0.0000 0.0000 0.0000 0.0000 28.4803 0.0000
# 6 0.0000 0.0000 0.0000 0.0000 0.0000 31.2337
#
#
#
# Elastic Compliance Matrix: (Units=1/GPa)
#
#
# Indices 1 2 3 4 5 6 
#
# 1 0.026346 -0.005017 -0.010595 0.000000 0.000000 0.000000
# 2 -0.005017 0.009680 0.001488 0.000000 0.000000 0.000000
# 3 -0.010595 0.001488 0.018595 0.000000 0.000000 0.000000
# 4 0.000000 0.000000 0.000000 0.054931 0.000000 0.000000
# 5 0.000000 0.000000 0.000000 0.000000 0.035112 0.000000
# 6 0.000000 0.000000 0.000000 0.000000 0.000000 0.032017
#
#
# Mechanical properties :
#
#
# Convention : Reuss Voigt Hill
#
# Bulk Modulus (GPa) = 37.91714 39.15243 38.53478
# Shear Modulus (GPa) = 23.39504 27.72471 25.55988
#
# Velocity S-wave (km/s) = 3.17544 3.45681 3.31911
# Velocity P-wave (km/s) = 5.45776 5.72780 5.59441
#
# Compressibility (1/GPa) = 0.02637330
#
# Stress axis : x y z
#
# Youngs Moduli (GPa) = 37.95679 103.30054 53.77729
#
# Poissons Ratio (x) = 0.51821 0.56978
# Poissons Ratio (y) = 0.19041 -0.08000
# Poissons Ratio (z) = 0.40216 -0.15368
#
# Static dielectric constant tensor:
#      x y z
#    x 1.965170 0.000000 0.000000 
#    y 0.000000 1.951540 0.000000 
#    z 0.000000 0.000000 1.944960 
# 
# From -- ./inp_files/18670.got.cif
#   From: 2010.05.17/outbox.cif.g08.bks.cpg/sg54_10_cif.got.tgz:18670.got - 2010.06.03 13:09:01.
