data_PCOD9421605
_publ_section_title
;
Structure prediction by ZEFSAII (Michael W. Deem and Ramdas Pophale) SiO2 
 PCOD9421605
Probable space group: P C C A
;
_chemical_formula_sum "Si O2"
_cell_formula_units_Z 40
_cell_length_a 12.109828
_cell_length_b 9.557143
_cell_length_c 14.436995
_cell_angle_alpha 90.000000
_cell_angle_beta 90.000000
_cell_angle_gamma 90.000000
_cell_volume 1670.870783
_symmetry_space_group_name_H-M "P C C A"
_symmetry_group_IT_number 54
_symmetry_cell_setting 'orthorhombic'
loop_
_space_group_symop_operation_xyz
x,y,z
1/2-x,-y,z
1/2+x,-y,1/2-z
-x,y,1/2-z
-x,-y,-z
1/2+x,y,-z
1/2-x,y,1/2+z
x,-y,1/2+z
loop_
_atom_site_type_symbol
_atom_site_label
_atom_site_fract_x
_atom_site_fract_y
_atom_site_fract_z
Si Si1 0.244932 0.332862 0.576737
Si Si2 0.326066 0.665473 0.868854
Si Si3 0.099846 0.617468 0.815897
Si Si4 0.526121 0.162510 0.388298
Si Si5 0.454672 0.847873 0.103338
O O1 0.250000 0.500000 0.591187
O O2 0.264938 0.304095 0.466007
O O3 0.129610 0.266381 0.608221
O O4 0.347792 0.247928 0.619272
O O5 0.228892 0.644968 0.794403
O O6 0.387871 0.516707 0.883640
O O7 0.418453 0.774864 0.838359
O O8 0.000000 0.570210 0.750000
O O9 0.055524 0.764748 0.852124
O O10 0.481129 0.151054 0.494179
O O11 0.558325 0.005321 0.361325
#
# Coordination Sequence:
#
# PCOD9421605 Si02
#       5
#     8   8   8   8   8
#     4  11  18  34  64  94 130 152 199 267 327 380
#     4  10  21  40  62  92 120 166 220 262 319 370
#     4  11  22  42  61  83 129 172 220 256 300 384
#     4  10  20  36  63  94 129 151 200 275 328 387
#     4  10  21  35  60  98 124 161 202 255 335 376
#
# _framework density 23.939612
#
# number of rings (size 3 to 8) (size 9 to 14) (size 15 to 20)
#    0.000    1.600    4.000    1.800    0.000    4.000 
#   10.800    1.000    4.400    0.000    0.000    0.000 
#    0.000    0.000    0.000    0.000    0.000    0.000 
#
# Total GULP energy -223406.123771 kJ/mol
# GULP energy per Si atom -5585.153094 kJ/mol
# Density = 2.388512 g / cm^3
# Si number density = 23.939612 Si / 1000 Ang^3
#
#
#
# Elastic Constant Matrix: (Units=GPa)
#
#
# Indices 1 2 3 4 5 6 
#
# 1 213.4891 106.7497 29.1210 0.0000 0.0000 0.0000
# 2 106.7497 171.8836 16.5754 0.0000 0.0000 0.0000
# 3 29.1210 16.5754 46.5637 0.0000 0.0000 0.0000
# 4 0.0000 0.0000 0.0000 15.5818 0.0000 0.0000
# 5 0.0000 0.0000 0.0000 0.0000 35.3642 0.0000
# 6 0.0000 0.0000 0.0000 0.0000 0.0000 32.4291
#
#
#
# Elastic Compliance Matrix: (Units=1/GPa)
#
#
# Indices 1 2 3 4 5 6 
#
# 1 0.007178 -0.004168 -0.003006 0.000000 0.000000 0.000000
# 2 -0.004168 0.008445 -0.000399 0.000000 0.000000 0.000000
# 3 -0.003006 -0.000399 0.023498 0.000000 0.000000 0.000000
# 4 0.000000 0.000000 0.000000 0.064178 0.000000 0.000000
# 5 0.000000 0.000000 0.000000 0.000000 0.028277 0.000000
# 6 0.000000 0.000000 0.000000 0.000000 0.000000 0.030837
#
#
# Mechanical properties :
#
#
# Convention : Reuss Voigt Hill
#
# Bulk Modulus (GPa) = 41.71036 81.86984 61.79010
# Shear Modulus (GPa) = 26.94683 35.30770 31.12726
#
# Velocity S-wave (km/s) = 3.35866 3.84456 3.60980
# Velocity P-wave (km/s) = 5.70103 7.34713 6.57579
#
# Compressibility (1/GPa) = 0.02397486
#
# Stress axis : x y z
#
# Youngs Moduli (GPa) = 139.30873 118.41099 42.55716
#
# Poissons Ratio (x) = 0.49357 0.12791
# Poissons Ratio (y) = 0.58068 0.01700
# Poissons Ratio (z) = 0.41870 0.04729
#
# Static dielectric constant tensor:
#      x y z
#    x 1.881480 0.000000 0.000000 
#    y 0.000000 1.881600 0.000000 
#    z 0.000000 0.000000 2.040610 
# 
# From -- ./inp_files/17119.got.cif
#   From: 2010.05.17/outbox.cif.g08.bks.cpg/sg54_9_cif.got.tgz:17119.got - 2010.06.03 13:09:01.
