data_PCOD9421778
_publ_section_title
;
Structure prediction by ZEFSAII (Michael W. Deem and Ramdas Pophale) SiO2 
 PCOD9421778
Probable space group: P C C A
;
_chemical_formula_sum "Si O2"
_cell_formula_units_Z 36
_cell_length_a 13.757339
_cell_length_b 5.143198
_cell_length_c 20.467837
_cell_angle_alpha 90.000000
_cell_angle_beta 90.000000
_cell_angle_gamma 90.000000
_cell_volume 1448.236979
_symmetry_space_group_name_H-M "P C C A"
_symmetry_group_IT_number 54
_symmetry_cell_setting 'orthorhombic'
loop_
_space_group_symop_operation_xyz
x,y,z
1/2-x,-y,z
1/2+x,-y,1/2-z
-x,y,1/2-z
-x,-y,-z
1/2+x,y,-z
1/2-x,y,1/2+z
x,-y,1/2+z
loop_
_atom_site_type_symbol
_atom_site_label
_atom_site_fract_x
_atom_site_fract_y
_atom_site_fract_z
Si Si1 0.000000 0.011450 0.250000
Si Si2 0.408210 0.409819 0.952641
Si Si3 0.362829 0.084867 0.366769
Si Si4 0.635200 0.046194 0.856752
Si Si5 0.647032 0.457716 0.416483
O O1 0.923014 0.875291 0.200659
O O2 0.924936 0.160981 0.296768
O O3 0.409581 0.159275 0.906289
O O4 0.372937 0.655876 0.910593
O O5 0.500000 0.500000 0.000000
O O6 0.335918 0.342173 0.012259
O O7 0.250000 0.000000 0.355358
O O8 0.614843 0.245181 0.915240
O O9 0.750000 0.000000 0.845369
O O10 0.593672 0.762171 0.875511
O O11 0.750000 0.500000 0.381977
#
# Coordination Sequence:
#
# PCOD9421778 Si02
#       5
#     4   8   8   8   8
#     4  12  26  46  64  90 132 182 234 282 338 410
#     4  12  24  44  71 105 139 177 227 289 363 431
#     4  12  27  45  70 103 143 189 238 296 355 419
#     4  10  22  39  63  92 123 167 218 272 334 402
#     4  10  20  38  63  91 123 158 204 265 332 400
#
# _framework density 24.857811999999999
#
# number of rings (size 3 to 8) (size 9 to 14) (size 15 to 20)
#    0.000    0.889    0.000    7.333    0.000    5.333 
#    0.000    4.444    0.000    0.000    0.000    0.000 
#    0.000    0.000    0.000    0.000    0.000    0.000 
#
# Total GULP energy -200459.866714 kJ/mol
# GULP energy per Si atom -5568.329631 kJ/mol
# Density = 2.480123 g / cm^3
# Si number density = 24.857812 Si / 1000 Ang^3
#
#
#
# Elastic Constant Matrix: (Units=GPa)
#
#
# Indices 1 2 3 4 5 6 
#
# 1 121.3565 19.1971 35.8513 0.0000 0.0000 0.0000
# 2 19.1971 150.0855 37.4041 0.0000 0.0000 0.0000
# 3 35.8513 37.4041 110.3283 0.0000 0.0000 0.0000
# 4 0.0000 0.0000 0.0000 -37.2253 0.0000 0.0000
# 5 0.0000 0.0000 0.0000 0.0000 40.1715 0.0000
# 6 0.0000 0.0000 0.0000 0.0000 0.0000 8.4650
#
#
#
# Elastic Compliance Matrix: (Units=1/GPa)
#
#
# Indices 1 2 3 4 5 6 
#
# 1 0.009145 -0.000469 -0.002813 0.000000 0.000000 0.000000
# 2 -0.000469 0.007302 -0.002323 0.000000 0.000000 0.000000
# 3 -0.002813 -0.002323 0.010766 0.000000 0.000000 0.000000
# 4 0.000000 0.000000 0.000000 -0.026863 0.000000 0.000000
# 5 0.000000 0.000000 0.000000 0.000000 0.024893 0.000000
# 6 0.000000 0.000000 0.000000 0.000000 0.000000 0.118134
#
#
# Mechanical properties :
#
#
# Convention : Reuss Voigt Hill
#
# Bulk Modulus (GPa) = 62.48801 62.96392 62.72597
# Shear Modulus (GPa) = 31.26556 21.57009 26.41782
#
# Velocity S-wave (km/s) = 3.55036 2.94894 3.26353
# Velocity P-wave (km/s) = 6.48070 6.08108 6.28407
#
# Compressibility (1/GPa) = 0.01600307
#
# Stress axis : x y z
#
# Youngs Moduli (GPa) = 109.34561 136.95247 92.88922
#
# Poissons Ratio (x) = 0.06420 0.26128
# Poissons Ratio (y) = 0.05125 0.21580
# Poissons Ratio (z) = 0.30757 0.31816
#
# Static dielectric constant tensor:
#      x y z
#    x 1.767880 0.000000 0.000000 
#    y 0.000000 1.981900 0.000000 
#    z 0.000000 0.000000 1.994070 
# 
# From -- ./inp_files/21359.got.cif
#   From: 2010.05.17/outbox.cif.g08.bks.cpg/sg54_11_cif.got.tgz:21359.got - 2010.06.03 13:09:01.
