data_PCOD9421350
_publ_section_title
;
Structure prediction by ZEFSAII (Michael W. Deem and Ramdas Pophale) SiO2 
 PCOD9421350
Probable space group: P C C A
;
_chemical_formula_sum "Si O2"
_cell_formula_units_Z 52
_cell_length_a 5.421506
_cell_length_b 21.826176
_cell_length_c 22.408023
_cell_angle_alpha 90.000000
_cell_angle_beta 90.000000
_cell_angle_gamma 90.000000
_cell_volume 2651.558036
_symmetry_space_group_name_H-M "P C C A"
_symmetry_group_IT_number 54
_symmetry_cell_setting 'orthorhombic'
loop_
_space_group_symop_operation_xyz
x,y,z
1/2-x,-y,z
1/2+x,-y,1/2-z
-x,y,1/2-z
-x,-y,-z
1/2+x,y,-z
1/2-x,y,1/2+z
x,-y,1/2+z
loop_
_atom_site_type_symbol
_atom_site_label
_atom_site_fract_x
_atom_site_fract_y
_atom_site_fract_z
Si Si1 0.861348 0.586005 0.520968
Si Si2 0.207857 0.737972 0.653925
Si Si3 0.500000 0.329164 0.250000
Si Si4 0.084903 0.275321 0.527564
Si Si5 0.500000 0.460876 0.750000
Si Si6 0.247378 0.134825 0.209676
Si Si7 0.143533 0.626519 0.846861
Si Si8 0.750000 0.000000 0.289340
O O1 0.628596 0.557655 0.488293
O O2 0.904448 0.653585 0.492117
O O3 0.804697 0.594991 0.590534
O O4 0.301519 0.713256 0.717532
O O5 0.391067 0.726647 0.598650
O O6 0.200049 0.810468 0.663248
O O7 0.974028 0.693809 0.641234
O O8 0.625099 0.366326 0.196878
O O9 0.333651 0.248004 0.498546
O O10 0.250000 0.500000 0.757977
O O11 0.534697 0.416581 0.807420
O O12 0.500000 0.143593 0.250000
O O13 0.262047 0.066917 0.180553
O O14 0.000000 0.135861 0.250000
O O15 0.500000 0.998672 0.250000
#
# Coordination Sequence:
#
# PCOD9421350 Si02
#       8
#     8   8   4   8   4   8   8   4
#     4  10  20  37  59  89 112 148 192 231 289 340
#     4  12  22  33  58  90 124 148 189 249 298 346
#     4  12  21  34  54  96 119 150 180 232 310 353
#     4  10  20  35  52  82 117 149 187 229 293 345
#     4  12  29  48  62  88 119 158 194 224 294 379
#     4  10  20  33  49  81 118 153 196 231 285 350
#     4  12  24  39  66  85 121 156 187 244 292 347
#     4   8  16  32  50  66 110 164 192 230 272 338
#
# _framework density 19.611113
#
# number of rings (size 3 to 8) (size 9 to 14) (size 15 to 20)
#    0.000    1.231    5.385    3.231    0.000    0.000 
#    0.000    0.000    0.000    2.769    0.000    1.077 
#    0.000    0.000    0.000    0.000    0.000    0.000 
#
# Total GULP energy -289992.716209 kJ/mol
# GULP energy per Si atom -5576.783004 kJ/mol
# Density = 1.956648 g / cm^3
# Si number density = 19.611113 Si / 1000 Ang^3
#
#
#
# Elastic Constant Matrix: (Units=GPa)
#
#
# Indices 1 2 3 4 5 6 
#
# 1 131.2081 18.7196 17.1931 0.0000 0.0000 0.0000
# 2 18.7196 98.3751 23.4871 0.0000 0.0000 0.0000
# 3 17.1931 23.4871 95.8812 0.0000 0.0000 0.0000
# 4 0.0000 0.0000 0.0000 34.0729 0.0000 0.0000
# 5 0.0000 0.0000 0.0000 0.0000 21.4398 0.0000
# 6 0.0000 0.0000 0.0000 0.0000 0.0000 19.6158
#
#
#
# Elastic Compliance Matrix: (Units=1/GPa)
#
#
# Indices 1 2 3 4 5 6 
#
# 1 0.007946 -0.001245 -0.001120 0.000000 0.000000 0.000000
# 2 -0.001245 0.010992 -0.002469 0.000000 0.000000 0.000000
# 3 -0.001120 -0.002469 0.011235 0.000000 0.000000 0.000000
# 4 0.000000 0.000000 0.000000 0.029349 0.000000 0.000000
# 5 0.000000 0.000000 0.000000 0.000000 0.046642 0.000000
# 6 0.000000 0.000000 0.000000 0.000000 0.000000 0.050979
#
#
# Mechanical properties :
#
#
# Convention : Reuss Voigt Hill
#
# Bulk Modulus (GPa) = 48.76877 49.36266 49.06571
# Shear Modulus (GPa) = 28.79426 32.76334 30.77880
#
# Velocity S-wave (km/s) = 3.83595 4.09180 3.96594
# Velocity P-wave (km/s) = 6.67392 6.89559 6.78566
#
# Compressibility (1/GPa) = 0.02050493
#
# Stress axis : x y z
#
# Youngs Moduli (GPa) = 125.85261 90.97892 89.00533
#
# Poissons Ratio (x) = 0.11323 0.09968
# Poissons Ratio (y) = 0.15664 0.21978
# Poissons Ratio (z) = 0.14095 0.22466
#
# Static dielectric constant tensor:
#      x y z
#    x 1.802590 0.000000 0.000000 
#    y 0.000000 1.852170 0.000000 
#    z 0.000000 0.000000 1.668590 
# 
# From -- ./inp_files/19830.got.cif
#   From: 2010.05.17/outbox.cif.g08.bks.cpg/sg54_10_cif.got.tgz:19830.got - 2010.06.03 13:09:01.
