data_PCOD9421468
_publ_section_title
;
Structure prediction by ZEFSAII (Michael W. Deem and Ramdas Pophale) SiO2 
 PCOD9421468
Probable space group: P C C A
;
_chemical_formula_sum "Si O2"
_cell_formula_units_Z 44
_cell_length_a 8.432897
_cell_length_b 14.687071
_cell_length_c 17.621586
_cell_angle_alpha 90.000000
_cell_angle_beta 90.000000
_cell_angle_gamma 90.000000
_cell_volume 2182.513727
_symmetry_space_group_name_H-M "P C C A"
_symmetry_group_IT_number 54
_symmetry_cell_setting 'orthorhombic'
loop_
_space_group_symop_operation_xyz
x,y,z
1/2-x,-y,z
1/2+x,-y,1/2-z
-x,y,1/2-z
-x,-y,-z
1/2+x,y,-z
1/2-x,y,1/2+z
x,-y,1/2+z
loop_
_atom_site_type_symbol
_atom_site_label
_atom_site_fract_x
_atom_site_fract_y
_atom_site_fract_z
Si Si1 0.624138 0.433673 0.539648
Si Si2 0.654126 0.307928 0.943410
Si Si3 0.663430 0.157392 0.074786
Si Si4 0.660052 0.161760 0.353394
Si Si5 0.250000 0.000000 0.530857
Si Si6 0.168623 0.903803 0.793028
O O1 0.750000 0.500000 0.582694
O O2 0.500000 0.500000 0.500000
O O3 0.512705 0.356027 0.577139
O O4 0.725059 0.383709 0.474500
O O5 0.737620 0.248112 0.879630
O O6 0.643748 0.238150 0.014522
O O7 0.525388 0.175305 0.134984
O O8 0.647793 0.063593 0.026492
O O9 0.823401 0.148844 0.126032
O O10 0.688774 0.077316 0.411382
O O11 0.718420 0.137613 0.270806
O O12 0.000000 0.912966 0.750000
O O13 0.250000 0.000000 0.811365
#
# Coordination Sequence:
#
# PCOD9421468 Si02
#       6
#     8   8   8   8   4   8
#     4   9  18  35  60  92 126 146 178 241 309 368
#     4  10  20  35  60  95 122 149 199 240 303 358
#     4  11  22  37  57  82 123 158 204 247 291 345
#     4  11  22  37  57  82 123 158 204 247 291 343
#     4  10  22  32  60  82 114 158 202 246 296 326
#     4  12  26  40  56  78 115 168 215 243 289 341
#
# _framework density 20.160240000000002
#
# number of rings (size 3 to 8) (size 9 to 14) (size 15 to 20)
#    0.000    1.455    3.636    2.182    2.545    1.455 
#    0.000    0.000    0.000    0.000    0.000   19.091 
#    0.000    0.000    0.000    0.000    0.000    0.000 
#
# Total GULP energy -245121.561369 kJ/mol
# GULP energy per Si atom -5570.944577 kJ/mol
# Density = 2.011435 g / cm^3
# Si number density = 20.160240 Si / 1000 Ang^3
#
#
#
# Elastic Constant Matrix: (Units=GPa)
#
#
# Indices 1 2 3 4 5 6 
#
# 1 79.7740 42.7264 15.5013 0.0000 0.0000 0.0000
# 2 42.7264 115.0478 26.4181 0.0000 0.0000 0.0000
# 3 15.5013 26.4181 78.9127 0.0000 0.0000 0.0000
# 4 0.0000 0.0000 0.0000 5.2002 0.0000 0.0000
# 5 0.0000 0.0000 0.0000 0.0000 8.3203 0.0000
# 6 0.0000 0.0000 0.0000 0.0000 0.0000 31.5195
#
#
#
# Elastic Compliance Matrix: (Units=1/GPa)
#
#
# Indices 1 2 3 4 5 6 
#
# 1 0.015757 -0.005569 -0.001231 0.000000 0.000000 0.000000
# 2 -0.005569 0.011384 -0.002717 0.000000 0.000000 0.000000
# 3 -0.001231 -0.002717 0.013824 0.000000 0.000000 0.000000
# 4 0.000000 0.000000 0.000000 0.192299 0.000000 0.000000
# 5 0.000000 0.000000 0.000000 0.000000 0.120189 0.000000
# 6 0.000000 0.000000 0.000000 0.000000 0.000000 0.031726
#
#
# Mechanical properties :
#
#
# Convention : Reuss Voigt Hill
#
# Bulk Modulus (GPa) = 45.59818 49.22511 47.41165
# Shear Modulus (GPa) = 12.14995 21.61392 16.88194
#
# Velocity S-wave (km/s) = 2.45760 3.27786 2.89690
# Velocity P-wave (km/s) = 5.54256 6.22862 5.89558
#
# Compressibility (1/GPa) = 0.02193070
#
# Stress axis : x y z
#
# Youngs Moduli (GPa) = 63.46186 87.84006 72.33974
#
# Poissons Ratio (x) = 0.48921 0.08904
# Poissons Ratio (y) = 0.35344 0.19656
# Poissons Ratio (z) = 0.07811 0.23868
#
# Static dielectric constant tensor:
#      x y z
#    x 1.857510 0.000000 0.000000 
#    y 0.000000 1.779020 0.000000 
#    z 0.000000 0.000000 1.661510 
# 
# From -- ./inp_files/16518.got.cif
#   From: 2010.05.17/outbox.cif.g08.bks.cpg/sg54_9_cif.got.tgz:16518.got - 2010.06.03 13:09:01.
