data_PCOD9421176
_publ_section_title
;
Structure prediction by ZEFSAII (Michael W. Deem and Ramdas Pophale) SiO2 
 PCOD9421176
Probable space group: P C C A
;
_chemical_formula_sum "Si O2"
_cell_formula_units_Z 40
_cell_length_a 9.555116
_cell_length_b 10.897858
_cell_length_c 18.208336
_cell_angle_alpha 90.000000
_cell_angle_beta 90.000000
_cell_angle_gamma 90.000000
_cell_volume 1896.039442
_symmetry_space_group_name_H-M "P C C A"
_symmetry_group_IT_number 54
_symmetry_cell_setting 'orthorhombic'
loop_
_space_group_symop_operation_xyz
x,y,z
1/2-x,-y,z
1/2+x,-y,1/2-z
-x,y,1/2-z
-x,-y,-z
1/2+x,y,-z
1/2-x,y,1/2+z
x,-y,1/2+z
loop_
_atom_site_type_symbol
_atom_site_label
_atom_site_fract_x
_atom_site_fract_y
_atom_site_fract_z
Si Si1 0.750000 0.500000 0.760248
Si Si2 0.250000 0.500000 0.981499
Si Si3 0.582686 0.357669 0.637357
Si Si4 0.245278 0.671577 0.619901
Si Si5 0.381424 0.090668 0.912803
Si Si6 0.384557 0.917460 0.579214
O O1 0.650021 0.421099 0.708225
O O2 0.823784 0.411087 0.819452
O O3 0.124953 0.546680 0.928063
O O4 0.263816 0.612582 0.038598
O O5 0.418178 0.327177 0.642035
O O6 0.648289 0.222522 0.622588
O O7 0.328522 0.797126 0.617918
O O8 0.250000 0.000000 0.912667
O O9 0.503950 0.004317 0.881019
O O10 0.433226 0.118709 0.996641
O O11 0.250000 0.000000 0.567470
#
# Coordination Sequence:
#
# PCOD9421176 Si02
#       6
#     4   4   8   8   8   8
#     4  10  26  42  60  90 130 180 224 270 342 394
#     4  10  22  34  62 102 120 168 216 270 344 392
#     4  11  21  42  63  90 134 171 217 281 330 405
#     4  11  21  41  64  93 129 173 223 278 329 411
#     4  10  21  36  62  99 132 164 210 278 337 396
#     4  10  19  36  64  97 128 166 215 274 340 398
#
# _framework density 21.096606999999999
#
# number of rings (size 3 to 8) (size 9 to 14) (size 15 to 20)
#    0.000    1.600    4.000    1.200    0.000    0.000 
#   18.000    1.000    0.000    0.000    0.000    0.000 
#    0.000    0.000    0.000    0.000    0.000    0.000 
#
# Total GULP energy -222888.759376 kJ/mol
# GULP energy per Si atom -5572.218984 kJ/mol
# Density = 2.104859 g / cm^3
# Si number density = 21.096607 Si / 1000 Ang^3
#
#
#
# Elastic Constant Matrix: (Units=GPa)
#
#
# Indices 1 2 3 4 5 6 
#
# 1 64.9751 25.4256 14.3653 0.0000 0.0000 0.0000
# 2 25.4256 151.4485 54.6792 0.0000 0.0000 0.0000
# 3 14.3653 54.6792 105.2743 0.0000 0.0000 0.0000
# 4 0.0000 0.0000 0.0000 81.1522 0.0000 0.0000
# 5 0.0000 0.0000 0.0000 0.0000 21.2878 0.0000
# 6 0.0000 0.0000 0.0000 0.0000 0.0000 41.9904
#
#
#
# Elastic Compliance Matrix: (Units=1/GPa)
#
#
# Indices 1 2 3 4 5 6 
#
# 1 0.016558 -0.002417 -0.001004 0.000000 0.000000 0.000000
# 2 -0.002417 0.008480 -0.004075 0.000000 0.000000 0.000000
# 3 -0.001004 -0.004075 0.011752 0.000000 0.000000 0.000000
# 4 0.000000 0.000000 0.000000 0.012323 0.000000 0.000000
# 5 0.000000 0.000000 0.000000 0.000000 0.046975 0.000000
# 6 0.000000 0.000000 0.000000 0.000000 0.000000 0.023815
#
#
# Mechanical properties :
#
#
# Convention : Reuss Voigt Hill
#
# Bulk Modulus (GPa) = 45.87399 56.73757 51.30578
# Shear Modulus (GPa) = 35.17131 44.03459 39.60295
#
# Velocity S-wave (km/s) = 4.08751 4.57364 4.33739
# Velocity P-wave (km/s) = 6.63844 7.40563 7.03251
#
# Compressibility (1/GPa) = 0.02179884
#
# Stress axis : x y z
#
# Youngs Moduli (GPa) = 60.39218 117.92696 85.08993
#
# Poissons Ratio (x) = 0.28508 0.08542
# Poissons Ratio (y) = 0.14599 0.34670
# Poissons Ratio (z) = 0.06063 0.48050
#
# Static dielectric constant tensor:
#      x y z
#    x 1.723000 0.000000 0.000000 
#    y 0.000000 1.748120 0.000000 
#    z 0.000000 0.000000 1.789500 
# 
# From -- ./inp_files/16361.got.cif
#   From: 2010.05.17/outbox.cif.g08.bks.cpg/sg54_9_cif.got.tgz:16361.got - 2010.06.03 13:09:01.
