data_PCOD9421477
_publ_section_title
;
Structure prediction by ZEFSAII (Michael W. Deem and Ramdas Pophale) SiO2 
 PCOD9421477
Probable space group: P C C A
;
_chemical_formula_sum "Si O2"
_cell_formula_units_Z 32
_cell_length_a 14.533889
_cell_length_b 7.044677
_cell_length_c 11.434795
_cell_angle_alpha 90.000000
_cell_angle_beta 90.000000
_cell_angle_gamma 90.000000
_cell_volume 1170.769251
_symmetry_space_group_name_H-M "P C C A"
_symmetry_group_IT_number 54
_symmetry_cell_setting 'orthorhombic'
loop_
_space_group_symop_operation_xyz
x,y,z
1/2-x,-y,z
1/2+x,-y,1/2-z
-x,y,1/2-z
-x,-y,-z
1/2+x,y,-z
1/2-x,y,1/2+z
x,-y,1/2+z
loop_
_atom_site_type_symbol
_atom_site_label
_atom_site_fract_x
_atom_site_fract_y
_atom_site_fract_z
Si Si1 0.777987 0.777958 0.131511
Si Si2 0.008717 0.385828 0.121578
Si Si3 0.952294 0.996424 0.125315
Si Si4 0.282869 0.224849 0.619809
O O1 0.886012 0.816971 0.120924
O O2 0.757492 0.699057 0.258899
O O3 0.750000 0.000000 0.136234
O O4 0.747188 0.701867 0.005552
O O5 0.108494 0.276697 0.123127
O O6 0.000000 0.483895 0.250000
O O7 0.928598 0.222646 0.127881
O O8 0.000000 0.500000 0.000000
O O9 0.000000 0.972710 0.250000
O O10 0.000000 0.000000 0.000000
O O11 0.250000 0.000000 0.618158
#
# Coordination Sequence:
#
# PCOD9421477 Si02
#       4
#     8   8   8   8
#     4  10  20  35  64 100 136 172 239 320 372 424
#     4  11  24  45  67 102 151 199 244 304 386 474
#     4  11  22  39  66 107 136 184 253 321 367 443
#     4  10  20  40  66 104 136 185 248 320 376 443
#
# _framework density 27.332457000000002
#
# number of rings (size 3 to 8) (size 9 to 14) (size 15 to 20)
#    0.000    1.500    2.500    6.000    3.500    1.000 
#    0.000    0.000    0.000   25.500    0.000    0.000 
#    0.000    0.000    0.000    0.000    0.000    0.000 
#
# Total GULP energy -178169.720093 kJ/mol
# GULP energy per Si atom -5567.803753 kJ/mol
# Density = 2.727025 g / cm^3
# Si number density = 27.332457 Si / 1000 Ang^3
#
#
#
# Elastic Constant Matrix: (Units=GPa)
#
#
# Indices 1 2 3 4 5 6 
#
# 1 97.4183 22.1196 78.3445 0.0000 0.0000 0.0000
# 2 22.1196 142.5999 60.3909 0.0000 0.0000 0.0000
# 3 78.3445 60.3909 430.4017 0.0000 0.0000 0.0000
# 4 0.0000 0.0000 0.0000 -2.7012 0.0000 0.0000
# 5 0.0000 0.0000 0.0000 0.0000 59.0773 0.0000
# 6 0.0000 0.0000 0.0000 0.0000 0.0000 22.3193
#
#
#
# Elastic Compliance Matrix: (Units=1/GPa)
#
#
# Indices 1 2 3 4 5 6 
#
# 1 0.012160 -0.001009 -0.002072 0.000000 0.000000 0.000000
# 2 -0.001009 0.007539 -0.000874 0.000000 0.000000 0.000000
# 3 -0.002072 -0.000874 0.002823 0.000000 0.000000 0.000000
# 4 0.000000 0.000000 0.000000 -0.370205 0.000000 0.000000
# 5 0.000000 0.000000 0.000000 0.000000 0.016927 0.000000
# 6 0.000000 0.000000 0.000000 0.000000 0.000000 0.044804
#
#
# Mechanical properties :
#
#
# Convention : Reuss Voigt Hill
#
# Bulk Modulus (GPa) = 68.43251 110.23665 89.33458
# Shear Modulus (GPa) = -18.30367 49.71006 15.70320
#
# Velocity S-wave (km/s) = -2.59060 4.26927 2.39953
# Velocity P-wave (km/s) = 4.01785 8.04497 6.35864
#
# Compressibility (1/GPa) = 0.01461294
#
# Stress axis : x y z
#
# Youngs Moduli (GPa) = 82.23444 132.63742 354.20435
#
# Poissons Ratio (x) = 0.13380 0.73390
# Poissons Ratio (y) = 0.08296 0.30966
# Poissons Ratio (z) = 0.17039 0.11596
#
# Static dielectric constant tensor:
#      x y z
#    x 1.977770 0.000000 0.000000 
#    y 0.000000 2.151220 0.000000 
#    z 0.000000 0.000000 2.030030 
# 
# From -- ./inp_files/7929.got.cif
#   From: 2010.05.17/outbox.cif.g08.bks.cpg/sg54_4_cif.got.tgz:7929.got - 2010.06.03 13:09:01.
