data_PCOD9421874
_publ_section_title
;
Structure prediction by ZEFSAII (Michael W. Deem and Ramdas Pophale) SiO2 
 PCOD9421874
Probable space group: P C C A
;
_chemical_formula_sum "Si O2"
_cell_formula_units_Z 32
_cell_length_a 8.897659
_cell_length_b 12.751626
_cell_length_c 13.380707
_cell_angle_alpha 90.000000
_cell_angle_beta 90.000000
_cell_angle_gamma 90.000000
_cell_volume 1518.169929
_symmetry_space_group_name_H-M "P C C A"
_symmetry_group_IT_number 54
_symmetry_cell_setting 'orthorhombic'
loop_
_space_group_symop_operation_xyz
x,y,z
1/2-x,-y,z
1/2+x,-y,1/2-z
-x,y,1/2-z
-x,-y,-z
1/2+x,y,-z
1/2-x,y,1/2+z
x,-y,1/2+z
loop_
_atom_site_type_symbol
_atom_site_label
_atom_site_fract_x
_atom_site_fract_y
_atom_site_fract_z
Si Si1 0.711672 0.258752 0.387801
Si Si2 0.493901 0.377841 0.978960
Si Si3 0.870620 0.078083 0.036082
Si Si4 0.857743 0.733732 0.684741
O O1 0.560280 0.317814 0.421637
O O2 0.698204 0.146447 0.444092
O O3 0.730994 0.251142 0.268290
O O4 0.854495 0.324295 0.434019
O O5 0.357391 0.354736 0.900073
O O6 0.500000 0.500000 0.000000
O O7 0.901952 0.162844 0.121792
O O8 0.750000 0.000000 0.080555
O O9 0.000000 0.000000 0.000000
O O10 0.000000 0.703850 0.750000
#
# Coordination Sequence:
#
# PCOD9421874 Si02
#       4
#     8   8   8   8
#     4  10  21  41  61  89 125 157 206 260 305 371
#     4  10  20  39  64  88 121 161 201 255 315 372
#     4  11  22  38  61  86 117 159 200 249 307 359
#     4   9  20  38  59  87 119 153 199 250 300 362
#
# _framework density 21.078009000000002
#
# number of rings (size 3 to 8) (size 9 to 14) (size 15 to 20)
#    0.000    2.000    0.000    5.250    0.000    3.000 
#    0.000   37.500    0.000    0.000    0.000    0.000 
#    0.000    0.000    0.000    0.000    0.000    0.000 
#
# Total GULP energy -178160.719768 kJ/mol
# GULP energy per Si atom -5567.522493 kJ/mol
# Density = 2.103003 g / cm^3
# Si number density = 21.078009 Si / 1000 Ang^3
#
#
#
# Elastic Constant Matrix: (Units=GPa)
#
#
# Indices 1 2 3 4 5 6 
#
# 1 46.6164 21.7350 22.2874 0.0000 0.0000 0.0000
# 2 21.7350 128.1457 37.2257 0.0000 0.0000 0.0000
# 3 22.2874 37.2257 136.2092 0.0000 0.0000 0.0000
# 4 0.0000 0.0000 0.0000 3.1992 0.0000 0.0000
# 5 0.0000 0.0000 0.0000 0.0000 38.2208 0.0000
# 6 0.0000 0.0000 0.0000 0.0000 0.0000 36.0826
#
#
#
# Elastic Compliance Matrix: (Units=1/GPa)
#
#
# Indices 1 2 3 4 5 6 
#
# 1 0.024453 -0.003243 -0.003115 0.000000 0.000000 0.000000
# 2 -0.003243 0.008907 -0.001904 0.000000 0.000000 0.000000
# 3 -0.003115 -0.001904 0.008372 0.000000 0.000000 0.000000
# 4 0.000000 0.000000 0.000000 0.312577 0.000000 0.000000
# 5 0.000000 0.000000 0.000000 0.000000 0.026164 0.000000
# 6 0.000000 0.000000 0.000000 0.000000 0.000000 0.027714
#
#
# Mechanical properties :
#
#
# Convention : Reuss Voigt Hill
#
# Bulk Modulus (GPa) = 39.66876 52.60749 46.13813
# Shear Modulus (GPa) = 11.54439 30.81540 21.17990
#
# Velocity S-wave (km/s) = 2.34283 3.82772 3.17335
# Velocity P-wave (km/s) = 5.11657 6.67442 5.94673
#
# Compressibility (1/GPa) = 0.02520875
#
# Stress axis : x y z
#
# Youngs Moduli (GPa) = 40.89512 112.27652 119.45186
#
# Poissons Ratio (x) = 0.36407 0.37208
# Poissons Ratio (y) = 0.13261 0.22739
# Poissons Ratio (z) = 0.12738 0.21373
#
# Static dielectric constant tensor:
#      x y z
#    x 1.782820 0.000000 0.000000 
#    y 0.000000 1.709340 0.000000 
#    z 0.000000 0.000000 1.808450 
# 
# From -- ./inp_files/7288.got.cif
#   From: 2010.05.17/outbox.cif.g08.bks.cpg/sg54_4_cif.got.tgz:7288.got - 2010.06.03 13:09:01.
