data_PCOD9421281
_publ_section_title
;
Structure prediction by ZEFSAII (Michael W. Deem and Ramdas Pophale) SiO2 
 PCOD9421281
Probable space group: P C C A
;
_chemical_formula_sum "Si O2"
_cell_formula_units_Z 64
_cell_length_a 17.440316
_cell_length_b 9.469198
_cell_length_c 18.982710
_cell_angle_alpha 90.000000
_cell_angle_beta 90.000000
_cell_angle_gamma 90.000000
_cell_volume 3134.914931
_symmetry_space_group_name_H-M "P C C A"
_symmetry_group_IT_number 54
_symmetry_cell_setting 'orthorhombic'
loop_
_space_group_symop_operation_xyz
x,y,z
1/2-x,-y,z
1/2+x,-y,1/2-z
-x,y,1/2-z
-x,-y,-z
1/2+x,y,-z
1/2-x,y,1/2+z
x,-y,1/2+z
loop_
_atom_site_type_symbol
_atom_site_label
_atom_site_fract_x
_atom_site_fract_y
_atom_site_fract_z
Si Si1 0.464505 0.741479 0.592667
Si Si2 0.478078 0.480518 0.826263
Si Si3 0.890825 0.184486 0.041525
Si Si4 0.581615 0.056477 0.288202
Si Si5 0.796021 0.141491 0.670391
Si Si6 0.613282 0.137383 0.031911
Si Si7 0.055071 0.792952 0.615163
Si Si8 0.192869 0.372571 0.349786
O O1 0.507960 0.601589 0.616607
O O2 0.410126 0.721581 0.526223
O O3 0.421489 0.815419 0.656569
O O4 0.527789 0.850844 0.563910
O O5 0.500000 0.538542 0.750000
O O6 0.536110 0.352520 0.844851
O O7 0.389790 0.430002 0.825050
O O8 0.829509 0.268531 0.086572
O O9 0.968902 0.168010 0.087607
O O10 0.867358 0.027000 0.019551
O O11 0.500000 0.046790 0.250000
O O12 0.642599 0.092446 0.228207
O O13 0.588842 0.911403 0.332672
O O14 0.835596 0.190876 0.597171
O O15 0.741107 0.265251 0.699258
O O16 0.750000 0.000000 0.653574
O O17 0.606497 0.214066 0.956136
O O18 0.250000 0.500000 0.366857
#
# Coordination Sequence:
#
# PCOD9421281 Si02
#       8
#     8   8   8   8   8   8   8   8
#     4  11  21  38  71 100 125 165 227 282 328 391
#     4  11  26  42  67  99 139 179 224 279 343 403
#     4  10  19  40  67  99 129 161 220 287 332 392
#     4  12  22  38  69 100 128 173 231 280 326 398
#     4  12  26  41  66  95 136 183 226 270 350 419
#     4  11  19  40  67 100 125 165 223 286 332 389
#     4  10  21  38  67  98 128 162 221 284 330 381
#     4  11  26  44  62  92 138 183 218 275 343 419
#
# _framework density 20.415226000000001
#
# number of rings (size 3 to 8) (size 9 to 14) (size 15 to 20)
#    0.000    1.000    5.000    2.250    5.250    5.500 
#    0.000    1.875    2.750    0.000    0.000    0.000 
#    0.000    0.000    0.000    0.000    0.000    0.000 
#
# Total GULP energy -357201.549900 kJ/mol
# GULP energy per Si atom -5581.274217 kJ/mol
# Density = 2.036876 g / cm^3
# Si number density = 20.415226 Si / 1000 Ang^3
#
#
#
# Elastic Constant Matrix: (Units=GPa)
#
#
# Indices 1 2 3 4 5 6 
#
# 1 82.6122 30.3339 48.8517 0.0000 0.0000 0.0000
# 2 30.3339 90.0620 17.2884 0.0000 0.0000 0.0000
# 3 48.8517 17.2884 92.8477 0.0000 0.0000 0.0000
# 4 0.0000 0.0000 0.0000 15.5144 0.0000 0.0000
# 5 0.0000 0.0000 0.0000 0.0000 13.1008 0.0000
# 6 0.0000 0.0000 0.0000 0.0000 0.0000 28.0674
#
#
#
# Elastic Compliance Matrix: (Units=1/GPa)
#
#
# Indices 1 2 3 4 5 6 
#
# 1 0.019337 -0.004729 -0.009293 0.000000 0.000000 0.000000
# 2 -0.004729 0.012671 0.000129 0.000000 0.000000 0.000000
# 3 -0.009293 0.000129 0.015636 0.000000 0.000000 0.000000
# 4 0.000000 0.000000 0.000000 0.064456 0.000000 0.000000
# 5 0.000000 0.000000 0.000000 0.000000 0.076331 0.000000
# 6 0.000000 0.000000 0.000000 0.000000 0.000000 0.035629
#
#
# Mechanical properties :
#
#
# Convention : Reuss Voigt Hill
#
# Bulk Modulus (GPa) = 50.36019 50.94110 50.65064
# Shear Modulus (GPa) = 19.34488 22.60639 20.97564
#
# Velocity S-wave (km/s) = 3.08160 3.33127 3.20886
# Velocity P-wave (km/s) = 6.11418 6.30897 6.21234
#
# Compressibility (1/GPa) = 0.01985695
#
# Stress axis : x y z
#
# Youngs Moduli (GPa) = 51.71521 78.91728 63.95453
#
# Poissons Ratio (x) = 0.37319 0.59436
# Poissons Ratio (y) = 0.24455 -0.00823
# Poissons Ratio (z) = 0.48061 -0.01015
#
# Static dielectric constant tensor:
#      x y z
#    x 1.747660 0.000000 0.000000 
#    y 0.000000 1.732670 0.000000 
#    z 0.000000 0.000000 1.745100 
# 
# From -- ./inp_files/21982.got.cif
#   From: 2010.05.17/outbox.cif.g08.bks.cpg/sg54_11_cif.got.tgz:21982.got - 2010.06.03 13:09:01.
