data_PCOD9421638
_publ_section_title
;
Structure prediction by ZEFSAII (Michael W. Deem and Ramdas Pophale) SiO2 
 PCOD9421638
Probable space group: P C C A
;
_chemical_formula_sum "Si O2"
_cell_formula_units_Z 60
_cell_length_a 21.366179
_cell_length_b 5.005721
_cell_length_c 25.309802
_cell_angle_alpha 90.000000
_cell_angle_beta 90.000000
_cell_angle_gamma 90.000000
_cell_volume 2706.962567
_symmetry_space_group_name_H-M "P C C A"
_symmetry_group_IT_number 54
_symmetry_cell_setting 'orthorhombic'
loop_
_space_group_symop_operation_xyz
x,y,z
1/2-x,-y,z
1/2+x,-y,1/2-z
-x,y,1/2-z
-x,-y,-z
1/2+x,y,-z
1/2-x,y,1/2+z
x,-y,1/2+z
loop_
_atom_site_type_symbol
_atom_site_label
_atom_site_fract_x
_atom_site_fract_y
_atom_site_fract_z
Si Si1 0.410653 0.614211 0.659584
Si Si2 0.813620 0.846033 0.560457
Si Si3 0.250000 0.000000 0.170942
Si Si4 0.120823 0.919249 0.724722
Si Si5 0.539559 0.525710 0.604523
Si Si6 0.687377 0.420795 0.910975
Si Si7 0.393563 0.031271 0.848728
Si Si8 0.622237 0.666065 0.515579
O O1 0.394692 0.362868 0.697170
O O2 0.469043 0.574076 0.621496
O O3 0.348986 0.643713 0.622821
O O4 0.423163 0.866911 0.695873
O O5 0.828691 0.889244 0.622247
O O6 0.828042 0.544093 0.542625
O O7 0.750000 0.000000 0.546366
O O8 0.865554 0.030923 0.532506
O O9 0.309342 0.028522 0.210714
O O10 0.281737 0.782892 0.131106
O O11 0.110283 0.918611 0.786807
O O12 0.557422 0.231572 0.623886
O O13 0.558113 0.573894 0.543449
O O14 0.584480 0.732764 0.636664
O O15 0.750000 0.500000 0.942081
O O16 0.636251 0.332827 0.953461
#
# Coordination Sequence:
#
# PCOD9421638 Si02
#       8
#     8   8   4   8   8   8   8   8
#     4  11  24  39  63  86 125 156 207 244 304 344
#     4  10  20  37  55  90 117 156 197 252 293 362
#     4  10  24  40  60  88 134 144 212 244 300 362
#     4  11  23  40  61  93 114 170 193 252 301 358
#     4  10  22  43  57  92 122 155 201 258 282 376
#     4  11  22  40  62  89 119 163 197 253 299 367
#     4  10  22  38  63  85 124 157 204 242 310 345
#     4  10  23  36  62  85 121 155 200 243 306 348
#
# _framework density 22.165065999999999
#
# number of rings (size 3 to 8) (size 9 to 14) (size 15 to 20)
#    0.000    1.600    1.333    2.800    3.733    3.733 
#    0.000    0.000    0.000    7.200    0.000    0.000 
#    0.000    0.000    0.000    0.000    0.000    0.000 
#
# Total GULP energy -334491.095712 kJ/mol
# GULP energy per Si atom -5574.851595 kJ/mol
# Density = 2.211462 g / cm^3
# Si number density = 22.165066 Si / 1000 Ang^3
#
#
#
# Elastic Constant Matrix: (Units=GPa)
#
#
# Indices 1 2 3 4 5 6 
#
# 1 45.7824 -10.0153 21.0534 0.0000 0.0000 0.0000
# 2 -10.0153 63.8379 7.2442 0.0000 0.0000 0.0000
# 3 21.0534 7.2442 69.0755 0.0000 0.0000 0.0000
# 4 0.0000 0.0000 0.0000 639.7201 0.0000 0.0000
# 5 0.0000 0.0000 0.0000 0.0000 9.0831 0.0000
# 6 0.0000 0.0000 0.0000 0.0000 0.0000 16.0823
#
#
#
# Elastic Compliance Matrix: (Units=1/GPa)
#
#
# Indices 1 2 3 4 5 6 
#
# 1 0.027029 0.005238 -0.008787 0.000000 0.000000 0.000000
# 2 0.005238 0.016868 -0.003365 0.000000 0.000000 0.000000
# 3 -0.008787 -0.003365 0.017508 0.000000 0.000000 0.000000
# 4 0.000000 0.000000 0.000000 0.001563 0.000000 0.000000
# 5 0.000000 0.000000 0.000000 0.000000 0.110095 0.000000
# 6 0.000000 0.000000 0.000000 0.000000 0.000000 0.062180
#
#
# Mechanical properties :
#
#
# Convention : Reuss Voigt Hill
#
# Bulk Modulus (GPa) = 21.01931 23.91782 22.46857
# Shear Modulus (GPa) = 18.87272 143.67132 81.27202
#
# Velocity S-wave (km/s) = 2.92115 8.05975 6.06187
# Velocity P-wave (km/s) = 4.56959 9.87051 7.69117
#
# Compressibility (1/GPa) = 0.04757529
#
# Stress axis : x y z
#
# Youngs Moduli (GPa) = 36.99699 59.28280 57.11619
#
# Poissons Ratio (x) = -0.31051 0.50191
# Poissons Ratio (y) = -0.19378 0.19222
# Poissons Ratio (z) = 0.32511 0.19951
#
# Static dielectric constant tensor:
#      x y z
#    x 1.896460 0.000000 0.000000 
#    y 0.000000 1.812720 0.000000 
#    z 0.000000 0.000000 1.839200 
# 
# From -- ./inp_files/24770.got.cif
#   From: 2010.05.17/outbox.cif.g08.bks.cpg/sg54_13_cif.got.tgz:24770.got - 2010.06.03 13:09:01.
