data_PCOD9421624
_publ_section_title
;
Structure prediction by ZEFSAII (Michael W. Deem and Ramdas Pophale) SiO2 
 PCOD9421624
Probable space group: P C C A
;
_chemical_formula_sum "Si O2"
_cell_formula_units_Z 32
_cell_length_a 8.126840
_cell_length_b 7.665975
_cell_length_c 21.634669
_cell_angle_alpha 90.000000
_cell_angle_beta 90.000000
_cell_angle_gamma 90.000000
_cell_volume 1347.843173
_symmetry_space_group_name_H-M "P C C A"
_symmetry_group_IT_number 54
_symmetry_cell_setting 'orthorhombic'
loop_
_space_group_symop_operation_xyz
x,y,z
1/2-x,-y,z
1/2+x,-y,1/2-z
-x,y,1/2-z
-x,-y,-z
1/2+x,y,-z
1/2-x,y,1/2+z
x,-y,1/2+z
loop_
_atom_site_type_symbol
_atom_site_label
_atom_site_fract_x
_atom_site_fract_y
_atom_site_fract_z
Si Si1 0.415793 0.233632 0.434882
Si Si2 0.250000 0.500000 0.849607
Si Si3 0.283898 0.302758 0.152179
Si Si4 0.584909 0.115428 0.935048
Si Si5 0.000000 0.641474 0.250000
O O1 0.273880 0.335123 0.397077
O O2 0.584396 0.300743 0.403610
O O3 0.422658 0.252975 0.508986
O O4 0.437345 0.022614 0.430484
O O5 0.401104 0.528736 0.801355
O O6 0.250000 0.500000 0.168121
O O7 0.123262 0.206576 0.129236
O O8 0.375199 0.235058 0.212479
O O9 0.750000 0.000000 0.947221
#
# Coordination Sequence:
#
# PCOD9421624 Si02
#       5
#     8   4   8   8   4
#     4   9  20  38  60  91 135 165 213 267 345 403
#     4  10  20  38  64  94 128 176 224 282 324 396
#     4  10  20  36  65  91 123 169 221 276 330 386
#     4   9  19  39  59  93 131 170 207 278 336 409
#     4  10  20  40  58  96 122 168 224 286 312 396
#
# _framework density 23.741634000000001
#
# number of rings (size 3 to 8) (size 9 to 14) (size 15 to 20)
#    0.000    2.500    1.250    0.000    1.750    1.000 
#   22.500    0.000    0.000   54.000    0.000    0.000 
#    0.000    0.000    0.000    0.000    0.000    0.000 
#
# Total GULP energy -178233.094469 kJ/mol
# GULP energy per Si atom -5569.784202 kJ/mol
# Density = 2.368760 g / cm^3
# Si number density = 23.741634 Si / 1000 Ang^3
#
#
#
# Elastic Constant Matrix: (Units=GPa)
#
#
# Indices 1 2 3 4 5 6 
#
# 1 79.7034 23.6093 44.1732 0.0000 0.0000 0.0000
# 2 23.6093 54.6414 62.8879 0.0000 0.0000 0.0000
# 3 44.1732 62.8879 152.6382 0.0000 0.0000 0.0000
# 4 0.0000 0.0000 0.0000 -67.3914 0.0000 0.0000
# 5 0.0000 0.0000 0.0000 0.0000 47.0690 0.0000
# 6 0.0000 0.0000 0.0000 0.0000 0.0000 31.1944
#
#
#
# Elastic Compliance Matrix: (Units=1/GPa)
#
#
# Indices 1 2 3 4 5 6 
#
# 1 0.015174 -0.002857 -0.003214 0.000000 0.000000 0.000000
# 2 -0.002857 0.035343 -0.013735 0.000000 0.000000 0.000000
# 3 -0.003214 -0.013735 0.013140 0.000000 0.000000 0.000000
# 4 0.000000 0.000000 0.000000 -0.014839 0.000000 0.000000
# 5 0.000000 0.000000 0.000000 0.000000 0.021245 0.000000
# 6 0.000000 0.000000 0.000000 0.000000 0.000000 0.032057
#
#
# Mechanical properties :
#
#
# Convention : Reuss Voigt Hill
#
# Bulk Modulus (GPa) = 41.58750 60.92487 51.25618
# Shear Modulus (GPa) = 33.38909 12.59523 22.99216
#
# Velocity S-wave (km/s) = 3.75420 2.30578 3.11534
# Velocity P-wave (km/s) = 6.02883 5.72767 5.88018
#
# Compressibility (1/GPa) = 0.02404569
#
# Stress axis : x y z
#
# Youngs Moduli (GPa) = 65.90118 28.29386 76.10063
#
# Poissons Ratio (x) = 0.08084 0.24461
# Poissons Ratio (y) = 0.18828 1.04523
# Poissons Ratio (z) = 0.21182 0.38861
#
# Static dielectric constant tensor:
#      x y z
#    x 2.024380 0.000000 0.000000 
#    y 0.000000 1.936470 0.000000 
#    z 0.000000 0.000000 1.985330 
# 
# From -- ./inp_files/20062.got.cif
#   From: 2010.05.17/outbox.cif.g08.bks.cpg/sg54_11_cif.got.tgz:20062.got - 2010.06.03 13:09:01.
