data_PCOD9421218
_publ_section_title
;
Structure prediction by ZEFSAII (Michael W. Deem and Ramdas Pophale) SiO2 
 PCOD9421218
Probable space group: P C C A
;
_chemical_formula_sum "Si O2"
_cell_formula_units_Z 60
_cell_length_a 17.624527
_cell_length_b 9.928219
_cell_length_c 14.310773
_cell_angle_alpha 90.000000
_cell_angle_beta 90.000000
_cell_angle_gamma 90.000000
_cell_volume 2504.101404
_symmetry_space_group_name_H-M "P C C A"
_symmetry_group_IT_number 54
_symmetry_cell_setting 'orthorhombic'
loop_
_space_group_symop_operation_xyz
x,y,z
1/2-x,-y,z
1/2+x,-y,1/2-z
-x,y,1/2-z
-x,-y,-z
1/2+x,y,-z
1/2-x,y,1/2+z
x,-y,1/2+z
loop_
_atom_site_type_symbol
_atom_site_label
_atom_site_fract_x
_atom_site_fract_y
_atom_site_fract_z
Si Si1 0.410709 0.498872 0.510557
Si Si2 0.250000 0.500000 0.810741
Si Si3 0.288738 0.853759 0.624838
Si Si4 0.352023 0.201961 0.521211
Si Si5 0.373782 0.780912 0.444250
Si Si6 0.914811 0.545600 0.785805
Si Si7 0.774854 0.800673 0.158176
Si Si8 0.028964 0.843976 0.656477
O O1 0.500000 0.500000 0.500000
O O2 0.389874 0.343889 0.496283
O O3 0.374408 0.616974 0.450048
O O4 0.397672 0.531432 0.618585
O O5 0.331727 0.463274 0.761724
O O6 0.225946 0.360150 0.857473
O O7 0.221626 0.760513 0.582856
O O8 0.354179 0.830440 0.548748
O O9 0.298648 0.829641 0.735442
O O10 0.250000 0.000000 0.614457
O O11 0.326911 0.138058 0.423289
O O12 0.406188 0.110464 0.585278
O O13 0.311291 0.835675 0.370929
O O14 0.455881 0.818041 0.406529
O O15 0.933771 0.703178 0.806176
O O16 0.000000 0.497526 0.750000
O O17 0.000000 0.918278 0.750000
#
# Coordination Sequence:
#
# PCOD9421218 Si02
#       8
#     8   4   8   8   8   8   8   8
#     4  11  20  36  63  99 145 175 205 274 353 435
#     4  12  22  34  60 100 134 180 228 280 354 438
#     4  11  26  47  66  91 128 178 237 299 347 396
#     4  10  22  38  66 102 132 174 226 271 342 427
#     4  11  22  41  68 101 132 180 223 277 355 422
#     4  10  21  33  55  86 137 191 225 259 330 425
#     4  11  23  38  64  93 137 172 225 283 343 423
#     4  10  19  37  64  94 135 175 220 266 336 422
#
# _framework density 23.960691000000001
#
# number of rings (size 3 to 8) (size 9 to 14) (size 15 to 20)
#    0.000    1.333    2.667    5.600    1.867    5.867 
#    0.000    1.333    0.000    1.600    0.000    0.000 
#    0.000    0.000    0.000    0.000    0.000    0.000 
#
# Total GULP energy -334589.685245 kJ/mol
# GULP energy per Si atom -5576.494754 kJ/mol
# Density = 2.390616 g / cm^3
# Si number density = 23.960691 Si / 1000 Ang^3
#
#
#
# Elastic Constant Matrix: (Units=GPa)
#
#
# Indices 1 2 3 4 5 6 
#
# 1 153.1926 19.0622 74.9167 0.0000 0.0000 0.0000
# 2 19.0622 65.4020 -1.1487 0.0000 0.0000 0.0000
# 3 74.9167 -1.1487 173.3042 0.0000 0.0000 0.0000
# 4 0.0000 0.0000 0.0000 2.0529 0.0000 0.0000
# 5 0.0000 0.0000 0.0000 0.0000 55.0139 0.0000
# 6 0.0000 0.0000 0.0000 0.0000 0.0000 10.5122
#
#
#
# Elastic Compliance Matrix: (Units=1/GPa)
#
#
# Indices 1 2 3 4 5 6 
#
# 1 0.008699 -0.002602 -0.003778 0.000000 0.000000 0.000000
# 2 -0.002602 0.016070 0.001231 0.000000 0.000000 0.000000
# 3 -0.003778 0.001231 0.007411 0.000000 0.000000 0.000000
# 4 0.000000 0.000000 0.000000 0.487112 0.000000 0.000000
# 5 0.000000 0.000000 0.000000 0.000000 0.018177 0.000000
# 6 0.000000 0.000000 0.000000 0.000000 0.000000 0.095127
#
#
# Mechanical properties :
#
#
# Convention : Reuss Voigt Hill
#
# Bulk Modulus (GPa) = 45.69570 64.17327 54.93448
# Shear Modulus (GPa) = 7.69009 33.45369 20.57189
#
# Velocity S-wave (km/s) = 1.79344 3.74062 2.93331
# Velocity P-wave (km/s) = 4.83747 6.74516 5.86934
#
# Compressibility (1/GPa) = 0.02188390
#
# Stress axis : x y z
#
# Youngs Moduli (GPa) = 114.95742 62.22777 134.92775
#
# Poissons Ratio (x) = 0.16190 0.50971
# Poissons Ratio (y) = 0.29909 -0.16612
# Poissons Ratio (z) = 0.43427 -0.07662
#
# Static dielectric constant tensor:
#      x y z
#    x 1.929920 0.000000 0.000000 
#    y 0.000000 1.959930 0.000000 
#    z 0.000000 0.000000 1.913700 
# 
# From -- ./inp_files/14275.got.cif
#   From: 2010.05.17/outbox.cif.g08.bks.cpg/sg54_8_cif.got.tgz:14275.got - 2010.06.03 13:09:01.
