data_PCOD9421510
_publ_section_title
;
Structure prediction by ZEFSAII (Michael W. Deem and Ramdas Pophale) SiO2 
 PCOD9421510
Probable space group: P C C A
;
_chemical_formula_sum "Si O2"
_cell_formula_units_Z 64
_cell_length_a 16.792104
_cell_length_b 20.934302
_cell_length_c 9.128927
_cell_angle_alpha 90.000000
_cell_angle_beta 90.000000
_cell_angle_gamma 90.000000
_cell_volume 3209.100621
_symmetry_space_group_name_H-M "P C C A"
_symmetry_group_IT_number 54
_symmetry_cell_setting 'orthorhombic'
loop_
_space_group_symop_operation_xyz
x,y,z
1/2-x,-y,z
1/2+x,-y,1/2-z
-x,y,1/2-z
-x,-y,-z
1/2+x,y,-z
1/2-x,y,1/2+z
x,-y,1/2+z
loop_
_atom_site_type_symbol
_atom_site_label
_atom_site_fract_x
_atom_site_fract_y
_atom_site_fract_z
Si Si1 0.827044 0.185943 0.953380
Si Si2 0.199082 0.325328 0.581877
Si Si3 0.665333 0.533774 0.934845
Si Si4 0.344573 0.825003 0.893685
Si Si5 0.095270 0.067619 0.401486
Si Si6 0.423074 0.448456 0.351648
Si Si7 0.594841 0.943684 0.429079
Si Si8 0.357939 0.315949 0.413106
O O1 0.829683 0.171354 0.780085
O O2 0.843537 0.261310 0.975885
O O3 0.739439 0.177444 0.021565
O O4 0.884130 0.136054 0.031987
O O5 0.166315 0.391891 0.520773
O O6 0.291740 0.323956 0.538310
O O7 0.187747 0.321555 0.756774
O O8 0.750000 0.500000 0.962157
O O9 0.595397 0.495685 0.015748
O O10 0.648661 0.536502 0.761670
O O11 0.388453 0.756833 0.920925
O O12 0.388149 0.885741 0.960842
O O13 0.127026 0.064989 0.235474
O O14 0.000490 0.056123 0.406680
O O15 0.126758 0.009105 0.499990
O O16 0.500000 0.455969 0.250000
O O17 0.417821 0.375411 0.408838
#
# Coordination Sequence:
#
# PCOD9421510 Si02
#       8
#     8   8   8   8   8   8   8   8
#     4  10  20  36  57  83 117 147 189 243 295 334
#     4   9  19  34  57  83 110 144 202 239 280 349
#     4  11  21  37  62  84 110 156 205 241 291 362
#     4  10  20  36  57  85 113 151 189 238 288 350
#     4  10  21  38  60  84 116 154 190 245 279 347
#     4  11  23  38  56  86 122 151 190 252 306 352
#     4  10  21  38  59  85 116 151 199 230 290 345
#     4   9  19  36  55  83 111 152 187 239 289 347
#
# _framework density 19.943283000000001
#
# number of rings (size 3 to 8) (size 9 to 14) (size 15 to 20)
#    0.000    2.000    1.250    2.250    1.750    3.000 
#    6.750    2.500    2.750    0.000    0.000    0.000 
#    0.000    0.000    0.000    0.000    0.000    0.000 
#
# Total GULP energy -356882.782817 kJ/mol
# GULP energy per Si atom -5576.293482 kJ/mol
# Density = 1.989789 g / cm^3
# Si number density = 19.943283 Si / 1000 Ang^3
#
#
#
# Elastic Constant Matrix: (Units=GPa)
#
#
# Indices 1 2 3 4 5 6 
#
# 1 20.5783 16.0741 3.8408 0.0000 0.0000 0.0000
# 2 16.0741 133.0660 56.3593 0.0000 0.0000 0.0000
# 3 3.8408 56.3593 80.2061 0.0000 0.0000 0.0000
# 4 0.0000 0.0000 0.0000 23.1558 0.0000 0.0000
# 5 0.0000 0.0000 0.0000 0.0000 27.0437 0.0000
# 6 0.0000 0.0000 0.0000 0.0000 0.0000 13.8420
#
#
#
# Elastic Compliance Matrix: (Units=1/GPa)
#
#
# Indices 1 2 3 4 5 6 
#
# 1 0.054112 -0.007744 0.002850 0.000000 0.000000 0.000000
# 2 -0.007744 0.011808 -0.007926 0.000000 0.000000 0.000000
# 3 0.002850 -0.007926 0.017901 0.000000 0.000000 0.000000
# 4 0.000000 0.000000 0.000000 0.043186 0.000000 0.000000
# 5 0.000000 0.000000 0.000000 0.000000 0.036977 0.000000
# 6 0.000000 0.000000 0.000000 0.000000 0.000000 0.072244
#
#
# Mechanical properties :
#
#
# Convention : Reuss Voigt Hill
#
# Bulk Modulus (GPa) = 17.18781 42.93320 30.06050
# Shear Modulus (GPa) = 17.77716 23.31339 20.54528
#
# Velocity S-wave (km/s) = 2.98885 3.42275 3.21313
# Velocity P-wave (km/s) = 4.53299 6.09874 5.37321
#
# Compressibility (1/GPa) = 0.05818078
#
# Stress axis : x y z
#
# Youngs Moduli (GPa) = 18.48029 84.69154 55.86299
#
# Poissons Ratio (x) = 0.65583 -0.15922
# Poissons Ratio (y) = 0.14311 0.44278
# Poissons Ratio (z) = -0.05267 0.67128
#
# Static dielectric constant tensor:
#      x y z
#    x 1.709140 0.000000 0.000000 
#    y 0.000000 1.735980 0.000000 
#    z 0.000000 0.000000 1.700040 
# 
# From -- ./inp_files/4391.got.cif
#   From: 2010.05.17/outbox.cif.g08.bks.cpg/sg54_3_cif.got.tgz:4391.got - 2010.06.03 13:09:01.
