data_PCOD9421391
_publ_section_title
;
Structure prediction by ZEFSAII (Michael W. Deem and Ramdas Pophale) SiO2 
 PCOD9421391
Probable space group: P C C A
;
_chemical_formula_sum "Si O2"
_cell_formula_units_Z 48
_cell_length_a 10.029743
_cell_length_b 10.854568
_cell_length_c 23.161599
_cell_angle_alpha 90.000000
_cell_angle_beta 90.000000
_cell_angle_gamma 90.000000
_cell_volume 2521.569176
_symmetry_space_group_name_H-M "P C C A"
_symmetry_group_IT_number 54
_symmetry_cell_setting 'orthorhombic'
loop_
_space_group_symop_operation_xyz
x,y,z
1/2-x,-y,z
1/2+x,-y,1/2-z
-x,y,1/2-z
-x,-y,-z
1/2+x,y,-z
1/2-x,y,1/2+z
x,-y,1/2+z
loop_
_atom_site_type_symbol
_atom_site_label
_atom_site_fract_x
_atom_site_fract_y
_atom_site_fract_z
Si Si1 0.358955 0.176736 0.888008
Si Si2 0.501062 0.716119 0.494204
Si Si3 0.147654 0.105064 0.266462
Si Si4 0.243984 0.633978 0.064491
Si Si5 0.288667 0.860822 0.646106
Si Si6 0.438947 0.894674 0.908623
O O1 0.432058 0.265432 0.932275
O O2 0.377833 0.196312 0.819691
O O3 0.201336 0.171867 0.898545
O O4 0.415617 0.040090 0.902612
O O5 0.641880 0.651800 0.483604
O O6 0.399855 0.643723 0.534885
O O7 0.516382 0.846495 0.528267
O O8 0.223681 0.151542 0.209310
O O9 0.000000 0.056886 0.250000
O O10 0.250000 0.000000 0.288874
O O11 0.250000 0.500000 0.092942
O O12 0.262789 0.750928 0.106220
O O13 0.448257 0.857793 0.637940
O O14 0.250000 0.000000 0.626154
#
# Coordination Sequence:
#
# PCOD9421391 Si02
#       6
#     8   8   8   8   8   8
#     4  11  20  33  57  88 124 156 194 237 298 351
#     4  11  21  38  56  85 118 154 201 239 292 355
#     4  11  21  33  55  85 119 158 194 239 293 347
#     4  11  23  39  61  85 116 157 196 241 295 354
#     4  10  22  37  59  86 120 148 198 241 293 343
#     4  10  20  34  53  89 123 157 186 241 301 344
#
# _framework density 19.035765000000001
#
# number of rings (size 3 to 8) (size 9 to 14) (size 15 to 20)
#    0.000    1.333    3.333    5.000    0.000    1.333 
#    0.000    0.000    0.000    1.000   17.333    0.000 
#    0.000    0.000    0.000    0.000    0.000    0.000 
#
# Total GULP energy -267681.583773 kJ/mol
# GULP energy per Si atom -5576.699662 kJ/mol
# Density = 1.899244 g / cm^3
# Si number density = 19.035765 Si / 1000 Ang^3
#
#
#
# Elastic Constant Matrix: (Units=GPa)
#
#
# Indices 1 2 3 4 5 6 
#
# 1 93.9464 -1.7896 22.2911 0.0000 0.0000 0.0000
# 2 -1.7896 76.8851 32.4483 0.0000 0.0000 0.0000
# 3 22.2911 32.4483 94.9659 0.0000 0.0000 0.0000
# 4 0.0000 0.0000 0.0000 3.8706 0.0000 0.0000
# 5 0.0000 0.0000 0.0000 0.0000 17.5732 0.0000
# 6 0.0000 0.0000 0.0000 0.0000 0.0000 6.9786
#
#
#
# Elastic Compliance Matrix: (Units=1/GPa)
#
#
# Indices 1 2 3 4 5 6 
#
# 1 0.011446 0.001636 -0.003246 0.000000 0.000000 0.000000
# 2 0.001636 0.015432 -0.005657 0.000000 0.000000 0.000000
# 3 -0.003246 -0.005657 0.013225 0.000000 0.000000 0.000000
# 4 0.000000 0.000000 0.000000 0.258358 0.000000 0.000000
# 5 0.000000 0.000000 0.000000 0.000000 0.056905 0.000000
# 6 0.000000 0.000000 0.000000 0.000000 0.000000 0.143295
#
#
# Mechanical properties :
#
#
# Convention : Reuss Voigt Hill
#
# Bulk Modulus (GPa) = 39.10887 41.29967 40.20427
# Shear Modulus (GPa) = 9.58376 19.87433 14.72904
#
# Velocity S-wave (km/s) = 2.24623 3.23468 2.78467
# Velocity P-wave (km/s) = 5.22656 5.97443 5.61297
#
# Compressibility (1/GPa) = 0.02556965
#
# Stress axis : x y z
#
# Youngs Moduli (GPa) = 87.36946 64.80079 75.61553
#
# Poissons Ratio (x) = -0.10603 0.24542
# Poissons Ratio (y) = -0.14295 0.42775
# Poissons Ratio (z) = 0.28357 0.36657
#
# Static dielectric constant tensor:
#      x y z
#    x 1.696450 0.000000 0.000000 
#    y 0.000000 1.671050 0.000000 
#    z 0.000000 0.000000 1.699340 
# 
# From -- ./inp_files/23453.got.cif
#   From: 2010.05.17/outbox.cif.g08.bks.cpg/sg54_12_cif.got.tgz:23453.got - 2010.06.03 13:09:01.
