data_PCOD9421133
_publ_section_title
;
Structure prediction by ZEFSAII (Michael W. Deem and Ramdas Pophale) SiO2 
 PCOD9421133
Probable space group: P C C A
;
_chemical_formula_sum "Si O2"
_cell_formula_units_Z 60
_cell_length_a 23.753218
_cell_length_b 13.890421
_cell_length_c 8.767219
_cell_angle_alpha 90.000000
_cell_angle_beta 90.000000
_cell_angle_gamma 90.000000
_cell_volume 2892.675508
_symmetry_space_group_name_H-M "P C C A"
_symmetry_group_IT_number 54
_symmetry_cell_setting 'orthorhombic'
loop_
_space_group_symop_operation_xyz
x,y,z
1/2-x,-y,z
1/2+x,-y,1/2-z
-x,y,1/2-z
-x,-y,-z
1/2+x,y,-z
1/2-x,y,1/2+z
x,-y,1/2+z
loop_
_atom_site_type_symbol
_atom_site_label
_atom_site_fract_x
_atom_site_fract_y
_atom_site_fract_z
Si Si1 0.336678 0.111745 0.604451
Si Si2 0.746280 0.797631 0.579716
Si Si3 0.070311 0.927873 0.367669
Si Si4 0.953579 0.127095 0.973668
Si Si5 0.825146 0.570124 0.806743
Si Si6 0.250000 0.000000 0.255808
Si Si7 0.202705 0.609984 0.337874
Si Si8 0.628452 0.251365 0.645218
O O1 0.285396 0.187257 0.579907
O O2 0.372551 0.095417 0.454727
O O3 0.372836 0.165119 0.730839
O O4 0.306301 0.014523 0.657390
O O5 0.704713 0.725233 0.668621
O O6 0.809884 0.760313 0.566762
O O7 0.748007 0.904625 0.644887
O O8 0.071550 0.909085 0.188134
O O9 0.019937 0.863843 0.439972
O O10 0.054130 0.037712 0.409760
O O11 0.921671 0.222095 0.032192
O O12 0.835801 0.457536 0.768313
O O13 0.767070 0.589171 0.714033
O O14 0.868888 0.646951 0.735398
O O15 0.811668 0.584642 0.985612
#
# Coordination Sequence:
#
# PCOD9421133 Si02
#       8
#     8   8   8   8   8   4   8   8
#     4  11  22  37  54  85 119 163 197 243 290 366
#     4  10  22  36  53  86 125 167 197 237 293 365
#     4  10  23  39  62  79 116 156 210 248 310 355
#     4  10  22  42  58  85 111 157 203 264 297 366
#     4  10  19  36  55  85 113 162 198 256 291 365
#     4  10  24  36  52  86 130 170 204 238 296 366
#     4  10  19  36  56  78 119 157 210 241 304 351
#     4  10  22  37  57  84 123 151 199 245 304 353
#
# _framework density 20.742044
#
# number of rings (size 3 to 8) (size 9 to 14) (size 15 to 20)
#    0.000    1.867    1.333    2.800    7.467    2.667 
#    4.800    0.000    0.000    0.000    0.000    0.933 
#    0.000    0.000    0.000    0.000    0.000    0.000 
#
# Total GULP energy -334621.466709 kJ/mol
# GULP energy per Si atom -5577.024445 kJ/mol
# Density = 2.069483 g / cm^3
# Si number density = 20.742044 Si / 1000 Ang^3
#
#
#
# Elastic Constant Matrix: (Units=GPa)
#
#
# Indices 1 2 3 4 5 6 
#
# 1 58.7424 11.6390 18.5583 0.0000 0.0000 0.0000
# 2 11.6390 79.3011 16.2134 0.0000 0.0000 0.0000
# 3 18.5583 16.2134 88.7483 0.0000 0.0000 0.0000
# 4 0.0000 0.0000 0.0000 10.9522 0.0000 0.0000
# 5 0.0000 0.0000 0.0000 0.0000 26.3696 0.0000
# 6 0.0000 0.0000 0.0000 0.0000 0.0000 26.7059
#
#
#
# Elastic Compliance Matrix: (Units=1/GPa)
#
#
# Indices 1 2 3 4 5 6 
#
# 1 0.018529 -0.002002 -0.003509 0.000000 0.000000 0.000000
# 2 -0.002002 0.013316 -0.002014 0.000000 0.000000 0.000000
# 3 -0.003509 -0.002014 0.012369 0.000000 0.000000 0.000000
# 4 0.000000 0.000000 0.000000 0.091306 0.000000 0.000000
# 5 0.000000 0.000000 0.000000 0.000000 0.037922 0.000000
# 6 0.000000 0.000000 0.000000 0.000000 0.000000 0.037445
#
#
# Mechanical properties :
#
#
# Convention : Reuss Voigt Hill
#
# Bulk Modulus (GPa) = 34.28859 35.51257 34.90058
# Shear Modulus (GPa) = 21.21714 24.83094 23.02404
#
# Velocity S-wave (km/s) = 3.20176 3.46371 3.33531
# Velocity P-wave (km/s) = 5.49865 5.75800 5.62982
#
# Compressibility (1/GPa) = 0.02916422
#
# Stress axis : x y z
#
# Youngs Moduli (GPa) = 53.97036 75.09888 80.84410
#
# Poissons Ratio (x) = 0.15035 0.28367
# Poissons Ratio (y) = 0.10805 0.16282
# Poissons Ratio (z) = 0.18937 0.15125
#
# Static dielectric constant tensor:
#      x y z
#    x 1.776560 0.000000 0.000000 
#    y 0.000000 1.853750 0.000000 
#    z 0.000000 0.000000 1.830260 
# 
# From -- ./inp_files/5265.got.cif
#   From: 2010.05.17/outbox.cif.g08.bks.cpg/sg54_3_cif.got.tgz:5265.got - 2010.06.03 13:09:01.
