data_PCOD9421032
_publ_section_title
;
Structure prediction by ZEFSAII (Michael W. Deem and Ramdas Pophale) SiO2 
 PCOD9421032
Probable space group: P C C A
;
_chemical_formula_sum "Si O2"
_cell_formula_units_Z 64
_cell_length_a 24.387976
_cell_length_b 8.192619
_cell_length_c 15.632143
_cell_angle_alpha 90.000000
_cell_angle_beta 90.000000
_cell_angle_gamma 90.000000
_cell_volume 3123.323987
_symmetry_space_group_name_H-M "P C C A"
_symmetry_group_IT_number 54
_symmetry_cell_setting 'orthorhombic'
loop_
_space_group_symop_operation_xyz
x,y,z
1/2-x,-y,z
1/2+x,-y,1/2-z
-x,y,1/2-z
-x,-y,-z
1/2+x,y,-z
1/2-x,y,1/2+z
x,-y,1/2+z
loop_
_atom_site_type_symbol
_atom_site_label
_atom_site_fract_x
_atom_site_fract_y
_atom_site_fract_z
Si Si1 0.660945 0.159950 0.062512
Si Si2 0.775015 0.323533 0.023136
Si Si3 0.072259 0.438465 0.910708
Si Si4 0.182640 0.853374 0.248264
Si Si5 0.712688 0.662389 0.220365
Si Si6 0.640735 0.103346 0.423576
Si Si7 0.050065 0.650349 0.073052
Si Si8 0.886042 0.487374 0.773933
O O1 0.722179 0.208773 0.034679
O O2 0.623274 0.320912 0.067282
O O3 0.664892 0.086777 0.158251
O O4 0.638980 0.033238 0.994900
O O5 0.750000 0.500000 0.998700
O O6 0.800599 0.333199 0.118789
O O7 0.818056 0.246231 0.957855
O O8 0.080671 0.499477 0.814292
O O9 0.014932 0.341737 0.916937
O O10 0.066232 0.580757 0.980309
O O11 0.246708 0.807161 0.253648
O O12 0.165358 0.955548 0.166304
O O13 0.148870 0.682194 0.234315
O O14 0.750000 0.500000 0.229056
O O15 0.658598 0.631205 0.274884
O O16 0.581138 0.180907 0.412065
O O17 0.075425 0.528401 0.144272
#
# Coordination Sequence:
#
# PCOD9421032 Si02
#       8
#     8   8   8   8   8   8   8   8
#     4  10  21  38  56  77 110 148 183 227 280 332
#     4  10  19  34  56  81 110 144 179 219 272 330
#     4  10  20  37  55  78 112 144 182 229 276 331
#     4   8  18  33  51  76 107 143 180 221 270 327
#     4   8  14  28  51  78 108 137 171 215 266 321
#     4  11  21  35  55  82 110 142 188 230 277 332
#     4  10  21  34  56  84 107 141 185 228 277 334
#     4   9  16  31  55  82 106 137 178 222 273 326
#
# _framework density 20.49099
#
# number of rings (size 3 to 8) (size 9 to 14) (size 15 to 20)
#    0.000    2.500    0.000    4.500    0.000    4.000 
#    0.000    7.500    0.000    0.000    0.000    0.000 
#    0.000    0.000    0.000    0.000    0.000    0.000 
#
# Total GULP energy -357548.605148 kJ/mol
# GULP energy per Si atom -5586.696955 kJ/mol
# Density = 2.044435 g / cm^3
# Si number density = 20.490990 Si / 1000 Ang^3
#
#
#
# Elastic Constant Matrix: (Units=GPa)
#
#
# Indices 1 2 3 4 5 6 
#
# 1 61.0891 -8.5631 6.9749 0.0000 0.0000 0.0000
# 2 -8.5631 25.4185 2.7168 0.0000 0.0000 0.0000
# 3 6.9749 2.7168 78.1958 0.0000 0.0000 0.0000
# 4 0.0000 0.0000 0.0000 28.4321 0.0000 0.0000
# 5 0.0000 0.0000 0.0000 0.0000 21.2788 0.0000
# 6 0.0000 0.0000 0.0000 0.0000 0.0000 16.8953
#
#
#
# Elastic Compliance Matrix: (Units=1/GPa)
#
#
# Indices 1 2 3 4 5 6 
#
# 1 0.017420 0.006057 -0.001764 0.000000 0.000000 0.000000
# 2 0.006057 0.041594 -0.001985 0.000000 0.000000 0.000000
# 3 -0.001764 -0.001985 0.013015 0.000000 0.000000 0.000000
# 4 0.000000 0.000000 0.000000 0.035171 0.000000 0.000000
# 5 0.000000 0.000000 0.000000 0.000000 0.046995 0.000000
# 6 0.000000 0.000000 0.000000 0.000000 0.000000 0.059188
#
#
# Mechanical properties :
#
#
# Convention : Reuss Voigt Hill
#
# Bulk Modulus (GPa) = 13.04737 18.55118 15.79927
# Shear Modulus (GPa) = 21.33863 24.22622 22.78242
#
# Velocity S-wave (km/s) = 3.23052 3.44217 3.33802
# Velocity P-wave (km/s) = 4.50513 4.98709 4.75222
#
# Compressibility (1/GPa) = 0.07664379
#
# Stress axis : x y z
#
# Youngs Moduli (GPa) = 57.40527 24.04182 76.83588
#
# Poissons Ratio (x) = -0.14562 0.13556
# Poissons Ratio (y) = -0.34771 0.15255
# Poissons Ratio (z) = 0.10128 0.04773
#
# Static dielectric constant tensor:
#      x y z
#    x 1.721210 0.000000 0.000000 
#    y 0.000000 1.769140 0.000000 
#    z 0.000000 0.000000 1.738090 
# 
# From -- ./inp_files/14997.got.cif
#   From: 2010.05.17/outbox.cif.g08.bks.cpg/sg54_8_cif.got.tgz:14997.got - 2010.06.03 13:09:01.
