data_PCOD9421547
_publ_section_title
;
Structure prediction by ZEFSAII (Michael W. Deem and Ramdas Pophale) SiO2 
 PCOD9421547
Probable space group: P C C A
;
_chemical_formula_sum "Si O2"
_cell_formula_units_Z 64
_cell_length_a 14.997747
_cell_length_b 9.207373
_cell_length_c 21.958235
_cell_angle_alpha 90.000000
_cell_angle_beta 90.000000
_cell_angle_gamma 90.000000
_cell_volume 3032.209395
_symmetry_space_group_name_H-M "P C C A"
_symmetry_group_IT_number 54
_symmetry_cell_setting 'orthorhombic'
loop_
_space_group_symop_operation_xyz
x,y,z
1/2-x,-y,z
1/2+x,-y,1/2-z
-x,y,1/2-z
-x,-y,-z
1/2+x,y,-z
1/2-x,y,1/2+z
x,-y,1/2+z
loop_
_atom_site_type_symbol
_atom_site_label
_atom_site_fract_x
_atom_site_fract_y
_atom_site_fract_z
Si Si1 0.199137 0.639812 0.784145
Si Si2 0.773860 0.162183 0.607303
Si Si3 0.433225 0.313640 0.071873
Si Si4 0.575474 0.199126 0.800496
Si Si5 0.853214 0.998556 0.396854
Si Si6 0.570348 0.131452 0.012460
Si Si7 0.328605 0.387130 0.965034
Si Si8 0.030555 0.448977 0.362212
O O1 0.250000 0.500000 0.759688
O O2 0.255478 0.724916 0.836965
O O3 0.165058 0.750927 0.733593
O O4 0.108256 0.570223 0.812227
O O5 0.868849 0.140382 0.573466
O O6 0.708291 0.228347 0.554884
O O7 0.750000 0.000000 0.627748
O O8 0.508965 0.271626 0.021866
O O9 0.478946 0.401425 0.126241
O O10 0.389046 0.161822 0.089972
O O11 0.358635 0.399883 0.034460
O O12 0.500000 0.174171 0.750000
O O13 0.590255 0.060788 0.841562
O O14 0.540513 0.327043 0.844397
O O15 0.866438 0.106708 0.454733
O O16 0.750000 0.000000 0.381536
O O17 0.500000 0.000000 0.000000
O O18 0.250000 0.500000 0.950865
O O19 0.412868 0.420190 0.922901
#
# Coordination Sequence:
#
# PCOD9421547 Si02
#       8
#     8   8   8   8   8   8   8   8
#     4  10  22  42  65  89 121 162 216 270 316 380
#     4  11  21  37  62  93 125 161 207 259 316 375
#     4  11  22  36  61  92 123 163 205 250 311 384
#     4  10  24  45  64  83 119 168 211 264 323 373
#     4  11  24  41  60  90 129 162 202 256 319 381
#     4  10  20  36  59  92 129 160 195 249 314 378
#     4  11  22  37  59  92 130 164 203 254 312 387
#     4  10  21  40  62  89 119 160 210 258 314 372
#
# _framework density 21.106721
#
# number of rings (size 3 to 8) (size 9 to 14) (size 15 to 20)
#    0.000    1.500    0.000    6.750    0.000    8.500 
#    0.000    3.125    0.000    0.000    0.000    0.000 
#    0.000    0.000    0.000    0.000    0.000    0.000 
#
# Total GULP energy -357031.879433 kJ/mol
# GULP energy per Si atom -5578.623116 kJ/mol
# Density = 2.105868 g / cm^3
# Si number density = 21.106721 Si / 1000 Ang^3
#
#
#
# Elastic Constant Matrix: (Units=GPa)
#
#
# Indices 1 2 3 4 5 6 
#
# 1 70.1827 29.6303 25.0641 0.0000 0.0000 0.0000
# 2 29.6303 59.3448 25.0948 0.0000 0.0000 0.0000
# 3 25.0641 25.0948 60.6117 0.0000 0.0000 0.0000
# 4 0.0000 0.0000 0.0000 0.6270 0.0000 0.0000
# 5 0.0000 0.0000 0.0000 0.0000 23.1109 0.0000
# 6 0.0000 0.0000 0.0000 0.0000 0.0000 28.4682
#
#
#
# Elastic Compliance Matrix: (Units=1/GPa)
#
#
# Indices 1 2 3 4 5 6 
#
# 1 0.019140 -0.007527 -0.004798 0.000000 0.000000 0.000000
# 2 -0.007527 0.023387 -0.006570 0.000000 0.000000 0.000000
# 3 -0.004798 -0.006570 0.021203 0.000000 0.000000 0.000000
# 4 0.000000 0.000000 0.000000 1.595009 0.000000 0.000000
# 5 0.000000 0.000000 0.000000 0.000000 0.043270 0.000000
# 6 0.000000 0.000000 0.000000 0.000000 0.000000 0.035127
#
#
# Mechanical properties :
#
#
# Convention : Reuss Voigt Hill
#
# Bulk Modulus (GPa) = 38.55272 38.85750 38.70511
# Shear Modulus (GPa) = 2.80336 17.79788 10.30062
#
# Velocity S-wave (km/s) = 1.15372 2.90700 2.21153
# Velocity P-wave (km/s) = 4.48107 5.45138 4.98987
#
# Compressibility (1/GPa) = 0.02593851
#
# Stress axis : x y z
#
# Youngs Moduli (GPa) = 52.24628 42.75811 47.16346
#
# Poissons Ratio (x) = 0.32186 0.22630
# Poissons Ratio (y) = 0.39328 0.30987
# Poissons Ratio (z) = 0.25069 0.28093
#
# Static dielectric constant tensor:
#      x y z
#    x 2.136720 0.000000 0.000000 
#    y 0.000000 1.778590 0.000000 
#    z 0.000000 0.000000 1.781120 
# 
# From -- ./inp_files/24529.got.cif
#   From: 2010.05.17/outbox.cif.g08.bks.cpg/sg54_13_cif.got.tgz:24529.got - 2010.06.03 13:09:01.
