data_PCOD9421337
_publ_section_title
;
Structure prediction by ZEFSAII (Michael W. Deem and Ramdas Pophale) SiO2 
 PCOD9421337
Probable space group: P C C A
;
_chemical_formula_sum "Si O2"
_cell_formula_units_Z 56
_cell_length_a 19.156799
_cell_length_b 9.811921
_cell_length_c 13.629211
_cell_angle_alpha 90.000000
_cell_angle_beta 90.000000
_cell_angle_gamma 90.000000
_cell_volume 2561.814624
_symmetry_space_group_name_H-M "P C C A"
_symmetry_group_IT_number 54
_symmetry_cell_setting 'orthorhombic'
loop_
_space_group_symop_operation_xyz
x,y,z
1/2-x,-y,z
1/2+x,-y,1/2-z
-x,y,1/2-z
-x,-y,-z
1/2+x,y,-z
1/2-x,y,1/2+z
x,-y,1/2+z
loop_
_atom_site_type_symbol
_atom_site_label
_atom_site_fract_x
_atom_site_fract_y
_atom_site_fract_z
Si Si1 0.096097 0.930889 0.917017
Si Si2 0.697359 0.315085 0.655545
Si Si3 0.688209 0.111345 0.194575
Si Si4 0.405641 0.806671 0.623791
Si Si5 0.825921 0.452491 0.959531
Si Si6 0.099575 0.603820 0.687991
Si Si7 0.500000 0.629076 0.750000
Si Si8 0.000000 0.843153 0.750000
O O1 0.145738 0.806828 0.879249
O O2 0.034102 0.928343 0.837683
O O3 0.143345 0.062124 0.898311
O O4 0.078709 0.900059 0.029469
O O5 0.773431 0.251184 0.666934
O O6 0.682611 0.428550 0.574658
O O7 0.671992 0.365470 0.759855
O O8 0.635570 0.122055 0.286582
O O9 0.750000 0.000000 0.214937
O O10 0.351573 0.690013 0.586759
O O11 0.474924 0.729725 0.663335
O O12 0.750000 0.500000 0.925466
O O13 0.884802 0.556644 0.922017
O O14 0.063582 0.480204 0.749333
O O15 0.053897 0.738663 0.698726
#
# Coordination Sequence:
#
# PCOD9421337 Si02
#       8
#     8   8   8   8   8   8   4   4
#     4   9  20  38  59  82 111 150 195 242 287 337
#     4   9  19  35  56  84 115 147 189 235 284 343
#     4  10  21  38  59  82 113 152 193 242 290 335
#     4  10  21  38  58  83 116 152 194 239 288 347
#     4  10  20  32  54  86 114 146 185 230 287 344
#     4   9  18  35  57  82 116 153 186 230 283 338
#     4   9  20  35  54  82 116 151 188 233 284 340
#     4   9  18  37  60  82 114 155 198 235 280 342
#
# _framework density 21.859506
#
# number of rings (size 3 to 8) (size 9 to 14) (size 15 to 20)
#    0.000    2.571    0.000    0.857    0.000    7.429 
#    0.000    8.571    0.000    0.000    0.000    0.000 
#    0.000    0.000    0.000    0.000    0.000    0.000 
#
# Total GULP energy -312224.181328 kJ/mol
# GULP energy per Si atom -5575.431809 kJ/mol
# Density = 2.180975 g / cm^3
# Si number density = 21.859506 Si / 1000 Ang^3
#
#
#
# Elastic Constant Matrix: (Units=GPa)
#
#
# Indices 1 2 3 4 5 6 
#
# 1 79.6868 32.5457 38.3329 0.0000 0.0000 0.0000
# 2 32.5457 49.8573 24.5166 0.0000 0.0000 0.0000
# 3 38.3329 24.5166 81.9633 0.0000 0.0000 0.0000
# 4 0.0000 0.0000 0.0000 22.8621 0.0000 0.0000
# 5 0.0000 0.0000 0.0000 0.0000 29.1712 0.0000
# 6 0.0000 0.0000 0.0000 0.0000 0.0000 13.5926
#
#
#
# Elastic Compliance Matrix: (Units=1/GPa)
#
#
# Indices 1 2 3 4 5 6 
#
# 1 0.019490 -0.009661 -0.006225 0.000000 0.000000 0.000000
# 2 -0.009661 0.028305 -0.003948 0.000000 0.000000 0.000000
# 3 -0.006225 -0.003948 0.016293 0.000000 0.000000 0.000000
# 4 0.000000 0.000000 0.000000 0.043741 0.000000 0.000000
# 5 0.000000 0.000000 0.000000 0.000000 0.034280 0.000000
# 6 0.000000 0.000000 0.000000 0.000000 0.000000 0.073569
#
#
# Mechanical properties :
#
#
# Convention : Reuss Voigt Hill
#
# Bulk Modulus (GPa) = 40.95211 44.69973 42.82592
# Shear Modulus (GPa) = 18.97630 20.86599 19.92115
#
# Velocity S-wave (km/s) = 2.94955 3.09293 3.02209
# Velocity P-wave (km/s) = 5.51133 5.76611 5.64016
#
# Compressibility (1/GPa) = 0.02441877
#
# Stress axis : x y z
#
# Youngs Moduli (GPa) = 51.30962 35.32905 61.37626
#
# Poissons Ratio (x) = 0.34132 0.38207
# Poissons Ratio (y) = 0.49571 0.24233
# Poissons Ratio (z) = 0.31941 0.13949
#
# Static dielectric constant tensor:
#      x y z
#    x 1.803490 0.000000 0.000000 
#    y 0.000000 1.832250 0.000000 
#    z 0.000000 0.000000 1.759200 
# 
# From -- ./inp_files/9577.got.cif
#   From: 2010.05.17/outbox.cif.g08.bks.cpg/sg54_5_cif.got.tgz:9577.got - 2010.06.03 13:09:01.
