data_PCOD9421831
_publ_section_title
;
Structure prediction by ZEFSAII (Michael W. Deem and Ramdas Pophale) SiO2 
 PCOD9421831
Probable space group: P C C A
;
_chemical_formula_sum "Si O2"
_cell_formula_units_Z 40
_cell_length_a 22.855701
_cell_length_b 4.995004
_cell_length_c 13.787645
_cell_angle_alpha 90.000000
_cell_angle_beta 90.000000
_cell_angle_gamma 90.000000
_cell_volume 1574.057087
_symmetry_space_group_name_H-M "P C C A"
_symmetry_group_IT_number 54
_symmetry_cell_setting 'orthorhombic'
loop_
_space_group_symop_operation_xyz
x,y,z
1/2-x,-y,z
1/2+x,-y,1/2-z
-x,y,1/2-z
-x,-y,-z
1/2+x,y,-z
1/2-x,y,1/2+z
x,-y,1/2+z
loop_
_atom_site_type_symbol
_atom_site_label
_atom_site_fract_x
_atom_site_fract_y
_atom_site_fract_z
Si Si1 0.288580 0.266652 0.862070
Si Si2 0.036905 0.324761 0.081632
Si Si3 0.875477 0.991567 0.282294
Si Si4 0.436000 0.950613 0.896987
Si Si5 0.640150 0.264970 0.461350
O O1 0.250000 0.500000 0.817754
O O2 0.338362 0.187353 0.785125
O O3 0.250000 0.000000 0.881387
O O4 0.315216 0.390080 0.962212
O O5 0.077199 0.135666 0.150196
O O6 0.083191 0.567775 0.071012
O O7 0.973632 0.220298 0.121952
O O8 0.028234 0.248215 0.966286
O O9 0.912623 0.827365 0.202125
O O10 0.835369 0.837516 0.359407
O O11 0.383222 0.026854 0.968742
#
# Coordination Sequence:
#
# PCOD9421831 Si02
#       5
#     8   8   8   8   8
#     4  11  28  49  73 102 140 189 244 312 374 421
#     4  10  20  38  67  99 137 184 226 285 349 438
#     4  10  23  41  66 102 137 183 234 299 353 435
#     4   9  20  39  63  99 143 179 226 276 362 426
#     4  10  23  41  69  98 138 186 239 295 357 434
#
# _framework density 25.412037000000002
#
# number of rings (size 3 to 8) (size 9 to 14) (size 15 to 20)
#    0.000    2.000    0.000    1.200   11.200    2.400 
#    0.000    6.000    0.000    0.000    0.000    0.000 
#    0.000    0.000    0.000    0.000    0.000    0.000 
#
# Total GULP energy -222787.114870 kJ/mol
# GULP energy per Si atom -5569.677872 kJ/mol
# Density = 2.535420 g / cm^3
# Si number density = 25.412037 Si / 1000 Ang^3
#
#
#
# Elastic Constant Matrix: (Units=GPa)
#
#
# Indices 1 2 3 4 5 6 
#
# 1 76.3647 8.5291 37.9453 0.0000 0.0000 0.0000
# 2 8.5291 57.0026 21.6420 0.0000 0.0000 0.0000
# 3 37.9453 21.6420 187.4729 0.0000 0.0000 0.0000
# 4 0.0000 0.0000 0.0000 18.4507 0.0000 0.0000
# 5 0.0000 0.0000 0.0000 0.0000 27.0925 0.0000
# 6 0.0000 0.0000 0.0000 0.0000 0.0000 27.6710
#
#
#
# Elastic Compliance Matrix: (Units=1/GPa)
#
#
# Indices 1 2 3 4 5 6 
#
# 1 0.014627 -0.001113 -0.002832 0.000000 0.000000 0.000000
# 2 -0.001113 0.018432 -0.001902 0.000000 0.000000 0.000000
# 3 -0.002832 -0.001902 0.006127 0.000000 0.000000 0.000000
# 4 0.000000 0.000000 0.000000 0.054198 0.000000 0.000000
# 5 0.000000 0.000000 0.000000 0.000000 0.036911 0.000000
# 6 0.000000 0.000000 0.000000 0.000000 0.000000 0.036139
#
#
# Mechanical properties :
#
#
# Convention : Reuss Voigt Hill
#
# Bulk Modulus (GPa) = 36.37688 50.78589 43.58139
# Shear Modulus (GPa) = 26.69625 31.49109 29.09367
#
# Velocity S-wave (km/s) = 3.24471 3.52407 3.38727
# Velocity P-wave (km/s) = 5.32761 6.04873 5.69959
#
# Compressibility (1/GPa) = 0.02748999
#
# Stress axis : x y z
#
# Youngs Moduli (GPa) = 68.36862 54.25368 163.21399
#
# Poissons Ratio (x) = 0.06040 0.46222
# Poissons Ratio (y) = 0.07612 0.31051
# Poissons Ratio (z) = 0.19362 0.10322
#
# Static dielectric constant tensor:
#      x y z
#    x 2.240840 0.000000 0.000000 
#    y 0.000000 2.279960 0.000000 
#    z 0.000000 0.000000 2.000150 
# 
# From -- ./inp_files/10130.got.cif
#   From: 2010.05.17/outbox.cif.g08.bks.cpg/sg54_6_cif.got.tgz:10130.got - 2010.06.03 13:09:01.
