data_PCOD9421413
_publ_section_title
;
Structure prediction by ZEFSAII (Michael W. Deem and Ramdas Pophale) SiO2 
 PCOD9421413
Probable space group: P C C A
;
_chemical_formula_sum "Si O2"
_cell_formula_units_Z 40
_cell_length_a 8.812246
_cell_length_b 10.685461
_cell_length_c 22.908493
_cell_angle_alpha 90.000000
_cell_angle_beta 90.000000
_cell_angle_gamma 90.000000
_cell_volume 2157.130386
_symmetry_space_group_name_H-M "P C C A"
_symmetry_group_IT_number 54
_symmetry_cell_setting 'orthorhombic'
loop_
_space_group_symop_operation_xyz
x,y,z
1/2-x,-y,z
1/2+x,-y,1/2-z
-x,y,1/2-z
-x,-y,-z
1/2+x,y,-z
1/2-x,y,1/2+z
x,-y,1/2+z
loop_
_atom_site_type_symbol
_atom_site_label
_atom_site_fract_x
_atom_site_fract_y
_atom_site_fract_z
Si Si1 0.749196 0.850940 0.673099
Si Si2 0.000000 0.277121 0.750000
Si Si3 0.168496 0.864029 0.951308
Si Si4 0.000000 0.280434 0.250000
Si Si5 0.754989 0.364650 0.336437
Si Si6 0.193636 0.858508 0.572184
O O1 0.602371 0.805486 0.707067
O O2 0.764139 0.800744 0.606917
O O3 0.890832 0.804433 0.710759
O O4 0.750000 0.000000 0.670065
O O5 0.111806 0.350440 0.706777
O O6 0.986701 0.869210 0.942276
O O7 0.250000 0.000000 0.953164
O O8 0.216470 0.812961 0.014269
O O9 0.101058 0.360577 0.206444
O O10 0.750000 0.500000 0.367013
O O11 0.772736 0.243485 0.377897
O O12 0.250000 0.000000 0.587591
#
# Coordination Sequence:
#
# PCOD9421413 Si02
#       6
#     8   4   8   4   8   8
#     4  10  20  34  59  93 124 150 198 253 305 358
#     4  10  24  36  62  84 121 166 197 248 301 374
#     4  10  21  37  62  90 125 158 199 247 306 363
#     4  10  20  40  58  84 121 160 203 240 311 362
#     4  11  24  42  63  87 122 161 205 249 305 363
#     4  11  23  39  66  90 121 161 205 254 302 360
#
# _framework density 18.543154999999999
#
# number of rings (size 3 to 8) (size 9 to 14) (size 15 to 20)
#    0.000    1.600    2.000    3.600    8.400    3.200 
#    0.000    1.000    0.000    0.000    0.000    0.000 
#    0.000    0.000    0.000    0.000    0.000    0.000 
#
# Total GULP energy -223041.467852 kJ/mol
# GULP energy per Si atom -5576.036696 kJ/mol
# Density = 1.850095 g / cm^3
# Si number density = 18.543155 Si / 1000 Ang^3
#
#
#
# Elastic Constant Matrix: (Units=GPa)
#
#
# Indices 1 2 3 4 5 6 
#
# 1 127.9939 42.4045 47.6040 0.0000 0.0000 0.0000
# 2 42.4045 99.9475 56.5505 0.0000 0.0000 0.0000
# 3 47.6040 56.5505 128.4308 0.0000 0.0000 0.0000
# 4 0.0000 0.0000 0.0000 0.8446 0.0000 0.0000
# 5 0.0000 0.0000 0.0000 0.0000 15.6556 0.0000
# 6 0.0000 0.0000 0.0000 0.0000 0.0000 -16.6316
#
#
#
# Elastic Compliance Matrix: (Units=1/GPa)
#
#
# Indices 1 2 3 4 5 6 
#
# 1 0.009595 -0.002742 -0.002349 0.000000 0.000000 0.000000
# 2 -0.002742 0.014108 -0.005196 0.000000 0.000000 0.000000
# 3 -0.002349 -0.005196 0.010945 0.000000 0.000000 0.000000
# 4 0.000000 0.000000 0.000000 1.183986 0.000000 0.000000
# 5 0.000000 0.000000 0.000000 0.000000 0.063875 0.000000
# 6 0.000000 0.000000 0.000000 0.000000 0.000000 -0.060126
#
#
# Mechanical properties :
#
#
# Convention : Reuss Voigt Hill
#
# Bulk Modulus (GPa) = 71.05029 72.16557 71.60793
# Shear Modulus (GPa) = 4.00754 13.96127 8.98441
#
# Velocity S-wave (km/s) = 1.47170 2.74689 2.20355
# Velocity P-wave (km/s) = 6.42551 7.00448 6.72123
#
# Compressibility (1/GPa) = 0.01407454
#
# Stress axis : x y z
#
# Youngs Moduli (GPa) = 104.22187 70.88024 91.36636
#
# Poissons Ratio (x) = 0.19433 0.21464
# Poissons Ratio (y) = 0.28573 0.47474
# Poissons Ratio (z) = 0.24484 0.36829
#
# Static dielectric constant tensor:
#      x y z
#    x 1.648790 0.000000 0.000000 
#    y 0.000000 1.630750 0.000000 
#    z 0.000000 0.000000 1.671710 
# 
# From -- ./inp_files/20317.got.cif
#   From: 2010.05.17/outbox.cif.g08.bks.cpg/sg54_11_cif.got.tgz:20317.got - 2010.06.03 13:09:01.
