data_PCOD9421984
_publ_section_title
;
Structure prediction by ZEFSAII (Michael W. Deem and Ramdas Pophale) SiO2 
 PCOD9421984
Probable space group: P C C A
;
_chemical_formula_sum "Si O2"
_cell_formula_units_Z 56
_cell_length_a 15.093061
_cell_length_b 12.729644
_cell_length_c 13.996118
_cell_angle_alpha 90.000000
_cell_angle_beta 90.000000
_cell_angle_gamma 90.000000
_cell_volume 2689.064262
_symmetry_space_group_name_H-M "P C C A"
_symmetry_group_IT_number 54
_symmetry_cell_setting 'orthorhombic'
loop_
_space_group_symop_operation_xyz
x,y,z
1/2-x,-y,z
1/2+x,-y,1/2-z
-x,y,1/2-z
-x,-y,-z
1/2+x,y,-z
1/2-x,y,1/2+z
x,-y,1/2+z
loop_
_atom_site_type_symbol
_atom_site_label
_atom_site_fract_x
_atom_site_fract_y
_atom_site_fract_z
Si Si1 0.847739 0.256781 0.478819
Si Si2 0.481839 0.838902 0.530056
Si Si3 0.921394 0.108366 0.182337
Si Si4 0.768045 0.235577 0.274609
Si Si5 0.088839 0.115810 0.719800
Si Si6 0.284965 0.383690 0.881817
Si Si7 0.021866 0.381077 0.470651
O O1 0.798639 0.222328 0.383288
O O2 0.777204 0.308652 0.551236
O O3 0.925300 0.336141 0.439985
O O4 0.910608 0.168152 0.528230
O O5 0.450113 0.875927 0.426251
O O6 0.432662 0.907497 0.609047
O O7 0.455217 0.715036 0.544423
O O8 0.834006 0.171925 0.206211
O O9 0.000000 0.151174 0.250000
O O10 0.906374 0.989860 0.218562
O O11 0.672707 0.185611 0.267003
O O12 0.769758 0.350434 0.228063
O O13 0.000000 0.175827 0.750000
O O14 0.250000 0.500000 0.900357
O O15 0.390221 0.380219 0.905344
O O16 0.000000 0.500000 0.500000
#
# Coordination Sequence:
#
# PCOD9421984 Si02
#       7
#     8   8   8   8   8   8   8
#     4  10  23  41  72  94 134 183 227 278 347 408
#     4  10  21  45  69  95 138 184 218 294 343 398
#     4  11  22  44  70  98 132 176 235 284 339 416
#     4  12  24  44  66 100 137 179 229 284 344 419
#     4  11  26  43  67 102 139 175 228 290 350 410
#     4  12  23  41  67 101 139 180 226 283 347 418
#     4  10  20  40  72  97 134 179 229 279 342 416
#
# _framework density 20.825088999999998
#
# number of rings (size 3 to 8) (size 9 to 14) (size 15 to 20)
#    0.857    0.286    4.286    2.143    0.000    2.857 
#    5.143    1.429    3.143    0.000    0.000    0.000 
#    0.000    0.000    0.000    0.000    0.000    0.000 
#
# Total GULP energy -312051.180026 kJ/mol
# GULP energy per Si atom -5572.342500 kJ/mol
# Density = 2.077769 g / cm^3
# Si number density = 20.825089 Si / 1000 Ang^3
#
#
#
# Elastic Constant Matrix: (Units=GPa)
#
#
# Indices 1 2 3 4 5 6 
#
# 1 138.4984 23.0736 22.1123 0.0000 0.0000 0.0000
# 2 23.0736 79.9116 22.2775 0.0000 0.0000 0.0000
# 3 22.1123 22.2775 92.9339 0.0000 0.0000 0.0000
# 4 0.0000 0.0000 0.0000 19.0511 0.0000 0.0000
# 5 0.0000 0.0000 0.0000 0.0000 28.1129 0.0000
# 6 0.0000 0.0000 0.0000 0.0000 0.0000 24.6453
#
#
#
# Elastic Compliance Matrix: (Units=1/GPa)
#
#
# Indices 1 2 3 4 5 6 
#
# 1 0.007752 -0.001848 -0.001402 0.000000 0.000000 0.000000
# 2 -0.001848 0.013850 -0.002881 0.000000 0.000000 0.000000
# 3 -0.001402 -0.002881 0.011784 0.000000 0.000000 0.000000
# 4 0.000000 0.000000 0.000000 0.052490 0.000000 0.000000
# 5 0.000000 0.000000 0.000000 0.000000 0.035571 0.000000
# 6 0.000000 0.000000 0.000000 0.000000 0.000000 0.040576
#
#
# Mechanical properties :
#
#
# Convention : Reuss Voigt Hill
#
# Bulk Modulus (GPa) = 47.33224 49.58565 48.45894
# Shear Modulus (GPa) = 27.57478 30.62055 29.09767
#
# Velocity S-wave (km/s) = 3.64278 3.83870 3.74202
# Velocity P-wave (km/s) = 6.36168 6.59619 6.48000
#
# Compressibility (1/GPa) = 0.02112725
#
# Stress axis : x y z
#
# Youngs Moduli (GPa) = 129.00114 72.20060 84.85855
#
# Poissons Ratio (x) = 0.13339 0.11894
# Poissons Ratio (y) = 0.23834 0.24444
# Poissons Ratio (z) = 0.18080 0.20797
#
# Static dielectric constant tensor:
#      x y z
#    x 1.753200 0.000000 0.000000 
#    y 0.000000 1.807140 0.000000 
#    z 0.000000 0.000000 1.858370 
# 
# From -- ./inp_files/12743.got.cif
#   From: 2010.05.17/outbox.cif.g08.bks.cpg/sg54_7_cif.got.tgz:12743.got - 2010.06.03 13:09:01.
