data_PCOD9421065
_publ_section_title
;
Structure prediction by ZEFSAII (Michael W. Deem and Ramdas Pophale) SiO2 
 PCOD9421065
Probable space group: P C C A
;
_chemical_formula_sum "Si O2"
_cell_formula_units_Z 48
_cell_length_a 5.215826
_cell_length_b 17.922969
_cell_length_c 24.634286
_cell_angle_alpha 90.000000
_cell_angle_beta 90.000000
_cell_angle_gamma 90.000000
_cell_volume 2302.889119
_symmetry_space_group_name_H-M "P C C A"
_symmetry_group_IT_number 54
_symmetry_cell_setting 'orthorhombic'
loop_
_space_group_symop_operation_xyz
x,y,z
1/2-x,-y,z
1/2+x,-y,1/2-z
-x,y,1/2-z
-x,-y,-z
1/2+x,y,-z
1/2-x,y,1/2+z
x,-y,1/2+z
loop_
_atom_site_type_symbol
_atom_site_label
_atom_site_fract_x
_atom_site_fract_y
_atom_site_fract_z
Si Si1 0.136001 0.392483 0.525401
Si Si2 0.096766 0.702447 0.309379
Si Si3 0.109348 0.774029 0.642642
Si Si4 0.747186 0.085417 0.787915
Si Si5 0.909770 0.776527 0.519962
Si Si6 0.999917 0.450536 0.643188
O O1 0.915980 0.423471 0.486280
O O2 0.143621 0.304934 0.507776
O O3 0.061386 0.409195 0.586476
O O4 0.375875 0.736355 0.322926
O O5 0.084287 0.613243 0.314631
O O6 0.000000 0.725679 0.250000
O O7 0.874683 0.729642 0.350361
O O8 0.192723 0.854725 0.665240
O O9 0.003265 0.772306 0.581604
O O10 0.500000 0.092148 0.750000
O O11 0.000000 0.097956 0.750000
O O12 0.750000 0.000000 0.808184
O O13 0.133767 0.814232 0.485317
O O14 0.750000 0.500000 0.634384
O O15 0.250000 0.500000 0.658059
#
# Coordination Sequence:
#
# PCOD9421065 Si02
#       6
#     8   8   8   8   8   8
#     4  10  19  35  54  77 106 139 187 245 306 363
#     4  12  25  41  63  89 119 160 210 260 311 375
#     4  12  22  40  66  93 126 162 207 255 307 371
#     4  10  21  38  63  98 136 169 204 250 307 369
#     4  10  20  35  58  85 118 155 197 250 305 361
#     4  12  26  41  58  81 113 155 203 258 319 377
#
# _framework density 20.843382999999999
#
# number of rings (size 3 to 8) (size 9 to 14) (size 15 to 20)
#    0.000    1.000    0.000   10.000    0.000    2.667 
#    0.000    0.000    0.000    1.000    0.000    0.000 
#    0.000    0.000    0.000    0.000    0.000    0.000 
#
# Total GULP energy -268062.933011 kJ/mol
# GULP energy per Si atom -5584.644438 kJ/mol
# Density = 2.079594 g / cm^3
# Si number density = 20.843383 Si / 1000 Ang^3
#
#
#
# Elastic Constant Matrix: (Units=GPa)
#
#
# Indices 1 2 3 4 5 6 
#
# 1 138.4318 38.3415 0.8552 0.0000 0.0000 0.0000
# 2 38.3415 120.2250 40.8777 0.0000 0.0000 0.0000
# 3 0.8552 40.8777 61.3929 0.0000 0.0000 0.0000
# 4 0.0000 0.0000 0.0000 53.2942 0.0000 0.0000
# 5 0.0000 0.0000 0.0000 0.0000 25.6465 0.0000
# 6 0.0000 0.0000 0.0000 0.0000 0.0000 27.8092
#
#
#
# Elastic Compliance Matrix: (Units=1/GPa)
#
#
# Indices 1 2 3 4 5 6 
#
# 1 0.008125 -0.003300 0.002084 0.000000 0.000000 0.000000
# 2 -0.003300 0.012092 -0.008005 0.000000 0.000000 0.000000
# 3 0.002084 -0.008005 0.021590 0.000000 0.000000 0.000000
# 4 0.000000 0.000000 0.000000 0.018764 0.000000 0.000000
# 5 0.000000 0.000000 0.000000 0.000000 0.038992 0.000000
# 6 0.000000 0.000000 0.000000 0.000000 0.000000 0.035959
#
#
# Mechanical properties :
#
#
# Convention : Reuss Voigt Hill
#
# Bulk Modulus (GPa) = 42.80039 53.35537 48.07788
# Shear Modulus (GPa) = 30.91164 37.34836 34.13000
#
# Velocity S-wave (km/s) = 3.85521 4.23763 4.05093
# Velocity P-wave (km/s) = 6.35576 7.04252 6.70794
#
# Compressibility (1/GPa) = 0.02336428
#
# Stress axis : x y z
#
# Youngs Moduli (GPa) = 123.07990 82.69986 46.31836
#
# Poissons Ratio (x) = 0.27288 -0.09652
# Poissons Ratio (y) = 0.40612 0.37079
# Poissons Ratio (z) = -0.25648 0.66204
#
# Static dielectric constant tensor:
#      x y z
#    x 1.815600 0.000000 0.000000 
#    y 0.000000 1.933380 0.000000 
#    z 0.000000 0.000000 1.727830 
# 
# From -- ./inp_files/22915.got.cif
#   From: 2010.05.17/outbox.cif.g08.bks.cpg/sg54_12_cif.got.tgz:22915.got - 2010.06.03 13:09:01.
