data_PCOD9421857
_publ_section_title
;
Structure prediction by ZEFSAII (Michael W. Deem and Ramdas Pophale) SiO2 
 PCOD9421857
Probable space group: P C C A
;
_chemical_formula_sum "Si O2"
_cell_formula_units_Z 56
_cell_length_a 10.035879
_cell_length_b 12.940765
_cell_length_c 22.191921
_cell_angle_alpha 90.000000
_cell_angle_beta 90.000000
_cell_angle_gamma 90.000000
_cell_volume 2882.108092
_symmetry_space_group_name_H-M "P C C A"
_symmetry_group_IT_number 54
_symmetry_cell_setting 'orthorhombic'
loop_
_space_group_symop_operation_xyz
x,y,z
1/2-x,-y,z
1/2+x,-y,1/2-z
-x,y,1/2-z
-x,-y,-z
1/2+x,y,-z
1/2-x,y,1/2+z
x,-y,1/2+z
loop_
_atom_site_type_symbol
_atom_site_label
_atom_site_fract_x
_atom_site_fract_y
_atom_site_fract_z
Si Si1 0.148939 0.905266 0.259836
Si Si2 0.384254 0.453562 0.576827
Si Si3 0.857040 0.415308 0.562330
Si Si4 0.781922 0.878885 0.369930
Si Si5 0.015217 0.767341 0.588800
Si Si6 0.718580 0.194765 0.116492
Si Si7 0.986515 0.888203 0.031763
O O1 0.181308 0.846123 0.197755
O O2 0.160521 0.835498 0.318876
O O3 0.000000 0.946861 0.250000
O O4 0.250000 0.000000 0.268121
O O5 0.250000 0.500000 0.605648
O O6 0.493714 0.543444 0.572188
O O7 0.341128 0.412894 0.510219
O O8 0.459204 0.353100 0.602217
O O9 0.750000 0.500000 0.584008
O O10 0.826383 0.307625 0.593797
O O11 0.648069 0.823946 0.390263
O O12 0.900063 0.868408 0.418196
O O13 0.750000 0.000000 0.366493
O O14 0.001392 0.798838 0.518468
O O15 0.878450 0.807060 0.618001
O O16 0.654258 0.119314 0.066396
O O17 0.000000 0.000000 0.000000
#
# Coordination Sequence:
#
# PCOD9421857 Si02
#       7
#     8   8   8   8   8   8   8
#     4  11  27  47  68  92 127 185 237 272 317 392
#     4  10  22  36  62  95 137 172 208 269 341 414
#     4  10  20  39  60  94 133 169 219 276 334 394
#     4  11  25  45  63  92 139 176 220 276 324 396
#     4  12  25  39  65 106 132 174 218 272 348 400
#     4  12  26  41  69  94 133 183 228 275 328 405
#     4  12  25  41  62  98 143 175 214 275 342 402
#
# _framework density 19.430223000000002
#
# number of rings (size 3 to 8) (size 9 to 14) (size 15 to 20)
#    0.000    0.857    5.714    0.857    8.000    0.000 
#    0.000    0.000    0.000    2.571    0.000    0.000 
#    0.000    0.000    0.000    0.000    0.000    0.000 
#
# Total GULP energy -312835.793472 kJ/mol
# GULP energy per Si atom -5586.353455 kJ/mol
# Density = 1.938600 g / cm^3
# Si number density = 19.430223 Si / 1000 Ang^3
#
#
#
# Elastic Constant Matrix: (Units=GPa)
#
#
# Indices 1 2 3 4 5 6 
#
# 1 127.0635 30.5247 25.7155 0.0000 0.0000 0.0000
# 2 30.5247 72.9575 23.6022 0.0000 0.0000 0.0000
# 3 25.7155 23.6022 81.6508 0.0000 0.0000 0.0000
# 4 0.0000 0.0000 0.0000 32.1752 0.0000 0.0000
# 5 0.0000 0.0000 0.0000 0.0000 -0.0759 0.0000
# 6 0.0000 0.0000 0.0000 0.0000 0.0000 33.5703
#
#
#
# Elastic Compliance Matrix: (Units=1/GPa)
#
#
# Indices 1 2 3 4 5 6 
#
# 1 0.009017 -0.003148 -0.001930 0.000000 0.000000 0.000000
# 2 -0.003148 0.016220 -0.003697 0.000000 0.000000 0.000000
# 3 -0.001930 -0.003697 0.013924 0.000000 0.000000 0.000000
# 4 0.000000 0.000000 0.000000 0.031080 0.000000 0.000000
# 5 0.000000 0.000000 0.000000 0.000000-13.182529 0.000000
# 6 0.000000 0.000000 0.000000 0.000000 0.000000 0.029788
#
#
# Mechanical properties :
#
#
# Convention : Reuss Voigt Hill
#
# Bulk Modulus (GPa) = 46.27418 49.03960 47.65689
# Shear Modulus (GPa) = -0.38291 26.58923 13.10316
#
# Velocity S-wave (km/s) = -0.44441 3.70327 2.59968
# Velocity P-wave (km/s) = 4.85839 6.60145 5.79582
#
# Compressibility (1/GPa) = 0.02161032
#
# Stress axis : x y z
#
# Youngs Moduli (GPa) = 110.90208 61.65292 71.81987
#
# Poissons Ratio (x) = 0.19410 0.13860
# Poissons Ratio (y) = 0.34915 0.26552
# Poissons Ratio (z) = 0.21402 0.22793
#
# Static dielectric constant tensor:
#      x y z
#    x 2.020570 0.000000 0.000000 
#    y 0.000000 1.731210 0.000000 
#    z 0.000000 0.000000 1.678750 
# 
# From -- ./inp_files/20563.got.cif
#   From: 2010.05.17/outbox.cif.g08.bks.cpg/sg54_11_cif.got.tgz:20563.got - 2010.06.03 13:09:01.
