data_PCOD9421426
_publ_section_title
;
Structure prediction by ZEFSAII (Michael W. Deem and Ramdas Pophale) SiO2 
 PCOD9421426
Probable space group: P C C A
;
_chemical_formula_sum "Si O2"
_cell_formula_units_Z 48
_cell_length_a 28.605425
_cell_length_b 8.875037
_cell_length_c 8.593890
_cell_angle_alpha 90.000000
_cell_angle_beta 90.000000
_cell_angle_gamma 90.000000
_cell_volume 2181.766994
_symmetry_space_group_name_H-M "P C C A"
_symmetry_group_IT_number 54
_symmetry_cell_setting 'orthorhombic'
loop_
_space_group_symop_operation_xyz
x,y,z
1/2-x,-y,z
1/2+x,-y,1/2-z
-x,y,1/2-z
-x,-y,-z
1/2+x,y,-z
1/2-x,y,1/2+z
x,-y,1/2+z
loop_
_atom_site_type_symbol
_atom_site_label
_atom_site_fract_x
_atom_site_fract_y
_atom_site_fract_z
Si Si1 0.089522 0.342119 0.162973
Si Si2 0.500000 0.528991 0.750000
Si Si3 0.684075 0.139058 0.134951
Si Si4 0.124516 0.407429 0.825533
Si Si5 0.446116 0.220440 0.123633
Si Si6 0.750000 0.000000 0.884581
Si Si7 0.586012 0.961715 0.178032
O O1 0.129671 0.423322 0.265705
O O2 0.091126 0.164450 0.187485
O O3 0.043807 0.417674 0.241137
O O4 0.094493 0.388472 0.983524
O O5 0.512449 0.655212 0.883352
O O6 0.714902 0.096819 0.988063
O O7 0.669977 0.312553 0.138613
O O8 0.716375 0.100531 0.280055
O O9 0.636114 0.039398 0.142000
O O10 0.097721 0.320727 0.684626
O O11 0.447734 0.092639 0.257949
O O12 0.434729 0.130919 0.967171
#
# Coordination Sequence:
#
# PCOD9421426 Si02
#       7
#     8   4   8   8   8   4   8
#     4  11  22  37  62  86 118 166 201 248 301 340
#     4  10  24  40  54  86 124 152 212 258 292 342
#     4  10  20  38  61  90 118 144 195 239 291 364
#     4  10  21  38  58  84 117 158 197 234 294 365
#     4  10  22  37  57  83 117 157 199 252 295 336
#     4  10  20  34  66  94 114 146 180 250 302 334
#     4  11  21  38  62  87 117 161 202 237 296 365
#
# _framework density 22.000515
#
# number of rings (size 3 to 8) (size 9 to 14) (size 15 to 20)
#    0.000    1.667    0.000    7.000    0.000    7.333 
#    0.000    0.000    0.000   17.000    0.000    0.000 
#    0.000    0.000    0.000    0.000    0.000    0.000 
#
# Total GULP energy -267954.953353 kJ/mol
# GULP energy per Si atom -5582.394862 kJ/mol
# Density = 2.195044 g / cm^3
# Si number density = 22.000515 Si / 1000 Ang^3
#
#
#
# Elastic Constant Matrix: (Units=GPa)
#
#
# Indices 1 2 3 4 5 6 
#
# 1 101.8977 37.1487 26.2886 0.0000 0.0000 0.0000
# 2 37.1487 107.1064 7.3638 0.0000 0.0000 0.0000
# 3 26.2886 7.3638 86.5721 0.0000 0.0000 0.0000
# 4 0.0000 0.0000 0.0000 39.3232 0.0000 0.0000
# 5 0.0000 0.0000 0.0000 0.0000 34.2638 0.0000
# 6 0.0000 0.0000 0.0000 0.0000 0.0000 14.4106
#
#
#
# Elastic Compliance Matrix: (Units=1/GPa)
#
#
# Indices 1 2 3 4 5 6 
#
# 1 0.012126 -0.003976 -0.003344 0.000000 0.000000 0.000000
# 2 -0.003976 0.010695 0.000298 0.000000 0.000000 0.000000
# 3 -0.003344 0.000298 0.012541 0.000000 0.000000 0.000000
# 4 0.000000 0.000000 0.000000 0.025430 0.000000 0.000000
# 5 0.000000 0.000000 0.000000 0.000000 0.029185 0.000000
# 6 0.000000 0.000000 0.000000 0.000000 0.000000 0.069393
#
#
# Mechanical properties :
#
#
# Convention : Reuss Voigt Hill
#
# Bulk Modulus (GPa) = 46.90944 48.57539 47.74242
# Shear Modulus (GPa) = 27.69752 32.58453 30.14102
#
# Velocity S-wave (km/s) = 3.55202 3.85266 3.70539
# Velocity P-wave (km/s) = 6.17986 6.47439 6.32884
#
# Compressibility (1/GPa) = 0.02131767
#
# Stress axis : x y z
#
# Youngs Moduli (GPa) = 82.46770 93.50138 79.73721
#
# Poissons Ratio (x) = 0.37175 0.26664
# Poissons Ratio (y) = 0.32788 -0.02373
# Poissons Ratio (z) = 0.27577 -0.02783
#
# Static dielectric constant tensor:
#      x y z
#    x 1.823010 0.000000 0.000000 
#    y 0.000000 1.807150 0.000000 
#    z 0.000000 0.000000 1.865960 
# 
# From -- ./inp_files/5879.got.cif
#   From: 2010.05.17/outbox.cif.g08.bks.cpg/sg54_3_cif.got.tgz:5879.got - 2010.06.03 13:09:01.
