data_PCOD9421751
_publ_section_title
;
Structure prediction by ZEFSAII (Michael W. Deem and Ramdas Pophale) SiO2 
 PCOD9421751
Probable space group: P C C A
;
_chemical_formula_sum "Si O2"
_cell_formula_units_Z 36
_cell_length_a 18.678769
_cell_length_b 5.273120
_cell_length_c 15.215334
_cell_angle_alpha 90.000000
_cell_angle_beta 90.000000
_cell_angle_gamma 90.000000
_cell_volume 1498.640262
_symmetry_space_group_name_H-M "P C C A"
_symmetry_group_IT_number 54
_symmetry_cell_setting 'orthorhombic'
loop_
_space_group_symop_operation_xyz
x,y,z
1/2-x,-y,z
1/2+x,-y,1/2-z
-x,y,1/2-z
-x,-y,-z
1/2+x,y,-z
1/2-x,y,1/2+z
x,-y,1/2+z
loop_
_atom_site_type_symbol
_atom_site_label
_atom_site_fract_x
_atom_site_fract_y
_atom_site_fract_z
Si Si1 0.418330 0.530073 0.420656
Si Si2 0.331476 0.388997 0.590951
Si Si3 0.165204 0.358454 0.768308
Si Si4 0.250000 0.000000 0.172291
Si Si5 0.545280 0.033955 0.163133
O O1 0.384425 0.453726 0.512697
O O2 0.350621 0.524741 0.352808
O O3 0.453376 0.801897 0.404226
O O4 0.469360 0.302107 0.385776
O O5 0.250000 0.500000 0.572942
O O6 0.363348 0.511243 0.679859
O O7 0.315078 0.091297 0.610140
O O8 0.238900 0.240139 0.735088
O O9 0.122587 0.103307 0.795782
O O10 0.500000 0.979298 0.250000
#
# Coordination Sequence:
#
# PCOD9421751 Si02
#       5
#     8   8   8   4   8
#     4  10  23  39  65  90 121 163 210 250 313 362
#     4  10  22  37  61  94 129 161 202 256 305 381
#     4   9  22  37  64  88 128 162 204 251 311 366
#     4  10  20  38  60  90 132 162 200 252 314 370
#     4  10  22  43  64  88 124 165 211 258 304 363
#
# _framework density 24.021775000000002
#
# number of rings (size 3 to 8) (size 9 to 14) (size 15 to 20)
#    1.333    0.889    0.000    2.000    6.222    5.333 
#    0.000    2.222    0.000    0.000    0.000    0.000 
#    0.000    0.000    0.000    0.000    0.000    0.000 
#
# Total GULP energy -200413.761055 kJ/mol
# GULP energy per Si atom -5567.048918 kJ/mol
# Density = 2.396710 g / cm^3
# Si number density = 24.021775 Si / 1000 Ang^3
#
#
#
# Elastic Constant Matrix: (Units=GPa)
#
#
# Indices 1 2 3 4 5 6 
#
# 1 33.5305 4.1097 10.2559 0.0000 0.0000 0.0000
# 2 4.1097 139.4894 24.6311 0.0000 0.0000 0.0000
# 3 10.2559 24.6311 130.2941 0.0000 0.0000 0.0000
# 4 0.0000 0.0000 0.0000 22.6007 0.0000 0.0000
# 5 0.0000 0.0000 0.0000 0.0000 35.4607 0.0000
# 6 0.0000 0.0000 0.0000 0.0000 0.0000 15.6538
#
#
#
# Elastic Compliance Matrix: (Units=1/GPa)
#
#
# Indices 1 2 3 4 5 6 
#
# 1 0.030592 -0.000493 -0.002315 0.000000 0.000000 0.000000
# 2 -0.000493 0.007425 -0.001365 0.000000 0.000000 0.000000
# 3 -0.002315 -0.001365 0.008115 0.000000 0.000000 0.000000
# 4 0.000000 0.000000 0.000000 0.044246 0.000000 0.000000
# 5 0.000000 0.000000 0.000000 0.000000 0.028200 0.000000
# 6 0.000000 0.000000 0.000000 0.000000 0.000000 0.063882
#
#
# Mechanical properties :
#
#
# Convention : Reuss Voigt Hill
#
# Bulk Modulus (GPa) = 26.46395 42.36751 34.41573
# Shear Modulus (GPa) = 24.58199 32.36417 28.47308
#
# Velocity S-wave (km/s) = 3.20241 3.67452 3.44656
# Velocity P-wave (km/s) = 4.97136 5.97312 5.49512
#
# Compressibility (1/GPa) = 0.03778726
#
# Stress axis : x y z
#
# Youngs Moduli (GPa) = 32.68823 134.68908 123.22618
#
# Poissons Ratio (x) = 0.06634 0.28526
# Poissons Ratio (y) = 0.01610 0.16818
# Poissons Ratio (z) = 0.07567 0.18382
#
# Static dielectric constant tensor:
#      x y z
#    x 2.099840 0.000000 0.000000 
#    y 0.000000 2.006490 0.000000 
#    z 0.000000 0.000000 1.883710 
# 
# From -- ./inp_files/14465.got.cif
#   From: 2010.05.17/outbox.cif.g08.bks.cpg/sg54_8_cif.got.tgz:14465.got - 2010.06.03 13:09:01.
