data_PCOD9421900
_publ_section_title
;
Structure prediction by ZEFSAII (Michael W. Deem and Ramdas Pophale) SiO2 
 PCOD9421900
Probable space group: P C C A
;
_chemical_formula_sum "Si O2"
_cell_formula_units_Z 64
_cell_length_a 20.002543
_cell_length_b 9.039807
_cell_length_c 17.162734
_cell_angle_alpha 90.000000
_cell_angle_beta 90.000000
_cell_angle_gamma 90.000000
_cell_volume 3103.350600
_symmetry_space_group_name_H-M "P C C A"
_symmetry_group_IT_number 54
_symmetry_cell_setting 'orthorhombic'
loop_
_space_group_symop_operation_xyz
x,y,z
1/2-x,-y,z
1/2+x,-y,1/2-z
-x,y,1/2-z
-x,-y,-z
1/2+x,y,-z
1/2-x,y,1/2+z
x,-y,1/2+z
loop_
_atom_site_type_symbol
_atom_site_label
_atom_site_fract_x
_atom_site_fract_y
_atom_site_fract_z
Si Si1 0.150746 0.884571 0.791360
Si Si2 0.626395 0.179901 0.531434
Si Si3 0.728916 0.331448 0.441685
Si Si4 0.559691 0.312473 0.810460
Si Si5 0.699678 0.201512 0.184403
Si Si6 0.660949 0.148234 0.009625
Si Si7 0.173778 0.562436 0.205431
Si Si8 0.984240 0.824836 0.977437
O O1 0.120500 0.858824 0.877610
O O2 0.101371 0.818551 0.729286
O O3 0.222719 0.803778 0.790866
O O4 0.164665 0.056893 0.780287
O O5 0.683059 0.296435 0.514935
O O6 0.556065 0.239588 0.500302
O O7 0.652030 0.026056 0.493109
O O8 0.750000 0.500000 0.446881
O O9 0.794188 0.228709 0.445238
O O10 0.683566 0.319673 0.364766
O O11 0.500000 0.353801 0.750000
O O12 0.614982 0.446216 0.814943
O O13 0.531115 0.241100 0.890627
O O14 0.696309 0.173365 0.092175
O O15 0.663805 0.348229 0.214748
O O16 0.585784 0.208847 0.018453
O O17 0.250000 0.500000 0.211922
O O18 0.000000 0.000000 0.000000
#
# Coordination Sequence:
#
# PCOD9421900 Si02
#       8
#     8   8   8   8   8   8   8   8
#     4  10  20  39  67  98 120 165 221 273 327 389
#     4  10  20  41  64  92 127 163 215 265 330 393
#     4  11  23  39  60  89 127 165 212 269 324 385
#     4  12  24  44  68  92 134 181 219 267 332 402
#     4  10  21  39  66  96 127 161 220 280 328 389
#     4  10  21  39  65  94 126 162 211 276 330 388
#     4  11  24  43  60  92 134 176 221 268 331 403
#     4  10  22  40  66  97 125 167 215 267 325 390
#
# _framework density 20.622871
#
# number of rings (size 3 to 8) (size 9 to 14) (size 15 to 20)
#    0.000    1.500    3.750    1.875    0.000    3.500 
#    4.500    1.875    0.000    0.000    0.000    0.000 
#    0.000    0.000    0.000    0.000    0.000    0.000 
#
# Total GULP energy -356519.587775 kJ/mol
# GULP energy per Si atom -5570.618559 kJ/mol
# Density = 2.057593 g / cm^3
# Si number density = 20.622871 Si / 1000 Ang^3
#
#
#
# Elastic Constant Matrix: (Units=GPa)
#
#
# Indices 1 2 3 4 5 6 
#
# 1 116.5867 27.2686 16.6718 0.0000 0.0000 0.0000
# 2 27.2686 50.4004 27.6321 0.0000 0.0000 0.0000
# 3 16.6718 27.6321 34.6662 0.0000 0.0000 0.0000
# 4 0.0000 0.0000 0.0000 23.5688 0.0000 0.0000
# 5 0.0000 0.0000 0.0000 0.0000 29.5692 0.0000
# 6 0.0000 0.0000 0.0000 0.0000 0.0000 25.2172
#
#
#
# Elastic Compliance Matrix: (Units=1/GPa)
#
#
# Indices 1 2 3 4 5 6 
#
# 1 0.009835 -0.004845 -0.000868 0.000000 0.000000 0.000000
# 2 -0.004845 0.037629 -0.027664 0.000000 0.000000 0.000000
# 3 -0.000868 -0.027664 0.051314 0.000000 0.000000 0.000000
# 4 0.000000 0.000000 0.000000 0.042429 0.000000 0.000000
# 5 0.000000 0.000000 0.000000 0.000000 0.033819 0.000000
# 6 0.000000 0.000000 0.000000 0.000000 0.000000 0.039655
#
#
# Mechanical properties :
#
#
# Convention : Reuss Voigt Hill
#
# Bulk Modulus (GPa) = 31.22557 38.31092 34.76824
# Shear Modulus (GPa) = 17.11686 24.34310 20.72998
#
# Velocity S-wave (km/s) = 2.88409 3.43941 3.17392
# Velocity P-wave (km/s) = 5.12491 5.86430 5.50703
#
# Compressibility (1/GPa) = 0.03202504
#
# Stress axis : x y z
#
# Youngs Moduli (GPa) = 101.68144 26.57509 19.48776
#
# Poissons Ratio (x) = 0.12876 0.01691
# Poissons Ratio (y) = 0.49267 0.53910
# Poissons Ratio (z) = 0.08822 0.73516
#
# Static dielectric constant tensor:
#      x y z
#    x 0.972580 0.000000 0.000000 
#    y 0.000000 1.749200 0.000000 
#    z 0.000000 0.000000 1.808210 
# 
# From -- ./inp_files/18936.got.cif
#   From: 2010.05.17/outbox.cif.g08.bks.cpg/sg54_10_cif.got.tgz:18936.got - 2010.06.03 13:09:01.
