data_PCOD9421411
_publ_section_title
;
Structure prediction by ZEFSAII (Michael W. Deem and Ramdas Pophale) SiO2 
 PCOD9421411
Probable space group: P C C A
;
_chemical_formula_sum "Si O2"
_cell_formula_units_Z 32
_cell_length_a 17.023970
_cell_length_b 10.213833
_cell_length_c 8.782523
_cell_angle_alpha 90.000000
_cell_angle_beta 90.000000
_cell_angle_gamma 90.000000
_cell_volume 1527.104981
_symmetry_space_group_name_H-M "P C C A"
_symmetry_group_IT_number 54
_symmetry_cell_setting 'orthorhombic'
loop_
_space_group_symop_operation_xyz
x,y,z
1/2-x,-y,z
1/2+x,-y,1/2-z
-x,y,1/2-z
-x,-y,-z
1/2+x,y,-z
1/2-x,y,1/2+z
x,-y,1/2+z
loop_
_atom_site_type_symbol
_atom_site_label
_atom_site_fract_x
_atom_site_fract_y
_atom_site_fract_z
Si Si1 0.419312 0.867160 0.835081
Si Si2 0.663208 0.942429 0.961446
Si Si3 0.348679 0.397437 0.316543
Si Si4 0.178727 0.345885 0.460724
O O1 0.500000 0.895725 0.750000
O O2 0.351731 0.906351 0.713941
O O3 0.412000 0.711884 0.860823
O O4 0.399905 0.952318 0.981681
O O5 0.654321 0.805334 0.051534
O O6 0.750000 0.000000 0.980259
O O7 0.269050 0.358774 0.407102
O O8 0.367157 0.546156 0.362154
O O9 0.330867 0.385878 0.137253
#
# Coordination Sequence:
#
# PCOD9421411 Si02
#       4
#     8   8   8   8
#     4  11  24  40  59  89 128 161 195 250 311 358
#     4  11  22  39  63  89 116 160 210 250 292 358
#     4  10  20  36  57  88 118 149 197 246 299 352
#     4  10  20  34  59  88 111 152 200 250 291 341
#
# _framework density 20.954681999999998
#
# number of rings (size 3 to 8) (size 9 to 14) (size 15 to 20)
#    0.000    1.500    2.500    4.500    3.500    2.000 
#    0.000    6.250    0.000    0.000    0.000    0.000 
#    0.000    0.000    0.000    0.000    0.000    0.000 
#
# Total GULP energy -178730.420244 kJ/mol
# GULP energy per Si atom -5585.325633 kJ/mol
# Density = 2.090699 g / cm^3
# Si number density = 20.954682 Si / 1000 Ang^3
#
#
#
# Elastic Constant Matrix: (Units=GPa)
#
#
# Indices 1 2 3 4 5 6 
#
# 1 25.6126 24.4302 3.4559 0.0000 0.0000 0.0000
# 2 24.4302 127.1315 28.3405 0.0000 0.0000 0.0000
# 3 3.4559 28.3405 49.8965 0.0000 0.0000 0.0000
# 4 0.0000 0.0000 0.0000 27.0385 0.0000 0.0000
# 5 0.0000 0.0000 0.0000 0.0000 16.3654 0.0000
# 6 0.0000 0.0000 0.0000 0.0000 0.0000 19.3751
#
#
#
# Elastic Compliance Matrix: (Units=1/GPa)
#
#
# Indices 1 2 3 4 5 6 
#
# 1 0.048014 -0.009716 0.002193 0.000000 0.000000 0.000000
# 2 -0.009716 0.010972 -0.005559 0.000000 0.000000 0.000000
# 3 0.002193 -0.005559 0.023047 0.000000 0.000000 0.000000
# 4 0.000000 0.000000 0.000000 0.036984 0.000000 0.000000
# 5 0.000000 0.000000 0.000000 0.000000 0.061105 0.000000
# 6 0.000000 0.000000 0.000000 0.000000 0.000000 0.051613
#
#
# Mechanical properties :
#
#
# Convention : Reuss Voigt Hill
#
# Bulk Modulus (GPa) = 17.89871 35.01042 26.45456
# Shear Modulus (GPa) = 18.08173 22.31673 20.19923
#
# Velocity S-wave (km/s) = 2.94070 3.26697 3.10812
# Velocity P-wave (km/s) = 4.48224 5.56550 5.05298
#
# Compressibility (1/GPa) = 0.05586996
#
# Stress axis : x y z
#
# Youngs Moduli (GPa) = 20.82705 91.14020 43.38936
#
# Poissons Ratio (x) = 0.88547 -0.09514
# Poissons Ratio (y) = 0.20235 0.24121
# Poissons Ratio (z) = -0.04567 0.50666
#
# Static dielectric constant tensor:
#      x y z
#    x 1.735590 0.000000 0.000000 
#    y 0.000000 1.807380 0.000000 
#    z 0.000000 0.000000 1.742510 
# 
# From -- ./inp_files/3250.got.cif
#   From: 2010.05.17/outbox.cif.g08.bks.cpg/sg54_2_cif.got.tgz:3250.got - 2010.06.03 13:09:01.
