data_PCOD9421534
_publ_section_title
;
Structure prediction by ZEFSAII (Michael W. Deem and Ramdas Pophale) SiO2 
 PCOD9421534
Probable space group: P C C A
;
_chemical_formula_sum "Si O2"
_cell_formula_units_Z 56
_cell_length_a 22.540570
_cell_length_b 11.569791
_cell_length_c 11.720560
_cell_angle_alpha 90.000000
_cell_angle_beta 90.000000
_cell_angle_gamma 90.000000
_cell_volume 3056.601138
_symmetry_space_group_name_H-M "P C C A"
_symmetry_group_IT_number 54
_symmetry_cell_setting 'orthorhombic'
loop_
_space_group_symop_operation_xyz
x,y,z
1/2-x,-y,z
1/2+x,-y,1/2-z
-x,y,1/2-z
-x,-y,-z
1/2+x,y,-z
1/2-x,y,1/2+z
x,-y,1/2+z
loop_
_atom_site_type_symbol
_atom_site_label
_atom_site_fract_x
_atom_site_fract_y
_atom_site_fract_z
Si Si1 0.646749 0.555398 0.302421
Si Si2 0.815582 0.847110 0.162052
Si Si3 0.335263 0.701490 0.624808
Si Si4 0.677635 0.888960 0.209791
Si Si5 0.794953 0.768627 0.923318
Si Si6 0.986341 0.554300 0.875130
Si Si7 0.599339 0.691258 0.105362
O O1 0.671327 0.428649 0.327464
O O2 0.687548 0.654627 0.353887
O O3 0.583613 0.572223 0.365608
O O4 0.633834 0.585523 0.169742
O O5 0.846099 0.782283 0.266690
O O6 0.743644 0.846140 0.174969
O O7 0.831481 0.981958 0.165846
O O8 0.826000 0.782014 0.044154
O O9 0.275996 0.755423 0.568097
O O10 0.384767 0.696456 0.527315
O O11 0.683999 0.876989 0.346543
O O12 0.626656 0.804511 0.164401
O O13 0.000000 0.493564 0.750000
O O14 0.030419 0.664663 0.873220
O O15 0.000000 0.500000 0.000000
#
# Coordination Sequence:
#
# PCOD9421534 Si02
#       7
#     8   8   8   8   8   8   8
#     4  10  22  37  55  82 115 151 183 229 285 348
#     4  10  21  32  58  81 111 151 189 230 282 343
#     4  11  21  34  54  84 113 146 184 225 291 333
#     4   9  20  36  53  81 111 148 192 234 279 339
#     4  10  21  36  51  82 114 148 184 228 285 343
#     4  10  20  36  59  83 107 150 190 234 280 335
#     4  10  20  37  58  81 113 147 188 236 284 334
#
# _framework density 18.321003000000001
#
# number of rings (size 3 to 8) (size 9 to 14) (size 15 to 20)
#    0.000    2.000    2.857    0.429    4.000    1.143 
#    0.000    0.000    0.000    0.857    7.429    0.000 
#    0.000    0.000    0.000    0.000    0.000    0.000 
#
# Total GULP energy -311797.411792 kJ/mol
# GULP energy per Si atom -5567.810925 kJ/mol
# Density = 1.827930 g / cm^3
# Si number density = 18.321003 Si / 1000 Ang^3
#
#
#
# Elastic Constant Matrix: (Units=GPa)
#
#
# Indices 1 2 3 4 5 6 
#
# 1 45.5223 12.3033 5.6702 0.0000 0.0000 0.0000
# 2 12.3033 65.0319 18.6313 0.0000 0.0000 0.0000
# 3 5.6702 18.6313 84.4260 0.0000 0.0000 0.0000
# 4 0.0000 0.0000 0.0000 17.7748 0.0000 0.0000
# 5 0.0000 0.0000 0.0000 0.0000 20.0668 0.0000
# 6 0.0000 0.0000 0.0000 0.0000 0.0000 18.7431
#
#
#
# Elastic Compliance Matrix: (Units=1/GPa)
#
#
# Indices 1 2 3 4 5 6 
#
# 1 0.023182 -0.004206 -0.000629 0.000000 0.000000 0.000000
# 2 -0.004206 0.017178 -0.003508 0.000000 0.000000 0.000000
# 3 -0.000629 -0.003508 0.012661 0.000000 0.000000 0.000000
# 4 0.000000 0.000000 0.000000 0.056259 0.000000 0.000000
# 5 0.000000 0.000000 0.000000 0.000000 0.049834 0.000000
# 6 0.000000 0.000000 0.000000 0.000000 0.000000 0.053353
#
#
# Mechanical properties :
#
#
# Convention : Reuss Voigt Hill
#
# Bulk Modulus (GPa) = 27.52130 29.79886 28.66008
# Shear Modulus (GPa) = 20.72411 21.87529 21.29970
#
# Velocity S-wave (km/s) = 3.36693 3.45918 3.41337
# Velocity P-wave (km/s) = 5.49266 5.67933 5.58677
#
# Compressibility (1/GPa) = 0.03633549
#
# Stress axis : x y z
#
# Youngs Moduli (GPa) = 43.13648 58.21440 78.98165
#
# Poissons Ratio (x) = 0.24483 0.04967
# Poissons Ratio (y) = 0.18142 0.27710
# Poissons Ratio (z) = 0.02713 0.20424
#
# Static dielectric constant tensor:
#      x y z
#    x 1.634970 0.000000 0.000000 
#    y 0.000000 1.625110 0.000000 
#    z 0.000000 0.000000 1.691100 
# 
# From -- ./inp_files/9549.got.cif
#   From: 2010.05.17/outbox.cif.g08.bks.cpg/sg54_5_cif.got.tgz:9549.got - 2010.06.03 13:09:01.
