data_PCOD9421461
_publ_section_title
;
Structure prediction by ZEFSAII (Michael W. Deem and Ramdas Pophale) SiO2 
 PCOD9421461
Probable space group: P C C A
;
_chemical_formula_sum "Si O2"
_cell_formula_units_Z 52
_cell_length_a 16.168583
_cell_length_b 18.711075
_cell_length_c 8.755741
_cell_angle_alpha 90.000000
_cell_angle_beta 90.000000
_cell_angle_gamma 90.000000
_cell_volume 2648.888064
_symmetry_space_group_name_H-M "P C C A"
_symmetry_group_IT_number 54
_symmetry_cell_setting 'orthorhombic'
loop_
_space_group_symop_operation_xyz
x,y,z
1/2-x,-y,z
1/2+x,-y,1/2-z
-x,y,1/2-z
-x,-y,-z
1/2+x,y,-z
1/2-x,y,1/2+z
x,-y,1/2+z
loop_
_atom_site_type_symbol
_atom_site_label
_atom_site_fract_x
_atom_site_fract_y
_atom_site_fract_z
Si Si1 0.180493 0.099738 0.531564
Si Si2 0.425995 0.691606 0.143309
Si Si3 0.584387 0.785818 0.842634
Si Si4 0.480873 0.577011 0.570016
Si Si5 0.750000 0.000000 0.709319
Si Si6 0.654227 0.336289 0.551480
Si Si7 0.198679 0.768395 0.446478
O O1 0.095358 0.139163 0.571081
O O2 0.209404 0.058763 0.682515
O O3 0.185122 0.041343 0.398387
O O4 0.244850 0.163539 0.487872
O O5 0.500000 0.718968 0.250000
O O6 0.366781 0.655636 0.270071
O O7 0.462217 0.634007 0.023779
O O8 0.376575 0.754560 0.061605
O O9 0.500000 0.777757 0.750000
O O10 0.658793 0.778098 0.719879
O O11 0.600106 0.725739 0.968474
O O12 0.500000 0.581084 0.750000
O O13 0.500000 0.500000 0.500000
O O14 0.384380 0.595903 0.535038
O O15 0.745806 0.303652 0.542944
#
# Coordination Sequence:
#
# PCOD9421461 Si02
#       7
#     8   8   8   8   4   8   8
#     4  10  21  37  63  82 117 161 207 250 309 387
#     4  10  21  36  58  89 122 158 205 259 306 363
#     4  11  21  36  58  91 123 157 204 259 317 359
#     4  11  22  40  63  90 129 173 203 243 310 368
#     4  10  20  40  60  84 116 162 204 244 318 388
#     4  10  20  35  59  88 122 160 208 254 291 368
#     4  11  21  37  60  92 119 160 210 262 309 362
#
# _framework density 19.630880000000001
#
# number of rings (size 3 to 8) (size 9 to 14) (size 15 to 20)
#    0.000    1.538    1.538    6.462    2.154    0.000 
#    0.000    1.538    0.000    5.538    0.000    0.000 
#    0.000    0.000    0.000    0.000    0.000    0.000 
#
# Total GULP energy -289965.375778 kJ/mol
# GULP energy per Si atom -5576.257227 kJ/mol
# Density = 1.958620 g / cm^3
# Si number density = 19.630880 Si / 1000 Ang^3
#
#
#
# Elastic Constant Matrix: (Units=GPa)
#
#
# Indices 1 2 3 4 5 6 
#
# 1 63.0939 27.0496 24.1954 0.0000 0.0000 0.0000
# 2 27.0496 77.1109 31.9441 0.0000 0.0000 0.0000
# 3 24.1954 31.9441 140.1418 0.0000 0.0000 0.0000
# 4 0.0000 0.0000 0.0000 34.2841 0.0000 0.0000
# 5 0.0000 0.0000 0.0000 0.0000 27.1216 0.0000
# 6 0.0000 0.0000 0.0000 0.0000 0.0000 28.0263
#
#
#
# Elastic Compliance Matrix: (Units=1/GPa)
#
#
# Indices 1 2 3 4 5 6 
#
# 1 0.019129 -0.005899 -0.001958 0.000000 0.000000 0.000000
# 2 -0.005899 0.016140 -0.002660 0.000000 0.000000 0.000000
# 3 -0.001958 -0.002660 0.008080 0.000000 0.000000 0.000000
# 4 0.000000 0.000000 0.000000 0.029168 0.000000 0.000000
# 5 0.000000 0.000000 0.000000 0.000000 0.036871 0.000000
# 6 0.000000 0.000000 0.000000 0.000000 0.000000 0.035681
#
#
# Mechanical properties :
#
#
# Convention : Reuss Voigt Hill
#
# Bulk Modulus (GPa) = 44.81498 49.63609 47.22554
# Shear Modulus (GPa) = 28.81140 31.03023 29.92081
#
# Velocity S-wave (km/s) = 3.83516 3.98010 3.90830
# Velocity P-wave (km/s) = 6.51841 6.81624 6.66899
#
# Compressibility (1/GPa) = 0.02231397
#
# Stress axis : x y z
#
# Youngs Moduli (GPa) = 52.27566 61.95852 123.76083
#
# Poissons Ratio (x) = 0.36551 0.24232
# Poissons Ratio (y) = 0.30839 0.32926
# Poissons Ratio (z) = 0.10236 0.16484
#
# Static dielectric constant tensor:
#      x y z
#    x 1.759120 0.000000 0.000000 
#    y 0.000000 1.700950 0.000000 
#    z 0.000000 0.000000 1.712070 
# 
# From -- ./inp_files/4322.got.cif
#   From: 2010.05.17/outbox.cif.g08.bks.cpg/sg54_3_cif.got.tgz:4322.got - 2010.06.03 13:09:01.
