data_PCOD9421830
_publ_section_title
;
Structure prediction by ZEFSAII (Michael W. Deem and Ramdas Pophale) SiO2 
 PCOD9421830
Probable space group: P C C A
;
_chemical_formula_sum "Si O2"
_cell_formula_units_Z 44
_cell_length_a 8.878611
_cell_length_b 13.644389
_cell_length_c 16.310420
_cell_angle_alpha 90.000000
_cell_angle_beta 90.000000
_cell_angle_gamma 90.000000
_cell_volume 1975.896835
_symmetry_space_group_name_H-M "P C C A"
_symmetry_group_IT_number 54
_symmetry_cell_setting 'orthorhombic'
loop_
_space_group_symop_operation_xyz
x,y,z
1/2-x,-y,z
1/2+x,-y,1/2-z
-x,y,1/2-z
-x,-y,-z
1/2+x,y,-z
1/2-x,y,1/2+z
x,-y,1/2+z
loop_
_atom_site_type_symbol
_atom_site_label
_atom_site_fract_x
_atom_site_fract_y
_atom_site_fract_z
Si Si1 0.155556 0.208149 0.299248
Si Si2 0.750000 0.000000 0.470394
Si Si3 0.838834 0.180671 0.853109
Si Si4 0.654168 0.406746 0.607924
Si Si5 0.636413 0.157784 0.069590
Si Si6 0.660262 0.334562 0.951522
O O1 0.272540 0.163431 0.235415
O O2 0.170444 0.322490 0.323291
O O3 0.197618 0.164504 0.388780
O O4 0.000000 0.193269 0.250000
O O5 0.796895 0.908805 0.413667
O O6 0.630157 0.948343 0.530315
O O7 0.763288 0.282770 0.883093
O O8 0.016530 0.184247 0.861428
O O9 0.750000 0.500000 0.637995
O O10 0.475310 0.401088 0.584058
O O11 0.737792 0.383443 0.521484
O O12 0.599141 0.239108 0.000643
#
# Coordination Sequence:
#
# PCOD9421830 Si02
#       6
#     8   4   8   8   8   8
#     4  11  24  41  64  91 136 185 210 272 359 410
#     4  10  24  38  70 102 126 172 238 286 326 402
#     4  11  21  41  65  93 137 174 221 273 344 413
#     4  11  22  41  65  98 129 171 232 280 337 411
#     4  10  22  40  66  96 129 174 226 275 333 407
#     4  10  20  38  67  93 126 173 217 277 343 387
#
# _framework density 22.268370000000001
#
# number of rings (size 3 to 8) (size 9 to 14) (size 15 to 20)
#    0.000    1.455    3.636    1.636    0.000    2.182 
#    0.000    4.545    0.000    0.000    0.000    0.000 
#    0.000    0.000    0.000    0.000    0.000    0.000 
#
# Total GULP energy -245019.306055 kJ/mol
# GULP energy per Si atom -5568.620592 kJ/mol
# Density = 2.221769 g / cm^3
# Si number density = 22.268370 Si / 1000 Ang^3
#
#
#
# Elastic Constant Matrix: (Units=GPa)
#
#
# Indices 1 2 3 4 5 6 
#
# 1 111.0712 34.7399 37.5786 0.0000 0.0000 0.0000
# 2 34.7399 42.4157 12.8024 0.0000 0.0000 0.0000
# 3 37.5786 12.8024 64.8808 0.0000 0.0000 0.0000
# 4 0.0000 0.0000 0.0000 -53.0992 0.0000 0.0000
# 5 0.0000 0.0000 0.0000 0.0000 33.8638 0.0000
# 6 0.0000 0.0000 0.0000 0.0000 0.0000 21.0040
#
#
#
# Elastic Compliance Matrix: (Units=1/GPa)
#
#
# Indices 1 2 3 4 5 6 
#
# 1 0.014167 -0.009704 -0.006290 0.000000 0.000000 0.000000
# 2 -0.009704 0.031717 -0.000638 0.000000 0.000000 0.000000
# 3 -0.006290 -0.000638 0.019182 0.000000 0.000000 0.000000
# 4 0.000000 0.000000 0.000000 -0.018833 0.000000 0.000000
# 5 0.000000 0.000000 0.000000 0.000000 0.029530 0.000000
# 6 0.000000 0.000000 0.000000 0.000000 0.000000 0.047610
#
#
# Mechanical properties :
#
#
# Convention : Reuss Voigt Hill
#
# Bulk Modulus (GPa) = 31.44589 43.17884 37.31236
# Shear Modulus (GPa) = 29.89752 9.23687 19.56720
#
# Velocity S-wave (km/s) = 3.66813 2.03887 2.96750
# Velocity P-wave (km/s) = 5.66500 4.99749 5.34168
#
# Compressibility (1/GPa) = 0.03180066
#
# Stress axis : x y z
#
# Youngs Moduli (GPa) = 70.58810 31.52901 52.13204
#
# Poissons Ratio (x) = 0.30597 0.32793
# Poissons Ratio (y) = 0.68501 0.03325
# Poissons Ratio (z) = 0.44403 0.02011
#
# Static dielectric constant tensor:
#      x y z
#    x 2.175880 0.000000 0.000000 
#    y 0.000000 1.821540 0.000000 
#    z 0.000000 0.000000 1.823820 
# 
# From -- ./inp_files/16534.got.cif
#   From: 2010.05.17/outbox.cif.g08.bks.cpg/sg54_9_cif.got.tgz:16534.got - 2010.06.03 13:09:01.
