data_PCOD9421736
_publ_section_title
;
Structure prediction by ZEFSAII (Michael W. Deem and Ramdas Pophale) SiO2 
 PCOD9421736
Probable space group: P C C A
;
_chemical_formula_sum "Si O2"
_cell_formula_units_Z 32
_cell_length_a 9.543675
_cell_length_b 7.325396
_cell_length_c 23.141567
_cell_angle_alpha 90.000000
_cell_angle_beta 90.000000
_cell_angle_gamma 90.000000
_cell_volume 1617.854688
_symmetry_space_group_name_H-M "P C C A"
_symmetry_group_IT_number 54
_symmetry_cell_setting 'orthorhombic'
loop_
_space_group_symop_operation_xyz
x,y,z
1/2-x,-y,z
1/2+x,-y,1/2-z
-x,y,1/2-z
-x,-y,-z
1/2+x,y,-z
1/2-x,y,1/2+z
x,-y,1/2+z
loop_
_atom_site_type_symbol
_atom_site_label
_atom_site_fract_x
_atom_site_fract_y
_atom_site_fract_z
Si Si1 0.415507 0.995100 0.303442
Si Si2 0.541497 0.671934 0.126313
Si Si3 0.628387 0.719606 0.600701
Si Si4 0.118005 0.866049 0.523770
O O1 0.500000 0.077789 0.250000
O O2 0.477643 0.793753 0.316573
O O3 0.071631 0.893572 0.363815
O O4 0.250000 0.000000 0.289485
O O5 0.706424 0.709493 0.114293
O O6 0.541212 0.453359 0.123859
O O7 0.438064 0.752932 0.078040
O O8 0.632619 0.733381 0.531525
O O9 0.250000 0.000000 0.534833
O O10 0.000000 0.000000 0.500000
#
# Coordination Sequence:
#
# PCOD9421736 Si02
#       4
#     8   8   8   8
#     4  10  21  39  60  81 111 150 191 241 292 342
#     4  10  21  37  60  84 114 154 193 235 289 350
#     4  10  20  38  59  84 115 153 192 236 292 345
#     4  12  20  36  61  86 121 155 187 231 290 349
#
# _framework density 19.779278999999999
#
# number of rings (size 3 to 8) (size 9 to 14) (size 15 to 20)
#    0.000    1.500    5.000    1.500    0.000    2.000 
#    0.000    0.000    0.000    0.000    0.000    0.000 
#    0.000    0.000    0.000    0.000    0.000    0.000 
#
# Total GULP energy -178190.626752 kJ/mol
# GULP energy per Si atom -5568.457086 kJ/mol
# Density = 1.973426 g / cm^3
# Si number density = 19.779279 Si / 1000 Ang^3
#
#
#
# Elastic Constant Matrix: (Units=GPa)
#
#
# Indices 1 2 3 4 5 6 
#
# 1 63.4147 25.1293 23.0005 0.0000 0.0000 0.0000
# 2 25.1293 98.6101 19.9119 0.0000 0.0000 0.0000
# 3 23.0005 19.9119 96.4140 0.0000 0.0000 0.0000
# 4 0.0000 0.0000 0.0000 10.0553 0.0000 0.0000
# 5 0.0000 0.0000 0.0000 0.0000 23.3351 0.0000
# 6 0.0000 0.0000 0.0000 0.0000 0.0000 21.4133
#
#
#
# Elastic Compliance Matrix: (Units=1/GPa)
#
#
# Indices 1 2 3 4 5 6 
#
# 1 0.018680 -0.004028 -0.003624 0.000000 0.000000 0.000000
# 2 -0.004028 0.011451 -0.001404 0.000000 0.000000 0.000000
# 3 -0.003624 -0.001404 0.011526 0.000000 0.000000 0.000000
# 4 0.000000 0.000000 0.000000 0.099450 0.000000 0.000000
# 5 0.000000 0.000000 0.000000 0.000000 0.042854 0.000000
# 6 0.000000 0.000000 0.000000 0.000000 0.000000 0.046700
#
#
# Mechanical properties :
#
#
# Convention : Reuss Voigt Hill
#
# Bulk Modulus (GPa) = 42.47328 43.83579 43.15453
# Shear Modulus (GPa) = 19.48380 23.65387 21.56883
#
# Velocity S-wave (km/s) = 3.14197 3.46192 3.30582
# Velocity P-wave (km/s) = 5.88922 6.17984 6.03628
#
# Compressibility (1/GPa) = 0.02354421
#
# Stress axis : x y z
#
# Youngs Moduli (GPa) = 53.53280 87.32833 86.75661
#
# Poissons Ratio (x) = 0.35180 0.31444
# Poissons Ratio (y) = 0.21566 0.12180
# Poissons Ratio (z) = 0.19402 0.12260
#
# Static dielectric constant tensor:
#      x y z
#    x 1.705900 0.000000 0.000000 
#    y 0.000000 1.765810 0.000000 
#    z 0.000000 0.000000 1.761880 
# 
# From -- ./inp_files/20006.got.cif
#   From: 2010.05.17/outbox.cif.g08.bks.cpg/sg54_11_cif.got.tgz:20006.got - 2010.06.03 13:09:01.
