data_PCOD9421959
_publ_section_title
;
Structure prediction by ZEFSAII (Michael W. Deem and Ramdas Pophale) SiO2 
 PCOD9421959
Probable space group: P C C A
;
_chemical_formula_sum "Si O2"
_cell_formula_units_Z 40
_cell_length_a 10.676672
_cell_length_b 18.736355
_cell_length_c 9.177019
_cell_angle_alpha 90.000000
_cell_angle_beta 90.000000
_cell_angle_gamma 90.000000
_cell_volume 1835.788471
_symmetry_space_group_name_H-M "P C C A"
_symmetry_group_IT_number 54
_symmetry_cell_setting 'orthorhombic'
loop_
_space_group_symop_operation_xyz
x,y,z
1/2-x,-y,z
1/2+x,-y,1/2-z
-x,y,1/2-z
-x,-y,-z
1/2+x,y,-z
1/2-x,y,1/2+z
x,-y,1/2+z
loop_
_atom_site_type_symbol
_atom_site_label
_atom_site_fract_x
_atom_site_fract_y
_atom_site_fract_z
Si Si1 0.250000 0.000000 0.168970
Si Si2 0.642433 0.305998 0.398664
Si Si3 0.140460 0.644868 0.807574
Si Si4 0.406385 0.941171 0.933165
Si Si5 0.500000 0.420810 0.250000
Si Si6 0.000000 0.183857 0.750000
Si Si7 0.750000 0.500000 0.673421
O O1 0.147323 0.971043 0.280822
O O2 0.300031 0.939557 0.058232
O O3 0.651734 0.294594 0.570143
O O4 0.766453 0.338645 0.325323
O O5 0.528498 0.364021 0.378585
O O6 0.607335 0.236120 0.308653
O O7 0.194728 0.573727 0.889474
O O8 0.000000 0.635740 0.750000
O O9 0.461211 0.865731 0.886063
O O10 0.500000 0.000000 0.000000
O O11 0.377341 0.469990 0.253678
#
# Coordination Sequence:
#
# PCOD9421959 Si02
#       7
#     4   8   8   8   4   4   4
#     4  10  22  38  70 106 144 166 214 294 346 408
#     4  10  26  45  65  97 142 188 239 292 345 450
#     4  11  25  45  70 101 142 185 244 300 365 425
#     4  11  21  43  68 105 138 176 225 286 347 420
#     4   9  20  40  64  98 137 180 238 296 357 426
#     4  11  24  46  74  94 145 192 234 284 365 416
#     4  10  20  40  68 102 136 188 234 306 368 424
#
# _framework density 21.789003000000001
#
# number of rings (size 3 to 8) (size 9 to 14) (size 15 to 20)
#    0.000    1.600    3.000    0.000    8.400    5.600 
#    0.000    0.000    0.000    0.000    0.000    0.000 
#    0.000    0.000    0.000    0.000    0.000    0.000 
#
# Total GULP energy -222785.143301 kJ/mol
# GULP energy per Si atom -5569.628583 kJ/mol
# Density = 2.173941 g / cm^3
# Si number density = 21.789003 Si / 1000 Ang^3
#
#
#
# Elastic Constant Matrix: (Units=GPa)
#
#
# Indices 1 2 3 4 5 6 
#
# 1 129.8969 55.0221 53.6213 0.0000 0.0000 0.0000
# 2 55.0221 93.4004 27.3556 0.0000 0.0000 0.0000
# 3 53.6213 27.3556 129.5056 0.0000 0.0000 0.0000
# 4 0.0000 0.0000 0.0000 36.4791 0.0000 0.0000
# 5 0.0000 0.0000 0.0000 0.0000 42.3529 0.0000
# 6 0.0000 0.0000 0.0000 0.0000 0.0000 12.7145
#
#
#
# Elastic Compliance Matrix: (Units=1/GPa)
#
#
# Indices 1 2 3 4 5 6 
#
# 1 0.011641 -0.005805 -0.003594 0.000000 0.000000 0.000000
# 2 -0.005805 0.014308 -0.000619 0.000000 0.000000 0.000000
# 3 -0.003594 -0.000619 0.009340 0.000000 0.000000 0.000000
# 4 0.000000 0.000000 0.000000 0.027413 0.000000 0.000000
# 5 0.000000 0.000000 0.000000 0.000000 0.023611 0.000000
# 6 0.000000 0.000000 0.000000 0.000000 0.000000 0.078651
#
#
# Mechanical properties :
#
#
# Convention : Reuss Voigt Hill
#
# Bulk Modulus (GPa) = 65.55666 69.42232 67.48949
# Shear Modulus (GPa) = 26.30438 32.76290 29.53364
#
# Velocity S-wave (km/s) = 3.47829 3.88189 3.68562
# Velocity P-wave (km/s) = 6.80321 7.21266 7.01093
#
# Compressibility (1/GPa) = 0.01525398
#
# Stress axis : x y z
#
# Youngs Moduli (GPa) = 85.90491 69.89328 107.06331
#
# Poissons Ratio (x) = 0.40573 0.38474
# Poissons Ratio (y) = 0.49868 0.06623
# Poissons Ratio (z) = 0.30871 0.04324
#
# Static dielectric constant tensor:
#      x y z
#    x 1.901460 0.000000 0.000000 
#    y 0.000000 1.830280 0.000000 
#    z 0.000000 0.000000 1.802000 
# 
# From -- ./inp_files/3000.got.cif
#   From: 2010.05.17/outbox.cif.g08.bks.cpg/sg54_2_cif.got.tgz:3000.got - 2010.06.03 13:09:01.
