data_PCOD9421478
_publ_section_title
;
Structure prediction by ZEFSAII (Michael W. Deem and Ramdas Pophale) SiO2 
 PCOD9421478
Probable space group: P C C A
;
_chemical_formula_sum "Si O2"
_cell_formula_units_Z 40
_cell_length_a 13.226882
_cell_length_b 7.583979
_cell_length_c 19.207181
_cell_angle_alpha 90.000000
_cell_angle_beta 90.000000
_cell_angle_gamma 90.000000
_cell_volume 1926.718334
_symmetry_space_group_name_H-M "P C C A"
_symmetry_group_IT_number 54
_symmetry_cell_setting 'orthorhombic'
loop_
_space_group_symop_operation_xyz
x,y,z
1/2-x,-y,z
1/2+x,-y,1/2-z
-x,y,1/2-z
-x,-y,-z
1/2+x,y,-z
1/2-x,y,1/2+z
x,-y,1/2+z
loop_
_atom_site_type_symbol
_atom_site_label
_atom_site_fract_x
_atom_site_fract_y
_atom_site_fract_z
Si Si1 0.652708 0.246266 0.427608
Si Si2 0.577069 0.691597 0.073816
Si Si3 0.283783 0.708622 0.892126
Si Si4 0.860704 0.166048 0.458691
Si Si5 0.977541 0.638066 0.170723
O O1 0.616651 0.356508 0.495582
O O2 0.772799 0.264656 0.413800
O O3 0.574741 0.272971 0.365311
O O4 0.647488 0.043991 0.453012
O O5 0.672007 0.793351 0.108861
O O6 0.545133 0.530121 0.122316
O O7 0.474231 0.794644 0.062537
O O8 0.250000 0.500000 0.892590
O O9 0.336720 0.767885 0.963608
O O10 0.369846 0.739959 0.834971
O O11 0.000000 0.594128 0.250000
#
# Coordination Sequence:
#
# PCOD9421478 Si02
#       5
#     8   8   8   8   8
#     4  10  21  37  62  92 119 149 201 253 299 353
#     4  10  20  37  61  88 114 151 204 248 292 355
#     4   9  20  35  59  90 119 146 195 251 300 346
#     4  10  20  35  64  94 114 147 196 259 303 341
#     4  11  23  40  58  82 123 165 195 240 302 362
#
# _framework density 20.760687000000001
#
# number of rings (size 3 to 8) (size 9 to 14) (size 15 to 20)
#    0.000    2.000    2.000    1.200    5.600    0.000 
#   10.800    1.000    4.400    0.000    0.000    0.000 
#    0.000    0.000    0.000    0.000    0.000    0.000 
#
# Total GULP energy -222925.003777 kJ/mol
# GULP energy per Si atom -5573.125094 kJ/mol
# Density = 2.071343 g / cm^3
# Si number density = 20.760687 Si / 1000 Ang^3
#
#
#
# Elastic Constant Matrix: (Units=GPa)
#
#
# Indices 1 2 3 4 5 6 
#
# 1 186.1940 9.8507 39.6843 0.0000 0.0000 0.0000
# 2 9.8507 30.0003 24.5496 0.0000 0.0000 0.0000
# 3 39.6843 24.5496 79.9099 0.0000 0.0000 0.0000
# 4 0.0000 0.0000 0.0000 1.6674 0.0000 0.0000
# 5 0.0000 0.0000 0.0000 0.0000 15.6064 0.0000
# 6 0.0000 0.0000 0.0000 0.0000 0.0000 18.6738
#
#
#
# Elastic Compliance Matrix: (Units=1/GPa)
#
#
# Indices 1 2 3 4 5 6 
#
# 1 0.006015 0.000627 -0.003180 0.000000 0.000000 0.000000
# 2 0.000627 0.044592 -0.014011 0.000000 0.000000 0.000000
# 3 -0.003180 -0.014011 0.018398 0.000000 0.000000 0.000000
# 4 0.000000 0.000000 0.000000 0.599728 0.000000 0.000000
# 5 0.000000 0.000000 0.000000 0.000000 0.064076 0.000000
# 6 0.000000 0.000000 0.000000 0.000000 0.000000 0.053551
#
#
# Mechanical properties :
#
#
# Convention : Reuss Voigt Hill
#
# Bulk Modulus (GPa) = 27.87237 49.36371 38.61804
# Shear Modulus (GPa) = 6.01361 21.99082 14.00221
#
# Velocity S-wave (km/s) = 1.70380 3.25815 2.59985
# Velocity P-wave (km/s) = 4.16236 6.16305 5.25873
#
# Compressibility (1/GPa) = 0.03587783
#
# Stress axis : x y z
#
# Youngs Moduli (GPa) = 166.24216 22.42532 54.35475
#
# Poissons Ratio (x) = -0.01406 0.17284
# Poissons Ratio (y) = -0.10424 0.76156
# Poissons Ratio (z) = 0.52864 0.31420
#
# Static dielectric constant tensor:
#      x y z
#    x 1.901110 0.000000 0.000000 
#    y 0.000000 1.846350 0.000000 
#    z 0.000000 0.000000 1.682580 
# 
# From -- ./inp_files/17823.got.cif
#   From: 2010.05.17/outbox.cif.g08.bks.cpg/sg54_9_cif.got.tgz:17823.got - 2010.06.03 13:09:01.
