data_PCOD9421713
_publ_section_title
;
Structure prediction by ZEFSAII (Michael W. Deem and Ramdas Pophale) SiO2 
 PCOD9421713
Probable space group: P C C A
;
_chemical_formula_sum "Si O2"
_cell_formula_units_Z 40
_cell_length_a 18.280470
_cell_length_b 7.949129
_cell_length_c 12.908960
_cell_angle_alpha 90.000000
_cell_angle_beta 90.000000
_cell_angle_gamma 90.000000
_cell_volume 1875.850215
_symmetry_space_group_name_H-M "P C C A"
_symmetry_group_IT_number 54
_symmetry_cell_setting 'orthorhombic'
loop_
_space_group_symop_operation_xyz
x,y,z
1/2-x,-y,z
1/2+x,-y,1/2-z
-x,y,1/2-z
-x,-y,-z
1/2+x,y,-z
1/2-x,y,1/2+z
x,-y,1/2+z
loop_
_atom_site_type_symbol
_atom_site_label
_atom_site_fract_x
_atom_site_fract_y
_atom_site_fract_z
Si Si1 0.084275 0.326910 0.869825
Si Si2 0.843782 0.657101 0.917909
Si Si3 0.589491 0.291892 0.363360
Si Si4 0.792092 0.172025 0.996186
Si Si5 0.180647 0.369530 0.304294
O O1 0.106430 0.250644 0.757465
O O2 0.116343 0.515878 0.854087
O O3 0.997215 0.310157 0.874986
O O4 0.116742 0.268732 0.979943
O O5 0.877233 0.472062 0.898143
O O6 0.759016 0.684507 0.945061
O O7 0.846769 0.720225 0.799883
O O8 0.630414 0.164923 0.438939
O O9 0.750000 0.000000 0.983771
O O10 0.798252 0.229577 0.113720
O O11 0.250000 0.500000 0.287922
#
# Coordination Sequence:
#
# PCOD9421713 Si02
#       5
#     8   8   8   8   8
#     4  10  20  37  70  95 122 152 210 267 316 358
#     4  11  21  38  63  92 116 156 212 258 308 368
#     4  10  21  40  66  96 123 158 205 262 318 369
#     4  12  25  40  59  87 127 169 206 251 311 384
#     4  11  21  37  63  91 120 161 212 266 311 360
#
# _framework density 21.323663
#
# number of rings (size 3 to 8) (size 9 to 14) (size 15 to 20)
#    0.000    1.200    4.000    3.600    0.000    0.800 
#    0.000    1.000    0.000    2.400    0.000    0.000 
#    0.000    0.000    0.000    0.000    0.000    0.000 
#
# Total GULP energy -222914.847017 kJ/mol
# GULP energy per Si atom -5572.871175 kJ/mol
# Density = 2.127513 g / cm^3
# Si number density = 21.323663 Si / 1000 Ang^3
#
#
#
# Elastic Constant Matrix: (Units=GPa)
#
#
# Indices 1 2 3 4 5 6 
#
# 1 113.4710 21.0586 57.9032 0.0000 0.0000 0.0000
# 2 21.0586 38.9681 24.0190 0.0000 0.0000 0.0000
# 3 57.9032 24.0190 172.5033 0.0000 0.0000 0.0000
# 4 0.0000 0.0000 0.0000 -37.1722 0.0000 0.0000
# 5 0.0000 0.0000 0.0000 0.0000 34.7502 0.0000
# 6 0.0000 0.0000 0.0000 0.0000 0.0000 18.4347
#
#
#
# Elastic Compliance Matrix: (Units=1/GPa)
#
#
# Indices 1 2 3 4 5 6 
#
# 1 0.011199 -0.004086 -0.003190 0.000000 0.000000 0.000000
# 2 -0.004086 0.029562 -0.002745 0.000000 0.000000 0.000000
# 3 -0.003190 -0.002745 0.007250 0.000000 0.000000 0.000000
# 4 0.000000 0.000000 0.000000 -0.026902 0.000000 0.000000
# 5 0.000000 0.000000 0.000000 0.000000 0.028777 0.000000
# 6 0.000000 0.000000 0.000000 0.000000 0.000000 0.054245
#
#
# Mechanical properties :
#
#
# Convention : Reuss Voigt Hill
#
# Bulk Modulus (GPa) = 35.75317 58.98934 47.37126
# Shear Modulus (GPa) = 37.45448 17.99999 27.72724
#
# Velocity S-wave (km/s) = 4.19558 2.90855 3.60988
# Velocity P-wave (km/s) = 6.34616 6.24527 6.29592
#
# Compressibility (1/GPa) = 0.02796955
#
# Stress axis : x y z
#
# Youngs Moduli (GPa) = 89.29363 33.82759 137.93089
#
# Poissons Ratio (x) = 0.13821 0.44003
# Poissons Ratio (y) = 0.36482 0.37858
# Poissons Ratio (z) = 0.28487 0.09285
#
# Static dielectric constant tensor:
#      x y z
#    x 1.776240 0.000000 0.000000 
#    y 0.000000 1.790210 0.000000 
#    z 0.000000 0.000000 1.834530 
# 
# From -- ./inp_files/8754.got.cif
#   From: 2010.05.17/outbox.cif.g08.bks.cpg/sg54_5_cif.got.tgz:8754.got - 2010.06.03 13:09:01.
