data_PCOD9421985
_publ_section_title
;
Structure prediction by ZEFSAII (Michael W. Deem and Ramdas Pophale) SiO2 
 PCOD9421985
Probable space group: P C C A
;
_chemical_formula_sum "Si O2"
_cell_formula_units_Z 32
_cell_length_a 23.337818
_cell_length_b 4.731941
_cell_length_c 10.661092
_cell_angle_alpha 90.000000
_cell_angle_beta 90.000000
_cell_angle_gamma 90.000000
_cell_volume 1177.338269
_symmetry_space_group_name_H-M "P C C A"
_symmetry_group_IT_number 54
_symmetry_cell_setting 'orthorhombic'
loop_
_space_group_symop_operation_xyz
x,y,z
1/2-x,-y,z
1/2+x,-y,1/2-z
-x,y,1/2-z
-x,-y,-z
1/2+x,y,-z
1/2-x,y,1/2+z
x,-y,1/2+z
loop_
_atom_site_type_symbol
_atom_site_label
_atom_site_fract_x
_atom_site_fract_y
_atom_site_fract_z
Si Si1 0.500000 0.848095 0.250000
Si Si2 0.187586 0.083285 0.414825
Si Si3 0.000000 0.500000 0.500000
Si Si4 0.686067 0.571215 0.758658
Si Si5 0.399420 0.835753 0.099628
O O1 0.481489 0.652891 0.365754
O O2 0.443951 0.999903 0.192950
O O3 0.186053 0.404276 0.373346
O O4 0.250000 0.000000 0.462774
O O5 0.179664 0.893666 0.287657
O O6 0.142180 0.028796 0.521146
O O7 0.942729 0.305677 0.498663
O O8 0.750000 0.500000 0.811859
O O9 0.636128 0.415834 0.834942
#
# Coordination Sequence:
#
# PCOD9421985 Si02
#       5
#     4   8   4   8   8
#     4   8  18  36  66 108 146 196 248 306 370 456
#     4  10  23  42  68 104 145 193 252 309 381 452
#     4   8  18  36  70 108 154 198 260 304 382 456
#     4  10  23  42  68 104 143 193 249 314 379 449
#     4  10  20  40  73 104 153 194 251 312 380 456
#
# _framework density 27.179950999999999
#
# number of rings (size 3 to 8) (size 9 to 14) (size 15 to 20)
#    1.500    1.000    0.000    1.500    0.000    8.000 
#    0.000    1.250    5.500    0.000    0.000    0.000 
#    0.000    0.000    0.000    0.000    0.000    0.000 
#
# Total GULP energy -178214.375586 kJ/mol
# GULP energy per Si atom -5569.199237 kJ/mol
# Density = 2.711809 g / cm^3
# Si number density = 27.179951 Si / 1000 Ang^3
#
#
#
# Elastic Constant Matrix: (Units=GPa)
#
#
# Indices 1 2 3 4 5 6 
#
# 1 105.5050 18.4843 1.9946 0.0000 0.0000 0.0000
# 2 18.4843 81.3259 18.0987 0.0000 0.0000 0.0000
# 3 1.9946 18.0987 59.7032 0.0000 0.0000 0.0000
# 4 0.0000 0.0000 0.0000 18.9829 0.0000 0.0000
# 5 0.0000 0.0000 0.0000 0.0000 19.2788 0.0000
# 6 0.0000 0.0000 0.0000 0.0000 0.0000 30.3985
#
#
#
# Elastic Compliance Matrix: (Units=1/GPa)
#
#
# Indices 1 2 3 4 5 6 
#
# 1 0.009879 -0.002329 0.000376 0.000000 0.000000 0.000000
# 2 -0.002329 0.013735 -0.004086 0.000000 0.000000 0.000000
# 3 0.000376 -0.004086 0.017976 0.000000 0.000000 0.000000
# 4 0.000000 0.000000 0.000000 0.052679 0.000000 0.000000
# 5 0.000000 0.000000 0.000000 0.000000 0.051870 0.000000
# 6 0.000000 0.000000 0.000000 0.000000 0.000000 0.032896
#
#
# Mechanical properties :
#
#
# Convention : Reuss Voigt Hill
#
# Bulk Modulus (GPa) = 33.88483 35.96549 34.92516
# Shear Modulus (GPa) = 24.88178 27.59583 26.23880
#
# Velocity S-wave (km/s) = 3.02892 3.18984 3.11042
# Velocity P-wave (km/s) = 4.97256 5.17956 5.07711
#
# Compressibility (1/GPa) = 0.02951174
#
# Stress axis : x y z
#
# Youngs Moduli (GPa) = 101.22316 72.80744 55.63112
#
# Poissons Ratio (x) = 0.16957 -0.02092
# Poissons Ratio (y) = 0.23576 0.22730
# Poissons Ratio (z) = -0.03806 0.29748
#
# Static dielectric constant tensor:
#      x y z
#    x 2.303200 0.000000 0.000000 
#    y 0.000000 2.064650 0.000000 
#    z 0.000000 0.000000 2.194650 
# 
# From -- ./inp_files/9286.got.cif
#   From: 2010.05.17/outbox.cif.g08.bks.cpg/sg54_5_cif.got.tgz:9286.got - 2010.06.03 13:09:01.
