data_PCOD9421773
_publ_section_title
;
Structure prediction by ZEFSAII (Michael W. Deem and Ramdas Pophale) SiO2 
 PCOD9421773
Probable space group: P C C A
;
_chemical_formula_sum "Si O2"
_cell_formula_units_Z 40
_cell_length_a 9.330553
_cell_length_b 19.028863
_cell_length_c 11.546176
_cell_angle_alpha 90.000000
_cell_angle_beta 90.000000
_cell_angle_gamma 90.000000
_cell_volume 2050.021410
_symmetry_space_group_name_H-M "P C C A"
_symmetry_group_IT_number 54
_symmetry_cell_setting 'orthorhombic'
loop_
_space_group_symop_operation_xyz
x,y,z
1/2-x,-y,z
1/2+x,-y,1/2-z
-x,y,1/2-z
-x,-y,-z
1/2+x,y,-z
1/2-x,y,1/2+z
x,-y,1/2+z
loop_
_atom_site_type_symbol
_atom_site_label
_atom_site_fract_x
_atom_site_fract_y
_atom_site_fract_z
Si Si1 0.250000 0.000000 0.504009
Si Si2 0.283617 0.323089 0.060645
Si Si3 0.996108 0.250914 0.110605
Si Si4 0.127419 0.450566 0.951962
Si Si5 0.998727 0.089346 0.112811
Si Si6 0.500000 0.354742 0.250000
O O1 0.133127 0.042926 0.431450
O O2 0.350358 0.055436 0.572670
O O3 0.376026 0.315385 0.178323
O O4 0.151945 0.270606 0.064250
O O5 0.384404 0.303070 0.952214
O O6 0.209624 0.399919 0.044275
O O7 0.971640 0.169981 0.076782
O O8 0.000000 0.258909 0.250000
O O9 0.250000 0.500000 0.901845
O O10 0.067943 0.401608 0.851140
O O11 0.000000 0.500000 0.000000
O O12 0.000000 0.089015 0.250000
#
# Coordination Sequence:
#
# PCOD9421773 Si02
#       6
#     4   8   8   8   8   4
#     4  10  20  38  62  92 130 160 206 260 300 366
#     4  12  24  46  64  96 126 166 214 264 318 381
#     4  11  24  42  66  92 130 170 212 261 313 376
#     4  12  25  44  63  92 122 161 208 259 320 378
#     4  10  21  38  63  92 125 167 207 253 308 364
#     4  12  26  42  70  90 124 164 206 266 320 382
#
# _framework density 19.511990000000001
#
# number of rings (size 3 to 8) (size 9 to 14) (size 15 to 20)
#    0.000    0.800    4.000    3.000    2.800    0.000 
#    1.800    0.000    4.400    0.000    0.000    0.000 
#    0.000    0.000    0.000    0.000    0.000    0.000 
#
# Total GULP energy -223280.290422 kJ/mol
# GULP energy per Si atom -5582.007261 kJ/mol
# Density = 1.946758 g / cm^3
# Si number density = 19.511990 Si / 1000 Ang^3
#
#
#
# Elastic Constant Matrix: (Units=GPa)
#
#
# Indices 1 2 3 4 5 6 
#
# 1 136.0222 38.2277 32.9628 0.0000 0.0000 0.0000
# 2 38.2277 83.5922 20.7818 0.0000 0.0000 0.0000
# 3 32.9628 20.7818 59.3021 0.0000 0.0000 0.0000
# 4 0.0000 0.0000 0.0000 27.4918 0.0000 0.0000
# 5 0.0000 0.0000 0.0000 0.0000 35.5888 0.0000
# 6 0.0000 0.0000 0.0000 0.0000 0.0000 40.7651
#
#
#
# Elastic Compliance Matrix: (Units=1/GPa)
#
#
# Indices 1 2 3 4 5 6 
#
# 1 0.009227 -0.003226 -0.003999 0.000000 0.000000 0.000000
# 2 -0.003226 0.014232 -0.003195 0.000000 0.000000 0.000000
# 3 -0.003999 -0.003195 0.020205 0.000000 0.000000 0.000000
# 4 0.000000 0.000000 0.000000 0.036375 0.000000 0.000000
# 5 0.000000 0.000000 0.000000 0.000000 0.028099 0.000000
# 6 0.000000 0.000000 0.000000 0.000000 0.000000 0.024531
#
#
# Mechanical properties :
#
#
# Convention : Reuss Voigt Hill
#
# Bulk Modulus (GPa) = 43.80813 51.42901 47.61857
# Shear Modulus (GPa) = 31.03379 33.23209 32.13294
#
# Velocity S-wave (km/s) = 3.99243 4.13142 4.06252
# Velocity P-wave (km/s) = 6.61463 7.01235 6.81639
#
# Compressibility (1/GPa) = 0.02282681
#
# Stress axis : x y z
#
# Youngs Moduli (GPa) = 108.37450 70.26333 49.49309
#
# Poissons Ratio (x) = 0.22665 0.19790
# Poissons Ratio (y) = 0.34958 0.15811
# Poissons Ratio (z) = 0.43334 0.22446
#
# Static dielectric constant tensor:
#      x y z
#    x 1.755310 0.000000 0.000000 
#    y 0.000000 1.715450 0.000000 
#    z 0.000000 0.000000 1.665040 
# 
# From -- ./inp_files/6897.got.cif
#   From: 2010.05.17/outbox.cif.g08.bks.cpg/sg54_4_cif.got.tgz:6897.got - 2010.06.03 13:09:01.
