data_PCOD9421769
_publ_section_title
;
Structure prediction by ZEFSAII (Michael W. Deem and Ramdas Pophale) SiO2 
 PCOD9421769
Probable space group: P C C A
;
_chemical_formula_sum "Si O2"
_cell_formula_units_Z 28
_cell_length_a 5.040329
_cell_length_b 7.699318
_cell_length_c 32.648630
_cell_angle_alpha 90.000000
_cell_angle_beta 90.000000
_cell_angle_gamma 90.000000
_cell_volume 1266.998512
_symmetry_space_group_name_H-M "P C C A"
_symmetry_group_IT_number 54
_symmetry_cell_setting 'orthorhombic'
loop_
_space_group_symop_operation_xyz
x,y,z
1/2-x,-y,z
1/2+x,-y,1/2-z
-x,y,1/2-z
-x,-y,-z
1/2+x,y,-z
1/2-x,y,1/2+z
x,-y,1/2+z
loop_
_atom_site_type_symbol
_atom_site_label
_atom_site_fract_x
_atom_site_fract_y
_atom_site_fract_z
Si Si1 0.632942 0.693101 0.337188
Si Si2 0.000000 0.374498 0.250000
Si Si3 0.230093 0.788388 0.476639
Si Si4 0.865809 0.805671 0.115266
O O1 0.750000 0.500000 0.336551
O O2 0.582655 0.736596 0.289592
O O3 0.353303 0.699778 0.359809
O O4 0.852655 0.800116 0.362162
O O5 0.750000 0.500000 0.239205
O O6 0.521805 0.728628 0.489112
O O7 0.128330 0.741781 0.431606
O O8 0.250000 0.000000 0.477677
O O9 0.750000 0.000000 0.114489
#
# Coordination Sequence:
#
# PCOD9421769 Si02
#       4
#     8   4   8   8
#     4  11  22  39  62  85 114 154 196 236 285 348
#     4  10  20  38  62  86 110 150 202 236 270 346
#     4   9  17  31  53  80 111 150 193 231 271 333
#     4  11  22  37  60  91 120 148 191 245 294 335
#
# _framework density 22.099475000000002
#
# number of rings (size 3 to 8) (size 9 to 14) (size 15 to 20)
#    0.000    1.714    0.000    6.857    0.000    4.571 
#    0.000    2.857    0.000   18.857    0.000    0.000 
#    0.000    0.000    0.000    0.000    0.000    0.000 
#
# Total GULP energy -156481.172587 kJ/mol
# GULP energy per Si atom -5588.613307 kJ/mol
# Density = 2.204918 g / cm^3
# Si number density = 22.099475 Si / 1000 Ang^3
#
#
#
# Elastic Constant Matrix: (Units=GPa)
#
#
# Indices 1 2 3 4 5 6 
#
# 1 137.3317 -0.1896 57.3045 0.0000 0.0000 0.0000
# 2 -0.1896 25.5656 11.3275 0.0000 0.0000 0.0000
# 3 57.3045 11.3275 177.1815 0.0000 0.0000 0.0000
# 4 0.0000 0.0000 0.0000 -1.9303 0.0000 0.0000
# 5 0.0000 0.0000 0.0000 0.0000 7.0930 0.0000
# 6 0.0000 0.0000 0.0000 0.0000 0.0000 31.2029
#
#
#
# Elastic Compliance Matrix: (Units=1/GPa)
#
#
# Indices 1 2 3 4 5 6 
#
# 1 0.008460 0.001312 -0.002820 0.000000 0.000000 0.000000
# 2 0.001312 0.040459 -0.003011 0.000000 0.000000 0.000000
# 3 -0.002820 -0.003011 0.006749 0.000000 0.000000 0.000000
# 4 0.000000 0.000000 0.000000 -0.518057 0.000000 0.000000
# 5 0.000000 0.000000 0.000000 0.000000 0.140985 0.000000
# 6 0.000000 0.000000 0.000000 0.000000 0.000000 0.032048
#
#
# Mechanical properties :
#
#
# Convention : Reuss Voigt Hill
#
# Bulk Modulus (GPa) = 21.44548 52.99594 37.22071
# Shear Modulus (GPa) = -18.88392 25.38221 3.24915
#
# Velocity S-wave (km/s) = -2.92635 3.39269 1.21385
# Velocity P-wave (km/s) = 1.30111 6.27534 4.34091
#
# Compressibility (1/GPa) = 0.04662987
#
# Stress axis : x y z
#
# Youngs Moduli (GPa) = 118.20045 24.71647 148.18071
#
# Poissons Ratio (x) = -0.03243 0.41789
# Poissons Ratio (y) = -0.15511 0.44617
# Poissons Ratio (z) = 0.33334 0.07442
#
# Static dielectric constant tensor:
#      x y z
#    x 1.748800 0.000000 0.000000 
#    y 0.000000 1.802840 0.000000 
#    z 0.000000 0.000000 1.825730 
# 
# From -- ./inp_files/26860.got.cif
#   From: 2010.05.17/outbox.cif.g08.bks.cpg/sg54_14_cif.got.tgz:26860.got - 2010.06.03 13:09:01.
