data_PCOD9421794
_publ_section_title
;
Structure prediction by ZEFSAII (Michael W. Deem and Ramdas Pophale) SiO2 
 PCOD9421794
Probable space group: P C C A
;
_chemical_formula_sum "Si O2"
_cell_formula_units_Z 64
_cell_length_a 30.729718
_cell_length_b 5.204824
_cell_length_c 18.725865
_cell_angle_alpha 90.000000
_cell_angle_beta 90.000000
_cell_angle_gamma 90.000000
_cell_volume 2995.066789
_symmetry_space_group_name_H-M "P C C A"
_symmetry_group_IT_number 54
_symmetry_cell_setting 'orthorhombic'
loop_
_space_group_symop_operation_xyz
x,y,z
1/2-x,-y,z
1/2+x,-y,1/2-z
-x,y,1/2-z
-x,-y,-z
1/2+x,y,-z
1/2-x,y,1/2+z
x,-y,1/2+z
loop_
_atom_site_type_symbol
_atom_site_label
_atom_site_fract_x
_atom_site_fract_y
_atom_site_fract_z
Si Si1 0.161576 0.823045 0.226835
Si Si2 0.580364 0.923692 0.868437
Si Si3 0.471707 0.604198 0.098833
Si Si4 0.201912 0.429750 0.013688
Si Si5 0.293349 0.327525 0.671969
Si Si6 0.644118 0.166331 0.108432
Si Si7 0.369378 0.202984 0.000936
Si Si8 0.940984 0.410462 0.555334
O O1 0.115212 0.906835 0.194441
O O2 0.171122 0.540032 0.195160
O O3 0.158923 0.798970 0.311918
O O4 0.195817 0.052732 0.207800
O O5 0.555907 0.651556 0.881077
O O6 0.546381 0.153034 0.858567
O O7 0.609516 0.984907 0.940172
O O8 0.522271 0.532263 0.105194
O O9 0.466020 0.692246 0.015043
O O10 0.250000 0.500000 0.989119
O O11 0.174000 0.311274 0.949795
O O12 0.172103 0.668839 0.037325
O O13 0.206908 0.272720 0.086897
O O14 0.250000 0.500000 0.687718
O O15 0.593056 0.231008 0.096272
O O16 0.647629 0.883578 0.076214
O O17 0.408968 0.384812 0.980500
#
# Coordination Sequence:
#
# PCOD9421794 Si02
#       8
#     8   8   8   8   8   8   8   8
#     4  12  26  43  68  96 143 177 223 272 352 413
#     4  11  21  39  65  94 127 172 222 268 329 400
#     4  10  21  37  66  98 124 165 224 282 317 390
#     4  10  23  43  69  98 130 173 234 288 333 399
#     4  11  25  47  71  99 129 181 233 281 329 402
#     4  11  24  41  65  96 137 181 213 281 346 412
#     4  10  20  38  64  92 126 172 221 275 332 404
#     4   9  21  36  63  95 127 164 220 278 333 381
#
# _framework density 21.368469999999999
#
# number of rings (size 3 to 8) (size 9 to 14) (size 15 to 20)
#    0.000    1.500    2.500    1.875    7.000    2.500 
#    2.250    0.625    0.000    0.000    0.000    0.000 
#    0.000    0.000    0.000    0.000    0.000    0.000 
#
# Total GULP energy -356691.389393 kJ/mol
# GULP energy per Si atom -5573.302959 kJ/mol
# Density = 2.131983 g / cm^3
# Si number density = 21.368470 Si / 1000 Ang^3
#
#
#
# Elastic Constant Matrix: (Units=GPa)
#
#
# Indices 1 2 3 4 5 6 
#
# 1 91.8939 8.8542 15.3297 0.0000 0.0000 0.0000
# 2 8.8542 70.2665 3.9111 0.0000 0.0000 0.0000
# 3 15.3297 3.9111 77.3088 0.0000 0.0000 0.0000
# 4 0.0000 0.0000 0.0000 22.8153 0.0000 0.0000
# 5 0.0000 0.0000 0.0000 0.0000 -18.9941 0.0000
# 6 0.0000 0.0000 0.0000 0.0000 0.0000 7.8609
#
#
#
# Elastic Compliance Matrix: (Units=1/GPa)
#
#
# Indices 1 2 3 4 5 6 
#
# 1 0.011374 -0.001311 -0.002189 0.000000 0.000000 0.000000
# 2 -0.001311 0.014423 -0.000470 0.000000 0.000000 0.000000
# 3 -0.002189 -0.000470 0.013393 0.000000 0.000000 0.000000
# 4 0.000000 0.000000 0.000000 0.043830 0.000000 0.000000
# 5 0.000000 0.000000 0.000000 0.000000 -0.052648 0.000000
# 6 0.000000 0.000000 0.000000 0.000000 0.000000 0.127211
#
#
# Mechanical properties :
#
#
# Convention : Reuss Voigt Hill
#
# Bulk Modulus (GPa) = 32.00036 32.85101 32.42569
# Shear Modulus (GPa) = 28.41882 16.42803 22.42343
#
# Velocity S-wave (km/s) = 3.65079 2.77573 3.24291
# Velocity P-wave (km/s) = 5.72530 5.06753 5.40643
#
# Compressibility (1/GPa) = 0.03124965
#
# Stress axis : x y z
#
# Youngs Moduli (GPa) = 87.92272 69.33407 74.66614
#
# Poissons Ratio (x) = 0.09092 0.16344
# Poissons Ratio (y) = 0.11530 0.03507
# Poissons Ratio (z) = 0.19246 0.03256
#
# Static dielectric constant tensor:
#      x y z
#    x 1.818280 0.000000 0.000000 
#    y 0.000000 1.895130 0.000000 
#    z 0.000000 0.000000 1.758260 
# 
# From -- ./inp_files/19351.got.cif
#   From: 2010.05.17/outbox.cif.g08.bks.cpg/sg54_10_cif.got.tgz:19351.got - 2010.06.03 13:09:01.
