data_PCOD9421730
_publ_section_title
;
Structure prediction by ZEFSAII (Michael W. Deem and Ramdas Pophale) SiO2 
 PCOD9421730
Probable space group: P C C A
;
_chemical_formula_sum "Si O2"
_cell_formula_units_Z 48
_cell_length_a 15.504658
_cell_length_b 8.872279
_cell_length_c 13.896198
_cell_angle_alpha 90.000000
_cell_angle_beta 90.000000
_cell_angle_gamma 90.000000
_cell_volume 1911.583948
_symmetry_space_group_name_H-M "P C C A"
_symmetry_group_IT_number 54
_symmetry_cell_setting 'orthorhombic'
loop_
_space_group_symop_operation_xyz
x,y,z
1/2-x,-y,z
1/2+x,-y,1/2-z
-x,y,1/2-z
-x,-y,-z
1/2+x,y,-z
1/2-x,y,1/2+z
x,-y,1/2+z
loop_
_atom_site_type_symbol
_atom_site_label
_atom_site_fract_x
_atom_site_fract_y
_atom_site_fract_z
Si Si1 0.791475 0.259352 0.667180
Si Si2 0.879990 0.555404 0.695675
Si Si3 0.947023 0.792946 0.545754
Si Si4 0.910184 0.992016 0.220837
Si Si5 0.276003 0.169070 0.041914
Si Si6 0.386078 0.271523 0.632495
O O1 0.865827 0.385080 0.664499
O O2 0.711143 0.354917 0.704984
O O3 0.830205 0.119529 0.724505
O O4 0.756242 0.194448 0.567337
O O5 0.922661 0.647169 0.609140
O O6 0.914825 0.584551 0.803543
O O7 0.879029 0.803889 0.458649
O O8 0.924184 0.936224 0.614534
O O9 0.050413 0.773640 0.543713
O O10 0.000000 0.915599 0.250000
O O11 0.898858 0.132610 0.292843
O O12 0.250000 0.000000 0.069494
O O13 0.212232 0.279598 0.098435
#
# Coordination Sequence:
#
# PCOD9421730 Si02
#       6
#     8   8   8   8   8   8
#     4  10  20  38  58  89 118 161 207 241 313 386
#     4   9  20  37  63  84 118 166 206 255 302 366
#     4   9  19  40  61  88 124 167 201 247 320 374
#     4   9  18  35  60  88 117 152 205 257 298 365
#     4  11  22  37  63  89 125 171 195 254 324 366
#     4  10  22  37  63  94 120 156 215 255 302 369
#
# _framework density 25.110067999999998
#
# number of rings (size 3 to 8) (size 9 to 14) (size 15 to 20)
#    0.000    2.333    1.667    1.500    2.333    2.000 
#    0.000    7.500    0.000    0.000    0.000    0.000 
#    0.000    0.000    0.000    0.000    0.000    0.000 
#
# Total GULP energy -268064.950752 kJ/mol
# GULP energy per Si atom -5584.686474 kJ/mol
# Density = 2.505292 g / cm^3
# Si number density = 25.110068 Si / 1000 Ang^3
#
#
#
# Elastic Constant Matrix: (Units=GPa)
#
#
# Indices 1 2 3 4 5 6 
#
# 1 50.3087 0.9791 5.2110 0.0000 0.0000 0.0000
# 2 0.9791 70.2543 -8.7519 0.0000 0.0000 0.0000
# 3 5.2110 -8.7519 43.0462 0.0000 0.0000 0.0000
# 4 0.0000 0.0000 0.0000 0.6876 0.0000 0.0000
# 5 0.0000 0.0000 0.0000 0.0000 38.1231 0.0000
# 6 0.0000 0.0000 0.0000 0.0000 0.0000 25.5389
#
#
#
# Elastic Compliance Matrix: (Units=1/GPa)
#
#
# Indices 1 2 3 4 5 6 
#
# 1 0.020154 -0.000600 -0.002562 0.000000 0.000000 0.000000
# 2 -0.000600 0.014622 0.003045 0.000000 0.000000 0.000000
# 3 -0.002562 0.003045 0.024160 0.000000 0.000000 0.000000
# 4 0.000000 0.000000 0.000000 1.454384 0.000000 0.000000
# 5 0.000000 0.000000 0.000000 0.000000 0.026231 0.000000
# 6 0.000000 0.000000 0.000000 0.000000 0.000000 0.039156
#
#
# Mechanical properties :
#
#
# Convention : Reuss Voigt Hill
#
# Bulk Modulus (GPa) = 17.03477 17.60952 17.32214
# Shear Modulus (GPa) = 3.12792 23.94797 13.53794
#
# Velocity S-wave (km/s) = 1.11731 3.09159 2.32447
# Velocity P-wave (km/s) = 2.90917 4.44657 3.75735
#
# Compressibility (1/GPa) = 0.05870347
#
# Stress axis : x y z
#
# Youngs Moduli (GPa) = 49.61717 68.39127 41.39046
#
# Poissons Ratio (x) = 0.04104 0.10603
# Poissons Ratio (y) = 0.02977 -0.12605
# Poissons Ratio (z) = 0.12711 -0.20828
#
# Static dielectric constant tensor:
#      x y z
#    x 2.158220 0.000000 0.000000 
#    y 0.000000 1.917590 0.000000 
#    z 0.000000 0.000000 2.022450 
# 
# From -- ./inp_files/14531.got.cif
#   From: 2010.05.17/outbox.cif.g08.bks.cpg/sg54_8_cif.got.tgz:14531.got - 2010.06.03 13:09:01.
