data_PCOD9421353
_publ_section_title
;
Structure prediction by ZEFSAII (Michael W. Deem and Ramdas Pophale) SiO2 
 PCOD9421353
Probable space group: P C C A
;
_chemical_formula_sum "Si O2"
_cell_formula_units_Z 64
_cell_length_a 26.918653
_cell_length_b 12.547111
_cell_length_c 8.774054
_cell_angle_alpha 90.000000
_cell_angle_beta 90.000000
_cell_angle_gamma 90.000000
_cell_volume 2963.448383
_symmetry_space_group_name_H-M "P C C A"
_symmetry_group_IT_number 54
_symmetry_cell_setting 'orthorhombic'
loop_
_space_group_symop_operation_xyz
x,y,z
1/2-x,-y,z
1/2+x,-y,1/2-z
-x,y,1/2-z
-x,-y,-z
1/2+x,y,-z
1/2-x,y,1/2+z
x,-y,1/2+z
loop_
_atom_site_type_symbol
_atom_site_label
_atom_site_fract_x
_atom_site_fract_y
_atom_site_fract_z
Si Si1 0.097610 0.629387 0.978394
Si Si2 0.383518 0.585853 0.836457
Si Si3 0.994966 0.887879 0.426082
Si Si4 0.683955 0.786407 0.613792
Si Si5 0.013541 0.331970 0.932308
Si Si6 0.639926 0.981944 0.753502
Si Si7 0.769419 0.887450 0.823909
Si Si8 0.389823 0.865205 0.453850
O O1 0.108244 0.606044 0.156601
O O2 0.035988 0.630837 0.975116
O O3 0.122560 0.538107 0.875508
O O4 0.123512 0.742095 0.930125
O O5 0.340024 0.669877 0.877734
O O6 0.434064 0.608698 0.933318
O O7 0.939741 0.847234 0.452082
O O8 0.000000 0.902099 0.250000
O O9 0.026719 0.788585 0.482767
O O10 0.000000 0.000000 0.500000
O O11 0.642120 0.874596 0.655398
O O12 0.727438 0.822288 0.733284
O O13 0.706254 0.813846 0.450258
O O14 0.000000 0.330457 0.750000
O O15 0.686661 0.061454 0.721709
O O16 0.598192 0.062633 0.693856
O O17 0.639526 0.940595 0.926209
O O18 0.750000 0.000000 0.894363
#
# Coordination Sequence:
#
# PCOD9421353 Si02
#       8
#     8   8   8   8   8   8   8   8
#     4  10  22  40  60  92 128 169 212 263 307 374
#     4  11  22  40  65  87 123 168 220 263 309 372
#     4  10  20  33  51  82 127 169 203 253 322 383
#     4  11  23  38  64  93 120 161 203 263 317 385
#     4   8  18  36  60  84 120 168 210 259 309 366
#     4  11  21  37  64  94 123 158 200 263 324 387
#     4  10  22  39  62  97 126 155 204 263 330 384
#     4  11  22  37  61  93 128 163 213 260 319 385
#
# _framework density 21.596461999999999
#
# number of rings (size 3 to 8) (size 9 to 14) (size 15 to 20)
#    0.000    1.750    2.500    3.000    3.500    1.000 
#    0.000    2.500    0.000    6.000    0.000    0.000 
#    0.000    0.000    0.000    0.000    0.000    0.000 
#
# Total GULP energy -356383.482667 kJ/mol
# GULP energy per Si atom -5568.491917 kJ/mol
# Density = 2.154731 g / cm^3
# Si number density = 21.596462 Si / 1000 Ang^3
#
#
#
# Elastic Constant Matrix: (Units=GPa)
#
#
# Indices 1 2 3 4 5 6 
#
# 1 40.1741 22.3626 7.8586 0.0000 0.0000 0.0000
# 2 22.3626 170.2917 42.1582 0.0000 0.0000 0.0000
# 3 7.8586 42.1582 39.9827 0.0000 0.0000 0.0000
# 4 0.0000 0.0000 0.0000 31.3856 0.0000 0.0000
# 5 0.0000 0.0000 0.0000 0.0000 21.9746 0.0000
# 6 0.0000 0.0000 0.0000 0.0000 0.0000 50.6769
#
#
#
# Elastic Compliance Matrix: (Units=1/GPa)
#
#
# Indices 1 2 3 4 5 6 
#
# 1 0.026987 -0.003019 -0.002121 0.000000 0.000000 0.000000
# 2 -0.003019 0.008284 -0.008142 0.000000 0.000000 0.000000
# 3 -0.002121 -0.008142 0.034012 0.000000 0.000000 0.000000
# 4 0.000000 0.000000 0.000000 0.031862 0.000000 0.000000
# 5 0.000000 0.000000 0.000000 0.000000 0.045507 0.000000
# 6 0.000000 0.000000 0.000000 0.000000 0.000000 0.019733
#
#
# Mechanical properties :
#
#
# Convention : Reuss Voigt Hill
#
# Bulk Modulus (GPa) = 23.40814 43.91192 33.66003
# Shear Modulus (GPa) = 24.13256 32.67870 28.40563
#
# Velocity S-wave (km/s) = 3.34643 3.89414 3.63063
# Velocity P-wave (km/s) = 5.07876 6.37151 5.76151
#
# Compressibility (1/GPa) = 0.04272019
#
# Stress axis : x y z
#
# Youngs Moduli (GPa) = 37.05492 120.71045 29.40102
#
# Poissons Ratio (x) = 0.36439 0.06237
# Poissons Ratio (y) = 0.11186 0.23937
# Poissons Ratio (z) = 0.07860 0.98279
#
# Static dielectric constant tensor:
#      x y z
#    x 2.215920 0.000000 0.000000 
#    y 0.000000 1.941820 0.000000 
#    z 0.000000 0.000000 1.885990 
# 
# From -- ./inp_files/5960.got.cif
#   From: 2010.05.17/outbox.cif.g08.bks.cpg/sg54_3_cif.got.tgz:5960.got - 2010.06.03 13:09:01.
