data_PCOD9421396
_publ_section_title
;
Structure prediction by ZEFSAII (Michael W. Deem and Ramdas Pophale) SiO2 
 PCOD9421396
Probable space group: P C C A
;
_chemical_formula_sum "Si O2"
_cell_formula_units_Z 56
_cell_length_a 4.990356
_cell_length_b 16.434776
_cell_length_c 32.767924
_cell_angle_alpha 90.000000
_cell_angle_beta 90.000000
_cell_angle_gamma 90.000000
_cell_volume 2687.473838
_symmetry_space_group_name_H-M "P C C A"
_symmetry_group_IT_number 54
_symmetry_cell_setting 'orthorhombic'
loop_
_space_group_symop_operation_xyz
x,y,z
1/2-x,-y,z
1/2+x,-y,1/2-z
-x,y,1/2-z
-x,-y,-z
1/2+x,y,-z
1/2-x,y,1/2+z
x,-y,1/2+z
loop_
_atom_site_type_symbol
_atom_site_label
_atom_site_fract_x
_atom_site_fract_y
_atom_site_fract_z
Si Si1 0.120607 0.324961 0.100301
Si Si2 0.250128 0.400368 0.276548
Si Si3 0.849002 0.593002 0.131852
Si Si4 0.599844 0.846048 0.136418
Si Si5 0.632180 0.913485 0.905431
Si Si6 0.249579 0.095052 0.779257
Si Si7 0.771782 0.221347 0.472178
O O1 0.344716 0.379067 0.123877
O O2 0.247612 0.298819 0.057518
O O3 0.843210 0.372285 0.097002
O O4 0.010297 0.241840 0.121811
O O5 0.250000 0.500000 0.277379
O O6 0.500000 0.373773 0.250000
O O7 0.268295 0.373332 0.323286
O O8 0.000000 0.373595 0.250000
O O9 0.750000 0.500000 0.133802
O O10 0.325273 0.897055 0.133502
O O11 0.722910 0.848735 0.181238
O O12 0.827889 0.889638 0.107769
O O13 0.706923 0.852958 0.942115
O O14 0.750000 0.000000 0.919364
O O15 0.500000 0.106141 0.750000
O O16 0.000000 0.109507 0.750000
O O17 0.250000 0.000000 0.793465
O O18 0.567715 0.219327 0.509487
#
# Coordination Sequence:
#
# PCOD9421396 Si02
#       7
#     8   8   8   8   8   8   8
#     4  11  23  41  63  88 119 157 200 247 307 380
#     4   9  17  31  53  84 119 150 184 232 292 353
#     4  11  22  39  65  92 119 157 206 256 303 362
#     4  11  22  39  59  86 124 165 209 252 306 365
#     4  11  22  37  62  93 123 158 200 248 299 358
#     4  10  20  34  55  83 117 163 216 263 298 332
#     4  11  23  41  64  89 120 159 193 234 301 372
#
# _framework density 20.837410999999999
#
# number of rings (size 3 to 8) (size 9 to 14) (size 15 to 20)
#    0.000    1.429    0.000    7.714    0.000    4.000 
#    0.000    2.857    0.000    8.571    0.000    0.000 
#    0.000    0.000    0.000    0.000    0.000    0.000 
#
# Total GULP energy -312088.584319 kJ/mol
# GULP energy per Si atom -5573.010434 kJ/mol
# Density = 2.078998 g / cm^3
# Si number density = 20.837411 Si / 1000 Ang^3
#
#
#
# Elastic Constant Matrix: (Units=GPa)
#
#
# Indices 1 2 3 4 5 6 
#
# 1 137.8766 20.9852 6.2973 0.0000 0.0000 0.0000
# 2 20.9852 52.0364 17.8583 0.0000 0.0000 0.0000
# 3 6.2973 17.8583 60.2017 0.0000 0.0000 0.0000
# 4 0.0000 0.0000 0.0000 24.2346 0.0000 0.0000
# 5 0.0000 0.0000 0.0000 0.0000 -91.2631 0.0000
# 6 0.0000 0.0000 0.0000 0.0000 0.0000 29.9099
#
#
#
# Elastic Compliance Matrix: (Units=1/GPa)
#
#
# Indices 1 2 3 4 5 6 
#
# 1 0.007728 -0.003161 0.000129 0.000000 0.000000 0.000000
# 2 -0.003161 0.022688 -0.006400 0.000000 0.000000 0.000000
# 3 0.000129 -0.006400 0.018496 0.000000 0.000000 0.000000
# 4 0.000000 0.000000 0.000000 0.041263 0.000000 0.000000
# 5 0.000000 0.000000 0.000000 0.000000 -0.010957 0.000000
# 6 0.000000 0.000000 0.000000 0.000000 0.000000 0.033434
#
#
# Mechanical properties :
#
#
# Convention : Reuss Voigt Hill
#
# Bulk Modulus (GPa) = 33.27840 37.82178 35.55009
# Shear Modulus (GPa) = 35.32799 6.24122 20.78461
#
# Velocity S-wave (km/s) = 4.12200 1.73254 3.16169
# Velocity P-wave (km/s) = 6.21770 4.71090 5.51599
#
# Compressibility (1/GPa) = 0.03004953
#
# Stress axis : x y z
#
# Youngs Moduli (GPa) = 129.39856 44.07552 54.06665
#
# Poissons Ratio (x) = 0.13932 -0.00699
# Poissons Ratio (y) = 0.40902 0.34601
# Poissons Ratio (z) = -0.01673 0.28207
#
# Static dielectric constant tensor:
#      x y z
#    x 1.732150 0.000000 0.000000 
#    y 0.000000 1.834260 0.000000 
#    z 0.000000 0.000000 1.741300 
# 
# From -- ./inp_files/27211.got.cif
#   From: 2010.05.17/outbox.cif.g08.bks.cpg/sg54_14_cif.got.tgz:27211.got - 2010.06.03 13:09:01.
