data_PCOD9421279
_publ_section_title
;
Structure prediction by ZEFSAII (Michael W. Deem and Ramdas Pophale) SiO2 
 PCOD9421279
Probable space group: P C C A
;
_chemical_formula_sum "Si O2"
_cell_formula_units_Z 64
_cell_length_a 17.588469
_cell_length_b 8.831325
_cell_length_c 20.021136
_cell_angle_alpha 90.000000
_cell_angle_beta 90.000000
_cell_angle_gamma 90.000000
_cell_volume 3109.872764
_symmetry_space_group_name_H-M "P C C A"
_symmetry_group_IT_number 54
_symmetry_cell_setting 'orthorhombic'
loop_
_space_group_symop_operation_xyz
x,y,z
1/2-x,-y,z
1/2+x,-y,1/2-z
-x,y,1/2-z
-x,-y,-z
1/2+x,y,-z
1/2-x,y,1/2+z
x,-y,1/2+z
loop_
_atom_site_type_symbol
_atom_site_label
_atom_site_fract_x
_atom_site_fract_y
_atom_site_fract_z
Si Si1 0.325501 0.951632 0.491897
Si Si2 0.317943 0.400989 0.774734
Si Si3 0.549892 0.079363 0.910676
Si Si4 0.489267 0.579798 0.429162
Si Si5 0.089477 0.880509 0.735953
Si Si6 0.544576 0.617850 0.685547
Si Si7 0.691235 0.630887 0.074206
Si Si8 0.104559 0.924664 0.367398
O O1 0.312636 0.778332 0.471624
O O2 0.250000 0.000000 0.530287
O O3 0.398561 0.996890 0.534891
O O4 0.331371 0.044825 0.422054
O O5 0.250000 0.500000 0.744354
O O6 0.353027 0.259129 0.737291
O O7 0.389694 0.509522 0.787015
O O8 0.288726 0.342017 0.847591
O O9 0.530940 0.257109 0.925041
O O10 0.588635 0.057144 0.838529
O O11 0.468529 0.002122 0.901553
O O12 0.500000 0.500000 0.500000
O O13 0.509448 0.475861 0.365088
O O14 0.397878 0.589655 0.422759
O O15 0.000000 0.835609 0.750000
O O16 0.113124 0.992570 0.795954
O O17 0.500000 0.679729 0.750000
O O18 0.584758 0.751723 0.645328
O O19 0.750000 0.500000 0.051412
#
# Coordination Sequence:
#
# PCOD9421279 Si02
#       8
#     8   8   8   8   8   8   8   8
#     4  12  26  41  65  92 129 172 210 270 325 388
#     4  10  20  37  62  91 125 161 207 257 309 381
#     4  11  23  42  65  91 131 166 216 262 334 389
#     4  11  23  39  64  93 122 168 209 263 313 383
#     4  10  19  40  67  91 125 168 208 260 324 383
#     4  11  22  37  62  95 127 157 212 270 319 365
#     4  10  22  40  62  93 124 162 213 264 315 379
#     4  11  22  40  67  96 120 166 217 268 315 382
#
# _framework density 20.579619999999998
#
# number of rings (size 3 to 8) (size 9 to 14) (size 15 to 20)
#    0.000    1.250    2.500    5.625    8.750    0.000 
#    0.000    3.125    2.750    0.000    0.000    0.000 
#    0.000    0.000    0.000    0.000    0.000    0.000 
#
# Total GULP energy -357208.279184 kJ/mol
# GULP energy per Si atom -5581.379362 kJ/mol
# Density = 2.053278 g / cm^3
# Si number density = 20.579620 Si / 1000 Ang^3
#
#
#
# Elastic Constant Matrix: (Units=GPa)
#
#
# Indices 1 2 3 4 5 6 
#
# 1 26.5009 13.4940 26.5718 0.0000 0.0000 0.0000
# 2 13.4940 75.1486 22.0489 0.0000 0.0000 0.0000
# 3 26.5718 22.0489 95.2046 0.0000 0.0000 0.0000
# 4 0.0000 0.0000 0.0000 16.0226 0.0000 0.0000
# 5 0.0000 0.0000 0.0000 0.0000 20.1276 0.0000
# 6 0.0000 0.0000 0.0000 0.0000 0.0000 35.3956
#
#
#
# Elastic Compliance Matrix: (Units=1/GPa)
#
#
# Indices 1 2 3 4 5 6 
#
# 1 0.054599 -0.005722 -0.013914 0.000000 0.000000 0.000000
# 2 -0.005722 0.014877 -0.001848 0.000000 0.000000 0.000000
# 3 -0.013914 -0.001848 0.014815 0.000000 0.000000 0.000000
# 4 0.000000 0.000000 0.000000 0.062412 0.000000 0.000000
# 5 0.000000 0.000000 0.000000 0.000000 0.049683 0.000000
# 6 0.000000 0.000000 0.000000 0.000000 0.000000 0.028252
#
#
# Mechanical properties :
#
#
# Convention : Reuss Voigt Hill
#
# Bulk Modulus (GPa) = 24.19943 35.67595 29.93769
# Shear Modulus (GPa) = 17.76959 23.29178 20.53068
#
# Velocity S-wave (km/s) = 2.94165 3.36786 3.16194
# Velocity P-wave (km/s) = 4.82931 5.70057 5.28293
#
# Compressibility (1/GPa) = 0.04132328
#
# Stress axis : x y z
#
# Youngs Moduli (GPa) = 18.31539 67.21908 67.49879
#
# Poissons Ratio (x) = 0.38461 0.93915
# Poissons Ratio (y) = 0.10480 0.12477
# Poissons Ratio (z) = 0.25483 0.12425
#
# Static dielectric constant tensor:
#      x y z
#    x 1.928040 0.000000 0.000000 
#    y 0.000000 1.777130 0.000000 
#    z 0.000000 0.000000 1.771460 
# 
# From -- ./inp_files/21966.got.cif
#   From: 2010.05.17/outbox.cif.g08.bks.cpg/sg54_11_cif.got.tgz:21966.got - 2010.06.03 13:09:01.
