data_PCOD9421927
_publ_section_title
;
Structure prediction by ZEFSAII (Michael W. Deem and Ramdas Pophale) SiO2 
 PCOD9421927
Probable space group: P C C A
;
_chemical_formula_sum "Si O2"
_cell_formula_units_Z 60
_cell_length_a 11.547375
_cell_length_b 11.580260
_cell_length_c 20.613337
_cell_angle_alpha 90.000000
_cell_angle_beta 90.000000
_cell_angle_gamma 90.000000
_cell_volume 2756.448504
_symmetry_space_group_name_H-M "P C C A"
_symmetry_group_IT_number 54
_symmetry_cell_setting 'orthorhombic'
loop_
_space_group_symop_operation_xyz
x,y,z
1/2-x,-y,z
1/2+x,-y,1/2-z
-x,y,1/2-z
-x,-y,-z
1/2+x,y,-z
1/2-x,y,1/2+z
x,-y,1/2+z
loop_
_atom_site_type_symbol
_atom_site_label
_atom_site_fract_x
_atom_site_fract_y
_atom_site_fract_z
Si Si1 0.355919 0.415872 0.069038
Si Si2 0.644928 0.784152 0.526757
Si Si3 0.768895 0.163402 0.898144
Si Si4 0.498986 0.964363 0.607944
Si Si5 0.864887 0.804256 0.621366
Si Si6 0.500000 0.869685 0.750000
Si Si7 0.242933 0.139231 0.242247
Si Si8 0.487461 0.387404 0.945153
O O1 0.250000 0.500000 0.084313
O O2 0.334627 0.288690 0.096690
O O3 0.467295 0.494097 0.085538
O O4 0.376834 0.403557 0.991769
O O5 0.695270 0.843144 0.462749
O O6 0.553500 0.865763 0.562490
O O7 0.749751 0.778309 0.578645
O O8 0.581969 0.671926 0.494572
O O9 0.699439 0.164425 0.830391
O O10 0.862877 0.061165 0.897928
O O11 0.517773 0.941142 0.684352
O O12 0.568656 0.081738 0.594903
O O13 0.827332 0.818623 0.695815
O O14 0.953811 0.701600 0.609657
O O15 0.625231 0.810010 0.757192
O O16 0.250000 0.000000 0.247785
#
# Coordination Sequence:
#
# PCOD9421927 Si02
#       8
#     8   8   8   8   8   4   8   8
#     4  11  21  46  67  94 131 178 233 285 345 403
#     4  12  21  41  63 106 135 179 220 285 341 404
#     4  11  25  42  67 102 136 183 230 283 351 409
#     4  11  23  39  66  96 144 175 228 268 347 413
#     4  12  23  42  67 104 141 179 228 284 334 419
#     4  10  20  40  62  90 128 192 212 256 326 408
#     4  11  23  43  65 100 137 183 220 271 342 425
#     4  11  24  39  72 100 131 181 231 290 347 399
#
# _framework density 21.767140000000001
#
# number of rings (size 3 to 8) (size 9 to 14) (size 15 to 20)
#    0.000    0.800    6.667    0.400    0.000    6.400 
#    0.000    0.000    0.000   12.000    0.000    0.000 
#    0.000    0.000    0.000    0.000    0.000    0.000 
#
# Total GULP energy -334919.803272 kJ/mol
# GULP energy per Si atom -5581.996721 kJ/mol
# Density = 2.171760 g / cm^3
# Si number density = 21.767140 Si / 1000 Ang^3
#
#
#
# Elastic Constant Matrix: (Units=GPa)
#
#
# Indices 1 2 3 4 5 6 
#
# 1 73.4624 20.0764 44.8044 0.0000 0.0000 0.0000
# 2 20.0764 92.1522 44.0733 0.0000 0.0000 0.0000
# 3 44.8044 44.0733 143.0947 0.0000 0.0000 0.0000
# 4 0.0000 0.0000 0.0000 16.1051 0.0000 0.0000
# 5 0.0000 0.0000 0.0000 0.0000 47.4409 0.0000
# 6 0.0000 0.0000 0.0000 0.0000 0.0000 25.5871
#
#
#
# Elastic Compliance Matrix: (Units=1/GPa)
#
#
# Indices 1 2 3 4 5 6 
#
# 1 0.016969 -0.001355 -0.004896 0.000000 0.000000 0.000000
# 2 -0.001355 0.012835 -0.003529 0.000000 0.000000 0.000000
# 3 -0.004896 -0.003529 0.009608 0.000000 0.000000 0.000000
# 4 0.000000 0.000000 0.000000 0.062092 0.000000 0.000000
# 5 0.000000 0.000000 0.000000 0.000000 0.021079 0.000000
# 6 0.000000 0.000000 0.000000 0.000000 0.000000 0.039082
#
#
# Mechanical properties :
#
#
# Convention : Reuss Voigt Hill
#
# Bulk Modulus (GPa) = 50.37296 58.51307 54.44301
# Shear Modulus (GPa) = 26.61822 31.14361 28.88092
#
# Velocity S-wave (km/s) = 3.50074 3.78665 3.64650
# Velocity P-wave (km/s) = 6.28746 6.78660 6.54180
#
# Compressibility (1/GPa) = 0.01985192
#
# Stress axis : x y z
#
# Youngs Moduli (GPa) = 58.93233 77.91466 104.07926
#
# Poissons Ratio (x) = 0.10561 0.50953
# Poissons Ratio (y) = 0.07988 0.36726
# Poissons Ratio (z) = 0.28851 0.27493
#
# Static dielectric constant tensor:
#      x y z
#    x 1.915130 0.000000 0.000000 
#    y 0.000000 1.827120 0.000000 
#    z 0.000000 0.000000 1.763790 
# 
# From -- ./inp_files/21237.got.cif
#   From: 2010.05.17/outbox.cif.g08.bks.cpg/sg54_11_cif.got.tgz:21237.got - 2010.06.03 13:09:01.
