data_PCOD9421870
_publ_section_title
;
Structure prediction by ZEFSAII (Michael W. Deem and Ramdas Pophale) SiO2 
 PCOD9421870
Probable space group: P C C A
;
_chemical_formula_sum "Si O2"
_cell_formula_units_Z 32
_cell_length_a 11.650204
_cell_length_b 8.946593
_cell_length_c 13.321324
_cell_angle_alpha 90.000000
_cell_angle_beta 90.000000
_cell_angle_gamma 90.000000
_cell_volume 1388.476719
_symmetry_space_group_name_H-M "P C C A"
_symmetry_group_IT_number 54
_symmetry_cell_setting 'orthorhombic'
loop_
_space_group_symop_operation_xyz
x,y,z
1/2-x,-y,z
1/2+x,-y,1/2-z
-x,y,1/2-z
-x,-y,-z
1/2+x,y,-z
1/2-x,y,1/2+z
x,-y,1/2+z
loop_
_atom_site_type_symbol
_atom_site_label
_atom_site_fract_x
_atom_site_fract_y
_atom_site_fract_z
Si Si1 0.164490 0.738371 0.857528
Si Si2 0.250000 0.500000 0.572551
Si Si3 0.875513 0.228677 0.906992
Si Si4 0.750000 0.000000 0.278030
Si Si5 0.402591 0.573896 0.888869
O O1 0.085795 0.590342 0.839040
O O2 0.177463 0.882428 0.788600
O O3 0.290452 0.663194 0.854552
O O4 0.137565 0.789144 0.972571
O O5 0.278989 0.650788 0.627236
O O6 0.843367 0.081243 0.848326
O O7 0.994006 0.310950 0.882001
O O8 0.861553 0.532514 0.997234
#
# Coordination Sequence:
#
# PCOD9421870 Si02
#       5
#     8   4   8   4   8
#     4   9  20  40  62  90 126 160 207 266 305 362
#     4   8  16  34  64  90 112 156 214 266 294 358
#     4  10  20  39  63  89 121 167 214 250 310 379
#     4  12  24  36  56  94 138 164 188 268 334 358
#     4   8  17  39  67  83 111 168 218 253 299 367
#
# _framework density 23.046838000000001
#
# number of rings (size 3 to 8) (size 9 to 14) (size 15 to 20)
#    0.000    3.500    0.000    3.750    0.000    3.000 
#    0.000   21.250    0.000    0.000    0.000    5.250 
#    0.000    0.000    0.000    0.000    0.000    0.000 
#
# Total GULP energy -178466.335847 kJ/mol
# GULP energy per Si atom -5577.072995 kJ/mol
# Density = 2.299438 g / cm^3
# Si number density = 23.046838 Si / 1000 Ang^3
#
#
#
# Elastic Constant Matrix: (Units=GPa)
#
#
# Indices 1 2 3 4 5 6 
#
# 1 98.9191 65.3712 52.6254 0.0000 0.0000 0.0000
# 2 65.3712 179.9153 92.7786 0.0000 0.0000 0.0000
# 3 52.6254 92.7786 123.8647 0.0000 0.0000 0.0000
# 4 0.0000 0.0000 0.0000 334.9634 0.0000 0.0000
# 5 0.0000 0.0000 0.0000 0.0000 -1.7161 0.0000
# 6 0.0000 0.0000 0.0000 0.0000 0.0000 39.2196
#
#
#
# Elastic Compliance Matrix: (Units=1/GPa)
#
#
# Indices 1 2 3 4 5 6 
#
# 1 0.014192 -0.003336 -0.003531 0.000000 0.000000 0.000000
# 2 -0.003336 0.009840 -0.005953 0.000000 0.000000 0.000000
# 3 -0.003531 -0.005953 0.014033 0.000000 0.000000 0.000000
# 4 0.000000 0.000000 0.000000 0.002985 0.000000 0.000000
# 5 0.000000 0.000000 0.000000 0.000000 -0.582717 0.000000
# 6 0.000000 0.000000 0.000000 0.000000 0.000000 0.025497
#
#
# Mechanical properties :
#
#
# Convention : Reuss Voigt Hill
#
# Bulk Modulus (GPa) = 80.48458 91.58327 86.03393
# Shear Modulus (GPa) = -10.27989 87.28832 38.50422
#
# Velocity S-wave (km/s) = -2.11426 6.16089 4.09185
# Velocity P-wave (km/s) = 5.38868 9.50962 7.72887
#
# Compressibility (1/GPa) = 0.01242474
#
# Stress axis : x y z
#
# Youngs Moduli (GPa) = 70.46063 101.62341 71.26104
#
# Poissons Ratio (x) = 0.33899 0.25164
# Poissons Ratio (y) = 0.23504 0.42425
# Poissons Ratio (z) = 0.24881 0.60501
#
# Static dielectric constant tensor:
#      x y z
#    x 1.935970 0.000000 0.000000 
#    y 0.000000 1.889420 0.000000 
#    z 0.000000 0.000000 1.973220 
# 
# From -- ./inp_files/13040.got.cif
#   From: 2010.05.17/outbox.cif.g08.bks.cpg/sg54_7_cif.got.tgz:13040.got - 2010.06.03 13:09:01.
