data_PCOD9421307
_publ_section_title
;
Structure prediction by ZEFSAII (Michael W. Deem and Ramdas Pophale) SiO2 
 PCOD9421307
Probable space group: P C C A
;
_chemical_formula_sum "Si O2"
_cell_formula_units_Z 28
_cell_length_a 5.139465
_cell_length_b 8.915783
_cell_length_c 30.246533
_cell_angle_alpha 90.000000
_cell_angle_beta 90.000000
_cell_angle_gamma 90.000000
_cell_volume 1385.967363
_symmetry_space_group_name_H-M "P C C A"
_symmetry_group_IT_number 54
_symmetry_cell_setting 'orthorhombic'
loop_
_space_group_symop_operation_xyz
x,y,z
1/2-x,-y,z
1/2+x,-y,1/2-z
-x,y,1/2-z
-x,-y,-z
1/2+x,y,-z
1/2-x,y,1/2+z
x,-y,1/2+z
loop_
_atom_site_type_symbol
_atom_site_label
_atom_site_fract_x
_atom_site_fract_y
_atom_site_fract_z
Si Si1 0.710493 0.181477 0.022784
Si Si2 0.326663 0.825174 0.706177
Si Si3 0.000000 0.398664 0.250000
Si Si4 0.496180 0.106418 0.385809
O O1 0.584798 0.199544 0.071005
O O2 0.750000 0.000000 0.018771
O O3 0.498797 0.238460 0.987487
O O4 0.500000 0.801513 0.750000
O O5 0.454618 0.801208 0.658683
O O6 0.084330 0.714127 0.711166
O O7 0.250000 0.000000 0.706977
O O8 0.250000 0.500000 0.260093
O O9 0.250000 0.000000 0.376477
O O10 0.750000 0.000000 0.394915
#
# Coordination Sequence:
#
# PCOD9421307 Si02
#       4
#     8   8   4   8
#     4   9  15  26  41  64 104 147 179 219 279 337
#     4  11  22  38  62  84 117 154 198 238 286 345
#     4  12  26  42  60  84 116 154 192 242 298 342
#     4  10  20  29  48  78 107 145 193 232 275 339
#
# _framework density 20.202496
#
# number of rings (size 3 to 8) (size 9 to 14) (size 15 to 20)
#    0.000    1.714    2.857    5.143    4.000    0.000 
#    0.000    0.000    0.000    0.000    0.000    0.000 
#    0.000    6.857    0.000    0.000    0.000    0.000 
#
# Total GULP energy -156105.808049 kJ/mol
# GULP energy per Si atom -5575.207430 kJ/mol
# Density = 2.015651 g / cm^3
# Si number density = 20.202496 Si / 1000 Ang^3
#
#
#
# Elastic Constant Matrix: (Units=GPa)
#
#
# Indices 1 2 3 4 5 6 
#
# 1 133.6601 32.5342 55.8356 0.0000 0.0000 0.0000
# 2 32.5342 61.9891 16.0625 0.0000 0.0000 0.0000
# 3 55.8356 16.0625 155.0385 0.0000 0.0000 0.0000
# 4 0.0000 0.0000 0.0000 -10.2121 0.0000 0.0000
# 5 0.0000 0.0000 0.0000 0.0000 32.2556 0.0000
# 6 0.0000 0.0000 0.0000 0.0000 0.0000 15.0511
#
#
#
# Elastic Compliance Matrix: (Units=1/GPa)
#
#
# Indices 1 2 3 4 5 6 
#
# 1 0.009834 -0.004361 -0.003090 0.000000 0.000000 0.000000
# 2 -0.004361 0.018510 -0.000347 0.000000 0.000000 0.000000
# 3 -0.003090 -0.000347 0.007599 0.000000 0.000000 0.000000
# 4 0.000000 0.000000 0.000000 -0.097923 0.000000 0.000000
# 5 0.000000 0.000000 0.000000 0.000000 0.031002 0.000000
# 6 0.000000 0.000000 0.000000 0.000000 0.000000 0.066441
#
#
# Mechanical properties :
#
#
# Convention : Reuss Voigt Hill
#
# Bulk Modulus (GPa) = 49.14564 62.17248 55.65906
# Shear Modulus (GPa) = 86.44496 23.83595 55.14045
#
# Velocity S-wave (km/s) = 6.54845 3.43862 5.23002
# Velocity P-wave (km/s) = 9.03081 6.82693 8.00508
#
# Compressibility (1/GPa) = 0.02034769
#
# Stress axis : x y z
#
# Youngs Moduli (GPa) = 101.69016 54.02355 131.60063
#
# Poissons Ratio (x) = 0.23557 0.40662
# Poissons Ratio (y) = 0.44342 0.04571
# Poissons Ratio (z) = 0.31420 0.01876
#
# Static dielectric constant tensor:
#      x y z
#    x 1.741870 0.000000 0.000000 
#    y 0.000000 1.725720 0.000000 
#    z 0.000000 0.000000 1.772430 
# 
# From -- ./inp_files/26805.got.cif
#   From: 2010.05.17/outbox.cif.g08.bks.cpg/sg54_14_cif.got.tgz:26805.got - 2010.06.03 13:09:01.
