data_PCOD9421653
_publ_section_title
;
Structure prediction by ZEFSAII (Michael W. Deem and Ramdas Pophale) SiO2 
 PCOD9421653
Probable space group: P C C A
;
_chemical_formula_sum "Si O2"
_cell_formula_units_Z 40
_cell_length_a 9.621820
_cell_length_b 5.679838
_cell_length_c 31.538783
_cell_angle_alpha 90.000000
_cell_angle_beta 90.000000
_cell_angle_gamma 90.000000
_cell_volume 1723.606440
_symmetry_space_group_name_H-M "P C C A"
_symmetry_group_IT_number 54
_symmetry_cell_setting 'orthorhombic'
loop_
_space_group_symop_operation_xyz
x,y,z
1/2-x,-y,z
1/2+x,-y,1/2-z
-x,y,1/2-z
-x,-y,-z
1/2+x,y,-z
1/2-x,y,1/2+z
x,-y,1/2+z
loop_
_atom_site_type_symbol
_atom_site_label
_atom_site_fract_x
_atom_site_fract_y
_atom_site_fract_z
Si Si1 0.250000 0.500000 0.394748
Si Si2 0.500000 0.692003 0.750000
Si Si3 0.750000 0.000000 0.780634
Si Si4 0.550234 0.494956 0.920771
Si Si5 0.250000 0.000000 0.893168
Si Si6 0.970916 0.998504 0.450367
Si Si7 0.100090 0.393354 0.177429
O O1 0.116554 0.502225 0.425074
O O2 0.249507 0.252161 0.369861
O O3 0.356928 0.842581 0.747057
O O4 0.495883 0.519689 0.790694
O O5 0.634784 0.124736 0.811357
O O6 0.598548 0.749883 0.936922
O O7 0.571186 0.458838 0.870660
O O8 0.599654 0.251130 0.941191
O O9 0.112246 0.997111 0.922179
O O10 0.000000 0.000000 0.500000
O O11 0.250000 0.500000 0.187762
#
# Coordination Sequence:
#
# PCOD9421653 Si02
#       7
#     4   4   4   8   4   8   8
#     4   8  16  34  54  78 114 150 196 260 310 372
#     4  10  22  44  68 100 134 186 222 286 350 426
#     4  10  22  44  70  94 146 176 226 288 352 414
#     4  10  21  38  61  90 124 167 215 268 336 388
#     4   8  16  32  52  74 112 150 188 258 318 352
#     4  10  20  37  59  86 123 164 215 269 326 399
#     4  10  23  42  65  94 139 172 221 276 336 417
#
# _framework density 23.207156000000001
#
# number of rings (size 3 to 8) (size 9 to 14) (size 15 to 20)
#    0.000    2.400    0.000    1.200    5.600    0.000 
#   12.600    1.000    0.000    0.000    0.000    0.000 
#    0.000    0.000    0.000    0.000    0.000    0.000 
#
# Total GULP energy -222741.708747 kJ/mol
# GULP energy per Si atom -5568.542719 kJ/mol
# Density = 2.315434 g / cm^3
# Si number density = 23.207156 Si / 1000 Ang^3
#
#
#
# Elastic Constant Matrix: (Units=GPa)
#
#
# Indices 1 2 3 4 5 6 
#
# 1 114.2581 23.2936 4.7049 0.0000 0.0000 0.0000
# 2 23.2936 248.7131 74.7818 0.0000 0.0000 0.0000
# 3 4.7049 74.7818 136.5288 0.0000 0.0000 0.0000
# 4 0.0000 0.0000 0.0000 23.8294 0.0000 0.0000
# 5 0.0000 0.0000 0.0000 0.0000 -0.9498 0.0000
# 6 0.0000 0.0000 0.0000 0.0000 0.0000 -53.4238
#
#
#
# Elastic Compliance Matrix: (Units=1/GPa)
#
#
# Indices 1 2 3 4 5 6 
#
# 1 0.008926 -0.000890 0.000180 0.000000 0.000000 0.000000
# 2 -0.000890 0.004902 -0.002654 0.000000 0.000000 0.000000
# 3 0.000180 -0.002654 0.008772 0.000000 0.000000 0.000000
# 4 0.000000 0.000000 0.000000 0.041965 0.000000 0.000000
# 5 0.000000 0.000000 0.000000 0.000000 -1.052859 0.000000
# 6 0.000000 0.000000 0.000000 0.000000 0.000000 -0.018718
#
#
# Mechanical properties :
#
#
# Convention : Reuss Voigt Hill
#
# Bulk Modulus (GPa) = 63.00657 78.34005 70.67331
# Shear Modulus (GPa) = -5.02517 20.33914 7.65699
#
# Velocity S-wave (km/s) = -1.47311 2.96365 1.81840
# Velocity P-wave (km/s) = 4.93104 6.74841 5.91000
#
# Compressibility (1/GPa) = 0.01587136
#
# Stress axis : x y z
#
# Youngs Moduli (GPa) = 112.03017 203.99082 113.99658
#
# Poissons Ratio (x) = 0.18157 -0.02051
# Poissons Ratio (y) = 0.09972 0.30260
# Poissons Ratio (z) = -0.02016 0.54148
#
# Static dielectric constant tensor:
#      x y z
#    x 1.893290 0.000000 0.000000 
#    y 0.000000 2.191470 0.000000 
#    z 0.000000 0.000000 1.937180 
# 
# From -- ./inp_files/26123.got.cif
#   From: 2010.05.17/outbox.cif.g08.bks.cpg/sg54_14_cif.got.tgz:26123.got - 2010.06.03 13:09:01.
