data_PCOD9421335
_publ_section_title
;
Structure prediction by ZEFSAII (Michael W. Deem and Ramdas Pophale) SiO2 
 PCOD9421335
Probable space group: P C C A
;
_chemical_formula_sum "Si O2"
_cell_formula_units_Z 60
_cell_length_a 24.494851
_cell_length_b 10.817498
_cell_length_c 12.404844
_cell_angle_alpha 90.000000
_cell_angle_beta 90.000000
_cell_angle_gamma 90.000000
_cell_volume 3286.948750
_symmetry_space_group_name_H-M "P C C A"
_symmetry_group_IT_number 54
_symmetry_cell_setting 'orthorhombic'
loop_
_space_group_symop_operation_xyz
x,y,z
1/2-x,-y,z
1/2+x,-y,1/2-z
-x,y,1/2-z
-x,-y,-z
1/2+x,y,-z
1/2-x,y,1/2+z
x,-y,1/2+z
loop_
_atom_site_type_symbol
_atom_site_label
_atom_site_fract_x
_atom_site_fract_y
_atom_site_fract_z
Si Si1 0.563892 0.726387 0.760003
Si Si2 0.171815 0.749136 0.628259
Si Si3 0.711568 0.695677 0.974645
Si Si4 0.118111 0.889831 0.428068
Si Si5 0.848656 0.524234 0.304554
Si Si6 0.250000 0.500000 0.357165
Si Si7 0.620137 0.118965 0.441202
Si Si8 0.685999 0.984484 0.250399
O O1 0.500000 0.703973 0.750000
O O2 0.583489 0.811221 0.658541
O O3 0.598820 0.599961 0.765102
O O4 0.578503 0.797676 0.871989
O O5 0.235786 0.738530 0.594445
O O6 0.140676 0.805161 0.524632
O O7 0.146591 0.617596 0.659891
O O8 0.169637 0.842598 0.729100
O O9 0.736298 0.620417 0.073290
O O10 0.677632 0.597982 0.903966
O O11 0.666680 0.799802 0.001002
O O12 0.093275 0.012989 0.484819
O O13 0.167152 0.948962 0.358202
O O14 0.802655 0.528291 0.213408
O O15 0.655582 0.052683 0.348293
O O16 0.750000 0.000000 0.261988
#
# Coordination Sequence:
#
# PCOD9421335 Si02
#       8
#     8   8   8   8   8   4   8   8
#     4  10  23  45  66  83 119 162 209 265 306 357
#     4  11  20  36  54  84 132 154 196 248 293 367
#     4  11  20  33  53  84 126 167 188 235 300 366
#     4  10  23  36  60  90 116 160 204 246 310 370
#     4  11  23  38  55  89 119 158 209 246 298 367
#     4  12  20  32  58  90 122 164 190 236 306 370
#     4   9  21  37  56  90 122 152 207 244 299 367
#     4  10  20  32  53  87 127 166 187 234 297 365
#
# _framework density 18.254011999999999
#
# number of rings (size 3 to 8) (size 9 to 14) (size 15 to 20)
#    0.000    1.600    4.000    0.800    3.733    0.533 
#    0.000    0.667    0.000    7.200    0.000    0.000 
#    0.000    0.000    0.000    0.000    0.000    0.000 
#
# Total GULP energy -334678.758536 kJ/mol
# GULP energy per Si atom -5577.979309 kJ/mol
# Density = 1.821246 g / cm^3
# Si number density = 18.254012 Si / 1000 Ang^3
#
#
#
# Elastic Constant Matrix: (Units=GPa)
#
#
# Indices 1 2 3 4 5 6 
#
# 1 93.5936 60.4835 27.6587 0.0000 0.0000 0.0000
# 2 60.4835 134.1964 57.9117 0.0000 0.0000 0.0000
# 3 27.6587 57.9117 80.2060 0.0000 0.0000 0.0000
# 4 0.0000 0.0000 0.0000 39.4849 0.0000 0.0000
# 5 0.0000 0.0000 0.0000 0.0000 10.0183 0.0000
# 6 0.0000 0.0000 0.0000 0.0000 0.0000 16.2251
#
#
#
# Elastic Compliance Matrix: (Units=1/GPa)
#
#
# Indices 1 2 3 4 5 6 
#
# 1 0.015085 -0.006616 -0.000426 0.000000 0.000000 0.000000
# 2 -0.006616 0.013726 -0.007629 0.000000 0.000000 0.000000
# 3 -0.000426 -0.007629 0.018123 0.000000 0.000000 0.000000
# 4 0.000000 0.000000 0.000000 0.025326 0.000000 0.000000
# 5 0.000000 0.000000 0.000000 0.000000 0.099818 0.000000
# 6 0.000000 0.000000 0.000000 0.000000 0.000000 0.061633
#
#
# Mechanical properties :
#
#
# Convention : Reuss Voigt Hill
#
# Bulk Modulus (GPa) = 56.83764 66.67821 61.75792
# Shear Modulus (GPa) = 18.59316 23.94179 21.26748
#
# Velocity S-wave (km/s) = 3.19498 3.62552 3.41704
# Velocity P-wave (km/s) = 6.69442 7.35752 7.03379
#
# Compressibility (1/GPa) = 0.01759398
#
# Stress axis : x y z
#
# Youngs Moduli (GPa) = 66.28919 72.85574 55.17801
#
# Poissons Ratio (x) = 0.48198 0.02348
# Poissons Ratio (y) = 0.43854 0.42096
# Poissons Ratio (z) = 0.02821 0.55583
#
# Static dielectric constant tensor:
#      x y z
#    x 1.579140 0.000000 0.000000 
#    y 0.000000 1.686760 0.000000 
#    z 0.000000 0.000000 1.652090 
# 
# From -- ./inp_files/9612.got.cif
#   From: 2010.05.17/outbox.cif.g08.bks.cpg/sg54_5_cif.got.tgz:9612.got - 2010.06.03 13:09:01.
