data_PCOD9421137
_publ_section_title
;
Structure prediction by ZEFSAII (Michael W. Deem and Ramdas Pophale) SiO2 
 PCOD9421137
Probable space group: P C C A
;
_chemical_formula_sum "Si O2"
_cell_formula_units_Z 40
_cell_length_a 9.660319
_cell_length_b 13.563356
_cell_length_c 13.074650
_cell_angle_alpha 90.000000
_cell_angle_beta 90.000000
_cell_angle_gamma 90.000000
_cell_volume 1713.123610
_symmetry_space_group_name_H-M "P C C A"
_symmetry_group_IT_number 54
_symmetry_cell_setting 'orthorhombic'
loop_
_space_group_symop_operation_xyz
x,y,z
1/2-x,-y,z
1/2+x,-y,1/2-z
-x,y,1/2-z
-x,-y,-z
1/2+x,y,-z
1/2-x,y,1/2+z
x,-y,1/2+z
loop_
_atom_site_type_symbol
_atom_site_label
_atom_site_fract_x
_atom_site_fract_y
_atom_site_fract_z
Si Si1 0.372392 0.220400 0.177804
Si Si2 0.248278 0.885960 0.998508
Si Si3 0.512312 0.757226 0.029573
Si Si4 0.340666 0.404082 0.292774
Si Si5 0.127496 0.430141 0.025746
O O1 0.500000 0.189242 0.250000
O O2 0.299667 0.131842 0.117397
O O3 0.424076 0.281662 0.077644
O O4 0.708013 0.301987 0.257834
O O5 0.139187 0.823271 0.930220
O O6 0.250000 0.000000 0.972429
O O7 0.396655 0.835496 0.995256
O O8 0.436947 0.665348 0.082533
O O9 0.250000 0.500000 0.271602
O O10 0.500000 0.418370 0.250000
O O11 0.324245 0.390729 0.414873
O O12 0.250000 0.500000 0.065390
O O13 0.000000 0.500000 0.000000
#
# Coordination Sequence:
#
# PCOD9421137 Si02
#       5
#     8   8   8   8   8
#     4   9  19  38  63  77 121 164 186 243 321 352
#     4  10  21  37  64  89 115 155 210 253 311 361
#     4  10  20  38  61  86 123 154 199 254 303 358
#     4  10  19  36  56  80 114 159 194 235 296 357
#     4  11  22  34  57  90 118 156 202 236 292 374
#
# _framework density 23.349160999999999
#
# number of rings (size 3 to 8) (size 9 to 14) (size 15 to 20)
#    1.200    0.800    4.000    1.800    0.000    2.400 
#    0.000    1.000    0.000    0.000    0.000    0.000 
#    0.000    0.000    0.000    0.000    0.000    0.000 
#
# Total GULP energy -222810.181059 kJ/mol
# GULP energy per Si atom -5570.254526 kJ/mol
# Density = 2.329602 g / cm^3
# Si number density = 23.349161 Si / 1000 Ang^3
#
#
#
# Elastic Constant Matrix: (Units=GPa)
#
#
# Indices 1 2 3 4 5 6 
#
# 1 87.9270 43.7237 -15.7060 0.0000 0.0000 0.0000
# 2 43.7237 150.1909 -6.7055 0.0000 0.0000 0.0000
# 3 -15.7060 -6.7055 59.3919 0.0000 0.0000 0.0000
# 4 0.0000 0.0000 0.0000 39.7444 0.0000 0.0000
# 5 0.0000 0.0000 0.0000 0.0000 20.4518 0.0000
# 6 0.0000 0.0000 0.0000 0.0000 0.0000 25.3390
#
#
#
# Elastic Compliance Matrix: (Units=1/GPa)
#
#
# Indices 1 2 3 4 5 6 
#
# 1 0.013889 -0.003899 0.003233 0.000000 0.000000 0.000000
# 2 -0.003899 0.007787 -0.000152 0.000000 0.000000 0.000000
# 3 0.003233 -0.000152 0.017675 0.000000 0.000000 0.000000
# 4 0.000000 0.000000 0.000000 0.025161 0.000000 0.000000
# 5 0.000000 0.000000 0.000000 0.000000 0.048895 0.000000
# 6 0.000000 0.000000 0.000000 0.000000 0.000000 0.039465
#
#
# Mechanical properties :
#
#
# Convention : Reuss Voigt Hill
#
# Bulk Modulus (GPa) = 26.51515 37.79270 32.15392
# Shear Modulus (GPa) = 29.92573 35.52023 32.72298
#
# Velocity S-wave (km/s) = 3.58391 3.90457 3.74767
# Velocity P-wave (km/s) = 5.33915 6.04554 5.70329
#
# Compressibility (1/GPa) = 0.03771429
#
# Stress axis : x y z
#
# Youngs Moduli (GPa) = 71.99688 128.42676 56.57695
#
# Poissons Ratio (x) = 0.50076 -0.18290
# Poissons Ratio (y) = 0.28073 0.00860
# Poissons Ratio (z) = -0.23275 0.01952
#
# Static dielectric constant tensor:
#      x y z
#    x 1.654330 0.000000 0.000000 
#    y 0.000000 1.877470 0.000000 
#    z 0.000000 0.000000 1.897140 
# 
# From -- ./inp_files/20367.got.cif
#   From: 2010.05.17/outbox.cif.g08.bks.cpg/sg54_11_cif.got.tgz:20367.got - 2010.06.03 13:09:01.
