data_PCOD9421261
_publ_section_title
;
Structure prediction by ZEFSAII (Michael W. Deem and Ramdas Pophale) SiO2 
 PCOD9421261
Probable space group: P C C A
;
_chemical_formula_sum "Si O2"
_cell_formula_units_Z 64
_cell_length_a 17.747741
_cell_length_b 13.645558
_cell_length_c 13.597576
_cell_angle_alpha 90.000000
_cell_angle_beta 90.000000
_cell_angle_gamma 90.000000
_cell_volume 3293.031438
_symmetry_space_group_name_H-M "P C C A"
_symmetry_group_IT_number 54
_symmetry_cell_setting 'orthorhombic'
loop_
_space_group_symop_operation_xyz
x,y,z
1/2-x,-y,z
1/2+x,-y,1/2-z
-x,y,1/2-z
-x,-y,-z
1/2+x,y,-z
1/2-x,y,1/2+z
x,-y,1/2+z
loop_
_atom_site_type_symbol
_atom_site_label
_atom_site_fract_x
_atom_site_fract_y
_atom_site_fract_z
Si Si1 0.302502 0.334830 0.479755
Si Si2 0.124571 0.157817 0.267326
Si Si3 0.966300 0.279949 0.075234
Si Si4 0.066050 0.543549 0.566711
Si Si5 0.400700 0.153899 0.544643
Si Si6 0.835040 0.965412 0.117946
Si Si7 0.293735 0.765866 0.775152
Si Si8 0.648170 0.644297 0.908012
O O1 0.368954 0.411488 0.498026
O O2 0.333662 0.232192 0.524373
O O3 0.290133 0.311190 0.365405
O O4 0.228624 0.368858 0.537993
O O5 0.076797 0.230148 0.335132
O O6 0.092646 0.137712 0.160062
O O7 0.207983 0.203131 0.252588
O O8 0.130606 0.055314 0.323525
O O9 0.023089 0.364574 0.115448
O O10 0.021226 0.205543 0.017289
O O11 0.906270 0.316173 0.994522
O O12 0.107704 0.457020 0.625904
O O13 0.000000 0.500000 0.500000
O O14 0.380409 0.060691 0.480053
O O15 0.831272 0.865986 0.183090
O O16 0.750000 0.000000 0.093036
O O17 0.336048 0.717571 0.682628
#
# Coordination Sequence:
#
# PCOD9421261 Si02
#       8
#     8   8   8   8   8   8   8   8
#     4  10  19  39  62  85 127 157 211 261 311 387
#     4  11  20  38  63  92 127 166 217 264 322 386
#     4  10  22  39  62  89 129 166 209 267 325 383
#     4   9  21  40  60  88 122 166 206 260 326 379
#     4  10  21  39  60  89 126 170 204 262 326 382
#     4   9  22  38  61  94 130 162 218 268 318 380
#     4  10  21  38  62  98 117 164 213 266 318 379
#     4  11  20  39  67  90 123 167 213 264 324 383
#
# _framework density 19.434978999999998
#
# number of rings (size 3 to 8) (size 9 to 14) (size 15 to 20)
#    0.000    2.000    2.500    0.750    0.000    3.000 
#    0.000   22.500    0.000    0.000    0.000    0.000 
#    0.000    0.000    0.000    0.000    0.000    0.000 
#
# Total GULP energy -356943.795703 kJ/mol
# GULP energy per Si atom -5577.246808 kJ/mol
# Density = 1.939074 g / cm^3
# Si number density = 19.434979 Si / 1000 Ang^3
#
#
#
# Elastic Constant Matrix: (Units=GPa)
#
#
# Indices 1 2 3 4 5 6 
#
# 1 91.2283 46.5503 38.0623 0.0000 0.0000 0.0000
# 2 46.5503 96.5958 44.6235 0.0000 0.0000 0.0000
# 3 38.0623 44.6235 94.4584 0.0000 0.0000 0.0000
# 4 0.0000 0.0000 0.0000 21.5221 0.0000 0.0000
# 5 0.0000 0.0000 0.0000 0.0000 19.8335 0.0000
# 6 0.0000 0.0000 0.0000 0.0000 0.0000 28.5922
#
#
#
# Elastic Compliance Matrix: (Units=1/GPa)
#
#
# Indices 1 2 3 4 5 6 
#
# 1 0.015365 -0.005813 -0.003445 0.000000 0.000000 0.000000
# 2 -0.005813 0.015442 -0.004952 0.000000 0.000000 0.000000
# 3 -0.003445 -0.004952 0.014315 0.000000 0.000000 0.000000
# 4 0.000000 0.000000 0.000000 0.046464 0.000000 0.000000
# 5 0.000000 0.000000 0.000000 0.000000 0.050420 0.000000
# 6 0.000000 0.000000 0.000000 0.000000 0.000000 0.034975
#
#
# Mechanical properties :
#
#
# Convention : Reuss Voigt Hill
#
# Bulk Modulus (GPa) = 59.88092 60.08383 59.98238
# Shear Modulus (GPa) = 23.70034 24.19266 23.94650
#
# Velocity S-wave (km/s) = 3.49588 3.53200 3.51398
# Velocity P-wave (km/s) = 6.86824 6.90042 6.88435
#
# Compressibility (1/GPa) = 0.01669981
#
# Stress axis : x y z
#
# Youngs Moduli (GPa) = 65.08259 64.76025 69.85886
#
# Poissons Ratio (x) = 0.37645 0.24068
# Poissons Ratio (y) = 0.37832 0.34597
# Poissons Ratio (z) = 0.22423 0.32072
#
# Static dielectric constant tensor:
#      x y z
#    x 1.672440 0.000000 0.000000 
#    y 0.000000 1.730640 0.000000 
#    z 0.000000 0.000000 1.657820 
# 
# From -- ./inp_files/14319.got.cif
#   From: 2010.05.17/outbox.cif.g08.bks.cpg/sg54_8_cif.got.tgz:14319.got - 2010.06.03 13:09:01.
