data_PCOD9421280
_publ_section_title
;
Structure prediction by ZEFSAII (Michael W. Deem and Ramdas Pophale) SiO2 
 PCOD9421280
Probable space group: P C C A
;
_chemical_formula_sum "Si O2"
_cell_formula_units_Z 40
_cell_length_a 10.166705
_cell_length_b 8.573169
_cell_length_c 23.093508
_cell_angle_alpha 90.000000
_cell_angle_beta 90.000000
_cell_angle_gamma 90.000000
_cell_volume 2012.850483
_symmetry_space_group_name_H-M "P C C A"
_symmetry_group_IT_number 54
_symmetry_cell_setting 'orthorhombic'
loop_
_space_group_symop_operation_xyz
x,y,z
1/2-x,-y,z
1/2+x,-y,1/2-z
-x,y,1/2-z
-x,-y,-z
1/2+x,y,-z
1/2-x,y,1/2+z
x,-y,1/2+z
loop_
_atom_site_type_symbol
_atom_site_label
_atom_site_fract_x
_atom_site_fract_y
_atom_site_fract_z
Si Si1 0.788354 0.177628 0.128669
Si Si2 0.743482 0.311018 0.366787
Si Si3 0.483735 0.706425 0.055343
Si Si4 0.969505 0.659540 0.080445
Si Si5 0.848187 0.645144 0.744367
O O1 0.901637 0.188571 0.080735
O O2 0.664971 0.281674 0.108181
O O3 0.840647 0.246389 0.188729
O O4 0.750000 0.000000 0.136467
O O5 0.750000 0.500000 0.368535
O O6 0.593520 0.275493 0.383180
O O7 0.797505 0.271004 0.303120
O O8 0.844561 0.253264 0.415428
O O9 0.519673 0.529132 0.076194
O O10 0.477235 0.711478 0.986394
O O11 0.750000 0.500000 0.735717
O O12 0.000000 0.591940 0.750000
#
# Coordination Sequence:
#
# PCOD9421280 Si02
#       5
#     8   8   8   8   8
#     4  12  26  41  59  91 135 172 202 247 316 387
#     4   9  19  35  61  93 117 148 204 267 317 353
#     4  10  19  40  67  93 123 155 211 264 310 361
#     4  10  21  38  67  96 118 159 210 266 308 363
#     4  11  23  42  68  91 118 162 213 270 311 364
#
# _framework density 19.872316000000001
#
# number of rings (size 3 to 8) (size 9 to 14) (size 15 to 20)
#    0.000    1.600    2.000    3.000    5.600    4.000 
#    3.600    1.000    0.000    0.000    0.000    0.000 
#    0.000    0.000    0.000    0.000    0.000    0.000 
#
# Total GULP energy -223506.806196 kJ/mol
# GULP energy per Si atom -5587.670155 kJ/mol
# Density = 1.982709 g / cm^3
# Si number density = 19.872316 Si / 1000 Ang^3
#
#
#
# Elastic Constant Matrix: (Units=GPa)
#
#
# Indices 1 2 3 4 5 6 
#
# 1 115.0404 10.7036 17.8744 0.0000 0.0000 0.0000
# 2 10.7036 28.9273 14.2247 0.0000 0.0000 0.0000
# 3 17.8744 14.2247 70.4420 0.0000 0.0000 0.0000
# 4 0.0000 0.0000 0.0000 -23.5119 0.0000 0.0000
# 5 0.0000 0.0000 0.0000 0.0000 37.5527 0.0000
# 6 0.0000 0.0000 0.0000 0.0000 0.0000 10.0164
#
#
#
# Elastic Compliance Matrix: (Units=1/GPa)
#
#
# Indices 1 2 3 4 5 6 
#
# 1 0.009210 -0.002508 -0.001831 0.000000 0.000000 0.000000
# 2 -0.002508 0.039063 -0.007252 0.000000 0.000000 0.000000
# 3 -0.001831 -0.007252 0.016125 0.000000 0.000000 0.000000
# 4 0.000000 0.000000 0.000000 -0.042532 0.000000 0.000000
# 5 0.000000 0.000000 0.000000 0.000000 0.026629 0.000000
# 6 0.000000 0.000000 0.000000 0.000000 0.000000 0.099837
#
#
# Mechanical properties :
#
#
# Convention : Reuss Voigt Hill
#
# Bulk Modulus (GPa) = 24.26123 33.33500 28.79812
# Shear Modulus (GPa) = 26.99010 16.25190 21.62100
#
# Velocity S-wave (km/s) = 3.68934 2.86285 3.30206
# Velocity P-wave (km/s) = 5.51211 5.26677 5.39084
#
# Compressibility (1/GPa) = 0.04121802
#
# Stress axis : x y z
#
# Youngs Moduli (GPa) = 108.57330 25.59944 62.01544
#
# Poissons Ratio (x) = 0.06420 0.11353
# Poissons Ratio (y) = 0.27228 0.44973
# Poissons Ratio (z) = 0.19876 0.18564
#
# Static dielectric constant tensor:
#      x y z
#    x 1.691960 0.000000 0.000000 
#    y 0.000000 1.683430 0.000000 
#    z 0.000000 0.000000 1.694530 
# 
# From -- ./inp_files/23270.got.cif
#   From: 2010.05.17/outbox.cif.g08.bks.cpg/sg54_12_cif.got.tgz:23270.got - 2010.06.03 13:09:01.
