data_PCOD9421374
_publ_section_title
;
Structure prediction by ZEFSAII (Michael W. Deem and Ramdas Pophale) SiO2 
 PCOD9421374
Probable space group: P C C A
;
_chemical_formula_sum "Si O2"
_cell_formula_units_Z 64
_cell_length_a 18.435551
_cell_length_b 9.058754
_cell_length_c 20.316063
_cell_angle_alpha 90.000000
_cell_angle_beta 90.000000
_cell_angle_gamma 90.000000
_cell_volume 3392.845935
_symmetry_space_group_name_H-M "P C C A"
_symmetry_group_IT_number 54
_symmetry_cell_setting 'orthorhombic'
loop_
_space_group_symop_operation_xyz
x,y,z
1/2-x,-y,z
1/2+x,-y,1/2-z
-x,y,1/2-z
-x,-y,-z
1/2+x,y,-z
1/2-x,y,1/2+z
x,-y,1/2+z
loop_
_atom_site_type_symbol
_atom_site_label
_atom_site_fract_x
_atom_site_fract_y
_atom_site_fract_z
Si Si1 0.666948 0.516876 0.964877
Si Si2 0.925443 0.916854 0.987331
Si Si3 0.353071 0.201881 0.962497
Si Si4 0.060270 0.379106 0.351901
Si Si5 0.193287 0.634820 0.751134
Si Si6 0.267855 0.171491 0.359686
Si Si7 0.605443 0.339512 0.081877
Si Si8 0.597102 0.710682 0.367866
O O1 0.750000 0.500000 0.943541
O O2 0.615874 0.426550 0.915997
O O3 0.645769 0.686410 0.976270
O O4 0.658039 0.441602 0.036928
O O5 0.908343 0.855365 0.914471
O O6 0.931472 0.771072 0.031572
O O7 0.867084 0.034634 0.014775
O O8 0.000000 0.000000 0.000000
O O9 0.409492 0.264396 0.907649
O O10 0.276539 0.215289 0.925439
O O11 0.121747 0.399898 0.295970
O O12 0.054492 0.542108 0.383415
O O13 0.980897 0.319467 0.334463
O O14 0.250000 0.500000 0.739542
O O15 0.236306 0.748319 0.796436
O O16 0.160954 0.707367 0.685491
O O17 0.348208 0.234250 0.370456
O O18 0.250000 0.000000 0.352304
#
# Coordination Sequence:
#
# PCOD9421374 Si02
#       8
#     8   8   8   8   8   8   8   8
#     4  10  20  34  57  89 123 153 194 249 306 365
#     4  11  22  37  58  92 131 161 193 246 319 387
#     4  10  20  33  60  90 118 155 198 248 304 358
#     4  10  21  38  62  88 117 156 211 258 291 356
#     4  11  23  42  65  85 115 162 214 259 298 358
#     4  11  20  37  63  90 114 151 206 260 295 354
#     4  10  20  34  61  91 118 150 202 252 300 351
#     4  11  24  39  58  87 128 164 197 248 319 378
#
# _framework density 18.863220999999999
#
# number of rings (size 3 to 8) (size 9 to 14) (size 15 to 20)
#    0.000    1.500    5.000    0.750    1.750    1.500 
#    0.000    2.500    0.000    0.000    0.000    0.000 
#    0.000    0.000    0.000    0.000    0.000    0.000 
#
# Total GULP energy -356737.599965 kJ/mol
# GULP energy per Si atom -5574.024999 kJ/mol
# Density = 1.882029 g / cm^3
# Si number density = 18.863221 Si / 1000 Ang^3
#
#
#
# Elastic Constant Matrix: (Units=GPa)
#
#
# Indices 1 2 3 4 5 6 
#
# 1 65.3224 5.0283 21.5713 0.0000 0.0000 0.0000
# 2 5.0283 87.0510 28.1952 0.0000 0.0000 0.0000
# 3 21.5713 28.1952 80.7019 0.0000 0.0000 0.0000
# 4 0.0000 0.0000 0.0000 21.1608 0.0000 0.0000
# 5 0.0000 0.0000 0.0000 0.0000 13.2699 0.0000
# 6 0.0000 0.0000 0.0000 0.0000 0.0000 25.5402
#
#
#
# Elastic Compliance Matrix: (Units=1/GPa)
#
#
# Indices 1 2 3 4 5 6 
#
# 1 0.016814 0.000546 -0.004685 0.000000 0.000000 0.000000
# 2 0.000546 0.012971 -0.004678 0.000000 0.000000 0.000000
# 3 -0.004685 -0.004678 0.015278 0.000000 0.000000 0.000000
# 4 0.000000 0.000000 0.000000 0.047257 0.000000 0.000000
# 5 0.000000 0.000000 0.000000 0.000000 0.075358 0.000000
# 6 0.000000 0.000000 0.000000 0.000000 0.000000 0.039154
#
#
# Mechanical properties :
#
#
# Convention : Reuss Voigt Hill
#
# Bulk Modulus (GPa) = 36.45709 38.07387 37.26548
# Shear Modulus (GPa) = 21.40331 23.87954 22.64143
#
# Velocity S-wave (km/s) = 3.37212 3.56185 3.46829
# Velocity P-wave (km/s) = 5.87628 6.09457 5.98642
#
# Compressibility (1/GPa) = 0.02742950
#
# Stress axis : x y z
#
# Youngs Moduli (GPa) = 59.47503 77.09467 65.45407
#
# Poissons Ratio (x) = -0.04211 0.30666
# Poissons Ratio (y) = -0.03249 0.30618
# Poissons Ratio (z) = 0.27865 0.36063
#
# Static dielectric constant tensor:
#      x y z
#    x 1.708900 0.000000 0.000000 
#    y 0.000000 1.677830 0.000000 
#    z 0.000000 0.000000 1.671900 
# 
# From -- ./inp_files/21988.got.cif
#   From: 2010.05.17/outbox.cif.g08.bks.cpg/sg54_11_cif.got.tgz:21988.got - 2010.06.03 13:09:01.
