data_PCOD9421069
_publ_section_title
;
Structure prediction by ZEFSAII (Michael W. Deem and Ramdas Pophale) SiO2 
 PCOD9421069
Probable space group: P C C A
;
_chemical_formula_sum "Si O2"
_cell_formula_units_Z 56
_cell_length_a 30.576193
_cell_length_b 17.257575
_cell_length_c 5.355303
_cell_angle_alpha 90.000000
_cell_angle_beta 90.000000
_cell_angle_gamma 90.000000
_cell_volume 2825.837789
_symmetry_space_group_name_H-M "P C C A"
_symmetry_group_IT_number 54
_symmetry_cell_setting 'orthorhombic'
loop_
_space_group_symop_operation_xyz
x,y,z
1/2-x,-y,z
1/2+x,-y,1/2-z
-x,y,1/2-z
-x,-y,-z
1/2+x,y,-z
1/2-x,y,1/2+z
x,-y,1/2+z
loop_
_atom_site_type_symbol
_atom_site_label
_atom_site_fract_x
_atom_site_fract_y
_atom_site_fract_z
Si Si1 0.000000 0.604687 0.750000
Si Si2 0.500000 0.290026 0.250000
Si Si3 0.092848 0.206399 0.750030
Si Si4 0.096419 0.454780 0.249959
Si Si5 0.367100 0.718842 0.250027
Si Si6 0.081573 0.023428 0.750041
Si Si7 0.179206 0.041653 0.250045
Si Si8 0.778690 0.209782 0.249837
O O1 0.999994 0.657470 0.499976
O O2 0.043844 0.554495 0.749963
O O3 0.543361 0.237884 0.249954
O O4 0.115633 0.238778 0.500045
O O5 0.093835 0.113478 0.750033
O O6 0.115641 0.238777 0.999994
O O7 0.109474 0.500011 0.499938
O O8 0.115194 0.368255 0.250005
O O9 0.314835 0.723269 0.250075
O O10 0.057355 0.999998 0.500043
O O11 0.126602 0.972053 0.750042
O O12 0.193732 0.129830 0.250108
O O13 0.195614 0.999984 0.500018
O O14 0.749986 0.211892 0.499784
#
# Coordination Sequence:
#
# PCOD9421069 Si02
#       8
#     4   4   8   8   8   8   8   8
#     4  12  22  43  62 103 144 166 204 266 320 377
#     4  12  22  39  64  99 132 174 224 268 302 375
#     4  12  22  41  66  92 129 179 226 263 316 386
#     4  12  24  41  67 102 137 172 205 255 320 393
#     4  12  24  44  68  91 132 173 216 264 321 398
#     4  10  20  35  57  84 118 164 218 264 316 372
#     4  10  19  35  55  85 120 156 199 253 328 385
#     4  12  26  42  64  94 123 162 214 274 331 383
#
# _framework density 19.817132999999998
#
# number of rings (size 3 to 8) (size 9 to 14) (size 15 to 20)
#    0.000    0.571    2.857    8.143    0.000    1.714 
#    0.000    0.714    0.000    2.571    0.000    0.000 
#    0.000    0.000    0.000    0.000    0.000    0.000 
#
# Total GULP energy -313374.864726 kJ/mol
# GULP energy per Si atom -5595.979727 kJ/mol
# Density = 1.977203 g / cm^3
# Si number density = 19.817133 Si / 1000 Ang^3
#
#
#
# Elastic Constant Matrix: (Units=GPa)
#
#
# Indices 1 2 3 4 5 6 
#
# 1 64.7523 3.4158 32.2636 0.0000 0.0000 0.0000
# 2 3.4158 107.1111 64.9416 0.0000 0.0000 0.0000
# 3 32.2636 64.9416 218.6461 0.0000 0.0000 0.0000
# 4 0.0000 0.0000 0.0000 27.7043 0.0000 0.0000
# 5 0.0000 0.0000 0.0000 0.0000 8.7647 0.0000
# 6 0.0000 0.0000 0.0000 0.0000 0.0000 36.7845
#
#
#
# Elastic Compliance Matrix: (Units=1/GPa)
#
#
# Indices 1 2 3 4 5 6 
#
# 1 0.016790 0.001179 -0.002828 0.000000 0.000000 0.000000
# 2 0.001179 0.011469 -0.003581 0.000000 0.000000 0.000000
# 3 -0.002828 -0.003581 0.006054 0.000000 0.000000 0.000000
# 4 0.000000 0.000000 0.000000 0.036096 0.000000 0.000000
# 5 0.000000 0.000000 0.000000 0.000000 0.114094 0.000000
# 6 0.000000 0.000000 0.000000 0.000000 0.000000 0.027185
#
#
# Mechanical properties :
#
#
# Convention : Reuss Voigt Hill
#
# Bulk Modulus (GPa) = 41.91926 65.75016 53.83471
# Shear Modulus (GPa) = 21.72973 33.97658 27.85315
#
# Velocity S-wave (km/s) = 3.31495 4.14515 3.75308
# Velocity P-wave (km/s) = 5.98756 7.49401 6.78274
#
# Compressibility (1/GPa) = 0.02385539
#
# Stress axis : x y z
#
# Youngs Moduli (GPa) = 59.55834 87.18834 165.16994
#
# Poissons Ratio (x) = -0.10280 0.46707
# Poissons Ratio (y) = -0.07022 0.59141
# Poissons Ratio (z) = 0.16842 0.31219
#
# Static dielectric constant tensor:
#      x y z
#    x 1.692850 0.000000 0.000000 
#    y 0.000000 1.663170 0.000000 
#    z 0.000000 0.000000 1.749620 
# 
# From -- ./inp_files/2189.got.cif
#   From: 2010.05.17/outbox.cif.g08.bks.cpg/sg54_2_cif.got.tgz:2189.got - 2010.06.03 13:09:01.
