data_PCOD9421853
_publ_section_title
;
Structure prediction by ZEFSAII (Michael W. Deem and Ramdas Pophale) SiO2 
 PCOD9421853
Probable space group: P C C A
;
_chemical_formula_sum "Si O2"
_cell_formula_units_Z 56
_cell_length_a 10.938896
_cell_length_b 15.925326
_cell_length_c 16.824089
_cell_angle_alpha 90.000000
_cell_angle_beta 90.000000
_cell_angle_gamma 90.000000
_cell_volume 2930.848582
_symmetry_space_group_name_H-M "P C C A"
_symmetry_group_IT_number 54
_symmetry_cell_setting 'orthorhombic'
loop_
_space_group_symop_operation_xyz
x,y,z
1/2-x,-y,z
1/2+x,-y,1/2-z
-x,y,1/2-z
-x,-y,-z
1/2+x,y,-z
1/2-x,y,1/2+z
x,-y,1/2+z
loop_
_atom_site_type_symbol
_atom_site_label
_atom_site_fract_x
_atom_site_fract_y
_atom_site_fract_z
Si Si1 0.680630 0.198544 0.394199
Si Si2 0.766911 0.400079 0.655657
Si Si3 0.893588 0.271964 0.056607
Si Si4 0.447281 0.147978 0.661091
Si Si5 0.997979 0.587113 0.453466
Si Si6 0.886167 0.360329 0.807923
Si Si7 0.393531 0.984770 0.565404
O O1 0.688063 0.234562 0.484447
O O2 0.813311 0.187485 0.354588
O O3 0.609594 0.265695 0.340311
O O4 0.610869 0.110214 0.402609
O O5 0.750000 0.500000 0.652406
O O6 0.674396 0.335195 0.615836
O O7 0.886970 0.392285 0.601251
O O8 0.776033 0.375800 0.748113
O O9 0.959723 0.197042 0.102897
O O10 0.985700 0.334943 0.012290
O O11 0.500000 0.153789 0.750000
O O12 0.426485 0.052055 0.633386
O O13 0.000000 0.500000 0.500000
O O14 0.888574 0.585738 0.388406
O O15 0.000000 0.379762 0.750000
O O16 0.250000 0.000000 0.538716
O O17 0.500000 0.000000 0.500000
#
# Coordination Sequence:
#
# PCOD9421853 Si02
#       7
#     8   8   8   8   8   8   8
#     4  10  21  41  65  92 124 168 212 261 326 396
#     4  11  21  38  56  84 122 164 211 263 321 378
#     4  11  21  38  64  86 123 169 213 261 319 386
#     4  11  23  40  63 100 133 157 213 273 328 389
#     4  10  20  39  57  82 113 159 214 259 308 378
#     4   9  21  39  57  82 118 155 202 255 311 383
#     4  10  21  42  68  93 131 169 212 266 321 398
#
# _framework density 19.107092999999999
#
# number of rings (size 3 to 8) (size 9 to 14) (size 15 to 20)
#    0.000    1.714    2.857    1.714    0.000    0.571 
#   10.286    2.143    0.000    0.000    0.000    0.000 
#    0.000    0.000    0.000    0.000    0.000    0.000 
#
# Total GULP energy -311898.320762 kJ/mol
# GULP energy per Si atom -5569.612871 kJ/mol
# Density = 1.906360 g / cm^3
# Si number density = 19.107093 Si / 1000 Ang^3
#
#
#
# Elastic Constant Matrix: (Units=GPa)
#
#
# Indices 1 2 3 4 5 6 
#
# 1 57.8250 29.0696 44.4863 0.0000 0.0000 0.0000
# 2 29.0696 120.0052 59.8689 0.0000 0.0000 0.0000
# 3 44.4863 59.8689 135.1820 0.0000 0.0000 0.0000
# 4 0.0000 0.0000 0.0000 31.5429 0.0000 0.0000
# 5 0.0000 0.0000 0.0000 0.0000 69.0725 0.0000
# 6 0.0000 0.0000 0.0000 0.0000 0.0000 22.2563
#
#
#
# Elastic Compliance Matrix: (Units=1/GPa)
#
#
# Indices 1 2 3 4 5 6 
#
# 1 0.023671 -0.002372 -0.006739 0.000000 0.000000 0.000000
# 2 -0.002372 0.010934 -0.004062 0.000000 0.000000 0.000000
# 3 -0.006739 -0.004062 0.011414 0.000000 0.000000 0.000000
# 4 0.000000 0.000000 0.000000 0.031703 0.000000 0.000000
# 5 0.000000 0.000000 0.000000 0.000000 0.014478 0.000000
# 6 0.000000 0.000000 0.000000 0.000000 0.000000 0.044931
#
#
# Mechanical properties :
#
#
# Convention : Reuss Voigt Hill
#
# Bulk Modulus (GPa) = 50.83142 64.42911 57.63026
# Shear Modulus (GPa) = 29.40598 36.54681 32.97639
#
# Velocity S-wave (km/s) = 3.92728 4.37823 4.15887
# Velocity P-wave (km/s) = 6.87211 7.70401 7.29992
#
# Compressibility (1/GPa) = 0.01967287
#
# Stress axis : x y z
#
# Youngs Moduli (GPa) = 42.24664 91.45861 87.61089
#
# Poissons Ratio (x) = 0.21692 0.59043
# Poissons Ratio (y) = 0.10020 0.35586
# Poissons Ratio (z) = 0.28471 0.37149
#
# Static dielectric constant tensor:
#      x y z
#    x 2.237790 0.000000 0.000000 
#    y 0.000000 1.761230 0.000000 
#    z 0.000000 0.000000 1.699460 
# 
# From -- ./inp_files/12710.got.cif
#   From: 2010.05.17/outbox.cif.g08.bks.cpg/sg54_7_cif.got.tgz:12710.got - 2010.06.03 13:09:01.
