data_PCOD9421942
_publ_section_title
;
Structure prediction by ZEFSAII (Michael W. Deem and Ramdas Pophale) SiO2 
 PCOD9421942
Probable space group: P C C A
;
_chemical_formula_sum "Si O2"
_cell_formula_units_Z 32
_cell_length_a 12.626749
_cell_length_b 9.812618
_cell_length_c 10.415826
_cell_angle_alpha 90.000000
_cell_angle_beta 90.000000
_cell_angle_gamma 90.000000
_cell_volume 1290.536096
_symmetry_space_group_name_H-M "P C C A"
_symmetry_group_IT_number 54
_symmetry_cell_setting 'orthorhombic'
loop_
_space_group_symop_operation_xyz
x,y,z
1/2-x,-y,z
1/2+x,-y,1/2-z
-x,y,1/2-z
-x,-y,-z
1/2+x,y,-z
1/2-x,y,1/2+z
x,-y,1/2+z
loop_
_atom_site_type_symbol
_atom_site_label
_atom_site_fract_x
_atom_site_fract_y
_atom_site_fract_z
Si Si1 0.412339 0.387932 0.864814
Si Si2 0.948440 0.313763 0.611335
Si Si3 0.848339 0.105777 0.180146
Si Si4 0.370423 0.056064 0.538832
O O1 0.500000 0.378822 0.750000
O O2 0.382460 0.546765 0.867220
O O3 0.330604 0.267296 0.832238
O O4 0.462880 0.354823 0.004714
O O5 0.883239 0.193267 0.544218
O O6 0.000000 0.274672 0.750000
O O7 0.902138 0.081602 0.316021
O O8 0.750000 0.000000 0.180992
O O9 0.913757 0.062589 0.053353
O O10 0.250000 0.000000 0.557556
#
# Coordination Sequence:
#
# PCOD9421942 Si02
#       4
#     8   8   8   8
#     4  10  20  40  64  92 130 162 211 267 316 377
#     4  10  22  38  64  96 125 168 210 264 325 375
#     4  10  22  40  62  90 127 170 214 260 315 384
#     4  10  22  41  61  89 128 169 214 258 318 388
#
# _framework density 24.795898000000001
#
# number of rings (size 3 to 8) (size 9 to 14) (size 15 to 20)
#    0.000    2.000    2.500    0.000    3.500    2.000 
#    0.000    5.000    0.000   15.000    0.000    0.000 
#    0.000    0.000    0.000    0.000    0.000    0.000 
#
# Total GULP energy -178431.983884 kJ/mol
# GULP energy per Si atom -5575.999496 kJ/mol
# Density = 2.473946 g / cm^3
# Si number density = 24.795898 Si / 1000 Ang^3
#
#
#
# Elastic Constant Matrix: (Units=GPa)
#
#
# Indices 1 2 3 4 5 6 
#
# 1 63.2333 58.4499 30.4288 0.0000 0.0000 0.0000
# 2 58.4499 229.2441 42.2111 0.0000 0.0000 0.0000
# 3 30.4288 42.2111 230.5736 0.0000 0.0000 0.0000
# 4 0.0000 0.0000 0.0000 57.7237 0.0000 0.0000
# 5 0.0000 0.0000 0.0000 0.0000 34.2337 0.0000
# 6 0.0000 0.0000 0.0000 0.0000 0.0000 48.7642
#
#
#
# Elastic Compliance Matrix: (Units=1/GPa)
#
#
# Indices 1 2 3 4 5 6 
#
# 1 0.021462 -0.005123 -0.001894 0.000000 0.000000 0.000000
# 2 -0.005123 0.005737 -0.000374 0.000000 0.000000 0.000000
# 3 -0.001894 -0.000374 0.004656 0.000000 0.000000 0.000000
# 4 0.000000 0.000000 0.000000 0.017324 0.000000 0.000000
# 5 0.000000 0.000000 0.000000 0.000000 0.029211 0.000000
# 6 0.000000 0.000000 0.000000 0.000000 0.000000 0.020507
#
#
# Mechanical properties :
#
#
# Convention : Reuss Voigt Hill
#
# Bulk Modulus (GPa) = 58.57925 87.24784 72.91354
# Shear Modulus (GPa) = 41.88645 54.27507 48.08076
#
# Velocity S-wave (km/s) = 4.11451 4.68361 4.40825
# Velocity P-wave (km/s) = 6.80059 8.03188 7.44175
#
# Compressibility (1/GPa) = 0.01707089
#
# Stress axis : x y z
#
# Youngs Moduli (GPa) = 46.59452 174.29708 214.79865
#
# Poissons Ratio (x) = 0.89297 0.40691
# Poissons Ratio (y) = 0.23871 0.08038
# Poissons Ratio (z) = 0.08827 0.06523
#
# Static dielectric constant tensor:
#      x y z
#    x -6.555940 0.000000 0.000000 
#    y 0.000000 1.955160 0.000000 
#    z 0.000000 0.000000 1.989390 
# 
# From -- ./inp_files/8066.got.cif
#   From: 2010.05.17/outbox.cif.g08.bks.cpg/sg54_5_cif.got.tgz:8066.got - 2010.06.03 13:09:01.
