data_PCOD9421864
_publ_section_title
;
Structure prediction by ZEFSAII (Michael W. Deem and Ramdas Pophale) SiO2 
 PCOD9421864
Probable space group: P C C A
;
_chemical_formula_sum "Si O2"
_cell_formula_units_Z 44
_cell_length_a 8.409586
_cell_length_b 17.839431
_cell_length_c 13.055222
_cell_angle_alpha 90.000000
_cell_angle_beta 90.000000
_cell_angle_gamma 90.000000
_cell_volume 1958.573507
_symmetry_space_group_name_H-M "P C C A"
_symmetry_group_IT_number 54
_symmetry_cell_setting 'orthorhombic'
loop_
_space_group_symop_operation_xyz
x,y,z
1/2-x,-y,z
1/2+x,-y,1/2-z
-x,y,1/2-z
-x,-y,-z
1/2+x,y,-z
1/2-x,y,1/2+z
x,-y,1/2+z
loop_
_atom_site_type_symbol
_atom_site_label
_atom_site_fract_x
_atom_site_fract_y
_atom_site_fract_z
Si Si1 0.996816 0.891401 0.061228
Si Si2 0.034912 0.202998 0.142743
Si Si3 0.108276 0.260223 0.655856
Si Si4 0.624904 0.338653 0.558325
Si Si5 0.628560 0.443704 0.953284
Si Si6 0.250000 0.000000 0.964945
O O1 0.044763 0.822927 0.131425
O O2 0.850724 0.940820 0.099707
O O3 0.949575 0.852174 0.952989
O O4 0.134968 0.949989 0.035198
O O5 0.200603 0.248308 0.157932
O O6 0.000000 0.163831 0.250000
O O7 0.886425 0.259471 0.116862
O O8 0.080900 0.313164 0.557587
O O9 0.000000 0.288328 0.750000
O O10 0.481568 0.386326 0.606914
O O11 0.773169 0.393944 0.537179
O O12 0.750000 0.500000 0.898117
O O13 0.500000 0.500000 0.000000
#
# Coordination Sequence:
#
# PCOD9421864 Si02
#       6
#     8   8   8   8   8   4
#     4  10  22  42  62  85 122 153 204 246 308 362
#     4  11  24  38  61  91 120 155 203 253 302 355
#     4  11  24  38  61  91 120 156 201 254 302 358
#     4  10  20  39  62  88 121 156 203 247 301 355
#     4   9  18  34  62  91 114 158 199 237 293 359
#     4  10  20  40  66  80 114 168 192 248 304 370
#
# _framework density 22.465332
#
# number of rings (size 3 to 8) (size 9 to 14) (size 15 to 20)
#    0.000    1.818    3.636    0.000    5.091    0.000 
#    0.000    5.455    0.000   16.364    0.000    0.000 
#    0.000    0.000    0.000    0.000    0.000    0.000 
#
# Total GULP energy -245053.615190 kJ/mol
# GULP energy per Si atom -5569.400345 kJ/mol
# Density = 2.241420 g / cm^3
# Si number density = 22.465332 Si / 1000 Ang^3
#
#
#
# Elastic Constant Matrix: (Units=GPa)
#
#
# Indices 1 2 3 4 5 6 
#
# 1 87.7461 41.8553 5.4043 0.0000 0.0000 0.0000
# 2 41.8553 102.9412 9.5699 0.0000 0.0000 0.0000
# 3 5.4043 9.5699 77.6951 0.0000 0.0000 0.0000
# 4 0.0000 0.0000 0.0000 -181.7736 0.0000 0.0000
# 5 0.0000 0.0000 0.0000 0.0000 5.3471 0.0000
# 6 0.0000 0.0000 0.0000 0.0000 0.0000 66.7692
#
#
#
# Elastic Compliance Matrix: (Units=1/GPa)
#
#
# Indices 1 2 3 4 5 6 
#
# 1 0.014145 -0.005725 -0.000279 0.000000 0.000000 0.000000
# 2 -0.005725 0.012144 -0.001098 0.000000 0.000000 0.000000
# 3 -0.000279 -0.001098 0.013025 0.000000 0.000000 0.000000
# 4 0.000000 0.000000 0.000000 -0.005501 0.000000 0.000000
# 5 0.000000 0.000000 0.000000 0.000000 0.187018 0.000000
# 6 0.000000 0.000000 0.000000 0.000000 0.000000 0.014977
#
#
# Mechanical properties :
#
#
# Convention : Reuss Voigt Hill
#
# Bulk Modulus (GPa) = 39.82286 42.44906 41.13596
# Shear Modulus (GPa) = 19.35126 -7.82795 5.76166
#
# Velocity S-wave (km/s) = 2.93812 -1.86869 1.60320
# Velocity P-wave (km/s) = 5.41063 3.77894 4.66665
#
# Compressibility (1/GPa) = 0.02511120
#
# Stress axis : x y z
#
# Youngs Moduli (GPa) = 70.69813 82.34412 76.77309
#
# Poissons Ratio (x) = 0.47144 0.02140
# Poissons Ratio (y) = 0.40476 0.08427
# Poissons Ratio (z) = 0.01970 0.09038
#
# Static dielectric constant tensor:
#      x y z
#    x 1.946580 0.000000 0.000000 
#    y 0.000000 1.825920 0.000000 
#    z 0.000000 0.000000 1.790940 
# 
# From -- ./inp_files/11647.got.cif
#   From: 2010.05.17/outbox.cif.g08.bks.cpg/sg54_6_cif.got.tgz:11647.got - 2010.06.03 13:09:01.
