data_PCOD9421801
_publ_section_title
;
Structure prediction by ZEFSAII (Michael W. Deem and Ramdas Pophale) SiO2 
 PCOD9421801
Probable space group: P C C A
;
_chemical_formula_sum "Si O2"
_cell_formula_units_Z 48
_cell_length_a 8.979047
_cell_length_b 8.219482
_cell_length_c 30.606271
_cell_angle_alpha 90.000000
_cell_angle_beta 90.000000
_cell_angle_gamma 90.000000
_cell_volume 2258.838144
_symmetry_space_group_name_H-M "P C C A"
_symmetry_group_IT_number 54
_symmetry_cell_setting 'orthorhombic'
loop_
_space_group_symop_operation_xyz
x,y,z
1/2-x,-y,z
1/2+x,-y,1/2-z
-x,y,1/2-z
-x,-y,-z
1/2+x,y,-z
1/2-x,y,1/2+z
x,-y,1/2+z
loop_
_atom_site_type_symbol
_atom_site_label
_atom_site_fract_x
_atom_site_fract_y
_atom_site_fract_z
Si Si1 0.398621 0.420487 0.568563
Si Si2 0.975514 0.175110 0.358595
Si Si3 0.116345 0.121065 0.897088
Si Si4 0.750000 0.000000 0.809401
Si Si5 0.865990 0.350721 0.526332
Si Si6 0.000000 0.845658 0.250000
Si Si7 0.724812 0.690644 0.680699
O O1 0.250000 0.500000 0.587249
O O2 0.480327 0.315773 0.604922
O O3 0.485782 0.569216 0.546167
O O4 0.367598 0.313415 0.525060
O O5 0.114709 0.216951 0.326034
O O6 0.816041 0.155757 0.335342
O O7 0.984532 0.000046 0.383891
O O8 0.148531 0.190772 0.944748
O O9 0.132247 0.268886 0.863397
O O10 0.250000 0.000000 0.886689
O O11 0.606489 0.948909 0.781476
O O12 0.750000 0.500000 0.532893
O O13 0.880182 0.750199 0.220076
O O14 0.750000 0.500000 0.684501
#
# Coordination Sequence:
#
# PCOD9421801 Si02
#       7
#     8   8   8   4   8   4   8
#     4  10  23  39  62  94 134 179 225 268 326 378
#     4  11  24  41  64  99 132 176 217 274 330 403
#     4  10  20  38  64  96 126 169 221 261 327 384
#     4  12  26  44  68  96 136 168 216 274 342 406
#     4  10  20  40  63  91 131 180 224 272 321 387
#     4  12  26  46  72  96 126 174 212 278 338 408
#     4  11  24  44  71  97 129 167 220 270 332 399
#
# _framework density 21.249860999999999
#
# number of rings (size 3 to 8) (size 9 to 14) (size 15 to 20)
#    0.000    1.333    1.667    4.500    3.500    3.333 
#    1.500    0.000    0.000    0.000    0.000    0.000 
#    0.000    0.000    0.000    0.000    0.000    0.000 
#
# Total GULP energy -267452.185682 kJ/mol
# GULP energy per Si atom -5571.920535 kJ/mol
# Density = 2.120150 g / cm^3
# Si number density = 21.249861 Si / 1000 Ang^3
#
#
#
# Elastic Constant Matrix: (Units=GPa)
#
#
# Indices 1 2 3 4 5 6 
#
# 1 93.3616 24.7495 23.5844 0.0000 0.0000 0.0000
# 2 24.7495 73.1931 29.0146 0.0000 0.0000 0.0000
# 3 23.5844 29.0146 84.9685 0.0000 0.0000 0.0000
# 4 0.0000 0.0000 0.0000 19.2786 0.0000 0.0000
# 5 0.0000 0.0000 0.0000 0.0000 23.2680 0.0000
# 6 0.0000 0.0000 0.0000 0.0000 0.0000 24.9953
#
#
#
# Elastic Compliance Matrix: (Units=1/GPa)
#
#
# Indices 1 2 3 4 5 6 
#
# 1 0.012134 -0.003201 -0.002275 0.000000 0.000000 0.000000
# 2 -0.003201 0.016646 -0.004796 0.000000 0.000000 0.000000
# 3 -0.002275 -0.004796 0.014038 0.000000 0.000000 0.000000
# 4 0.000000 0.000000 0.000000 0.051871 0.000000 0.000000
# 5 0.000000 0.000000 0.000000 0.000000 0.042977 0.000000
# 6 0.000000 0.000000 0.000000 0.000000 0.000000 0.040007
#
#
# Mechanical properties :
#
#
# Convention : Reuss Voigt Hill
#
# Bulk Modulus (GPa) = 44.89383 45.13557 45.01470
# Shear Modulus (GPa) = 24.31399 25.12004 24.71702
#
# Velocity S-wave (km/s) = 3.38627 3.44194 3.41422
# Velocity P-wave (km/s) = 6.03834 6.08953 6.06399
#
# Compressibility (1/GPa) = 0.02227477
#
# Stress axis : x y z
#
# Youngs Moduli (GPa) = 82.41059 60.07438 71.23481
#
# Poissons Ratio (x) = 0.19232 0.16205
# Poissons Ratio (y) = 0.26382 0.34161
# Poissons Ratio (z) = 0.18748 0.28809
#
# Static dielectric constant tensor:
#      x y z
#    x 2.446840 0.000000 0.000000 
#    y 0.000000 1.821770 0.000000 
#    z 0.000000 0.000000 1.883960 
# 
# From -- ./inp_files/27788.got.cif
#   From: 2010.05.17/outbox.cif.g08.bks.cpg/sg54_14_cif.got.tgz:27788.got - 2010.06.03 13:09:01.
