data_PCOD9421150
_publ_section_title
;
Structure prediction by ZEFSAII (Michael W. Deem and Ramdas Pophale) SiO2 
 PCOD9421150
Probable space group: P C C A
;
_chemical_formula_sum "Si O2"
_cell_formula_units_Z 36
_cell_length_a 5.077690
_cell_length_b 12.155268
_cell_length_c 28.750615
_cell_angle_alpha 90.000000
_cell_angle_beta 90.000000
_cell_angle_gamma 90.000000
_cell_volume 1774.507588
_symmetry_space_group_name_H-M "P C C A"
_symmetry_group_IT_number 54
_symmetry_cell_setting 'orthorhombic'
loop_
_space_group_symop_operation_xyz
x,y,z
1/2-x,-y,z
1/2+x,-y,1/2-z
-x,y,1/2-z
-x,-y,-z
1/2+x,y,-z
1/2-x,y,1/2+z
x,-y,1/2+z
loop_
_atom_site_type_symbol
_atom_site_label
_atom_site_fract_x
_atom_site_fract_y
_atom_site_fract_z
Si Si1 0.741601 0.758435 0.313518
Si Si2 0.500000 0.572590 0.750000
Si Si3 0.240849 0.237266 0.878367
Si Si4 0.257870 0.367899 0.470885
Si Si5 0.250000 0.000000 0.374299
Si Si6 0.750000 0.000000 0.307166
O O1 0.841641 0.655145 0.284075
O O2 0.455013 0.747065 0.337137
O O3 0.748515 0.876453 0.285667
O O4 0.952971 0.761712 0.355412
O O5 0.250000 0.500000 0.769246
O O6 0.276663 0.323204 0.919202
O O7 0.271459 0.115125 0.900085
O O8 0.250000 0.500000 0.468827
O O9 0.530641 0.332019 0.493793
O O10 0.497432 0.001738 0.339964
#
# Coordination Sequence:
#
# PCOD9421150 Si02
#       6
#     8   4   8   8   4   4
#     4  10  21  38  60  84 111 151 191 234 284 337
#     4  12  26  42  56  84 128 156 188 242 288 336
#     4  10  19  36  60  82 109 147 188 225 285 347
#     4  10  21  36  53  78 110 142 184 235 272 315
#     4   8  16  30  53  83 110 134 174 236 278 325
#     4   8  16  34  57  81 106 138 190 238 276 323
#
# _framework density 20.287317999999999
#
# number of rings (size 3 to 8) (size 9 to 14) (size 15 to 20)
#    0.000    2.222    0.000    2.667    0.000    2.667 
#    0.000    8.889    0.000    0.000    0.000    0.000 
#    0.000    0.000    0.000    0.000    0.000    0.000 
#
# Total GULP energy -200583.138438 kJ/mol
# GULP energy per Si atom -5571.753846 kJ/mol
# Density = 2.024114 g / cm^3
# Si number density = 20.287318 Si / 1000 Ang^3
#
#
#
# Elastic Constant Matrix: (Units=GPa)
#
#
# Indices 1 2 3 4 5 6 
#
# 1 107.0158 17.9645 -0.0599 0.0000 0.0000 0.0000
# 2 17.9645 87.5295 26.7682 0.0000 0.0000 0.0000
# 3 -0.0599 26.7682 36.9392 0.0000 0.0000 0.0000
# 4 0.0000 0.0000 0.0000 110.5345 0.0000 0.0000
# 5 0.0000 0.0000 0.0000 0.0000 25.4627 0.0000
# 6 0.0000 0.0000 0.0000 0.0000 0.0000 26.2413
#
#
#
# Elastic Compliance Matrix: (Units=1/GPa)
#
#
# Indices 1 2 3 4 5 6 
#
# 1 0.009779 -0.002585 0.001889 0.000000 0.000000 0.000000
# 2 -0.002585 0.015361 -0.011135 0.000000 0.000000 0.000000
# 3 0.001889 -0.011135 0.035144 0.000000 0.000000 0.000000
# 4 0.000000 0.000000 0.000000 0.009047 0.000000 0.000000
# 5 0.000000 0.000000 0.000000 0.000000 0.039273 0.000000
# 6 0.000000 0.000000 0.000000 0.000000 0.000000 0.038108
#
#
# Mechanical properties :
#
#
# Convention : Reuss Voigt Hill
#
# Bulk Modulus (GPa) = 27.30639 35.64779 31.47709
# Shear Modulus (GPa) = 27.38505 44.90182 36.14344
#
# Velocity S-wave (km/s) = 3.67803 4.70967 4.22545
# Velocity P-wave (km/s) = 5.61483 6.86908 6.27338
#
# Compressibility (1/GPa) = 0.03662146
#
# Stress axis : x y z
#
# Youngs Moduli (GPa) = 102.25598 65.10145 28.45447
#
# Poissons Ratio (x) = 0.16827 -0.05375
# Poissons Ratio (y) = 0.26431 0.31685
# Poissons Ratio (z) = -0.19316 0.72493
#
# Static dielectric constant tensor:
#      x y z
#    x 1.754490 0.000000 0.000000 
#    y 0.000000 1.811150 0.000000 
#    z 0.000000 0.000000 1.651710 
# 
# From -- ./inp_files/22713.got.cif
#   From: 2010.05.17/outbox.cif.g08.bks.cpg/sg54_12_cif.got.tgz:22713.got - 2010.06.03 13:09:01.
