data_PCOD9421741
_publ_section_title
;
Structure prediction by ZEFSAII (Michael W. Deem and Ramdas Pophale) SiO2 
 PCOD9421741
Probable space group: P C C A
;
_chemical_formula_sum "Si O2"
_cell_formula_units_Z 40
_cell_length_a 9.290981
_cell_length_b 16.017618
_cell_length_c 11.781957
_cell_angle_alpha 90.000000
_cell_angle_beta 90.000000
_cell_angle_gamma 90.000000
_cell_volume 1753.383589
_symmetry_space_group_name_H-M "P C C A"
_symmetry_group_IT_number 54
_symmetry_cell_setting 'orthorhombic'
loop_
_space_group_symop_operation_xyz
x,y,z
1/2-x,-y,z
1/2+x,-y,1/2-z
-x,y,1/2-z
-x,-y,-z
1/2+x,y,-z
1/2-x,y,1/2+z
x,-y,1/2+z
loop_
_atom_site_type_symbol
_atom_site_label
_atom_site_fract_x
_atom_site_fract_y
_atom_site_fract_z
Si Si1 0.845250 0.333773 0.200809
Si Si2 0.368257 0.560516 0.510364
Si Si3 0.368504 0.058514 0.542494
Si Si4 0.873157 0.836263 0.563538
Si Si5 0.100269 0.279195 0.642746
O O1 0.803949 0.403534 0.108203
O O2 0.840924 0.244816 0.136527
O O3 0.747273 0.316030 0.308476
O O4 0.000000 0.354945 0.250000
O O5 0.250000 0.500000 0.568655
O O6 0.500000 0.500000 0.500000
O O7 0.441570 0.642938 0.564973
O O8 0.470296 0.127751 0.600887
O O9 0.265049 0.101812 0.447019
O O10 0.250000 0.000000 0.605684
O O11 0.500000 0.000000 0.500000
O O12 0.889755 0.802472 0.434320
O O13 0.000000 0.265002 0.750000
#
# Coordination Sequence:
#
# PCOD9421741 Si02
#       5
#     8   8   8   8   8
#     4  11  23  38  60  86 113 153 195 234 285 337
#     4  11  24  40  58  85 118 150 192 241 286 338
#     4   9  18  34  62  87 112 154 186 225 292 338
#     4  10  20  38  60  84 116 150 192 236 276 340
#     4  11  23  38  60  86 113 153 195 234 285 337
#
# _framework density 22.813036
#
# number of rings (size 3 to 8) (size 9 to 14) (size 15 to 20)
#    0.000    1.600    0.000    4.800    0.000   11.200 
#    0.000    0.000    0.000   84.000    0.000    0.000 
#    0.000    0.000    0.000    0.000    0.000    0.000 
#
# Total GULP energy -222872.406936 kJ/mol
# GULP energy per Si atom -5571.810173 kJ/mol
# Density = 2.276111 g / cm^3
# Si number density = 22.813036 Si / 1000 Ang^3
#
#
#
# Elastic Constant Matrix: (Units=GPa)
#
#
# Indices 1 2 3 4 5 6 
#
# 1 119.0586 24.3062 -4.5033 0.0000 0.0000 0.0000
# 2 24.3062 111.5336 10.8814 0.0000 0.0000 0.0000
# 3 -4.5033 10.8814 40.3902 0.0000 0.0000 0.0000
# 4 0.0000 0.0000 0.0000 -0.4621 0.0000 0.0000
# 5 0.0000 0.0000 0.0000 0.0000 18.5311 0.0000
# 6 0.0000 0.0000 0.0000 0.0000 0.0000 39.2364
#
#
#
# Elastic Compliance Matrix: (Units=1/GPa)
#
#
# Indices 1 2 3 4 5 6 
#
# 1 0.008884 -0.002088 0.001553 0.000000 0.000000 0.000000
# 2 -0.002088 0.009698 -0.002846 0.000000 0.000000 0.000000
# 3 0.001553 -0.002846 0.025698 0.000000 0.000000 0.000000
# 4 0.000000 0.000000 0.000000 -2.163917 0.000000 0.000000
# 5 0.000000 0.000000 0.000000 0.000000 0.053963 0.000000
# 6 0.000000 0.000000 0.000000 0.000000 0.000000 0.025487
#
#
# Mechanical properties :
#
#
# Convention : Reuss Voigt Hill
#
# Bulk Modulus (GPa) = 26.65219 36.92789 31.79004
# Shear Modulus (GPa) = -2.47412 27.48094 12.50341
#
# Velocity S-wave (km/s) = -1.04253 3.47452 2.34365
# Velocity P-wave (km/s) = 3.20298 5.68496 4.61399
#
# Compressibility (1/GPa) = 0.03752037
#
# Stress axis : x y z
#
# Youngs Moduli (GPa) = 112.55993 103.10901 38.91317
#
# Poissons Ratio (x) = 0.21525 -0.06043
# Poissons Ratio (y) = 0.23498 0.11073
# Poissons Ratio (z) = -0.17480 0.29341
#
# Static dielectric constant tensor:
#      x y z
#    x 1.829360 0.000000 0.000000 
#    y 0.000000 1.842090 0.000000 
#    z 0.000000 0.000000 1.875780 
# 
# From -- ./inp_files/6863.got.cif
#   From: 2010.05.17/outbox.cif.g08.bks.cpg/sg54_4_cif.got.tgz:6863.got - 2010.06.03 13:09:01.
