data_PCOD9421301
_publ_section_title
;
Structure prediction by ZEFSAII (Michael W. Deem and Ramdas Pophale) SiO2 
 PCOD9421301
Probable space group: P C C A
;
_chemical_formula_sum "Si O2"
_cell_formula_units_Z 48
_cell_length_a 9.128289
_cell_length_b 14.120806
_cell_length_c 17.781273
_cell_angle_alpha 90.000000
_cell_angle_beta 90.000000
_cell_angle_gamma 90.000000
_cell_volume 2291.984718
_symmetry_space_group_name_H-M "P C C A"
_symmetry_group_IT_number 54
_symmetry_cell_setting 'orthorhombic'
loop_
_space_group_symop_operation_xyz
x,y,z
1/2-x,-y,z
1/2+x,-y,1/2-z
-x,y,1/2-z
-x,-y,-z
1/2+x,y,-z
1/2-x,y,1/2+z
x,-y,1/2+z
loop_
_atom_site_type_symbol
_atom_site_label
_atom_site_fract_x
_atom_site_fract_y
_atom_site_fract_z
Si Si1 0.663188 0.094176 0.784546
Si Si2 0.398190 0.636264 0.181244
Si Si3 0.596517 0.449090 0.562992
Si Si4 0.919647 0.185499 0.427126
Si Si5 0.331326 0.717036 0.769888
Si Si6 0.730346 0.250260 0.562563
O O1 0.500000 0.095249 0.750000
O O2 0.646863 0.104241 0.874873
O O3 0.752945 0.185784 0.756651
O O4 0.750000 0.000000 0.763721
O O5 0.500000 0.669678 0.250000
O O6 0.491641 0.558540 0.136351
O O7 0.385622 0.718389 0.119506
O O8 0.243278 0.630429 0.223271
O O9 0.750000 0.500000 0.579010
O O10 0.500000 0.500000 0.500000
O O11 0.648150 0.345396 0.533418
O O12 0.847894 0.203931 0.507548
O O13 0.095135 0.178321 0.427554
O O14 0.500000 0.720438 0.750000
O O15 0.299532 0.715779 0.858723
#
# Coordination Sequence:
#
# PCOD9421301 Si02
#       6
#     8   8   8   8   8   8
#     4  11  22  44  69  98 138 177 219 284 340 396
#     4  10  19  43  66  88 130 174 222 277 329 401
#     4  11  23  43  65  97 135 177 223 285 358 404
#     4  10  21  38  66  96 131 173 219 271 327 405
#     4  11  22  41  73 100 130 179 241 273 330 412
#     4  11  22  42  68  96 131 177 227 276 334 415
#
# _framework density 20.942547000000001
#
# number of rings (size 3 to 8) (size 9 to 14) (size 15 to 20)
#    0.000    1.333    5.000    3.500    4.667    0.000 
#    3.000    5.000    0.000    0.000    0.000    0.000 
#    0.000    0.000    0.000    0.000    0.000    0.000 
#
# Total GULP energy -267765.870005 kJ/mol
# GULP energy per Si atom -5578.455625 kJ/mol
# Density = 2.089488 g / cm^3
# Si number density = 20.942547 Si / 1000 Ang^3
#
#
#
# Elastic Constant Matrix: (Units=GPa)
#
#
# Indices 1 2 3 4 5 6 
#
# 1 176.8763 35.5972 74.8655 0.0000 0.0000 0.0000
# 2 35.5972 50.7303 13.6502 0.0000 0.0000 0.0000
# 3 74.8655 13.6502 130.4257 0.0000 0.0000 0.0000
# 4 0.0000 0.0000 0.0000 12.7650 0.0000 0.0000
# 5 0.0000 0.0000 0.0000 0.0000 29.0224 0.0000
# 6 0.0000 0.0000 0.0000 0.0000 0.0000 31.9355
#
#
#
# Elastic Compliance Matrix: (Units=1/GPa)
#
#
# Indices 1 2 3 4 5 6 
#
# 1 0.008455 -0.004761 -0.004355 0.000000 0.000000 0.000000
# 2 -0.004761 0.022964 0.000330 0.000000 0.000000 0.000000
# 3 -0.004355 0.000330 0.010133 0.000000 0.000000 0.000000
# 4 0.000000 0.000000 0.000000 0.078339 0.000000 0.000000
# 5 0.000000 0.000000 0.000000 0.000000 0.034456 0.000000
# 6 0.000000 0.000000 0.000000 0.000000 0.000000 0.031313
#
#
# Mechanical properties :
#
#
# Convention : Reuss Voigt Hill
#
# Bulk Modulus (GPa) = 41.70373 67.36200 54.53287
# Shear Modulus (GPa) = 23.67123 30.33922 27.00522
#
# Velocity S-wave (km/s) = 3.36563 3.81029 3.59484
# Velocity P-wave (km/s) = 5.92114 7.18281 6.58227
#
# Compressibility (1/GPa) = 0.02397867
#
# Stress axis : x y z
#
# Youngs Moduli (GPa) = 118.27017 43.54588 98.69174
#
# Poissons Ratio (x) = 0.20733 0.42981
# Poissons Ratio (y) = 0.56310 -0.03252
# Poissons Ratio (z) = 0.51507 -0.01435
#
# Static dielectric constant tensor:
#      x y z
#    x 1.787130 0.000000 0.000000 
#    y 0.000000 1.795160 0.000000 
#    z 0.000000 0.000000 1.770510 
# 
# From -- ./inp_files/16591.got.cif
#   From: 2010.05.17/outbox.cif.g08.bks.cpg/sg54_9_cif.got.tgz:16591.got - 2010.06.03 13:09:01.
