data_PCOD9421745
_publ_section_title
;
Structure prediction by ZEFSAII (Michael W. Deem and Ramdas Pophale) SiO2 
 PCOD9421745
Probable space group: P C C A
;
_chemical_formula_sum "Si O2"
_cell_formula_units_Z 48
_cell_length_a 9.320340
_cell_length_b 14.159856
_cell_length_c 18.469029
_cell_angle_alpha 90.000000
_cell_angle_beta 90.000000
_cell_angle_gamma 90.000000
_cell_volume 2437.444049
_symmetry_space_group_name_H-M "P C C A"
_symmetry_group_IT_number 54
_symmetry_cell_setting 'orthorhombic'
loop_
_space_group_symop_operation_xyz
x,y,z
1/2-x,-y,z
1/2+x,-y,1/2-z
-x,y,1/2-z
-x,-y,-z
1/2+x,y,-z
1/2-x,y,1/2+z
x,-y,1/2+z
loop_
_atom_site_type_symbol
_atom_site_label
_atom_site_fract_x
_atom_site_fract_y
_atom_site_fract_z
Si Si1 0.272851 0.739330 0.668906
Si Si2 0.123624 0.921137 0.441167
Si Si3 0.143817 0.178049 0.523598
Si Si4 0.060350 0.236327 0.366147
Si Si5 0.228369 0.107414 0.787743
Si Si6 0.834899 0.591533 0.725831
O O1 0.355157 0.755136 0.593698
O O2 0.316478 0.821128 0.725147
O O3 0.262307 0.639267 0.710325
O O4 0.105474 0.756695 0.651584
O O5 0.196784 0.852797 0.500481
O O6 0.124844 0.888678 0.357332
O O7 0.955614 0.914894 0.461534
O O8 0.250000 0.000000 0.437558
O O9 0.087945 0.226610 0.450763
O O10 0.124120 0.146688 0.323123
O O11 0.143650 0.326231 0.333395
O O12 0.250000 0.000000 0.762521
O O13 0.750000 0.500000 0.700075
O O14 0.000000 0.570316 0.750000
#
# Coordination Sequence:
#
# PCOD9421745 Si02
#       6
#     8   8   8   8   8   8
#     4  10  20  38  60  86 115 155 194 242 298 350
#     4  10  21  36  53  80 116 157 201 246 283 337
#     4  11  20  37  58  81 116 154 199 240 294 347
#     4   9  19  39  62  79 117 160 189 234 303 354
#     4   9  19  36  54  82 112 152 200 243 282 340
#     4   9  19  40  65  90 115 148 194 242 299 366
#
# _framework density 19.692758999999999
#
# number of rings (size 3 to 8) (size 9 to 14) (size 15 to 20)
#    0.000    2.333    1.667    2.000    0.000    1.333 
#   24.000    0.833    0.000    4.000    0.000    0.000 
#    0.000    0.000    0.000    0.000    0.000    0.000 
#
# Total GULP energy -267240.044288 kJ/mol
# GULP energy per Si atom -5567.500923 kJ/mol
# Density = 1.964794 g / cm^3
# Si number density = 19.692759 Si / 1000 Ang^3
#
#
#
# Elastic Constant Matrix: (Units=GPa)
#
#
# Indices 1 2 3 4 5 6 
#
# 1 56.6028 24.6030 15.5579 0.0000 0.0000 0.0000
# 2 24.6030 86.1988 22.8340 0.0000 0.0000 0.0000
# 3 15.5579 22.8340 113.0896 0.0000 0.0000 0.0000
# 4 0.0000 0.0000 0.0000 7.4006 0.0000 0.0000
# 5 0.0000 0.0000 0.0000 0.0000 -2.5889 0.0000
# 6 0.0000 0.0000 0.0000 0.0000 0.0000 15.4595
#
#
#
# Elastic Compliance Matrix: (Units=1/GPa)
#
#
# Indices 1 2 3 4 5 6 
#
# 1 0.020485 -0.005388 -0.001730 0.000000 0.000000 0.000000
# 2 -0.005388 0.013674 -0.002020 0.000000 0.000000 0.000000
# 3 -0.001730 -0.002020 0.009488 0.000000 0.000000 0.000000
# 4 0.000000 0.000000 0.000000 0.135124 0.000000 0.000000
# 5 0.000000 0.000000 0.000000 0.000000 -0.386258 0.000000
# 6 0.000000 0.000000 0.000000 0.000000 0.000000 0.064685
#
#
# Mechanical properties :
#
#
# Convention : Reuss Voigt Hill
#
# Bulk Modulus (GPa) = 39.41562 42.43122 40.92342
# Shear Modulus (GPa) = -43.07787 16.91399 -13.08194
#
# Velocity S-wave (km/s) = -4.68214 2.93387 -2.58020
# Velocity P-wave (km/s) = 3.02840 5.75067 3.45680
#
# Compressibility (1/GPa) = 0.02537066
#
# Stress axis : x y z
#
# Youngs Moduli (GPa) = 48.81699 73.13107 105.39241
#
# Poissons Ratio (x) = 0.39406 0.18234
# Poissons Ratio (y) = 0.26305 0.21286
# Poissons Ratio (z) = 0.08446 0.14770
#
# Static dielectric constant tensor:
#      x y z
#    x 1.701160 0.000000 0.000000 
#    y 0.000000 1.738830 0.000000 
#    z 0.000000 0.000000 1.714150 
# 
# From -- ./inp_files/16600.got.cif
#   From: 2010.05.17/outbox.cif.g08.bks.cpg/sg54_9_cif.got.tgz:16600.got - 2010.06.03 13:09:01.
