data_PCOD9421075
_publ_section_title
;
Structure prediction by ZEFSAII (Michael W. Deem and Ramdas Pophale) SiO2 
 PCOD9421075
Probable space group: P C C A
;
_chemical_formula_sum "Si O2"
_cell_formula_units_Z 64
_cell_length_a 11.891983
_cell_length_b 12.244404
_cell_length_c 23.557489
_cell_angle_alpha 90.000000
_cell_angle_beta 90.000000
_cell_angle_gamma 90.000000
_cell_volume 3430.211726
_symmetry_space_group_name_H-M "P C C A"
_symmetry_group_IT_number 54
_symmetry_cell_setting 'orthorhombic'
loop_
_space_group_symop_operation_xyz
x,y,z
1/2-x,-y,z
1/2+x,-y,1/2-z
-x,y,1/2-z
-x,-y,-z
1/2+x,y,-z
1/2-x,y,1/2+z
x,-y,1/2+z
loop_
_atom_site_type_symbol
_atom_site_label
_atom_site_fract_x
_atom_site_fract_y
_atom_site_fract_z
Si Si1 0.196839 0.879062 0.710547
Si Si2 0.993280 0.599672 0.078652
Si Si3 0.269445 0.274754 0.420563
Si Si4 0.186853 0.886954 0.836733
Si Si5 0.332383 0.821019 0.040142
Si Si6 0.871226 0.202499 0.872581
Si Si7 0.520527 0.640817 0.054453
Si Si8 0.962729 0.035644 0.386115
O O1 0.153592 0.850108 0.773109
O O2 0.294978 0.803343 0.684242
O O3 0.101916 0.896968 0.663342
O O4 0.250000 0.000000 0.713027
O O5 0.861784 0.630379 0.082471
O O6 0.009499 0.470947 0.087072
O O7 0.060971 0.686385 0.116801
O O8 0.028739 0.619365 0.013177
O O9 0.267432 0.201449 0.364762
O O10 0.304583 0.200967 0.474742
O O11 0.143115 0.318384 0.427639
O O12 0.087131 0.917490 0.880235
O O13 0.250000 0.000000 0.829421
O O14 0.218597 0.811781 0.076285
O O15 0.420883 0.728224 0.060180
O O16 0.396839 0.932516 0.056394
O O17 0.949074 0.093505 0.874628
#
# Coordination Sequence:
#
# PCOD9421075 Si02
#       8
#     8   8   8   8   8   8   8   8
#     4   8  18  34  56  81 110 146 190 234 283 336
#     4  10  21  35  57  81 112 149 192 240 289 332
#     4  11  21  36  52  84 114 150 192 235 287 350
#     4  11  21  34  53  85 115 151 190 231 287 351
#     4  10  20  35  56  82 114 150 190 229 294 350
#     4  10  19  36  56  86 114 149 190 241 291 344
#     4  10  20  37  55  81 111 150 194 239 280 345
#     4  10  19  35  57  80 116 150 189 233 289 350
#
# _framework density 18.65774
#
# number of rings (size 3 to 8) (size 9 to 14) (size 15 to 20)
#    0.000    2.000    2.500    2.625    0.000    1.500 
#    0.000    4.375    0.000    0.000   19.500    0.000 
#    0.000    0.000    0.000    0.000    0.000    0.000 
#
# Total GULP energy -356756.666007 kJ/mol
# GULP energy per Si atom -5574.322906 kJ/mol
# Density = 1.861527 g / cm^3
# Si number density = 18.657740 Si / 1000 Ang^3
#
#
#
# Elastic Constant Matrix: (Units=GPa)
#
#
# Indices 1 2 3 4 5 6 
#
# 1 54.0676 22.3919 4.4414 0.0000 0.0000 0.0000
# 2 22.3919 82.7324 24.8312 0.0000 0.0000 0.0000
# 3 4.4414 24.8312 47.4132 0.0000 0.0000 0.0000
# 4 0.0000 0.0000 0.0000 8.7380 0.0000 0.0000
# 5 0.0000 0.0000 0.0000 0.0000 16.1339 0.0000
# 6 0.0000 0.0000 0.0000 0.0000 0.0000 22.0550
#
#
#
# Elastic Compliance Matrix: (Units=1/GPa)
#
#
# Indices 1 2 3 4 5 6 
#
# 1 0.020887 -0.006011 0.001191 0.000000 0.000000 0.000000
# 2 -0.006011 0.016071 -0.007854 0.000000 0.000000 0.000000
# 3 0.001191 -0.007854 0.025093 0.000000 0.000000 0.000000
# 4 0.000000 0.000000 0.000000 0.114443 0.000000 0.000000
# 5 0.000000 0.000000 0.000000 0.000000 0.061981 0.000000
# 6 0.000000 0.000000 0.000000 0.000000 0.000000 0.045341
#
#
# Mechanical properties :
#
#
# Convention : Reuss Voigt Hill
#
# Bulk Modulus (GPa) = 27.24454 31.94914 29.59684
# Shear Modulus (GPa) = 15.55706 18.22195 16.88950
#
# Velocity S-wave (km/s) = 2.89071 3.12852 3.01196
# Velocity P-wave (km/s) = 5.07697 5.49647 5.29088
#
# Compressibility (1/GPa) = 0.03670460
#
# Stress axis : x y z
#
# Youngs Moduli (GPa) = 47.87709 62.22311 39.85216
#
# Poissons Ratio (x) = 0.37400 -0.04748
# Poissons Ratio (y) = 0.28777 0.31299
# Poissons Ratio (z) = -0.05704 0.48869
#
# Static dielectric constant tensor:
#      x y z
#    x 1.659380 0.000000 0.000000 
#    y 0.000000 1.651590 0.000000 
#    z 0.000000 0.000000 1.665400 
# 
# From -- ./inp_files/24239.got.cif
#   From: 2010.05.17/outbox.cif.g08.bks.cpg/sg54_13_cif.got.tgz:24239.got - 2010.06.03 13:09:01.
