data_PCOD9421067
_publ_section_title
;
Structure prediction by ZEFSAII (Michael W. Deem and Ramdas Pophale) SiO2 
 PCOD9421067
Probable space group: P C C A
;
_chemical_formula_sum "Si O2"
_cell_formula_units_Z 44
_cell_length_a 8.820064
_cell_length_b 12.076678
_cell_length_c 21.299701
_cell_angle_alpha 90.000000
_cell_angle_beta 90.000000
_cell_angle_gamma 90.000000
_cell_volume 2268.781803
_symmetry_space_group_name_H-M "P C C A"
_symmetry_group_IT_number 54
_symmetry_cell_setting 'orthorhombic'
loop_
_space_group_symop_operation_xyz
x,y,z
1/2-x,-y,z
1/2+x,-y,1/2-z
-x,y,1/2-z
-x,-y,-z
1/2+x,y,-z
1/2-x,y,1/2+z
x,-y,1/2+z
loop_
_atom_site_type_symbol
_atom_site_label
_atom_site_fract_x
_atom_site_fract_y
_atom_site_fract_z
Si Si1 0.000000 0.372887 0.750000
Si Si2 0.250000 0.000000 0.838413
Si Si3 0.556694 0.911017 0.552342
Si Si4 0.750000 0.500000 0.333428
Si Si5 0.780497 0.758694 0.712961
Si Si6 0.257070 0.131041 0.558320
Si Si7 0.419561 0.290280 0.649631
O O1 0.115695 0.447874 0.709689
O O2 0.113790 0.295176 0.790206
O O3 0.386997 0.970480 0.885524
O O4 0.221479 0.889673 0.799288
O O5 0.416269 0.831748 0.566409
O O6 0.695285 0.857464 0.514501
O O7 0.500000 0.000000 0.500000
O O8 0.663606 0.596729 0.370452
O O9 0.843123 0.737924 0.782996
O O10 0.901825 0.705699 0.664666
O O11 0.374445 0.195785 0.600846
O O12 0.250000 0.000000 0.575852
#
# Coordination Sequence:
#
# PCOD9421067 Si02
#       7
#     4   4   8   4   8   8   8
#     4  10  20  38  58  82 114 158 198 242 286 348
#     4  12  22  34  56  88 130 150 194 228 292 368
#     4  10  19  35  54  81 111 159 197 235 278 348
#     4  10  20  38  60  80 110 150 210 240 286 338
#     4  10  23  35  55  89 122 155 186 232 299 351
#     4  10  20  35  59  82 116 152 197 235 296 347
#     4  10  22  39  57  85 116 157 190 245 289 344
#
# _framework density 19.393666
#
# number of rings (size 3 to 8) (size 9 to 14) (size 15 to 20)
#    0.000    1.818    2.727    4.364    6.364    1.455 
#    0.000    0.000    0.000    1.091    0.000    0.000 
#    0.000    0.000    0.000    0.000    0.000    0.000 
#
# Total GULP energy -245246.558619 kJ/mol
# GULP energy per Si atom -5573.785423 kJ/mol
# Density = 1.934953 g / cm^3
# Si number density = 19.393666 Si / 1000 Ang^3
#
#
#
# Elastic Constant Matrix: (Units=GPa)
#
#
# Indices 1 2 3 4 5 6 
#
# 1 138.2799 35.6550 13.0938 0.0000 0.0000 0.0000
# 2 35.6550 85.0929 15.6460 0.0000 0.0000 0.0000
# 3 13.0938 15.6460 25.7545 0.0000 0.0000 0.0000
# 4 0.0000 0.0000 0.0000 -1.8258 0.0000 0.0000
# 5 0.0000 0.0000 0.0000 0.0000 13.7954 0.0000
# 6 0.0000 0.0000 0.0000 0.0000 0.0000 25.3503
#
#
#
# Elastic Compliance Matrix: (Units=1/GPa)
#
#
# Indices 1 2 3 4 5 6 
#
# 1 0.008232 -0.003017 -0.002353 0.000000 0.000000 0.000000
# 2 -0.003017 0.014335 -0.007175 0.000000 0.000000 0.000000
# 3 -0.002353 -0.007175 0.044383 0.000000 0.000000 0.000000
# 4 0.000000 0.000000 0.000000 -0.547700 0.000000 0.000000
# 5 0.000000 0.000000 0.000000 0.000000 0.072488 0.000000
# 6 0.000000 0.000000 0.000000 0.000000 0.000000 0.039447
#
#
# Mechanical properties :
#
#
# Convention : Reuss Voigt Hill
#
# Bulk Modulus (GPa) = 23.88815 41.99077 32.93946
# Shear Modulus (GPa) = -15.16201 19.77949 2.30874
#
# Velocity S-wave (km/s) = -2.79911 3.19704 1.09227
# Velocity P-wave (km/s) = 1.37753 5.94364 4.31419
#
# Compressibility (1/GPa) = 0.04186175
#
# Stress axis : x y z
#
# Youngs Moduli (GPa) = 121.47164 69.75823 22.53113
#
# Poissons Ratio (x) = 0.21045 0.05301
# Poissons Ratio (y) = 0.36647 0.16166
# Poissons Ratio (z) = 0.28578 0.50051
#
# Static dielectric constant tensor:
#      x y z
#    x 1.846370 0.000000 0.000000 
#    y 0.000000 1.716210 0.000000 
#    z 0.000000 0.000000 1.661490 
# 
# From -- ./inp_files/23439.got.cif
#   From: 2010.05.17/outbox.cif.g08.bks.cpg/sg54_12_cif.got.tgz:23439.got - 2010.06.03 13:09:01.
