data_PCOD9421742
_publ_section_title
;
Structure prediction by ZEFSAII (Michael W. Deem and Ramdas Pophale) SiO2 
 PCOD9421742
Probable space group: P C C A
;
_chemical_formula_sum "Si O2"
_cell_formula_units_Z 44
_cell_length_a 13.415804
_cell_length_b 10.063656
_cell_length_c 14.873937
_cell_angle_alpha 90.000000
_cell_angle_beta 90.000000
_cell_angle_gamma 90.000000
_cell_volume 2008.160524
_symmetry_space_group_name_H-M "P C C A"
_symmetry_group_IT_number 54
_symmetry_cell_setting 'orthorhombic'
loop_
_space_group_symop_operation_xyz
x,y,z
1/2-x,-y,z
1/2+x,-y,1/2-z
-x,y,1/2-z
-x,-y,-z
1/2+x,y,-z
1/2-x,y,1/2+z
x,-y,1/2+z
loop_
_atom_site_type_symbol
_atom_site_label
_atom_site_fract_x
_atom_site_fract_y
_atom_site_fract_z
Si Si1 0.422413 0.168229 0.137735
Si Si2 0.017128 0.878843 0.653972
Si Si3 0.362593 0.486288 0.898068
Si Si4 0.114390 0.758916 0.481374
Si Si5 0.500000 0.391568 0.250000
Si Si6 0.168146 0.811556 0.954844
O O1 0.522477 0.199603 0.080861
O O2 0.418961 0.288592 0.207720
O O3 0.433616 0.021107 0.175498
O O4 0.339990 0.164225 0.060995
O O5 0.087291 0.806175 0.581349
O O6 0.000000 0.809657 0.750000
O O7 0.910602 0.895928 0.602780
O O8 0.250000 0.500000 0.860331
O O9 0.373026 0.599749 0.974252
O O10 0.445367 0.521013 0.824596
O O11 0.369230 0.338862 0.936286
O O12 0.214649 0.819508 0.437989
#
# Coordination Sequence:
#
# PCOD9421742 Si02
#       6
#     8   8   8   8   4   8
#     4  10  21  39  59  83 123 165 198 246 311 365
#     4  11  23  39  60  93 125 155 212 259 293 359
#     4   9  20  40  62  90 124 158 206 251 305 369
#     4   9  20  40  63  84 122 164 199 246 308 371
#     4  10  20  38  60  84 124 160 194 258 314 340
#     4  10  21  40  62  88 121 164 201 245 311 372
#
# _framework density 21.910599000000001
#
# number of rings (size 3 to 8) (size 9 to 14) (size 15 to 20)
#    0.000    2.182    0.909    2.182    1.273    9.455 
#    9.818    2.727    0.000    0.000    0.000    0.000 
#    0.000    0.000    0.000    0.000    0.000    0.000 
#
# Total GULP energy -245642.989601 kJ/mol
# GULP energy per Si atom -5582.795218 kJ/mol
# Density = 2.186073 g / cm^3
# Si number density = 21.910599 Si / 1000 Ang^3
#
#
#
# Elastic Constant Matrix: (Units=GPa)
#
#
# Indices 1 2 3 4 5 6 
#
# 1 64.3579 12.0207 -0.1930 0.0000 0.0000 0.0000
# 2 12.0207 80.5805 16.3707 0.0000 0.0000 0.0000
# 3 -0.1930 16.3707 89.3663 0.0000 0.0000 0.0000
# 4 0.0000 0.0000 0.0000 20.7829 0.0000 0.0000
# 5 0.0000 0.0000 0.0000 0.0000 18.2373 0.0000
# 6 0.0000 0.0000 0.0000 0.0000 0.0000 -6.8099
#
#
#
# Elastic Compliance Matrix: (Units=1/GPa)
#
#
# Indices 1 2 3 4 5 6 
#
# 1 0.016004 -0.002487 0.000490 0.000000 0.000000 0.000000
# 2 -0.002487 0.013276 -0.002437 0.000000 0.000000 0.000000
# 3 0.000490 -0.002437 0.011637 0.000000 0.000000 0.000000
# 4 0.000000 0.000000 0.000000 0.048116 0.000000 0.000000
# 5 0.000000 0.000000 0.000000 0.000000 0.054833 0.000000
# 6 0.000000 0.000000 0.000000 0.000000 0.000000 -0.146844
#
#
# Mechanical properties :
#
#
# Convention : Reuss Voigt Hill
#
# Bulk Modulus (GPa) = 31.20200 32.30015 31.75108
# Shear Modulus (GPa) = 301.67622 20.18248 160.92935
#
# Velocity S-wave (km/s) = 11.74666 3.03830 8.57949
# Velocity P-wave (km/s) = 14.08013 5.20405 10.61443
#
# Compressibility (1/GPa) = 0.03204922
#
# Stress axis : x y z
#
# Youngs Moduli (GPa) = 62.48397 75.32321 85.92947
#
# Poissons Ratio (x) = 0.18733 -0.04212
# Poissons Ratio (y) = 0.15540 0.20944
# Poissons Ratio (z) = -0.03063 0.18359
#
# Static dielectric constant tensor:
#      x y z
#    x 1.823460 0.000000 0.000000 
#    y 0.000000 1.839720 0.000000 
#    z 0.000000 0.000000 1.806800 
# 
# From -- ./inp_files/13344.got.cif
#   From: 2010.05.17/outbox.cif.g08.bks.cpg/sg54_7_cif.got.tgz:13344.got - 2010.06.03 13:09:01.
