data_PCOD9421566
_publ_section_title
;
Structure prediction by ZEFSAII (Michael W. Deem and Ramdas Pophale) SiO2 
 PCOD9421566
Probable space group: P C C A
;
_chemical_formula_sum "Si O2"
_cell_formula_units_Z 44
_cell_length_a 11.433128
_cell_length_b 9.345018
_cell_length_c 22.609297
_cell_angle_alpha 90.000000
_cell_angle_beta 90.000000
_cell_angle_gamma 90.000000
_cell_volume 2415.640303
_symmetry_space_group_name_H-M "P C C A"
_symmetry_group_IT_number 54
_symmetry_cell_setting 'orthorhombic'
loop_
_space_group_symop_operation_xyz
x,y,z
1/2-x,-y,z
1/2+x,-y,1/2-z
-x,y,1/2-z
-x,-y,-z
1/2+x,y,-z
1/2-x,y,1/2+z
x,-y,1/2+z
loop_
_atom_site_type_symbol
_atom_site_label
_atom_site_fract_x
_atom_site_fract_y
_atom_site_fract_z
Si Si1 0.532465 0.297160 0.683488
Si Si2 0.312249 0.645037 0.573090
Si Si3 0.202736 0.841245 0.659423
Si Si4 0.750000 0.500000 0.541600
Si Si5 0.053717 0.600845 0.371332
Si Si6 0.223184 0.670459 0.273945
O O1 0.500000 0.343415 0.750000
O O2 0.436736 0.178226 0.668033
O O3 0.518847 0.437314 0.643991
O O4 0.669762 0.262098 0.687681
O O5 0.250000 0.500000 0.598001
O O6 0.235191 0.775289 0.596045
O O7 0.313293 0.610237 0.503388
O O8 0.440648 0.667604 0.599011
O O9 0.266395 0.744481 0.710249
O O10 0.250000 0.000000 0.665799
O O11 0.840491 0.416440 0.582601
O O12 0.104786 0.675378 0.312299
O O13 0.250000 0.500000 0.268490
#
# Coordination Sequence:
#
# PCOD9421566 Si02
#       6
#     8   8   8   4   8   8
#     4   9  17  32  56  80 112 148 185 232 297 341
#     4  10  22  33  58  86 113 146 204 245 280 343
#     4  11  22  38  54  82 126 162 191 233 291 359
#     4  10  20  36  60  90 114 144 196 254 306 330
#     4  11  18  35  61  91 113 143 186 258 298 344
#     4   9  19  34  60  85 112 148 196 241 305 341
#
# _framework density 18.214632999999999
#
# number of rings (size 3 to 8) (size 9 to 14) (size 15 to 20)
#    0.545    1.455    4.545    1.091    5.091    0.000 
#    9.818    0.000    0.000    5.455    0.000    0.000 
#    0.000    0.000    0.000    0.000    0.000    0.000 
#
# Total GULP energy -245027.321242 kJ/mol
# GULP energy per Si atom -5568.802756 kJ/mol
# Density = 1.817318 g / cm^3
# Si number density = 18.214633 Si / 1000 Ang^3
#
#
#
# Elastic Constant Matrix: (Units=GPa)
#
#
# Indices 1 2 3 4 5 6 
#
# 1 77.9967 12.5941 1.2096 0.0000 0.0000 0.0000
# 2 12.5941 51.2239 7.0745 0.0000 0.0000 0.0000
# 3 1.2096 7.0745 41.9566 0.0000 0.0000 0.0000
# 4 0.0000 0.0000 0.0000 1.2282 0.0000 0.0000
# 5 0.0000 0.0000 0.0000 0.0000 21.0401 0.0000
# 6 0.0000 0.0000 0.0000 0.0000 0.0000 23.0502
#
#
#
# Elastic Compliance Matrix: (Units=1/GPa)
#
#
# Indices 1 2 3 4 5 6 
#
# 1 0.013352 -0.003307 0.000173 0.000000 0.000000 0.000000
# 2 -0.003307 0.020806 -0.003413 0.000000 0.000000 0.000000
# 3 0.000173 -0.003413 0.024405 0.000000 0.000000 0.000000
# 4 0.000000 0.000000 0.000000 0.814209 0.000000 0.000000
# 5 0.000000 0.000000 0.000000 0.000000 0.047528 0.000000
# 6 0.000000 0.000000 0.000000 0.000000 0.000000 0.043384
#
#
# Mechanical properties :
#
#
# Convention : Reuss Voigt Hill
#
# Bulk Modulus (GPa) = 21.99279 23.65927 22.82603
# Shear Modulus (GPa) = 5.04066 19.08364 12.06215
#
# Velocity S-wave (km/s) = 1.66534 3.24035 2.57616
# Velocity P-wave (km/s) = 3.97471 5.19780 4.62685
#
# Compressibility (1/GPa) = 0.04546944
#
# Stress axis : x y z
#
# Youngs Moduli (GPa) = 74.89346 48.06194 40.97578
#
# Poissons Ratio (x) = 0.15893 -0.00707
# Poissons Ratio (y) = 0.24765 0.13985
# Poissons Ratio (z) = -0.01293 0.16403
#
# Static dielectric constant tensor:
#      x y z
#    x 1.690390 0.000000 0.000000 
#    y 0.000000 1.590720 0.000000 
#    z 0.000000 0.000000 1.641810 
# 
# From -- ./inp_files/23970.got.cif
#   From: 2010.05.17/outbox.cif.g08.bks.cpg/sg54_12_cif.got.tgz:23970.got - 2010.06.03 13:09:01.
