data_PCOD9421572
_publ_section_title
;
Structure prediction by ZEFSAII (Michael W. Deem and Ramdas Pophale) SiO2 
 PCOD9421572
Probable space group: P C C A
;
_chemical_formula_sum "Si O2"
_cell_formula_units_Z 32
_cell_length_a 8.367957
_cell_length_b 12.659491
_cell_length_c 12.630032
_cell_angle_alpha 90.000000
_cell_angle_beta 90.000000
_cell_angle_gamma 90.000000
_cell_volume 1337.950774
_symmetry_space_group_name_H-M "P C C A"
_symmetry_group_IT_number 54
_symmetry_cell_setting 'orthorhombic'
loop_
_space_group_symop_operation_xyz
x,y,z
1/2-x,-y,z
1/2+x,-y,1/2-z
-x,y,1/2-z
-x,-y,-z
1/2+x,y,-z
1/2-x,y,1/2+z
x,-y,1/2+z
loop_
_atom_site_type_symbol
_atom_site_label
_atom_site_fract_x
_atom_site_fract_y
_atom_site_fract_z
Si Si1 0.891698 0.574535 0.659817
Si Si2 0.676010 0.263747 0.291107
Si Si3 0.244836 0.877321 0.875354
Si Si4 0.984404 0.745951 0.502848
O O1 0.750000 0.500000 0.617301
O O2 0.800695 0.661661 0.731893
O O3 0.989211 0.635201 0.567579
O O4 0.000000 0.519582 0.750000
O O5 0.500000 0.289773 0.250000
O O6 0.719678 0.147621 0.247560
O O7 0.656269 0.271528 0.415798
O O8 0.375767 0.804265 0.937181
O O9 0.250000 0.000000 0.899890
O O10 0.076081 0.830494 0.911618
#
# Coordination Sequence:
#
# PCOD9421572 Si02
#       4
#     8   8   8   8
#     4  11  23  40  63  92 123 163 215 267 323 385
#     4   9  20  39  58  84 124 163 207 263 317 377
#     4  10  20  36  60  91 124 164 210 258 316 381
#     4  10  21  39  61  89 128 168 209 264 321 375
#
# _framework density 23.917172999999998
#
# number of rings (size 3 to 8) (size 9 to 14) (size 15 to 20)
#    0.000    2.000    0.000    3.000    0.000    2.000 
#    0.000   31.250    0.000    0.000    0.000    0.000 
#    0.000    0.000    0.000    0.000    0.000    0.000 
#
# Total GULP energy -178478.589149 kJ/mol
# GULP energy per Si atom -5577.455911 kJ/mol
# Density = 2.386274 g / cm^3
# Si number density = 23.917173 Si / 1000 Ang^3
#
#
#
# Elastic Constant Matrix: (Units=GPa)
#
#
# Indices 1 2 3 4 5 6 
#
# 1 52.5651 15.0097 17.8059 0.0000 0.0000 0.0000
# 2 15.0097 108.8888 28.8515 0.0000 0.0000 0.0000
# 3 17.8059 28.8515 117.4244 0.0000 0.0000 0.0000
# 4 0.0000 0.0000 0.0000 17.1134 0.0000 0.0000
# 5 0.0000 0.0000 0.0000 0.0000 37.9100 0.0000
# 6 0.0000 0.0000 0.0000 0.0000 0.0000 16.6687
#
#
#
# Elastic Compliance Matrix: (Units=1/GPa)
#
#
# Indices 1 2 3 4 5 6 
#
# 1 0.020511 -0.002143 -0.002584 0.000000 0.000000 0.000000
# 2 -0.002143 0.010047 -0.002144 0.000000 0.000000 0.000000
# 3 -0.002584 -0.002144 0.009435 0.000000 0.000000 0.000000
# 4 0.000000 0.000000 0.000000 0.058434 0.000000 0.000000
# 5 0.000000 0.000000 0.000000 0.000000 0.026378 0.000000
# 6 0.000000 0.000000 0.000000 0.000000 0.000000 0.059993
#
#
# Mechanical properties :
#
#
# Convention : Reuss Voigt Hill
#
# Bulk Modulus (GPa) = 38.09175 44.69029 41.39102
# Shear Modulus (GPa) = 24.12096 28.81916 26.47006
#
# Velocity S-wave (km/s) = 3.17917 3.47501 3.33038
# Velocity P-wave (km/s) = 5.42561 5.90144 5.66852
#
# Compressibility (1/GPa) = 0.02625240
#
# Stress axis : x y z
#
# Youngs Moduli (GPa) = 48.75407 99.53178 105.99267
#
# Poissons Ratio (x) = 0.21327 0.27386
# Poissons Ratio (y) = 0.10447 0.22721
# Poissons Ratio (z) = 0.12597 0.21336
#
# Static dielectric constant tensor:
#      x y z
#    x 2.036950 0.000000 0.000000 
#    y 0.000000 1.892430 0.000000 
#    z 0.000000 0.000000 2.004340 
# 
# From -- ./inp_files/6785.got.cif
#   From: 2010.05.17/outbox.cif.g08.bks.cpg/sg54_4_cif.got.tgz:6785.got - 2010.06.03 13:09:01.
