data_PCOD9421299
_publ_section_title
;
Structure prediction by ZEFSAII (Michael W. Deem and Ramdas Pophale) SiO2 
 PCOD9421299
Probable space group: P C C A
;
_chemical_formula_sum "Si O2"
_cell_formula_units_Z 56
_cell_length_a 13.801347
_cell_length_b 15.078708
_cell_length_c 13.108321
_cell_angle_alpha 90.000000
_cell_angle_beta 90.000000
_cell_angle_gamma 90.000000
_cell_volume 2727.926561
_symmetry_space_group_name_H-M "P C C A"
_symmetry_group_IT_number 54
_symmetry_cell_setting 'orthorhombic'
loop_
_space_group_symop_operation_xyz
x,y,z
1/2-x,-y,z
1/2+x,-y,1/2-z
-x,y,1/2-z
-x,-y,-z
1/2+x,y,-z
1/2-x,y,1/2+z
x,-y,1/2+z
loop_
_atom_site_type_symbol
_atom_site_label
_atom_site_fract_x
_atom_site_fract_y
_atom_site_fract_z
Si Si1 0.941078 0.526992 0.152510
Si Si2 0.605384 0.719886 0.696224
Si Si3 0.778013 0.751622 0.390729
Si Si4 0.344176 0.940538 0.528296
Si Si5 0.569519 0.767306 0.465387
Si Si6 0.912536 0.619710 0.505731
Si Si7 0.004401 0.948646 0.869649
O O1 0.879865 0.613996 0.181898
O O2 0.886043 0.449591 0.093497
O O3 0.000000 0.492838 0.250000
O O4 0.022945 0.566946 0.076883
O O5 0.500000 0.729703 0.750000
O O6 0.683535 0.756244 0.775201
O O7 0.599725 0.763718 0.584972
O O8 0.814860 0.839710 0.449286
O O9 0.663619 0.743903 0.400175
O O10 0.826559 0.668060 0.447062
O O11 0.388207 0.959351 0.415995
O O12 0.250000 0.000000 0.547072
O O13 0.432614 0.971073 0.601251
O O14 0.483901 0.696289 0.452594
O O15 0.535520 0.863295 0.430074
O O16 0.000000 0.933928 0.750000
#
# Coordination Sequence:
#
# PCOD9421299 Si02
#       7
#     8   8   8   8   8   8   8
#     4   9  17  37  67  89 124 177 219 268 339 399
#     4  10  19  42  72  90 126 184 226 267 338 419
#     4  12  22  41  71  95 134 177 228 277 337 408
#     4  11  24  45  66  98 134 179 229 277 332 410
#     4  11  23  41  65 103 130 173 231 279 332 407
#     4  10  20  39  65  93 130 171 221 282 329 400
#     4  11  25  44  67  98 137 175 221 284 344 392
#
# _framework density 20.528411999999999
#
# number of rings (size 3 to 8) (size 9 to 14) (size 15 to 20)
#    0.000    1.429    7.143    0.000    0.000    5.143 
#    2.571    6.429    3.143    0.000    0.000    0.000 
#    0.000    0.000    0.000    0.000    0.000    0.000 
#
# Total GULP energy -312895.375469 kJ/mol
# GULP energy per Si atom -5587.417419 kJ/mol
# Density = 2.048169 g / cm^3
# Si number density = 20.528412 Si / 1000 Ang^3
#
#
#
# Elastic Constant Matrix: (Units=GPa)
#
#
# Indices 1 2 3 4 5 6 
#
# 1 50.0388 -2.3765 -4.9253 0.0000 0.0000 0.0000
# 2 -2.3765 49.2289 19.4651 0.0000 0.0000 0.0000
# 3 -4.9253 19.4651 93.7229 0.0000 0.0000 0.0000
# 4 0.0000 0.0000 0.0000 21.6722 0.0000 0.0000
# 5 0.0000 0.0000 0.0000 0.0000 21.0997 0.0000
# 6 0.0000 0.0000 0.0000 0.0000 0.0000 18.1889
#
#
#
# Elastic Compliance Matrix: (Units=1/GPa)
#
#
# Indices 1 2 3 4 5 6 
#
# 1 0.020105 0.000602 0.000931 0.000000 0.000000 0.000000
# 2 0.000602 0.022149 -0.004568 0.000000 0.000000 0.000000
# 3 0.000931 -0.004568 0.011667 0.000000 0.000000 0.000000
# 4 0.000000 0.000000 0.000000 0.046142 0.000000 0.000000
# 5 0.000000 0.000000 0.000000 0.000000 0.047394 0.000000
# 6 0.000000 0.000000 0.000000 0.000000 0.000000 0.054978
#
#
# Mechanical properties :
#
#
# Convention : Reuss Voigt Hill
#
# Bulk Modulus (GPa) = 20.89793 24.14636 22.52214
# Shear Modulus (GPa) = 22.27615 24.24733 23.26174
#
# Velocity S-wave (km/s) = 3.29772 3.44053 3.36988
# Velocity P-wave (km/s) = 4.97011 5.25080 5.11238
#
# Compressibility (1/GPa) = 0.04785163
#
# Stress axis : x y z
#
# Youngs Moduli (GPa) = 49.73946 45.14940 85.70826
#
# Poissons Ratio (x) = -0.02719 -0.07983
# Poissons Ratio (y) = -0.02996 0.39155
# Poissons Ratio (z) = -0.04633 0.20626
#
# Static dielectric constant tensor:
#      x y z
#    x 1.729460 0.000000 0.000000 
#    y 0.000000 1.737860 0.000000 
#    z 0.000000 0.000000 1.736110 
# 
# From -- ./inp_files/8413.got.cif
#   From: 2010.05.17/outbox.cif.g08.bks.cpg/sg54_5_cif.got.tgz:8413.got - 2010.06.03 13:09:01.
