data_PCOD9421089
_publ_section_title
;
Structure prediction by ZEFSAII (Michael W. Deem and Ramdas Pophale) SiO2 
 PCOD9421089
Probable space group: P C C A
;
_chemical_formula_sum "Si O2"
_cell_formula_units_Z 56
_cell_length_a 16.058838
_cell_length_b 32.882472
_cell_length_c 5.153466
_cell_angle_alpha 90.000000
_cell_angle_beta 90.000000
_cell_angle_gamma 90.000000
_cell_volume 2721.309834
_symmetry_space_group_name_H-M "P C C A"
_symmetry_group_IT_number 54
_symmetry_cell_setting 'orthorhombic'
loop_
_space_group_symop_operation_xyz
x,y,z
1/2-x,-y,z
1/2+x,-y,1/2-z
-x,y,1/2-z
-x,-y,-z
1/2+x,y,-z
1/2-x,y,1/2+z
x,-y,1/2+z
loop_
_atom_site_type_symbol
_atom_site_label
_atom_site_fract_x
_atom_site_fract_y
_atom_site_fract_z
Si Si1 0.943735 0.173991 0.501547
Si Si2 0.535546 0.545609 0.499102
Si Si3 0.309587 0.756614 0.066872
Si Si4 0.304109 0.667959 0.147708
Si Si5 0.401534 0.026335 0.239549
Si Si6 0.193700 0.109255 0.826255
Si Si7 0.198851 0.577711 0.626187
O O1 0.882107 0.210531 0.423455
O O2 0.883777 0.137928 0.601376
O O3 0.000000 0.163060 0.250000
O O4 0.000000 0.185495 0.750000
O O5 0.500000 0.567453 0.250000
O O6 0.500000 0.500000 0.500000
O O7 0.633229 0.544919 0.468468
O O8 0.500000 0.566597 0.750000
O O9 0.244224 0.761116 0.303752
O O10 0.346816 0.710757 0.086364
O O11 0.274155 0.668900 0.446184
O O12 0.339651 0.623125 0.093551
O O13 0.500000 0.037876 0.250000
O O14 0.342932 0.063720 0.313483
O O15 0.387046 0.990955 0.451574
O O16 0.237020 0.116432 0.548375
O O17 0.274671 0.574033 0.424070
#
# Coordination Sequence:
#
# PCOD9421089 Si02
#       7
#     8   8   8   8   8   8   8
#     4  12  25  41  60  85 120 155 192 238 285 340
#     4  10  21  38  53  74 110 145 177 225 288 334
#     4  10  19  37  61  85 114 149 187 229 280 339
#     4   8  16  30  54  83 110 139 179 230 279 327
#     4  10  22  40  62  88 120 154 187 233 296 351
#     4  12  25  41  63  89 117 155 202 244 287 340
#     4  10  19  35  58  83 106 142 192 233 271 333
#
# _framework density 20.578326000000001
#
# number of rings (size 3 to 8) (size 9 to 14) (size 15 to 20)
#    0.000    1.714    0.000    4.714    0.000    3.429 
#    0.000   10.000    0.000    0.000    0.000    0.000 
#    0.000    0.000    0.000    0.000    0.000    0.000 
#
# Total GULP energy -312370.681624 kJ/mol
# GULP energy per Si atom -5578.047886 kJ/mol
# Density = 2.053149 g / cm^3
# Si number density = 20.578326 Si / 1000 Ang^3
#
#
#
# Elastic Constant Matrix: (Units=GPa)
#
#
# Indices 1 2 3 4 5 6 
#
# 1 53.4384 29.9025 7.6029 0.0000 0.0000 0.0000
# 2 29.9025 61.7292 -13.9683 0.0000 0.0000 0.0000
# 3 7.6029 -13.9683 119.5530 0.0000 0.0000 0.0000
# 4 0.0000 0.0000 0.0000 37.1210 0.0000 0.0000
# 5 0.0000 0.0000 0.0000 0.0000 34.3372 0.0000
# 6 0.0000 0.0000 0.0000 0.0000 0.0000 3.0797
#
#
#
# Elastic Compliance Matrix: (Units=1/GPa)
#
#
# Indices 1 2 3 4 5 6 
#
# 1 0.026897 -0.013781 -0.003321 0.000000 0.000000 0.000000
# 2 -0.013781 0.023700 0.003645 0.000000 0.000000 0.000000
# 3 -0.003321 0.003645 0.009002 0.000000 0.000000 0.000000
# 4 0.000000 0.000000 0.000000 0.026939 0.000000 0.000000
# 5 0.000000 0.000000 0.000000 0.000000 0.029123 0.000000
# 6 0.000000 0.000000 0.000000 0.000000 0.000000 0.324711
#
#
# Mechanical properties :
#
#
# Convention : Reuss Voigt Hill
#
# Bulk Modulus (GPa) = 30.59305 31.31053 30.95179
# Shear Modulus (GPa) = 10.45636 28.98649 19.72142
#
# Velocity S-wave (km/s) = 2.25661 3.75719 3.09910
# Velocity P-wave (km/s) = 4.65710 5.83698 5.28010
#
# Compressibility (1/GPa) = 0.03268716
#
# Stress axis : x y z
#
# Youngs Moduli (GPa) = 37.17930 42.19381 111.09152
#
# Poissons Ratio (x) = 0.58145 0.36889
# Poissons Ratio (y) = 0.51235 -0.40498
# Poissons Ratio (z) = 0.12346 -0.15382
#
# Static dielectric constant tensor:
#      x y z
#    x 1.755460 0.000000 0.000000 
#    y 0.000000 1.766030 0.000000 
#    z 0.000000 0.000000 1.761790 
# 
# From -- ./inp_files/721.got.cif
#   From: 2010.05.17/outbox.cif.g08.bks.cpg/sg54_1_cif.got.tgz:721.got - 2010.06.03 13:09:01.
