data_PCOD9421419
_publ_section_title
;
Structure prediction by ZEFSAII (Michael W. Deem and Ramdas Pophale) SiO2 
 PCOD9421419
Probable space group: P C C A
;
_chemical_formula_sum "Si O2"
_cell_formula_units_Z 48
_cell_length_a 13.780311
_cell_length_b 9.588288
_cell_length_c 15.078233
_cell_angle_alpha 90.000000
_cell_angle_beta 90.000000
_cell_angle_gamma 90.000000
_cell_volume 1992.280753
_symmetry_space_group_name_H-M "P C C A"
_symmetry_group_IT_number 54
_symmetry_cell_setting 'orthorhombic'
loop_
_space_group_symop_operation_xyz
x,y,z
1/2-x,-y,z
1/2+x,-y,1/2-z
-x,y,1/2-z
-x,-y,-z
1/2+x,y,-z
1/2-x,y,1/2+z
x,-y,1/2+z
loop_
_atom_site_type_symbol
_atom_site_label
_atom_site_fract_x
_atom_site_fract_y
_atom_site_fract_z
Si Si1 0.958220 0.763885 0.836990
Si Si2 0.743403 0.802063 0.772569
Si Si3 0.235820 0.168951 0.935536
Si Si4 0.555473 0.073367 0.330285
Si Si5 0.983925 0.719893 0.034966
Si Si6 0.173484 0.623162 0.081121
O O1 0.844005 0.785086 0.824355
O O2 0.000000 0.691782 0.750000
O O3 0.994723 0.923888 0.838625
O O4 0.985007 0.705152 0.930374
O O5 0.763369 0.806554 0.667912
O O6 0.666824 0.923300 0.799386
O O7 0.686167 0.672134 0.816894
O O8 0.126814 0.236180 0.941326
O O9 0.250000 0.000000 0.952211
O O10 0.294469 0.259305 0.008184
O O11 0.500000 0.149817 0.250000
O O12 0.539341 0.147498 0.422534
O O13 0.057913 0.600407 0.069634
O O14 0.250000 0.500000 0.065522
#
# Coordination Sequence:
#
# PCOD9421419 Si02
#       6
#     8   8   8   8   8   8
#     4  11  22  36  60  99 142 185 225 299 378 457
#     4  11  23  42  66  98 143 190 245 306 377 461
#     4  12  26  42  74 115 147 192 247 321 400 467
#     4  10  20  34  60  95 140 182 233 295 375 451
#     4  11  24  40  67 101 144 189 248 306 377 451
#     4  11  28  49  72 101 146 204 258 313 381 471
#
# _framework density 24.09299
#
# number of rings (size 3 to 8) (size 9 to 14) (size 15 to 20)
#    0.000    1.000    3.333    3.000    9.333    2.000 
#    0.000    0.000    0.000    0.000    0.000    0.000 
#    0.000    0.000    0.000    0.000    0.000    0.000 
#
# Total GULP energy -267533.073362 kJ/mol
# GULP energy per Si atom -5573.605695 kJ/mol
# Density = 2.403815 g / cm^3
# Si number density = 24.092990 Si / 1000 Ang^3
#
#
#
# Elastic Constant Matrix: (Units=GPa)
#
#
# Indices 1 2 3 4 5 6 
#
# 1 136.4322 17.1678 10.0636 0.0000 0.0000 0.0000
# 2 17.1678 95.8002 46.7796 0.0000 0.0000 0.0000
# 3 10.0636 46.7796 105.5432 0.0000 0.0000 0.0000
# 4 0.0000 0.0000 0.0000 18.3447 0.0000 0.0000
# 5 0.0000 0.0000 0.0000 0.0000 42.2092 0.0000
# 6 0.0000 0.0000 0.0000 0.0000 0.0000 30.0577
#
#
#
# Elastic Compliance Matrix: (Units=1/GPa)
#
#
# Indices 1 2 3 4 5 6 
#
# 1 0.007501 -0.001270 -0.000152 0.000000 0.000000 0.000000
# 2 -0.001270 0.013537 -0.005879 0.000000 0.000000 0.000000
# 3 -0.000152 -0.005879 0.012095 0.000000 0.000000 0.000000
# 4 0.000000 0.000000 0.000000 0.054512 0.000000 0.000000
# 5 0.000000 0.000000 0.000000 0.000000 0.023692 0.000000
# 6 0.000000 0.000000 0.000000 0.000000 0.000000 0.033269
#
#
# Mechanical properties :
#
#
# Convention : Reuss Voigt Hill
#
# Bulk Modulus (GPa) = 53.96523 53.97752 53.97137
# Shear Modulus (GPa) = 30.23283 35.70662 32.96973
#
# Velocity S-wave (km/s) = 3.54621 3.85390 3.70325
# Velocity P-wave (km/s) = 6.26218 6.50045 6.38242
#
# Compressibility (1/GPa) = 0.01853045
#
# Stress axis : x y z
#
# Youngs Moduli (GPa) = 133.32148 73.87424 82.67932
#
# Poissons Ratio (x) = 0.09380 0.01260
# Poissons Ratio (y) = 0.16928 0.48605
# Poissons Ratio (z) = 0.02032 0.43428
#
# Static dielectric constant tensor:
#      x y z
#    x 2.044840 0.000000 0.000000 
#    y 0.000000 2.057210 0.000000 
#    z 0.000000 0.000000 1.898550 
# 
# From -- ./inp_files/13423.got.cif
#   From: 2010.05.17/outbox.cif.g08.bks.cpg/sg54_7_cif.got.tgz:13423.got - 2010.06.03 13:09:01.
