data_PCOD9421872
_publ_section_title
;
Structure prediction by ZEFSAII (Michael W. Deem and Ramdas Pophale) SiO2 
 PCOD9421872
Probable space group: P C C A
;
_chemical_formula_sum "Si O2"
_cell_formula_units_Z 48
_cell_length_a 11.185283
_cell_length_b 7.465286
_cell_length_c 24.934813
_cell_angle_alpha 90.000000
_cell_angle_beta 90.000000
_cell_angle_gamma 90.000000
_cell_volume 2082.090213
_symmetry_space_group_name_H-M "P C C A"
_symmetry_group_IT_number 54
_symmetry_cell_setting 'orthorhombic'
loop_
_space_group_symop_operation_xyz
x,y,z
1/2-x,-y,z
1/2+x,-y,1/2-z
-x,y,1/2-z
-x,-y,-z
1/2+x,y,-z
1/2-x,y,1/2+z
x,-y,1/2+z
loop_
_atom_site_type_symbol
_atom_site_label
_atom_site_fract_x
_atom_site_fract_y
_atom_site_fract_z
Si Si1 0.586705 0.782040 0.392221
Si Si2 0.025020 0.806060 0.122991
Si Si3 0.242163 0.217988 0.699607
Si Si4 0.651173 0.654453 0.079842
Si Si5 0.300311 0.294984 0.035079
Si Si6 0.273867 0.789264 0.820801
O O1 0.645742 0.718190 0.336144
O O2 0.492383 0.647101 0.419083
O O3 0.698419 0.808317 0.432112
O O4 0.529495 0.977757 0.382886
O O5 0.122632 0.744078 0.166531
O O6 0.075127 0.730754 0.066871
O O7 0.896786 0.755332 0.146900
O O8 0.232474 0.282621 0.760455
O O9 0.250000 0.000000 0.700127
O O10 0.750000 0.500000 0.074878
O O11 0.672833 0.720481 0.139893
O O12 0.682283 0.766015 0.026220
O O13 0.250000 0.500000 0.036999
O O14 0.250000 0.000000 0.816196
#
# Coordination Sequence:
#
# PCOD9421872 Si02
#       6
#     8   8   8   8   8   8
#     4  10  21  42  62  91 124 161 206 264 318 371
#     4  10  20  39  63  93 122 157 206 262 313 382
#     4   8  18  36  64  88 119 154 201 254 318 372
#     4  11  26  40  58  88 128 168 209 255 313 373
#     4  10  24  40  62  87 121 174 208 254 314 376
#     4  11  21  37  62  96 119 156 208 258 315 375
#
# _framework density 23.053756
#
# number of rings (size 3 to 8) (size 9 to 14) (size 15 to 20)
#    0.000    2.000    1.667    2.000    4.667    4.000 
#    0.000    3.333    3.667    0.000    0.000    0.000 
#    0.000    0.000    0.000    0.000    0.000    0.000 
#
# Total GULP energy -267772.907317 kJ/mol
# GULP energy per Si atom -5578.602236 kJ/mol
# Density = 2.300128 g / cm^3
# Si number density = 23.053756 Si / 1000 Ang^3
#
#
#
# Elastic Constant Matrix: (Units=GPa)
#
#
# Indices 1 2 3 4 5 6 
#
# 1 111.1950 22.6570 25.1071 0.0000 0.0000 0.0000
# 2 22.6570 51.1037 1.9033 0.0000 0.0000 0.0000
# 3 25.1071 1.9033 129.1733 0.0000 0.0000 0.0000
# 4 0.0000 0.0000 0.0000 28.4372 0.0000 0.0000
# 5 0.0000 0.0000 0.0000 0.0000 14.7748 0.0000
# 6 0.0000 0.0000 0.0000 0.0000 0.0000 34.3109
#
#
#
# Elastic Compliance Matrix: (Units=1/GPa)
#
#
# Indices 1 2 3 4 5 6 
#
# 1 0.010353 -0.004518 -0.001946 0.000000 0.000000 0.000000
# 2 -0.004518 0.021550 0.000561 0.000000 0.000000 0.000000
# 3 -0.001946 0.000561 0.008111 0.000000 0.000000 0.000000
# 4 0.000000 0.000000 0.000000 0.035165 0.000000 0.000000
# 5 0.000000 0.000000 0.000000 0.000000 0.067683 0.000000
# 6 0.000000 0.000000 0.000000 0.000000 0.000000 0.029145
#
#
# Mechanical properties :
#
#
# Convention : Reuss Voigt Hill
#
# Bulk Modulus (GPa) = 35.44966 43.42298 39.43632
# Shear Modulus (GPa) = 25.87774 31.62490 28.75132
#
# Velocity S-wave (km/s) = 3.35400 3.70779 3.53532
# Velocity P-wave (km/s) = 5.51448 6.09973 5.81447
#
# Compressibility (1/GPa) = 0.02820901
#
# Stress axis : x y z
#
# Youngs Moduli (GPa) = 96.58994 46.40358 123.28227
#
# Poissons Ratio (x) = 0.20963 0.23987
# Poissons Ratio (y) = 0.43635 -0.06911
# Poissons Ratio (z) = 0.18794 -0.02601
#
# Static dielectric constant tensor:
#      x y z
#    x 1.834470 0.000000 0.000000 
#    y 0.000000 1.944170 0.000000 
#    z 0.000000 0.000000 1.848140 
# 
# From -- ./inp_files/24084.got.cif
#   From: 2010.05.17/outbox.cif.g08.bks.cpg/sg54_13_cif.got.tgz:24084.got - 2010.06.03 13:09:01.
