data_PCOD9421539
_publ_section_title
;
Structure prediction by ZEFSAII (Michael W. Deem and Ramdas Pophale) SiO2 
 PCOD9421539
Probable space group: P C C A
;
_chemical_formula_sum "Si O2"
_cell_formula_units_Z 56
_cell_length_a 15.077903
_cell_length_b 19.680825
_cell_length_c 8.910811
_cell_angle_alpha 90.000000
_cell_angle_beta 90.000000
_cell_angle_gamma 90.000000
_cell_volume 2644.243692
_symmetry_space_group_name_H-M "P C C A"
_symmetry_group_IT_number 54
_symmetry_cell_setting 'orthorhombic'
loop_
_space_group_symop_operation_xyz
x,y,z
1/2-x,-y,z
1/2+x,-y,1/2-z
-x,y,1/2-z
-x,-y,-z
1/2+x,y,-z
1/2-x,y,1/2+z
x,-y,1/2+z
loop_
_atom_site_type_symbol
_atom_site_label
_atom_site_fract_x
_atom_site_fract_y
_atom_site_fract_z
Si Si1 0.418828 0.046177 0.555502
Si Si2 0.591689 0.594978 0.301563
Si Si3 0.315253 0.054020 0.271091
Si Si4 0.152093 0.471459 0.893911
Si Si5 0.786322 0.654023 0.293387
Si Si6 0.170064 0.162974 0.203618
Si Si7 0.760728 0.747650 0.546030
O O1 0.380804 0.075893 0.400772
O O2 0.410902 0.111888 0.665686
O O3 0.500000 0.000000 0.500000
O O4 0.361349 0.989471 0.642422
O O5 0.500000 0.629507 0.250000
O O6 0.599931 0.561751 0.467510
O O7 0.603034 0.533973 0.182370
O O8 0.680418 0.639937 0.294399
O O9 0.256137 0.114132 0.210914
O O10 0.250000 0.000000 0.349678
O O11 0.250000 0.500000 0.943439
O O12 0.169169 0.414727 0.765119
O O13 0.808635 0.687154 0.452942
O O14 0.800458 0.711436 0.169215
O O15 0.173003 0.203157 0.361686
O O16 0.196960 0.213542 0.069973
#
# Coordination Sequence:
#
# PCOD9421539 Si02
#       7
#     8   8   8   8   8   8   8
#     4  11  22  36  58  92 124 152 186 261 321 361
#     4  11  22  36  58  91 128 161 202 275 340 377
#     4  10  20  36  59  85 113 151 197 242 292 371
#     4  10  20  36  59  90 121 162 220 269 315 385
#     4  10  20  37  63  90 119 160 225 260 303 373
#     4  10  20  37  63  89 116 151 217 242 298 376
#     4  10  20  36  64  90 112 166 211 261 285 366
#
# _framework density 21.178079
#
# number of rings (size 3 to 8) (size 9 to 14) (size 15 to 20)
#    0.000    1.714    2.857    3.429    4.000    0.000 
#    0.000    0.000    6.286    0.000    0.000    0.000 
#    0.000    0.000    0.000    0.000    0.000    0.000 
#
# Total GULP energy -312157.432321 kJ/mol
# GULP energy per Si atom -5574.239863 kJ/mol
# Density = 2.112988 g / cm^3
# Si number density = 21.178079 Si / 1000 Ang^3
#
#
#
# Elastic Constant Matrix: (Units=GPa)
#
#
# Indices 1 2 3 4 5 6 
#
# 1 58.0410 21.3265 26.7290 0.0000 0.0000 0.0000
# 2 21.3265 86.8388 30.7461 0.0000 0.0000 0.0000
# 3 26.7290 30.7461 114.1603 0.0000 0.0000 0.0000
# 4 0.0000 0.0000 0.0000 37.3310 0.0000 0.0000
# 5 0.0000 0.0000 0.0000 0.0000 15.8103 0.0000
# 6 0.0000 0.0000 0.0000 0.0000 0.0000 13.9616
#
#
#
# Elastic Compliance Matrix: (Units=1/GPa)
#
#
# Indices 1 2 3 4 5 6 
#
# 1 0.020308 -0.003652 -0.003771 0.000000 0.000000 0.000000
# 2 -0.003652 0.013386 -0.002750 0.000000 0.000000 0.000000
# 3 -0.003771 -0.002750 0.010383 0.000000 0.000000 0.000000
# 4 0.000000 0.000000 0.000000 0.026787 0.000000 0.000000
# 5 0.000000 0.000000 0.000000 0.000000 0.063250 0.000000
# 6 0.000000 0.000000 0.000000 0.000000 0.000000 0.071625
#
#
# Mechanical properties :
#
#
# Convention : Reuss Voigt Hill
#
# Bulk Modulus (GPa) = 42.14002 46.29372 44.21687
# Shear Modulus (GPa) = 21.36783 25.43648 23.40215
#
# Velocity S-wave (km/s) = 3.17986 3.46941 3.32779
# Velocity P-wave (km/s) = 5.78127 6.16083 5.97407
#
# Compressibility (1/GPa) = 0.02373041
#
# Stress axis : x y z
#
# Youngs Moduli (GPa) = 49.24209 74.70368 96.30886
#
# Poissons Ratio (x) = 0.27283 0.36320
# Poissons Ratio (y) = 0.17984 0.26486
# Poissons Ratio (z) = 0.18570 0.20545
#
# Static dielectric constant tensor:
#      x y z
#    x 1.827270 0.000000 0.000000 
#    y 0.000000 1.838310 0.000000 
#    z 0.000000 0.000000 1.817090 
# 
# From -- ./inp_files/3691.got.cif
#   From: 2010.05.17/outbox.cif.g08.bks.cpg/sg54_2_cif.got.tgz:3691.got - 2010.06.03 13:09:01.
