data_PCOD9421040
_publ_section_title
;
Structure prediction by ZEFSAII (Michael W. Deem and Ramdas Pophale) SiO2 
 PCOD9421040
Probable space group: P C C A
;
_chemical_formula_sum "Si O2"
_cell_formula_units_Z 56
_cell_length_a 26.487187
_cell_length_b 5.562972
_cell_length_c 16.897269
_cell_angle_alpha 90.000000
_cell_angle_beta 90.000000
_cell_angle_gamma 90.000000
_cell_volume 2489.770000
_symmetry_space_group_name_H-M "P C C A"
_symmetry_group_IT_number 54
_symmetry_cell_setting 'orthorhombic'
loop_
_space_group_symop_operation_xyz
x,y,z
1/2-x,-y,z
1/2+x,-y,1/2-z
-x,y,1/2-z
-x,-y,-z
1/2+x,y,-z
1/2-x,y,1/2+z
x,-y,1/2+z
loop_
_atom_site_type_symbol
_atom_site_label
_atom_site_fract_x
_atom_site_fract_y
_atom_site_fract_z
Si Si1 0.380658 0.716759 0.380424
Si Si2 0.988854 0.903426 0.653028
Si Si3 0.636676 0.530728 0.776662
Si Si4 0.304915 0.094496 0.310059
Si Si5 0.192868 0.406742 0.966354
Si Si6 0.716934 0.751800 0.371093
Si Si7 0.471471 0.596277 0.663411
O O1 0.431307 0.873626 0.376273
O O2 0.387858 0.527006 0.309068
O O3 0.354749 0.587546 0.455772
O O4 0.336935 0.884232 0.347354
O O5 0.000000 0.905309 0.750000
O O6 0.013841 0.656059 0.624433
O O7 0.010670 0.156337 0.624312
O O8 0.670217 0.765494 0.762263
O O9 0.672308 0.315053 0.808359
O O10 0.588686 0.591494 0.829042
O O11 0.302620 0.280940 0.381981
O O12 0.250000 0.000000 0.291375
O O13 0.250000 0.500000 0.976311
O O14 0.188198 0.244616 0.044041
O O15 0.750000 0.500000 0.365478
O O16 0.750000 0.000000 0.368939
O O17 0.500000 0.595090 0.750000
#
# Coordination Sequence:
#
# PCOD9421040 Si02
#       7
#     8   8   8   8   8   8   8
#     4  11  22  36  64  98 126 168 224 283 336 394
#     4  10  19  34  57  90 125 164 203 268 332 403
#     4  11  25  38  62 101 130 174 220 279 343 407
#     4  11  22  36  64  93 134 162 218 285 333 389
#     4  10  22  43  62  90 127 185 227 272 324 408
#     4  11  28  46  66  92 138 187 228 269 338 414
#     4  10  19  37  58  87 127 168 205 262 334 404
#
# _framework density 22.492038000000001
#
# number of rings (size 3 to 8) (size 9 to 14) (size 15 to 20)
#    0.000    1.429    4.286    2.143    8.000    0.000 
#    0.000    0.000    0.000    1.714    0.000    0.000 
#    0.000    0.000    0.000    0.000    0.000    0.000 
#
# Total GULP energy -311986.248933 kJ/mol
# GULP energy per Si atom -5571.183017 kJ/mol
# Density = 2.244084 g / cm^3
# Si number density = 22.492038 Si / 1000 Ang^3
#
#
#
# Elastic Constant Matrix: (Units=GPa)
#
#
# Indices 1 2 3 4 5 6 
#
# 1 107.5726 46.1267 12.7060 0.0000 0.0000 0.0000
# 2 46.1267 134.1542 0.1335 0.0000 0.0000 0.0000
# 3 12.7060 0.1335 41.6795 0.0000 0.0000 0.0000
# 4 0.0000 0.0000 0.0000 -107.4905 0.0000 0.0000
# 5 0.0000 0.0000 0.0000 0.0000 -1.4257 0.0000
# 6 0.0000 0.0000 0.0000 0.0000 0.0000 48.9276
#
#
#
# Elastic Compliance Matrix: (Units=1/GPa)
#
#
# Indices 1 2 3 4 5 6 
#
# 1 0.011381 -0.003910 -0.003457 0.000000 0.000000 0.000000
# 2 -0.003910 0.008797 0.001164 0.000000 0.000000 0.000000
# 3 -0.003457 0.001164 0.025043 0.000000 0.000000 0.000000
# 4 0.000000 0.000000 0.000000 -0.009303 0.000000 0.000000
# 5 0.000000 0.000000 0.000000 0.000000 -0.701398 0.000000
# 6 0.000000 0.000000 0.000000 0.000000 0.000000 0.020438
#
#
# Mechanical properties :
#
#
# Convention : Reuss Voigt Hill
#
# Bulk Modulus (GPa) = 30.47392 44.59321 37.53356
# Shear Modulus (GPa) = -8.04250 2.96495 -2.53877
#
# Velocity S-wave (km/s) = -1.89301 1.14938 -1.06358
# Velocity P-wave (km/s) = 2.96651 4.65088 3.90070
#
# Compressibility (1/GPa) = 0.03281495
#
# Stress axis : x y z
#
# Youngs Moduli (GPa) = 87.86714 113.67221 39.93174
#
# Poissons Ratio (x) = 0.44442 0.13804
# Poissons Ratio (y) = 0.34353 -0.04647
# Poissons Ratio (z) = 0.30375 -0.13228
#
# Static dielectric constant tensor:
#      x y z
#    x 1.990960 0.000000 0.000000 
#    y 0.000000 2.007940 0.000000 
#    z 0.000000 0.000000 1.470940 
# 
# From -- ./inp_files/22293.got.cif
#   From: 2010.05.17/outbox.cif.g08.bks.cpg/sg54_12_cif.got.tgz:22293.got - 2010.06.03 13:09:01.
