data_PCOD9421414
_publ_section_title
;
Structure prediction by ZEFSAII (Michael W. Deem and Ramdas Pophale) SiO2 
 PCOD9421414
Probable space group: P C C A
;
_chemical_formula_sum "Si O2"
_cell_formula_units_Z 56
_cell_length_a 9.246402
_cell_length_b 14.764343
_cell_length_c 21.149148
_cell_angle_alpha 90.000000
_cell_angle_beta 90.000000
_cell_angle_gamma 90.000000
_cell_volume 2887.219309
_symmetry_space_group_name_H-M "P C C A"
_symmetry_group_IT_number 54
_symmetry_cell_setting 'orthorhombic'
loop_
_space_group_symop_operation_xyz
x,y,z
1/2-x,-y,z
1/2+x,-y,1/2-z
-x,y,1/2-z
-x,-y,-z
1/2+x,y,-z
1/2-x,y,1/2+z
x,-y,1/2+z
loop_
_atom_site_type_symbol
_atom_site_label
_atom_site_fract_x
_atom_site_fract_y
_atom_site_fract_z
Si Si1 0.638819 0.715197 0.712800
Si Si2 0.584788 0.328226 0.643364
Si Si3 0.204780 0.231174 0.169824
Si Si4 0.922269 0.506178 0.067322
Si Si5 0.469342 0.297406 0.098342
Si Si6 0.329971 0.095640 0.559043
Si Si7 0.605069 0.193643 0.526133
O O1 0.713577 0.780701 0.763884
O O2 0.565843 0.756095 0.649920
O O3 0.000000 0.327707 0.750000
O O4 0.775495 0.657807 0.687824
O O5 0.449616 0.279252 0.676469
O O6 0.537742 0.422406 0.612159
O O7 0.625990 0.259565 0.585819
O O8 0.307873 0.295219 0.126670
O O9 0.191666 0.141809 0.127550
O O10 0.750000 0.500000 0.058150
O O11 0.967532 0.602196 0.096084
O O12 0.000000 0.500000 0.000000
O O13 0.467217 0.253826 0.029480
O O14 0.498981 0.110480 0.544098
O O15 0.247961 0.155046 0.506002
O O16 0.250000 0.000000 0.558470
#
# Coordination Sequence:
#
# PCOD9421414 Si02
#       7
#     8   8   8   8   8   8   8
#     4  10  20  39  59  79 114 159 206 240 283 356
#     4  11  21  37  59  87 118 156 205 247 304 353
#     4   9  22  37  60  81 113 160 202 249 297 360
#     4  12  25  35  57  88 126 154 198 252 299 357
#     4  10  20  38  57  86 118 157 201 241 303 355
#     4  10  20  35  57  87 118 150 194 251 308 365
#     4  10  20  34  60  87 118 154 189 245 311 372
#
# _framework density 19.395826
#
# number of rings (size 3 to 8) (size 9 to 14) (size 15 to 20)
#    0.000    1.714    2.857    1.714    2.000    0.000 
#    0.000    7.143    0.000   20.571    0.000    0.000 
#    0.000    0.000    0.000    0.000    0.000    0.000 
#
# Total GULP energy -312094.070998 kJ/mol
# GULP energy per Si atom -5573.108411 kJ/mol
# Density = 1.935168 g / cm^3
# Si number density = 19.395826 Si / 1000 Ang^3
#
#
#
# Elastic Constant Matrix: (Units=GPa)
#
#
# Indices 1 2 3 4 5 6 
#
# 1 96.0562 20.9633 32.5704 0.0000 0.0000 0.0000
# 2 20.9633 49.3167 6.5112 0.0000 0.0000 0.0000
# 3 32.5704 6.5112 89.2260 0.0000 0.0000 0.0000
# 4 0.0000 0.0000 0.0000 9.8117 0.0000 0.0000
# 5 0.0000 0.0000 0.0000 0.0000 34.1426 0.0000
# 6 0.0000 0.0000 0.0000 0.0000 0.0000 17.8833
#
#
#
# Elastic Compliance Matrix: (Units=1/GPa)
#
#
# Indices 1 2 3 4 5 6 
#
# 1 0.012971 -0.004936 -0.004375 0.000000 0.000000 0.000000
# 2 -0.004936 0.022353 0.000171 0.000000 0.000000 0.000000
# 3 -0.004375 0.000171 0.012792 0.000000 0.000000 0.000000
# 4 0.000000 0.000000 0.000000 0.101919 0.000000 0.000000
# 5 0.000000 0.000000 0.000000 0.000000 0.029289 0.000000
# 6 0.000000 0.000000 0.000000 0.000000 0.000000 0.055918
#
#
# Mechanical properties :
#
#
# Convention : Reuss Voigt Hill
#
# Bulk Modulus (GPa) = 33.51699 39.40985 36.46342
# Shear Modulus (GPa) = 18.97764 24.00445 21.49105
#
# Velocity S-wave (km/s) = 3.13140 3.52178 3.33231
# Velocity P-wave (km/s) = 5.51291 6.07455 5.80053
#
# Compressibility (1/GPa) = 0.02983562
#
# Stress axis : x y z
#
# Youngs Moduli (GPa) = 77.09390 44.73709 78.17419
#
# Poissons Ratio (x) = 0.22083 0.34199
# Poissons Ratio (y) = 0.38055 -0.01334
# Poissons Ratio (z) = 0.33726 -0.00764
#
# Static dielectric constant tensor:
#      x y z
#    x 1.728280 0.000000 0.000000 
#    y 0.000000 1.657900 0.000000 
#    z 0.000000 0.000000 1.707540 
# 
# From -- ./inp_files/20539.got.cif
#   From: 2010.05.17/outbox.cif.g08.bks.cpg/sg54_11_cif.got.tgz:20539.got - 2010.06.03 13:09:01.
