data_PCOD9421511
_publ_section_title
;
Structure prediction by ZEFSAII (Michael W. Deem and Ramdas Pophale) SiO2 
 PCOD9421511
Probable space group: P C C A
;
_chemical_formula_sum "Si O2"
_cell_formula_units_Z 44
_cell_length_a 16.362089
_cell_length_b 11.220434
_cell_length_c 13.083165
_cell_angle_alpha 90.000000
_cell_angle_beta 90.000000
_cell_angle_gamma 90.000000
_cell_volume 2401.934857
_symmetry_space_group_name_H-M "P C C A"
_symmetry_group_IT_number 54
_symmetry_cell_setting 'orthorhombic'
loop_
_space_group_symop_operation_xyz
x,y,z
1/2-x,-y,z
1/2+x,-y,1/2-z
-x,y,1/2-z
-x,-y,-z
1/2+x,y,-z
1/2-x,y,1/2+z
x,-y,1/2+z
loop_
_atom_site_type_symbol
_atom_site_label
_atom_site_fract_x
_atom_site_fract_y
_atom_site_fract_z
Si Si1 0.182265 0.286993 0.171472
Si Si2 0.750000 0.500000 0.964797
Si Si3 0.518259 0.808983 0.431511
Si Si4 0.350839 0.314207 0.908964
Si Si5 0.301704 0.116314 0.065455
Si Si6 0.487358 0.927532 0.633508
O O1 0.170770 0.314255 0.290175
O O2 0.253652 0.191089 0.151321
O O3 0.099277 0.232661 0.124971
O O4 0.206092 0.403587 0.107114
O O5 0.684470 0.569606 0.034836
O O6 0.447426 0.710704 0.422430
O O7 0.532532 0.845320 0.549932
O O8 0.487797 0.934237 0.382035
O O9 0.310157 0.202396 0.968014
O O10 0.391886 0.082231 0.103658
O O11 0.250000 0.000000 0.040736
O O12 0.500000 0.891695 0.750000
#
# Coordination Sequence:
#
# PCOD9421511 Si02
#       6
#     8   4   8   8   8   8
#     4  11  21  39  61  82 117 155 195 242 300 340
#     4  10  24  40  58  82 112 148 208 252 280 356
#     4  10  21  36  57  87 115 151 196 236 287 361
#     4  10  22  39  59  83 116 154 193 246 298 341
#     4  10  21  36  55  92 121 151 196 233 284 358
#     4  10  20  36  57  85 127 158 189 230 288 354
#
# _framework density 18.318565
#
# number of rings (size 3 to 8) (size 9 to 14) (size 15 to 20)
#    0.000    1.818    1.818    2.182    0.000    4.364 
#    0.000    1.818    0.000    0.000    0.000    0.000 
#    0.000    0.000    0.000    0.000    0.000    0.000 
#
# Total GULP energy -245697.181194 kJ/mol
# GULP energy per Si atom -5584.026845 kJ/mol
# Density = 1.827687 g / cm^3
# Si number density = 18.318565 Si / 1000 Ang^3
#
#
#
# Elastic Constant Matrix: (Units=GPa)
#
#
# Indices 1 2 3 4 5 6 
#
# 1 61.2720 28.3682 21.2524 0.0000 0.0000 0.0000
# 2 28.3682 75.7117 20.3904 0.0000 0.0000 0.0000
# 3 21.2524 20.3904 135.5812 0.0000 0.0000 0.0000
# 4 0.0000 0.0000 0.0000 12.2181 0.0000 0.0000
# 5 0.0000 0.0000 0.0000 0.0000 12.5386 0.0000
# 6 0.0000 0.0000 0.0000 0.0000 0.0000 22.4000
#
#
#
# Elastic Compliance Matrix: (Units=1/GPa)
#
#
# Indices 1 2 3 4 5 6 
#
# 1 0.020318 -0.007040 -0.002126 0.000000 0.000000 0.000000
# 2 -0.007040 0.016205 -0.001334 0.000000 0.000000 0.000000
# 3 -0.002126 -0.001334 0.007909 0.000000 0.000000 0.000000
# 4 0.000000 0.000000 0.000000 0.081846 0.000000 0.000000
# 5 0.000000 0.000000 0.000000 0.000000 0.079754 0.000000
# 6 0.000000 0.000000 0.000000 0.000000 0.000000 0.044643
#
#
# Mechanical properties :
#
#
# Convention : Reuss Voigt Hill
#
# Bulk Modulus (GPa) = 42.67560 45.84298 44.25929
# Shear Modulus (GPa) = 17.89006 22.93494 20.41250
#
# Velocity S-wave (km/s) = 3.12846 3.54221 3.34174
# Velocity P-wave (km/s) = 6.03296 6.46602 6.25324
#
# Compressibility (1/GPa) = 0.02343260
#
# Stress axis : x y z
#
# Youngs Moduli (GPa) = 49.21838 61.70929 126.43078
#
# Poissons Ratio (x) = 0.43444 0.26879
# Poissons Ratio (y) = 0.34651 0.16860
# Poissons Ratio (z) = 0.10464 0.08229
#
# Static dielectric constant tensor:
#      x y z
#    x 1.623820 0.000000 0.000000 
#    y 0.000000 1.621610 0.000000 
#    z 0.000000 0.000000 1.616320 
# 
# From -- ./inp_files/8873.got.cif
#   From: 2010.05.17/outbox.cif.g08.bks.cpg/sg54_5_cif.got.tgz:8873.got - 2010.06.03 13:09:01.
