data_PCOD9421122
_publ_section_title
;
Structure prediction by ZEFSAII (Michael W. Deem and Ramdas Pophale) SiO2 
 PCOD9421122
Probable space group: P C C A
;
_chemical_formula_sum "Si O2"
_cell_formula_units_Z 40
_cell_length_a 8.299789
_cell_length_b 7.560482
_cell_length_c 25.792292
_cell_angle_alpha 90.000000
_cell_angle_beta 90.000000
_cell_angle_gamma 90.000000
_cell_volume 1618.476778
_symmetry_space_group_name_H-M "P C C A"
_symmetry_group_IT_number 54
_symmetry_cell_setting 'orthorhombic'
loop_
_space_group_symop_operation_xyz
x,y,z
1/2-x,-y,z
1/2+x,-y,1/2-z
-x,y,1/2-z
-x,-y,-z
1/2+x,y,-z
1/2-x,y,1/2+z
x,-y,1/2+z
loop_
_atom_site_type_symbol
_atom_site_label
_atom_site_fract_x
_atom_site_fract_y
_atom_site_fract_z
Si Si1 0.970597 0.646663 0.861271
Si Si2 0.886318 0.627908 0.970034
Si Si3 0.000000 0.760214 0.250000
Si Si4 0.591715 0.910921 0.549049
Si Si5 0.750000 0.500000 0.202301
Si Si6 0.118512 0.228189 0.644850
O O1 0.982082 0.703617 0.921297
O O2 0.811955 0.761395 0.846893
O O3 0.931736 0.435669 0.856980
O O4 0.139134 0.636525 0.831080
O O5 0.750000 0.500000 0.947555
O O6 0.825279 0.754429 0.014844
O O7 0.000000 0.500000 0.000000
O O8 0.145500 0.626825 0.261875
O O9 0.039509 0.856426 0.196261
O O10 0.459065 0.854275 0.592316
O O11 0.750000 0.000000 0.573412
O O12 0.500000 0.000000 0.500000
#
# Coordination Sequence:
#
# PCOD9421122 Si02
#       6
#     8   8   4   8   4   8
#     4  10  19  35  62  95 135 166 229 282 359 411
#     4  12  22  38  65  96 132 177 230 284 344 428
#     4  10  20  34  60  92 130 172 226 278 354 412
#     4  12  26  43  65  99 144 188 231 287 365 428
#     4  10  20  32  58 100 142 172 216 300 364 424
#     4  10  20  40  59  92 132 180 222 293 346 427
#
# _framework density 24.714597999999999
#
# number of rings (size 3 to 8) (size 9 to 14) (size 15 to 20)
#    0.000    1.200    4.000    4.800    1.400    3.200 
#    0.000    0.000    0.000    3.600    0.000    1.400 
#    0.000    0.000    0.000    0.000    0.000    0.000 
#
# Total GULP energy -223050.140312 kJ/mol
# GULP energy per Si atom -5576.253508 kJ/mol
# Density = 2.465835 g / cm^3
# Si number density = 24.714598 Si / 1000 Ang^3
#
#
#
# Elastic Constant Matrix: (Units=GPa)
#
#
# Indices 1 2 3 4 5 6 
#
# 1 142.7327 28.9010 60.5002 0.0000 0.0000 0.0000
# 2 28.9010 32.1009 18.9205 0.0000 0.0000 0.0000
# 3 60.5002 18.9205 189.9994 0.0000 0.0000 0.0000
# 4 0.0000 0.0000 0.0000 22.6437 0.0000 0.0000
# 5 0.0000 0.0000 0.0000 0.0000 58.7878 0.0000
# 6 0.0000 0.0000 0.0000 0.0000 0.0000 29.8585
#
#
#
# Elastic Compliance Matrix: (Units=1/GPa)
#
#
# Indices 1 2 3 4 5 6 
#
# 1 0.009421 -0.007132 -0.002290 0.000000 0.000000 0.000000
# 2 -0.007132 0.038494 -0.001562 0.000000 0.000000 0.000000
# 3 -0.002290 -0.001562 0.006148 0.000000 0.000000 0.000000
# 4 0.000000 0.000000 0.000000 0.044162 0.000000 0.000000
# 5 0.000000 0.000000 0.000000 0.000000 0.017010 0.000000
# 6 0.000000 0.000000 0.000000 0.000000 0.000000 0.033491
#
#
# Mechanical properties :
#
#
# Convention : Reuss Voigt Hill
#
# Bulk Modulus (GPa) = 31.15805 64.60848 47.88327
# Shear Modulus (GPa) = 27.56454 39.35875 33.46165
#
# Velocity S-wave (km/s) = 3.34325 3.99498 3.68356
# Velocity P-wave (km/s) = 5.24763 6.89046 6.12438
#
# Compressibility (1/GPa) = 0.03209443
#
# Stress axis : x y z
#
# Youngs Moduli (GPa) = 106.14892 25.97817 162.66013
#
# Poissons Ratio (x) = 0.18528 0.37242
# Poissons Ratio (y) = 0.75707 0.25411
# Poissons Ratio (z) = 0.24303 0.04058
#
# Static dielectric constant tensor:
#      x y z
#    x 1.787590 0.000000 0.000000 
#    y 0.000000 2.063570 0.000000 
#    z 0.000000 0.000000 1.940970 
# 
# From -- ./inp_files/25761.got.cif
#   From: 2010.05.17/outbox.cif.g08.bks.cpg/sg54_13_cif.got.tgz:25761.got - 2010.06.03 13:09:01.
