data_PCOD9421732
_publ_section_title
;
Structure prediction by ZEFSAII (Michael W. Deem and Ramdas Pophale) SiO2 
 PCOD9421732
Probable space group: P C C A
;
_chemical_formula_sum "Si O2"
_cell_formula_units_Z 32
_cell_length_a 9.240850
_cell_length_b 11.136317
_cell_length_c 12.904144
_cell_angle_alpha 90.000000
_cell_angle_beta 90.000000
_cell_angle_gamma 90.000000
_cell_volume 1327.953006
_symmetry_space_group_name_H-M "P C C A"
_symmetry_group_IT_number 54
_symmetry_cell_setting 'orthorhombic'
loop_
_space_group_symop_operation_xyz
x,y,z
1/2-x,-y,z
1/2+x,-y,1/2-z
-x,y,1/2-z
-x,-y,-z
1/2+x,y,-z
1/2-x,y,1/2+z
x,-y,1/2+z
loop_
_atom_site_type_symbol
_atom_site_label
_atom_site_fract_x
_atom_site_fract_y
_atom_site_fract_z
Si Si1 0.500000 0.987326 0.250000
Si Si2 0.429303 0.210295 0.487593
Si Si3 0.750000 0.000000 0.120549
Si Si4 0.637982 0.395006 0.190369
Si Si5 0.303110 0.190692 0.140153
O O1 0.625961 0.926027 0.183274
O O2 0.389590 0.075417 0.185698
O O3 0.386379 0.326033 0.418213
O O4 0.600377 0.208824 0.464700
O O5 0.361286 0.201713 0.601481
O O6 0.351842 0.092340 0.439204
O O7 0.750000 0.500000 0.175838
O O8 0.500000 0.450524 0.250000
O O9 0.676868 0.291144 0.273054
#
# Coordination Sequence:
#
# PCOD9421732 Si02
#       5
#     4   8   4   8   8
#     4  10  20  38  62  80 128 162 186 246 294 356
#     4  10  22  38  60  90 118 158 198 241 296 356
#     4  10  20  38  58  90 122 156 198 238 298 354
#     4  10  21  42  62  83 122 157 200 250 299 345
#     4  10  20  41  60  84 124 155 193 244 297 347
#
# _framework density 24.097237
#
# number of rings (size 3 to 8) (size 9 to 14) (size 15 to 20)
#    0.000    2.000    6.250    0.000    0.000   10.000 
#    2.250    5.000    0.000    0.000    0.000    0.000 
#    0.000    0.000    0.000    0.000    0.000    0.000 
#
# Total GULP energy -178327.897927 kJ/mol
# GULP energy per Si atom -5572.746810 kJ/mol
# Density = 2.404239 g / cm^3
# Si number density = 24.097237 Si / 1000 Ang^3
#
#
#
# Elastic Constant Matrix: (Units=GPa)
#
#
# Indices 1 2 3 4 5 6 
#
# 1 103.3883 13.2386 6.0656 0.0000 0.0000 0.0000
# 2 13.2386 52.6040 -8.6620 0.0000 0.0000 0.0000
# 3 6.0656 -8.6620 52.4108 0.0000 0.0000 0.0000
# 4 0.0000 0.0000 0.0000 9.8991 0.0000 0.0000
# 5 0.0000 0.0000 0.0000 0.0000 44.5993 0.0000
# 6 0.0000 0.0000 0.0000 0.0000 0.0000 2.8188
#
#
#
# Elastic Compliance Matrix: (Units=1/GPa)
#
#
# Indices 1 2 3 4 5 6 
#
# 1 0.010129 -0.002819 -0.001638 0.000000 0.000000 0.000000
# 2 -0.002819 0.020326 0.003686 0.000000 0.000000 0.000000
# 3 -0.001638 0.003686 0.019879 0.000000 0.000000 0.000000
# 4 0.000000 0.000000 0.000000 0.101019 0.000000 0.000000
# 5 0.000000 0.000000 0.000000 0.000000 0.022422 0.000000
# 6 0.000000 0.000000 0.000000 0.000000 0.000000 0.354763
#
#
# Mechanical properties :
#
#
# Convention : Reuss Voigt Hill
#
# Bulk Modulus (GPa) = 20.49545 25.52083 23.00814
# Shear Modulus (GPa) = 9.15173 24.64751 16.89962
#
# Velocity S-wave (km/s) = 1.95092 3.20165 2.65110
# Velocity P-wave (km/s) = 3.68762 4.92759 4.35200
#
# Compressibility (1/GPa) = 0.04879131
#
# Stress axis : x y z
#
# Youngs Moduli (GPa) = 98.72308 49.19738 50.30496
#
# Poissons Ratio (x) = 0.13869 0.08241
# Poissons Ratio (y) = 0.27830 -0.18540
# Poissons Ratio (z) = 0.16173 -0.18132
#
# Static dielectric constant tensor:
#      x y z
#    x 1.970550 0.000000 0.000000 
#    y 0.000000 1.891520 0.000000 
#    z 0.000000 0.000000 2.157820 
# 
# From -- ./inp_files/7304.got.cif
#   From: 2010.05.17/outbox.cif.g08.bks.cpg/sg54_4_cif.got.tgz:7304.got - 2010.06.03 13:09:01.
