data_PCOD9421448
_publ_section_title
;
Structure prediction by ZEFSAII (Michael W. Deem and Ramdas Pophale) SiO2 
 PCOD9421448
Probable space group: P C C A
;
_chemical_formula_sum "Si O2"
_cell_formula_units_Z 40
_cell_length_a 8.770375
_cell_length_b 11.072881
_cell_length_c 16.351696
_cell_angle_alpha 90.000000
_cell_angle_beta 90.000000
_cell_angle_gamma 90.000000
_cell_volume 1587.967465
_symmetry_space_group_name_H-M "P C C A"
_symmetry_group_IT_number 54
_symmetry_cell_setting 'orthorhombic'
loop_
_space_group_symop_operation_xyz
x,y,z
1/2-x,-y,z
1/2+x,-y,1/2-z
-x,y,1/2-z
-x,-y,-z
1/2+x,y,-z
1/2-x,y,1/2+z
x,-y,1/2+z
loop_
_atom_site_type_symbol
_atom_site_label
_atom_site_fract_x
_atom_site_fract_y
_atom_site_fract_z
Si Si1 0.667349 0.842618 0.111342
Si Si2 0.250000 0.000000 0.743657
Si Si3 0.762232 0.643420 0.904999
Si Si4 0.500000 0.182748 0.250000
Si Si5 0.029687 0.214068 0.971021
Si Si6 0.266219 0.357679 0.784762
O O1 0.653386 0.917012 0.194125
O O2 0.840221 0.857407 0.078282
O O3 0.641292 0.704715 0.142337
O O4 0.554805 0.868143 0.037943
O O5 0.124078 0.091725 0.706126
O O6 0.750000 0.500000 0.913357
O O7 0.603017 0.713723 0.923039
O O8 0.811370 0.663453 0.810030
O O9 0.873300 0.692233 0.974640
O O10 0.611109 0.280314 0.207749
O O11 0.250000 0.500000 0.796701
#
# Coordination Sequence:
#
# PCOD9421448 Si02
#       6
#     8   4   8   4   8   8
#     4  10  23  41  62  90 124 170 218 269 333 391
#     4  10  22  42  68  94 132 174 222 278 330 402
#     4  10  20  35  57  85 121 166 210 262 325 394
#     4  10  22  42  66 100 136 174 222 280 342 388
#     4  10  22  38  56  86 127 164 213 269 329 395
#     4  10  22  39  64  94 130 170 221 277 330 399
#
# _framework density 25.189433000000001
#
# number of rings (size 3 to 8) (size 9 to 14) (size 15 to 20)
#    0.000    2.000    0.000    3.000    0.000   12.800 
#    0.000    1.000    0.000    1.200    0.000    0.000 
#    0.000    0.000    0.000    0.000    0.000    0.000 
#
# Total GULP energy -223122.435765 kJ/mol
# GULP energy per Si atom -5578.060894 kJ/mol
# Density = 2.513210 g / cm^3
# Si number density = 25.189433 Si / 1000 Ang^3
#
#
#
# Elastic Constant Matrix: (Units=GPa)
#
#
# Indices 1 2 3 4 5 6 
#
# 1 143.1472 45.4452 33.0939 0.0000 0.0000 0.0000
# 2 45.4452 127.0015 29.5357 0.0000 0.0000 0.0000
# 3 33.0939 29.5357 83.1311 0.0000 0.0000 0.0000
# 4 0.0000 0.0000 0.0000 27.2937 0.0000 0.0000
# 5 0.0000 0.0000 0.0000 0.0000 36.3474 0.0000
# 6 0.0000 0.0000 0.0000 0.0000 0.0000 28.4240
#
#
#
# Elastic Compliance Matrix: (Units=1/GPa)
#
#
# Indices 1 2 3 4 5 6 
#
# 1 0.008317 -0.002405 -0.002457 0.000000 0.000000 0.000000
# 2 -0.002405 0.009278 -0.002339 0.000000 0.000000 0.000000
# 3 -0.002457 -0.002339 0.013838 0.000000 0.000000 0.000000
# 4 0.000000 0.000000 0.000000 0.036638 0.000000 0.000000
# 5 0.000000 0.000000 0.000000 0.000000 0.027512 0.000000
# 6 0.000000 0.000000 0.000000 0.000000 0.000000 0.035182
#
#
# Mechanical properties :
#
#
# Convention : Reuss Voigt Hill
#
# Bulk Modulus (GPa) = 58.71088 63.26993 60.99041
# Shear Modulus (GPa) = 33.14660 34.76004 33.95332
#
# Velocity S-wave (km/s) = 3.63146 3.71879 3.67538
# Velocity P-wave (km/s) = 6.39857 6.60389 6.50204
#
# Compressibility (1/GPa) = 0.01703262
#
# Stress axis : x y z
#
# Youngs Moduli (GPa) = 120.23240 107.77649 72.26356
#
# Poissons Ratio (x) = 0.25919 0.17752
# Poissons Ratio (y) = 0.28914 0.16904
# Poissons Ratio (z) = 0.29536 0.25211
#
# Static dielectric constant tensor:
#      x y z
#    x 2.083430 0.000000 0.000000 
#    y 0.000000 1.899500 0.000000 
#    z 0.000000 0.000000 2.080700 
# 
# From -- ./inp_files/16393.got.cif
#   From: 2010.05.17/outbox.cif.g08.bks.cpg/sg54_9_cif.got.tgz:16393.got - 2010.06.03 13:09:01.
