data_PCOD9421475
_publ_section_title
;
Structure prediction by ZEFSAII (Michael W. Deem and Ramdas Pophale) SiO2 
 PCOD9421475
Probable space group: P C C A
;
_chemical_formula_sum "Si O2"
_cell_formula_units_Z 64
_cell_length_a 30.101468
_cell_length_b 5.386915
_cell_length_c 17.064123
_cell_angle_alpha 90.000000
_cell_angle_beta 90.000000
_cell_angle_gamma 90.000000
_cell_volume 2767.016645
_symmetry_space_group_name_H-M "P C C A"
_symmetry_group_IT_number 54
_symmetry_cell_setting 'orthorhombic'
loop_
_space_group_symop_operation_xyz
x,y,z
1/2-x,-y,z
1/2+x,-y,1/2-z
-x,y,1/2-z
-x,-y,-z
1/2+x,y,-z
1/2-x,y,1/2+z
x,-y,1/2+z
loop_
_atom_site_type_symbol
_atom_site_label
_atom_site_fract_x
_atom_site_fract_y
_atom_site_fract_z
Si Si1 0.458876 0.772889 0.568665
Si Si2 0.597352 0.165982 0.977472
Si Si3 0.147935 0.025286 0.886714
Si Si4 0.224932 0.749731 0.072833
Si Si5 0.456523 0.524836 0.409390
Si Si6 0.134102 0.537629 0.124859
Si Si7 0.877420 0.465908 0.193857
Si Si8 0.259553 0.754472 0.896994
O O1 0.468661 0.729568 0.475271
O O2 0.501301 0.648896 0.609235
O O3 0.414318 0.642788 0.601211
O O4 0.442593 0.056224 0.573999
O O5 0.618451 0.968276 0.036832
O O6 0.576912 0.360916 0.037948
O O7 0.635692 0.288914 0.926823
O O8 0.128615 0.242501 0.830405
O O9 0.189986 0.184663 0.918249
O O10 0.152030 0.756305 0.845583
O O11 0.250000 0.500000 0.099865
O O12 0.174567 0.716053 0.101404
O O13 0.250000 0.000000 0.098440
O O14 0.230462 0.746502 0.977033
O O15 0.427522 0.604074 0.334813
O O16 0.132587 0.465838 0.214955
O O17 0.250000 0.500000 0.854760
O O18 0.250000 0.000000 0.847334
#
# Coordination Sequence:
#
# PCOD9421475 Si02
#       8
#     8   8   8   8   8   8   8   8
#     4  10  20  37  68  96 136 178 244 298 342 421
#     4  10  20  37  69  99 133 181 242 300 339 425
#     4  11  23  42  68  95 132 184 232 286 357 416
#     4  10  23  40  65  98 132 168 223 289 339 411
#     4   9  20  39  61  99 136 184 237 293 356 402
#     4  11  26  40  67 103 141 187 236 292 372 431
#     4  11  25  44  65  97 146 189 227 290 364 444
#     4  10  20  35  63  96 125 156 218 286 332 399
#
# _framework density 23.129602999999999
#
# number of rings (size 3 to 8) (size 9 to 14) (size 15 to 20)
#    0.000    1.750    1.250    2.625    7.000    0.500 
#    0.000    2.500    0.000    0.000    0.000    0.000 
#    0.000    0.000    0.000    0.000    0.000    0.000 
#
# Total GULP energy -356546.738115 kJ/mol
# GULP energy per Si atom -5571.042783 kJ/mol
# Density = 2.307696 g / cm^3
# Si number density = 23.129603 Si / 1000 Ang^3
#
#
#
# Elastic Constant Matrix: (Units=GPa)
#
#
# Indices 1 2 3 4 5 6 
#
# 1 110.6999 33.4777 45.0620 0.0000 0.0000 0.0000
# 2 33.4777 140.5680 32.0822 0.0000 0.0000 0.0000
# 3 45.0620 32.0822 82.7898 0.0000 0.0000 0.0000
# 4 0.0000 0.0000 0.0000 20.2129 0.0000 0.0000
# 5 0.0000 0.0000 0.0000 0.0000 9.2244 0.0000
# 6 0.0000 0.0000 0.0000 0.0000 0.0000 44.6282
#
#
#
# Elastic Compliance Matrix: (Units=1/GPa)
#
#
# Indices 1 2 3 4 5 6 
#
# 1 0.011881 -0.001485 -0.005891 0.000000 0.000000 0.000000
# 2 -0.001485 0.007990 -0.002288 0.000000 0.000000 0.000000
# 3 -0.005891 -0.002288 0.016172 0.000000 0.000000 0.000000
# 4 0.000000 0.000000 0.000000 0.049473 0.000000 0.000000
# 5 0.000000 0.000000 0.000000 0.000000 0.108409 0.000000
# 6 0.000000 0.000000 0.000000 0.000000 0.000000 0.022407
#
#
# Mechanical properties :
#
#
# Convention : Reuss Voigt Hill
#
# Bulk Modulus (GPa) = 59.82881 61.70017 60.76449
# Shear Modulus (GPa) = 20.72702 29.70880 25.21791
#
# Velocity S-wave (km/s) = 2.99678 3.58781 3.30553
# Velocity P-wave (km/s) = 6.15607 6.62548 6.39508
#
# Compressibility (1/GPa) = 0.01671436
#
# Stress axis : x y z
#
# Youngs Moduli (GPa) = 84.17110 125.15918 61.83579
#
# Poissons Ratio (x) = 0.18585 0.36428
# Poissons Ratio (y) = 0.12499 0.14148
# Poissons Ratio (z) = 0.49586 0.28635
#
# Static dielectric constant tensor:
#      x y z
#    x 1.656480 0.000000 0.000000 
#    y 0.000000 2.027440 0.000000 
#    z 0.000000 0.000000 1.822070 
# 
# From -- ./inp_files/19355.got.cif
#   From: 2010.05.17/outbox.cif.g08.bks.cpg/sg54_10_cif.got.tgz:19355.got - 2010.06.03 13:09:01.
