data_PCOD9421112
_publ_section_title
;
Structure prediction by ZEFSAII (Michael W. Deem and Ramdas Pophale) SiO2 
 PCOD9421112
Probable space group: P C C A
;
_chemical_formula_sum "Si O2"
_cell_formula_units_Z 56
_cell_length_a 8.887236
_cell_length_b 12.193323
_cell_length_c 20.072205
_cell_angle_alpha 90.000000
_cell_angle_beta 90.000000
_cell_angle_gamma 90.000000
_cell_volume 2175.123273
_symmetry_space_group_name_H-M "P C C A"
_symmetry_group_IT_number 54
_symmetry_cell_setting 'orthorhombic'
loop_
_space_group_symop_operation_xyz
x,y,z
1/2-x,-y,z
1/2+x,-y,1/2-z
-x,y,1/2-z
-x,-y,-z
1/2+x,y,-z
1/2-x,y,1/2+z
x,-y,1/2+z
loop_
_atom_site_type_symbol
_atom_site_label
_atom_site_fract_x
_atom_site_fract_y
_atom_site_fract_z
Si Si1 0.663457 0.887668 0.077379
Si Si2 0.379627 0.322503 0.572648
Si Si3 0.753246 0.654923 0.565704
Si Si4 0.659854 0.760250 0.286076
Si Si5 0.944419 0.015673 0.321318
Si Si6 0.341451 0.886923 0.563838
Si Si7 0.649696 0.603168 0.707751
O O1 0.771745 0.784507 0.077741
O O2 0.556254 0.899553 0.139994
O O3 0.750000 0.000000 0.075065
O O4 0.575028 0.876424 0.006784
O O5 0.561481 0.344551 0.568894
O O6 0.310511 0.380839 0.506549
O O7 0.345063 0.326752 0.652108
O O8 0.281013 0.208876 0.565212
O O9 0.660202 0.602241 0.626814
O O10 0.500000 0.753598 0.250000
O O11 0.683240 0.890326 0.304766
O O12 0.779030 0.716368 0.233590
O O13 0.559237 0.086838 0.372068
O O14 0.000000 0.979107 0.250000
O O15 0.250000 0.000000 0.562654
O O16 0.750000 0.500000 0.727562
O O17 0.500000 0.590939 0.750000
#
# Coordination Sequence:
#
# PCOD9421112 Si02
#       7
#     8   8   8   8   8   8   8
#     4  10  21  38  61  95 144 203 253 300 359 427
#     4  11  23  41  75 101 153 202 245 305 367 428
#     4  11  24  48  72 113 150 196 251 309 364 439
#     4  11  21  45  77 102 146 201 241 306 385 435
#     4  11  21  37  59  95 143 196 257 315 362 419
#     4  10  19  35  60  91 137 201 257 293 358 421
#     4  12  29  54  84 114 143 187 241 303 385 468
#
# _framework density 25.745667000000001
#
# number of rings (size 3 to 8) (size 9 to 14) (size 15 to 20)
#    0.000    1.143    4.286    1.714    2.000    6.286 
#    2.571    1.429    0.000    0.000    0.000    0.000 
#    0.000    0.000    0.000    0.000    0.000    0.000 
#
# Total GULP energy -311995.999869 kJ/mol
# GULP energy per Si atom -5571.357141 kJ/mol
# Density = 2.568707 g / cm^3
# Si number density = 25.745667 Si / 1000 Ang^3
#
#
#
# Elastic Constant Matrix: (Units=GPa)
#
#
# Indices 1 2 3 4 5 6 
#
# 1 71.7525 23.4212 51.8918 0.0000 0.0000 0.0000
# 2 23.4212 82.9564 19.0707 0.0000 0.0000 0.0000
# 3 51.8918 19.0707 234.0950 0.0000 0.0000 0.0000
# 4 0.0000 0.0000 0.0000 -33.0867 0.0000 0.0000
# 5 0.0000 0.0000 0.0000 0.0000 42.0304 0.0000
# 6 0.0000 0.0000 0.0000 0.0000 0.0000 4.4582
#
#
#
# Elastic Compliance Matrix: (Units=1/GPa)
#
#
# Indices 1 2 3 4 5 6 
#
# 1 0.017946 -0.004231 -0.003633 0.000000 0.000000 0.000000
# 2 -0.004231 0.013282 -0.000144 0.000000 0.000000 0.000000
# 3 -0.003633 -0.000144 0.005089 0.000000 0.000000 0.000000
# 4 0.000000 0.000000 0.000000 -0.030224 0.000000 0.000000
# 5 0.000000 0.000000 0.000000 0.000000 0.023792 0.000000
# 6 0.000000 0.000000 0.000000 0.000000 0.000000 0.224307
#
#
# Mechanical properties :
#
#
# Convention : Reuss Voigt Hill
#
# Bulk Modulus (GPa) = 49.26272 64.17460 56.71866
# Shear Modulus (GPa) = 18.05211 22.30840 20.18026
#
# Velocity S-wave (km/s) = 2.65084 2.94682 2.80274
# Velocity P-wave (km/s) = 5.34277 6.04639 5.70543
#
# Compressibility (1/GPa) = 0.02029932
#
# Stress axis : x y z
#
# Youngs Moduli (GPa) = 55.72397 75.28825 196.50617
#
# Poissons Ratio (x) = 0.31857 0.71396
# Poissons Ratio (y) = 0.23579 0.02831
# Poissons Ratio (z) = 0.20246 0.01085
#
# Static dielectric constant tensor:
#      x y z
#    x 2.093640 0.000000 0.000000 
#    y 0.000000 2.071250 0.000000 
#    z 0.000000 0.000000 2.163360 
# 
# From -- ./inp_files/20569.got.cif
#   From: 2010.05.17/outbox.cif.g08.bks.cpg/sg54_11_cif.got.tgz:20569.got - 2010.06.03 13:09:01.
