data_PCOD9421877
_publ_section_title
;
Structure prediction by ZEFSAII (Michael W. Deem and Ramdas Pophale) SiO2 
 PCOD9421877
Probable space group: P C C A
;
_chemical_formula_sum "Si O2"
_cell_formula_units_Z 32
_cell_length_a 13.934072
_cell_length_b 9.087371
_cell_length_c 10.153185
_cell_angle_alpha 90.000000
_cell_angle_beta 90.000000
_cell_angle_gamma 90.000000
_cell_volume 1285.637728
_symmetry_space_group_name_H-M "P C C A"
_symmetry_group_IT_number 54
_symmetry_cell_setting 'orthorhombic'
loop_
_space_group_symop_operation_xyz
x,y,z
1/2-x,-y,z
1/2+x,-y,1/2-z
-x,y,1/2-z
-x,-y,-z
1/2+x,y,-z
1/2-x,y,1/2+z
x,-y,1/2+z
loop_
_atom_site_type_symbol
_atom_site_label
_atom_site_fract_x
_atom_site_fract_y
_atom_site_fract_z
Si Si1 0.920918 0.869571 0.084815
Si Si2 0.547976 0.401127 0.386480
Si Si3 0.773403 0.653593 0.225447
Si Si4 0.649623 0.912623 0.298492
O O1 0.837034 0.756459 0.131371
O O2 0.014570 0.768438 0.096323
O O3 0.905644 0.006263 0.181629
O O4 0.904344 0.915063 0.935918
O O5 0.500000 0.454160 0.250000
O O6 0.500000 0.500000 0.500000
O O7 0.660588 0.389193 0.352348
O O8 0.750000 0.500000 0.158505
O O9 0.680129 0.746676 0.263342
O O10 0.750000 0.000000 0.316387
#
# Coordination Sequence:
#
# PCOD9421877 Si02
#       4
#     8   8   8   8
#     4  10  22  41  64  94 131 175 217 268 330 397
#     4  10  22  42  65  96 133 170 220 278 337 399
#     4  10  21  38  66  99 129 168 219 275 332 394
#     4  10  20  39  64  93 129 173 221 269 325 394
#
# _framework density 24.890370999999998
#
# number of rings (size 3 to 8) (size 9 to 14) (size 15 to 20)
#    0.000    2.000    0.000    3.750    0.000    5.000 
#    0.000   35.000    0.000   31.500    0.000    0.000 
#    0.000    0.000    0.000    0.000    0.000    0.000 
#
# Total GULP energy -179292.218051 kJ/mol
# GULP energy per Si atom -5602.881814 kJ/mol
# Density = 2.483372 g / cm^3
# Si number density = 24.890371 Si / 1000 Ang^3
#
#
#
# Elastic Constant Matrix: (Units=GPa)
#
#
# Indices 1 2 3 4 5 6 
#
# 1 92.9535 48.4781 47.3138 0.0000 0.0000 0.0000
# 2 48.4781 169.8354 86.1697 0.0000 0.0000 0.0000
# 3 47.3138 86.1697 165.2130 0.0000 0.0000 0.0000
# 4 0.0000 0.0000 0.0000 21.5395 0.0000 0.0000
# 5 0.0000 0.0000 0.0000 0.0000 26.1473 0.0000
# 6 0.0000 0.0000 0.0000 0.0000 0.0000 37.2363
#
#
#
# Elastic Compliance Matrix: (Units=1/GPa)
#
#
# Indices 1 2 3 4 5 6 
#
# 1 0.013357 -0.002545 -0.002498 0.000000 0.000000 0.000000
# 2 -0.002545 0.008492 -0.003700 0.000000 0.000000 0.000000
# 3 -0.002498 -0.003700 0.008698 0.000000 0.000000 0.000000
# 4 0.000000 0.000000 0.000000 0.046426 0.000000 0.000000
# 5 0.000000 0.000000 0.000000 0.000000 0.038245 0.000000
# 6 0.000000 0.000000 0.000000 0.000000 0.000000 0.026855
#
#
# Mechanical properties :
#
#
# Convention : Reuss Voigt Hill
#
# Bulk Modulus (GPa) = 76.56683 87.99169 82.27926
# Shear Modulus (GPa) = 30.50396 33.38732 31.94564
#
# Velocity S-wave (km/s) = 3.50456 3.66645 3.58642
# Velocity P-wave (km/s) = 6.87054 7.30426 7.09072
#
# Compressibility (1/GPa) = 0.01306049
#
# Stress axis : x y z
#
# Youngs Moduli (GPa) = 74.86801 117.75799 114.96977
#
# Poissons Ratio (x) = 0.29974 0.28714
# Poissons Ratio (y) = 0.19057 0.42541
# Poissons Ratio (z) = 0.18699 0.43573
#
# Static dielectric constant tensor:
#      x y z
#    x 2.030880 0.000000 0.000000 
#    y 0.000000 1.990160 0.000000 
#    z 0.000000 0.000000 1.920210 
# 
# From -- ./inp_files/7969.got.cif
#   From: 2010.05.17/outbox.cif.g08.bks.cpg/sg54_4_cif.got.tgz:7969.got - 2010.06.03 13:09:01.
