data_PCOD9421650
_publ_section_title
;
Structure prediction by ZEFSAII (Michael W. Deem and Ramdas Pophale) SiO2 
 PCOD9421650
Probable space group: P C C A
;
_chemical_formula_sum "Si O2"
_cell_formula_units_Z 36
_cell_length_a 18.508675
_cell_length_b 7.862598
_cell_length_c 11.414612
_cell_angle_alpha 90.000000
_cell_angle_beta 90.000000
_cell_angle_gamma 90.000000
_cell_volume 1661.125920
_symmetry_space_group_name_H-M "P C C A"
_symmetry_group_IT_number 54
_symmetry_cell_setting 'orthorhombic'
loop_
_space_group_symop_operation_xyz
x,y,z
1/2-x,-y,z
1/2+x,-y,1/2-z
-x,y,1/2-z
-x,-y,-z
1/2+x,y,-z
1/2-x,y,1/2+z
x,-y,1/2+z
loop_
_atom_site_type_symbol
_atom_site_label
_atom_site_fract_x
_atom_site_fract_y
_atom_site_fract_z
Si Si1 0.477656 0.873241 0.104628
Si Si2 0.072881 0.608254 0.982333
Si Si3 0.750000 0.000000 0.441183
Si Si4 0.615335 0.847699 0.804316
Si Si5 0.648944 0.280844 0.046876
O O1 0.439208 0.994319 0.198053
O O2 0.545739 0.744923 0.115487
O O3 0.410036 0.769864 0.050733
O O4 0.500000 0.000000 0.000000
O O5 0.087679 0.708522 0.102588
O O6 0.141221 0.486946 0.954019
O O7 0.000000 0.500000 0.000000
O O8 0.688702 0.080121 0.359437
O O9 0.783155 0.158650 0.515696
O O10 0.624165 0.773285 0.675988
#
# Coordination Sequence:
#
# PCOD9421650 Si02
#       5
#     8   8   4   8   8
#     4   8  17  34  56  85 116 144 186 236 286 355
#     4   9  19  36  56  88 120 141 185 245 292 352
#     4  10  22  40  58  84 114 152 208 246 278 350
#     4  10  20  38  61  83 116 158 193 238 297 352
#     4  10  20  37  59  83 116 156 193 240 295 345
#
# _framework density 21.672048
#
# number of rings (size 3 to 8) (size 9 to 14) (size 15 to 20)
#    0.000    2.667    0.000    0.667    0.000    8.889 
#    0.000   33.333    0.000    0.000    0.000    0.000 
#    0.000    0.000    0.000    0.000    0.000    0.000 
#
# Total GULP energy -200496.420864 kJ/mol
# GULP energy per Si atom -5569.345024 kJ/mol
# Density = 2.162272 g / cm^3
# Si number density = 21.672048 Si / 1000 Ang^3
#
#
#
# Elastic Constant Matrix: (Units=GPa)
#
#
# Indices 1 2 3 4 5 6 
#
# 1 95.1654 53.4870 31.1959 0.0000 0.0000 0.0000
# 2 53.4870 147.5245 52.3286 0.0000 0.0000 0.0000
# 3 31.1959 52.3286 99.2913 0.0000 0.0000 0.0000
# 4 0.0000 0.0000 0.0000 33.7049 0.0000 0.0000
# 5 0.0000 0.0000 0.0000 0.0000 38.9610 0.0000
# 6 0.0000 0.0000 0.0000 0.0000 0.0000 62.3485
#
#
#
# Elastic Compliance Matrix: (Units=1/GPa)
#
#
# Indices 1 2 3 4 5 6 
#
# 1 0.013528 -0.004178 -0.002048 0.000000 0.000000 0.000000
# 2 -0.004178 0.009628 -0.003761 0.000000 0.000000 0.000000
# 3 -0.002048 -0.003761 0.012697 0.000000 0.000000 0.000000
# 4 0.000000 0.000000 0.000000 0.029669 0.000000 0.000000
# 5 0.000000 0.000000 0.000000 0.000000 0.025667 0.000000
# 6 0.000000 0.000000 0.000000 0.000000 0.000000 0.016039
#
#
# Mechanical properties :
#
#
# Convention : Reuss Voigt Hill
#
# Bulk Modulus (GPa) = 62.98329 68.44492 65.71410
# Shear Modulus (GPa) = 37.73733 40.66753 39.20243
#
# Velocity S-wave (km/s) = 4.17740 4.33655 4.25772
# Velocity P-wave (km/s) = 7.23828 7.53160 7.38639
#
# Compressibility (1/GPa) = 0.01587723
#
# Stress axis : x y z
#
# Youngs Moduli (GPa) = 73.92219 103.86905 78.75786
#
# Poissons Ratio (x) = 0.43398 0.16132
# Poissons Ratio (y) = 0.30886 0.29622
# Poissons Ratio (z) = 0.15141 0.39067
#
# Static dielectric constant tensor:
#      x y z
#    x 1.813710 0.000000 0.000000 
#    y 0.000000 1.876910 0.000000 
#    z 0.000000 0.000000 1.831170 
# 
# From -- ./inp_files/9360.got.cif
#   From: 2010.05.17/outbox.cif.g08.bks.cpg/sg54_5_cif.got.tgz:9360.got - 2010.06.03 13:09:01.
