data_PCOD9421047
_publ_section_title
;
Structure prediction by ZEFSAII (Michael W. Deem and Ramdas Pophale) SiO2 
 PCOD9421047
Probable space group: P C C A
;
_chemical_formula_sum "Si O2"
_cell_formula_units_Z 40
_cell_length_a 8.802383
_cell_length_b 9.439793
_cell_length_c 18.095999
_cell_angle_alpha 90.000000
_cell_angle_beta 90.000000
_cell_angle_gamma 90.000000
_cell_volume 1503.644935
_symmetry_space_group_name_H-M "P C C A"
_symmetry_group_IT_number 54
_symmetry_cell_setting 'orthorhombic'
loop_
_space_group_symop_operation_xyz
x,y,z
1/2-x,-y,z
1/2+x,-y,1/2-z
-x,y,1/2-z
-x,-y,-z
1/2+x,y,-z
1/2-x,y,1/2+z
x,-y,1/2+z
loop_
_atom_site_type_symbol
_atom_site_label
_atom_site_fract_x
_atom_site_fract_y
_atom_site_fract_z
Si Si1 0.824522 0.142241 0.406316
Si Si2 0.680121 0.359188 0.298258
Si Si3 0.373325 0.248035 0.961357
Si Si4 0.109210 0.094079 0.807850
Si Si5 0.567634 0.331124 0.092443
O O1 0.784035 0.281451 0.359151
O O2 0.737385 0.161146 0.484214
O O3 0.005849 0.150626 0.418150
O O4 0.750000 0.000000 0.372549
O O5 0.750000 0.500000 0.265772
O O6 0.657188 0.233520 0.239737
O O7 0.529869 0.408570 0.344398
O O8 0.249622 0.338197 0.915379
O O9 0.480817 0.342542 0.014574
O O10 0.039951 0.167272 0.879910
O O11 0.000000 0.015190 0.750000
O O12 0.250000 0.000000 0.826873
#
# Coordination Sequence:
#
# PCOD9421047 Si02
#       5
#     8   8   8   8   8
#     4  10  19  34  59  90 124 163 210 262 317 383
#     4  10  22  42  63  88 125 167 211 265 320 378
#     4   9  19  36  60  92 126 163 204 258 322 381
#     4  10  22  41  65  94 126 164 213 266 318 378
#     4   9  20  39  62  92 129 163 204 257 317 384
#
# _framework density 26.602025000000001
#
# number of rings (size 3 to 8) (size 9 to 14) (size 15 to 20)
#    0.000    2.400    0.000    1.200    0.000    9.600 
#    0.000   26.000    0.000    1.200    0.000    0.000 
#    0.000    0.000    0.000    0.000    0.000    0.000 
#
# Total GULP energy -223587.385534 kJ/mol
# GULP energy per Si atom -5589.684638 kJ/mol
# Density = 2.654148 g / cm^3
# Si number density = 26.602025 Si / 1000 Ang^3
#
#
#
# Elastic Constant Matrix: (Units=GPa)
#
#
# Indices 1 2 3 4 5 6 
#
# 1 187.6532 37.4862 38.5797 0.0000 0.0000 0.0000
# 2 37.4862 102.5457 6.2534 0.0000 0.0000 0.0000
# 3 38.5797 6.2534 71.6549 0.0000 0.0000 0.0000
# 4 0.0000 0.0000 0.0000 4.5319 0.0000 0.0000
# 5 0.0000 0.0000 0.0000 0.0000 45.2482 0.0000
# 6 0.0000 0.0000 0.0000 0.0000 0.0000 27.7265
#
#
#
# Elastic Compliance Matrix: (Units=1/GPa)
#
#
# Indices 1 2 3 4 5 6 
#
# 1 0.006432 -0.002152 -0.003275 0.000000 0.000000 0.000000
# 2 -0.002152 0.010524 0.000240 0.000000 0.000000 0.000000
# 3 -0.003275 0.000240 0.015698 0.000000 0.000000 0.000000
# 4 0.000000 0.000000 0.000000 0.220659 0.000000 0.000000
# 5 0.000000 0.000000 0.000000 0.000000 0.022100 0.000000
# 6 0.000000 0.000000 0.000000 0.000000 0.000000 0.036067
#
#
# Mechanical properties :
#
#
# Convention : Reuss Voigt Hill
#
# Bulk Modulus (GPa) = 44.88273 58.49916 51.69094
# Shear Modulus (GPa) = 15.18462 34.13696 24.66079
#
# Velocity S-wave (km/s) = 2.39175 3.58613 3.04801
# Velocity P-wave (km/s) = 4.95337 6.25982 5.64452
#
# Compressibility (1/GPa) = 0.02228029
#
# Stress axis : x y z
#
# Youngs Moduli (GPa) = 155.46847 95.02415 63.70102
#
# Poissons Ratio (x) = 0.20445 0.20864
# Poissons Ratio (y) = 0.33450 -0.01529
# Poissons Ratio (z) = 0.50922 -0.02281
#
# Static dielectric constant tensor:
#      x y z
#    x 2.189950 0.000000 0.000000 
#    y 0.000000 2.097860 0.000000 
#    z 0.000000 0.000000 2.113880 
# 
# From -- ./inp_files/23245.got.cif
#   From: 2010.05.17/outbox.cif.g08.bks.cpg/sg54_12_cif.got.tgz:23245.got - 2010.06.03 13:09:01.
