data_PCOD9421326
_publ_section_title
;
Structure prediction by ZEFSAII (Michael W. Deem and Ramdas Pophale) SiO2 
 PCOD9421326
Probable space group: P C C A
;
_chemical_formula_sum "Si O2"
_cell_formula_units_Z 60
_cell_length_a 25.844353
_cell_length_b 15.306465
_cell_length_c 8.486738
_cell_angle_alpha 90.000000
_cell_angle_beta 90.000000
_cell_angle_gamma 90.000000
_cell_volume 3357.232062
_symmetry_space_group_name_H-M "P C C A"
_symmetry_group_IT_number 54
_symmetry_cell_setting 'orthorhombic'
loop_
_space_group_symop_operation_xyz
x,y,z
1/2-x,-y,z
1/2+x,-y,1/2-z
-x,y,1/2-z
-x,-y,-z
1/2+x,y,-z
1/2-x,y,1/2+z
x,-y,1/2+z
loop_
_atom_site_type_symbol
_atom_site_label
_atom_site_fract_x
_atom_site_fract_y
_atom_site_fract_z
Si Si1 0.904087 0.216760 0.663659
Si Si2 0.939944 0.392319 0.805123
Si Si3 0.324984 0.929477 0.911647
Si Si4 0.558412 0.422181 0.682707
Si Si5 0.591282 0.073763 0.683095
Si Si6 0.941577 0.242674 0.322067
Si Si7 0.546718 0.071838 0.370113
Si Si8 0.750000 0.000000 0.333040
O O1 0.905458 0.312421 0.740677
O O2 0.855637 0.161458 0.596141
O O3 0.941482 0.224538 0.509679
O O4 0.920639 0.153535 0.807278
O O5 0.920368 0.482614 0.726643
O O6 0.000000 0.376431 0.750000
O O7 0.940585 0.402854 0.995531
O O8 0.283491 0.934869 0.772145
O O9 0.362487 0.014938 0.887400
O O10 0.291455 0.946647 0.065679
O O11 0.500000 0.428942 0.750000
O O12 0.579112 0.338955 0.779092
O O13 0.595653 0.172492 0.737734
O O14 0.544308 0.074992 0.556377
O O15 0.574443 0.019129 0.833763
O O16 0.000000 0.236145 0.250000
O O17 0.500000 0.075256 0.250000
#
# Coordination Sequence:
#
# PCOD9421326 Si02
#       8
#     8   8   8   8   8   8   8   4
#     4  11  21  33  50  74 104 130 176 219 256 299
#     4  11  19  33  51  72 106 147 179 217 247 284
#     4  10  21  36  54  78  98 131 164 215 263 322
#     4  10  20  32  48  71 101 145 192 216 244 280
#     4  11  20  32  48  69 102 131 175 217 252 296
#     4  11  20  32  47  71 106 148 182 216 249 292
#     4  11  20  30  43  66  98 142 175 203 245 296
#     4  10  20  38  58  70 100 128 164 206 276 330
#
# _framework density 17.871865
#
# number of rings (size 3 to 8) (size 9 to 14) (size 15 to 20)
#    0.000    1.333    0.000   10.800    0.000    0.000 
#    0.000    0.000    0.000    0.000    0.000    0.000 
#    0.000   36.267    0.000    0.000    0.000    0.000 
#
# Total GULP energy -334315.573774 kJ/mol
# GULP energy per Si atom -5571.926230 kJ/mol
# Density = 1.783119 g / cm^3
# Si number density = 17.871865 Si / 1000 Ang^3
#
#
#
# Elastic Constant Matrix: (Units=GPa)
#
#
# Indices 1 2 3 4 5 6 
#
# 1 44.5551 29.6843 13.1235 0.0000 0.0000 0.0000
# 2 29.6843 147.2175 31.5198 0.0000 0.0000 0.0000
# 3 13.1235 31.5198 105.1294 0.0000 0.0000 0.0000
# 4 0.0000 0.0000 0.0000 2.0526 0.0000 0.0000
# 5 0.0000 0.0000 0.0000 0.0000 124.7860 0.0000
# 6 0.0000 0.0000 0.0000 0.0000 0.0000 16.7803
#
#
#
# Elastic Compliance Matrix: (Units=1/GPa)
#
#
# Indices 1 2 3 4 5 6 
#
# 1 0.026244 -0.004905 -0.001805 0.000000 0.000000 0.000000
# 2 -0.004905 0.008175 -0.001839 0.000000 0.000000 0.000000
# 3 -0.001805 -0.001839 0.010289 0.000000 0.000000 0.000000
# 4 0.000000 0.000000 0.000000 0.487188 0.000000 0.000000
# 5 0.000000 0.000000 0.000000 0.000000 0.008014 0.000000
# 6 0.000000 0.000000 0.000000 0.000000 0.000000 0.059594
#
#
# Mechanical properties :
#
#
# Convention : Reuss Voigt Hill
#
# Bulk Modulus (GPa) = 36.21968 49.50635 42.86302
# Shear Modulus (GPa) = 7.98971 43.56208 25.77589
#
# Velocity S-wave (km/s) = 2.11666 4.94243 3.80183
# Velocity P-wave (km/s) = 5.12679 7.76730 6.58084
#
# Compressibility (1/GPa) = 0.02760930
#
# Stress axis : x y z
#
# Youngs Moduli (GPa) = 38.10407 122.31775 97.19334
#
# Poissons Ratio (x) = 0.59999 0.17547
# Poissons Ratio (y) = 0.18691 0.17872
# Poissons Ratio (z) = 0.06879 0.22492
#
# Static dielectric constant tensor:
#      x y z
#    x 1.651170 0.000000 0.000000 
#    y 0.000000 1.645660 0.000000 
#    z 0.000000 0.000000 1.641420 
# 
# From -- ./inp_files/5629.got.cif
#   From: 2010.05.17/outbox.cif.g08.bks.cpg/sg54_3_cif.got.tgz:5629.got - 2010.06.03 13:09:01.
