data_PCOD9421128
_publ_section_title
;
Structure prediction by ZEFSAII (Michael W. Deem and Ramdas Pophale) SiO2 
 PCOD9421128
Probable space group: P C C A
;
_chemical_formula_sum "Si O2"
_cell_formula_units_Z 40
_cell_length_a 8.122645
_cell_length_b 7.987510
_cell_length_c 27.293662
_cell_angle_alpha 90.000000
_cell_angle_beta 90.000000
_cell_angle_gamma 90.000000
_cell_volume 1770.804825
_symmetry_space_group_name_H-M "P C C A"
_symmetry_group_IT_number 54
_symmetry_cell_setting 'orthorhombic'
loop_
_space_group_symop_operation_xyz
x,y,z
1/2-x,-y,z
1/2+x,-y,1/2-z
-x,y,1/2-z
-x,-y,-z
1/2+x,y,-z
1/2-x,y,1/2+z
x,-y,1/2+z
loop_
_atom_site_type_symbol
_atom_site_label
_atom_site_fract_x
_atom_site_fract_y
_atom_site_fract_z
Si Si1 0.188003 0.810115 0.836567
Si Si2 0.679878 0.685063 0.565899
Si Si3 0.810577 0.690603 0.265415
Si Si4 0.692462 0.305808 0.467979
Si Si5 0.181868 0.696110 0.633924
O O1 0.309151 0.738969 0.878159
O O2 0.208561 0.759983 0.780171
O O3 0.008782 0.738373 0.853495
O O4 0.250000 0.000000 0.837437
O O5 0.750000 0.500000 0.568383
O O6 0.781234 0.773246 0.521707
O O7 0.496286 0.690906 0.546449
O O8 0.750000 0.500000 0.269766
O O9 0.779471 0.768401 0.319022
O O10 0.000000 0.699458 0.250000
O O11 0.750000 0.500000 0.472258
O O12 0.785388 0.233459 0.420453
O O13 0.250000 0.500000 0.630558
#
# Coordination Sequence:
#
# PCOD9421128 Si02
#       5
#     8   8   8   8   8
#     4  12  26  42  61  93 134 172 210 264 329 391
#     4  11  20  37  63  92 124 165 214 262 317 385
#     4  11  22  40  67  97 124 165 218 269 317 382
#     4  10  19  35  63  96 120 155 210 272 318 372
#     4  10  20  40  66  92 123 165 218 271 319 384
#
# _framework density 22.588597
#
# number of rings (size 3 to 8) (size 9 to 14) (size 15 to 20)
#    0.000    1.200    0.000   10.800    0.000    1.600 
#    0.000    7.000    0.000    0.000    0.000    0.000 
#    0.000    0.000    0.000    0.000    0.000    0.000 
#
# Total GULP energy -222929.989108 kJ/mol
# GULP energy per Si atom -5573.249728 kJ/mol
# Density = 2.253718 g / cm^3
# Si number density = 22.588597 Si / 1000 Ang^3
#
#
#
# Elastic Constant Matrix: (Units=GPa)
#
#
# Indices 1 2 3 4 5 6 
#
# 1 72.1669 1.5674 -35.2576 0.0000 0.0000 0.0000
# 2 1.5674 40.5772 11.6968 0.0000 0.0000 0.0000
# 3 -35.2576 11.6968 119.8783 0.0000 0.0000 0.0000
# 4 0.0000 0.0000 0.0000 100.5587 0.0000 0.0000
# 5 0.0000 0.0000 0.0000 0.0000 61.3780 0.0000
# 6 0.0000 0.0000 0.0000 0.0000 0.0000 2.6965
#
#
#
# Elastic Compliance Matrix: (Units=1/GPa)
#
#
# Indices 1 2 3 4 5 6 
#
# 1 0.016350 -0.002076 0.005011 0.000000 0.000000 0.000000
# 2 -0.002076 0.025621 -0.003111 0.000000 0.000000 0.000000
# 3 0.005011 -0.003111 0.010119 0.000000 0.000000 0.000000
# 4 0.000000 0.000000 0.000000 0.009944 0.000000 0.000000
# 5 0.000000 0.000000 0.000000 0.000000 0.016292 0.000000
# 6 0.000000 0.000000 0.000000 0.000000 0.000000 0.370853
#
#
# Mechanical properties :
#
#
# Convention : Reuss Voigt Hill
#
# Bulk Modulus (GPa) = 19.32743 20.95951 20.14347
# Shear Modulus (GPa) = 10.71174 49.90102 30.30638
#
# Velocity S-wave (km/s) = 2.18000 4.70523 3.66685
# Velocity P-wave (km/s) = 3.86153 6.23040 5.18311
#
# Compressibility (1/GPa) = 0.05173994
#
# Stress axis : x y z
#
# Youngs Moduli (GPa) = 61.16135 39.03016 98.82215
#
# Poissons Ratio (x) = 0.08103 -0.49523
# Poissons Ratio (y) = 0.12698 0.30739
# Poissons Ratio (z) = -0.30650 0.12140
#
# Static dielectric constant tensor:
#      x y z
#    x 1.857740 0.000000 0.000000 
#    y 0.000000 1.902150 0.000000 
#    z 0.000000 0.000000 2.096800 
# 
# From -- ./inp_files/25752.got.cif
#   From: 2010.05.17/outbox.cif.g08.bks.cpg/sg54_13_cif.got.tgz:25752.got - 2010.06.03 13:09:01.
