data_PCOD9421295
_publ_section_title
;
Structure prediction by ZEFSAII (Michael W. Deem and Ramdas Pophale) SiO2 
 PCOD9421295
Probable space group: P C C A
;
_chemical_formula_sum "Si O2"
_cell_formula_units_Z 32
_cell_length_a 7.615888
_cell_length_b 11.635101
_cell_length_c 14.569034
_cell_angle_alpha 90.000000
_cell_angle_beta 90.000000
_cell_angle_gamma 90.000000
_cell_volume 1290.985793
_symmetry_space_group_name_H-M "P C C A"
_symmetry_group_IT_number 54
_symmetry_cell_setting 'orthorhombic'
loop_
_space_group_symop_operation_xyz
x,y,z
1/2-x,-y,z
1/2+x,-y,1/2-z
-x,y,1/2-z
-x,-y,-z
1/2+x,y,-z
1/2-x,y,1/2+z
x,-y,1/2+z
loop_
_atom_site_type_symbol
_atom_site_label
_atom_site_fract_x
_atom_site_fract_y
_atom_site_fract_z
Si Si1 0.987430 0.973478 0.353109
Si Si2 0.369730 0.262435 0.375336
Si Si3 0.654101 0.817923 0.421893
Si Si4 0.241025 0.634873 0.195991
O O1 0.817889 0.895273 0.383759
O O2 0.000000 0.022269 0.250000
O O3 0.129776 0.872133 0.347376
O O4 0.993529 0.082260 0.421135
O O5 0.325642 0.248108 0.481956
O O6 0.259810 0.335603 0.303396
O O7 0.561365 0.318972 0.353389
O O8 0.617647 0.716151 0.351616
O O9 0.250000 0.500000 0.181403
#
# Coordination Sequence:
#
# PCOD9421295 Si02
#       4
#     8   8   8   8
#     4  10  19  42  63  94 131 165 205 271 340 399
#     4  10  20  43  64  87 134 167 214 278 331 393
#     4  10  21  38  66  98 121 171 217 264 338 400
#     4  10  22  43  63  89 129 177 220 271 323 383
#
# _framework density 24.787261999999998
#
# number of rings (size 3 to 8) (size 9 to 14) (size 15 to 20)
#    0.000    2.000    5.000    0.750    0.000    2.000 
#   22.500    0.000    0.000    0.000    0.000    0.000 
#    0.000    0.000    0.000    0.000    0.000    0.000 
#
# Total GULP energy -178352.411941 kJ/mol
# GULP energy per Si atom -5573.512873 kJ/mol
# Density = 2.473084 g / cm^3
# Si number density = 24.787262 Si / 1000 Ang^3
#
#
#
# Elastic Constant Matrix: (Units=GPa)
#
#
# Indices 1 2 3 4 5 6 
#
# 1 73.9868 23.1236 34.6972 0.0000 0.0000 0.0000
# 2 23.1236 241.6586 70.3271 0.0000 0.0000 0.0000
# 3 34.6972 70.3271 165.2107 0.0000 0.0000 0.0000
# 4 0.0000 0.0000 0.0000 24.5287 0.0000 0.0000
# 5 0.0000 0.0000 0.0000 0.0000 23.2389 0.0000
# 6 0.0000 0.0000 0.0000 0.0000 0.0000 9.9619
#
#
#
# Elastic Compliance Matrix: (Units=1/GPa)
#
#
# Indices 1 2 3 4 5 6 
#
# 1 0.015067 -0.000594 -0.002911 0.000000 0.000000 0.000000
# 2 -0.000594 0.004747 -0.001896 0.000000 0.000000 0.000000
# 3 -0.002911 -0.001896 0.007471 0.000000 0.000000 0.000000
# 4 0.000000 0.000000 0.000000 0.040769 0.000000 0.000000
# 5 0.000000 0.000000 0.000000 0.000000 0.043031 0.000000
# 6 0.000000 0.000000 0.000000 0.000000 0.000000 0.100383
#
#
# Mechanical properties :
#
#
# Convention : Reuss Voigt Hill
#
# Bulk Modulus (GPa) = 60.67231 81.90575 71.28903
# Shear Modulus (GPa) = 21.95253 35.05979 28.50616
#
# Velocity S-wave (km/s) = 2.97920 3.76497 3.39489
# Velocity P-wave (km/s) = 6.03030 7.21216 6.64754
#
# Compressibility (1/GPa) = 0.01648198
#
# Stress axis : x y z
#
# Youngs Moduli (GPa) = 66.37017 210.67542 133.84616
#
# Poissons Ratio (x) = 0.12524 0.38966
# Poissons Ratio (y) = 0.03946 0.25373
# Poissons Ratio (z) = 0.19322 0.39938
#
# Static dielectric constant tensor:
#      x y z
#    x 2.474710 0.000000 0.000000 
#    y 0.000000 1.886020 0.000000 
#    z 0.000000 0.000000 2.035200 
# 
# From -- ./inp_files/7248.got.cif
#   From: 2010.05.17/outbox.cif.g08.bks.cpg/sg54_4_cif.got.tgz:7248.got - 2010.06.03 13:09:01.
