data_PCOD9421580
_publ_section_title
;
Structure prediction by ZEFSAII (Michael W. Deem and Ramdas Pophale) SiO2 
 PCOD9421580
Probable space group: P C C A
;
_chemical_formula_sum "Si O2"
_cell_formula_units_Z 48
_cell_length_a 9.517124
_cell_length_b 15.432198
_cell_length_c 16.457677
_cell_angle_alpha 90.000000
_cell_angle_beta 90.000000
_cell_angle_gamma 90.000000
_cell_volume 2417.141357
_symmetry_space_group_name_H-M "P C C A"
_symmetry_group_IT_number 54
_symmetry_cell_setting 'orthorhombic'
loop_
_space_group_symop_operation_xyz
x,y,z
1/2-x,-y,z
1/2+x,-y,1/2-z
-x,y,1/2-z
-x,-y,-z
1/2+x,y,-z
1/2-x,y,1/2+z
x,-y,1/2+z
loop_
_atom_site_type_symbol
_atom_site_label
_atom_site_fract_x
_atom_site_fract_y
_atom_site_fract_z
Si Si1 0.843090 0.175486 0.418116
Si Si2 0.958037 0.312339 0.156955
Si Si3 0.910806 0.989431 0.827734
Si Si4 0.446421 0.813587 0.659525
Si Si5 0.819810 0.282294 0.565728
Si Si6 0.887044 0.444111 0.450306
O O1 0.895683 0.078851 0.400570
O O2 0.718721 0.197473 0.354763
O O3 0.782352 0.201957 0.505684
O O4 0.971005 0.237696 0.397206
O O5 0.794281 0.304358 0.134447
O O6 0.000000 0.299353 0.250000
O O7 0.029774 0.400426 0.124290
O O8 0.000000 0.958149 0.750000
O O9 0.750000 0.000000 0.797929
O O10 0.968538 0.083028 0.855641
O O11 0.500000 0.798532 0.750000
O O12 0.533685 0.748943 0.603528
O O13 0.835242 0.366274 0.508896
O O14 0.750000 0.500000 0.427253
O O15 0.000000 0.500000 0.500000
#
# Coordination Sequence:
#
# PCOD9421580 Si02
#       6
#     8   8   8   8   8   8
#     4  10  20  36  61  86 122 166 205 250 302 361
#     4  11  23  40  62  94 122 156 208 251 305 368
#     4   9  19  35  56  86 126 166 208 254 304 355
#     4  10  21  38  58  88 124 164 207 249 305 361
#     4  11  23  40  64  88 122 160 202 251 307 371
#     4  11  23  45  67  87 122 159 196 250 313 371
#
# _framework density 19.858169
#
# number of rings (size 3 to 8) (size 9 to 14) (size 15 to 20)
#    0.000    1.667    1.667    3.500    2.333    3.333 
#    3.000    1.667    0.000    0.000    0.000    0.000 
#    0.000    0.000    0.000    0.000    0.000    0.000 
#
# Total GULP energy -267725.981900 kJ/mol
# GULP energy per Si atom -5577.624623 kJ/mol
# Density = 1.981297 g / cm^3
# Si number density = 19.858169 Si / 1000 Ang^3
#
#
#
# Elastic Constant Matrix: (Units=GPa)
#
#
# Indices 1 2 3 4 5 6 
#
# 1 57.8018 17.7236 -7.1956 0.0000 0.0000 0.0000
# 2 17.7236 58.6986 14.5038 0.0000 0.0000 0.0000
# 3 -7.1956 14.5038 48.5756 0.0000 0.0000 0.0000
# 4 0.0000 0.0000 0.0000 25.4190 0.0000 0.0000
# 5 0.0000 0.0000 0.0000 0.0000 29.4718 0.0000
# 6 0.0000 0.0000 0.0000 0.0000 0.0000 32.5617
#
#
#
# Elastic Compliance Matrix: (Units=1/GPa)
#
#
# Indices 1 2 3 4 5 6 
#
# 1 0.020213 -0.007388 0.005200 0.000000 0.000000 0.000000
# 2 -0.007388 0.021094 -0.007393 0.000000 0.000000 0.000000
# 3 0.005200 -0.007393 0.023564 0.000000 0.000000 0.000000
# 4 0.000000 0.000000 0.000000 0.039341 0.000000 0.000000
# 5 0.000000 0.000000 0.000000 0.000000 0.033931 0.000000
# 6 0.000000 0.000000 0.000000 0.000000 0.000000 0.030711
#
#
# Mechanical properties :
#
#
# Convention : Reuss Voigt Hill
#
# Bulk Modulus (GPa) = 21.87714 23.90442 22.89078
# Shear Modulus (GPa) = 24.60013 26.82679 25.71346
#
# Velocity S-wave (km/s) = 3.52347 3.67947 3.60231
# Velocity P-wave (km/s) = 5.25297 5.48772 5.37163
#
# Compressibility (1/GPa) = 0.04570981
#
# Stress axis : x y z
#
# Youngs Moduli (GPa) = 49.47243 47.40767 42.43749
#
# Poissons Ratio (x) = 0.35026 -0.22068
# Poissons Ratio (y) = 0.36551 0.31372
# Poissons Ratio (z) = -0.25727 0.35047
#
# Static dielectric constant tensor:
#      x y z
#    x 1.710710 0.000000 0.000000 
#    y 0.000000 1.725800 0.000000 
#    z 0.000000 0.000000 1.715850 
# 
# From -- ./inp_files/16626.got.cif
#   From: 2010.05.17/outbox.cif.g08.bks.cpg/sg54_9_cif.got.tgz:16626.got - 2010.06.03 13:09:01.
