data_PCOD9421910
_publ_section_title
;
Structure prediction by ZEFSAII (Michael W. Deem and Ramdas Pophale) SiO2 
 PCOD9421910
Probable space group: P C C A
;
_chemical_formula_sum "Si O2"
_cell_formula_units_Z 52
_cell_length_a 27.441332
_cell_length_b 11.485472
_cell_length_c 8.839331
_cell_angle_alpha 90.000000
_cell_angle_beta 90.000000
_cell_angle_gamma 90.000000
_cell_volume 2785.950736
_symmetry_space_group_name_H-M "P C C A"
_symmetry_group_IT_number 54
_symmetry_cell_setting 'orthorhombic'
loop_
_space_group_symop_operation_xyz
x,y,z
1/2-x,-y,z
1/2+x,-y,1/2-z
-x,y,1/2-z
-x,-y,-z
1/2+x,y,-z
1/2-x,y,1/2+z
x,-y,1/2+z
loop_
_atom_site_type_symbol
_atom_site_label
_atom_site_fract_x
_atom_site_fract_y
_atom_site_fract_z
Si Si1 0.321033 0.535958 0.995053
Si Si2 0.966980 0.439127 0.124811
Si Si3 0.750000 0.500000 0.251990
Si Si4 0.908999 0.657686 0.147013
Si Si5 0.378913 0.700341 0.522844
Si Si6 0.457100 0.861706 0.030250
Si Si7 0.067735 0.900148 0.882276
O O1 0.285069 0.569597 0.859054
O O2 0.369687 0.607551 0.971041
O O3 0.289237 0.562322 0.141953
O O4 0.336341 0.397438 0.993987
O O5 0.938712 0.545473 0.205031
O O6 0.000000 0.376917 0.250000
O O7 0.926537 0.360533 0.049308
O O8 0.000000 0.500000 0.000000
O O9 0.884814 0.710987 0.296562
O O10 0.942378 0.744155 0.053687
O O11 0.386022 0.827681 0.447116
O O12 0.515913 0.864986 0.039165
O O13 0.438122 0.878501 0.202432
O O14 0.433183 0.964015 0.928123
#
# Coordination Sequence:
#
# PCOD9421910 Si02
#       7
#     8   8   4   8   8   8   8
#     4  10  22  37  58  88 113 145 178 223 287 348
#     4  11  22  32  46  73 110 153 182 215 270 319
#     4  10  20  40  60  80 116 142 178 222 286 360
#     4  11  22  35  52  81 113 145 185 232 271 329
#     4  11  22  34  54  79 115 142 187 231 271 329
#     4  10  22  37  56  77 112 152 200 231 270 313
#     4  10  22  37  55  79 108 156 196 235 267 313
#
# _framework density 18.665081000000001
#
# number of rings (size 3 to 8) (size 9 to 14) (size 15 to 20)
#    0.000    1.538    3.077    1.846    6.462    1.231 
#    0.000    0.000    0.000    0.000    0.000    6.462 
#    0.000    0.000    0.000    0.000    0.000    0.000 
#
# Total GULP energy -289829.317963 kJ/mol
# GULP energy per Si atom -5573.640730 kJ/mol
# Density = 1.862260 g / cm^3
# Si number density = 18.665081 Si / 1000 Ang^3
#
#
#
# Elastic Constant Matrix: (Units=GPa)
#
#
# Indices 1 2 3 4 5 6 
#
# 1 43.4865 6.2962 0.7817 0.0000 0.0000 0.0000
# 2 6.2962 67.3990 4.2602 0.0000 0.0000 0.0000
# 3 0.7817 4.2602 75.1072 0.0000 0.0000 0.0000
# 4 0.0000 0.0000 0.0000 22.2200 0.0000 0.0000
# 5 0.0000 0.0000 0.0000 0.0000 11.7922 0.0000
# 6 0.0000 0.0000 0.0000 0.0000 0.0000 3.7229
#
#
#
# Elastic Compliance Matrix: (Units=1/GPa)
#
#
# Indices 1 2 3 4 5 6 
#
# 1 0.023312 -0.002170 -0.000120 0.000000 0.000000 0.000000
# 2 -0.002170 0.015092 -0.000833 0.000000 0.000000 0.000000
# 3 -0.000120 -0.000833 0.013363 0.000000 0.000000 0.000000
# 4 0.000000 0.000000 0.000000 0.045005 0.000000 0.000000
# 5 0.000000 0.000000 0.000000 0.000000 0.084802 0.000000
# 6 0.000000 0.000000 0.000000 0.000000 0.000000 0.268609
#
#
# Mechanical properties :
#
#
# Convention : Reuss Voigt Hill
#
# Bulk Modulus (GPa) = 21.96793 23.18542 22.57668
# Shear Modulus (GPa) = 10.60215 19.19066 14.89641
#
# Velocity S-wave (km/s) = 2.38590 3.20997 2.82811
# Velocity P-wave (km/s) = 4.40286 5.11735 4.77349
#
# Compressibility (1/GPa) = 0.04552090
#
# Stress axis : x y z
#
# Youngs Moduli (GPa) = 42.89637 66.25836 74.83452
#
# Poissons Ratio (x) = 0.14379 0.00895
# Poissons Ratio (y) = 0.09309 0.06237
# Poissons Ratio (z) = 0.00513 0.05522
#
# Static dielectric constant tensor:
#      x y z
#    x 2.007160 0.000000 0.000000 
#    y 0.000000 1.710100 0.000000 
#    z 0.000000 0.000000 1.692840 
# 
# From -- ./inp_files/5539.got.cif
#   From: 2010.05.17/outbox.cif.g08.bks.cpg/sg54_3_cif.got.tgz:5539.got - 2010.06.03 13:09:01.
