data_PCOD9421229
_publ_section_title
;
Structure prediction by ZEFSAII (Michael W. Deem and Ramdas Pophale) SiO2 
 PCOD9421229
Probable space group: P C C A
;
_chemical_formula_sum "Si O2"
_cell_formula_units_Z 48
_cell_length_a 15.217595
_cell_length_b 6.053973
_cell_length_c 26.786498
_cell_angle_alpha 90.000000
_cell_angle_beta 90.000000
_cell_angle_gamma 90.000000
_cell_volume 2467.757271
_symmetry_space_group_name_H-M "P C C A"
_symmetry_group_IT_number 54
_symmetry_cell_setting 'orthorhombic'
loop_
_space_group_symop_operation_xyz
x,y,z
1/2-x,-y,z
1/2+x,-y,1/2-z
-x,y,1/2-z
-x,-y,-z
1/2+x,y,-z
1/2-x,y,1/2+z
x,-y,1/2+z
loop_
_atom_site_type_symbol
_atom_site_label
_atom_site_fract_x
_atom_site_fract_y
_atom_site_fract_z
Si Si1 0.840701 0.571423 0.720801
Si Si2 0.452442 0.801511 0.834799
Si Si3 0.498792 0.498798 0.916454
Si Si4 0.153209 0.185905 0.378521
Si Si5 0.426704 0.194326 0.504256
Si Si6 0.500000 0.132650 0.750000
Si Si7 0.750000 0.000000 0.534791
O O1 0.750000 0.500000 0.746793
O O2 0.896851 0.366394 0.699429
O O3 0.809548 0.716421 0.672692
O O4 0.912150 0.718920 0.749596
O O5 0.518094 0.669528 0.871535
O O6 0.383462 0.940717 0.868196
O O7 0.497379 0.978229 0.798637
O O8 0.429838 0.333636 0.891667
O O9 0.566590 0.341033 0.945474
O O10 0.450473 0.639929 0.959295
O O11 0.215033 0.184547 0.426413
O O12 0.500000 0.000000 0.500000
O O13 0.331913 0.086726 0.496447
#
# Coordination Sequence:
#
# PCOD9421229 Si02
#       7
#     8   8   8   8   8   4   4
#     4  10  21  35  59  92 130 156 200 250 319 380
#     4  10  19  38  58  89 128 159 200 256 319 377
#     4  10  20  37  56  81 127 164 200 249 315 370
#     4  10  20  33  56  89 123 159 188 257 319 363
#     4  11  22  37  53  87 125 168 205 253 309 368
#     4  10  22  36  58  94 126 164 202 254 320 382
#     4  12  20  34  58  86 130 160 208 254 310 366
#
# _framework density 19.450859999999999
#
# number of rings (size 3 to 8) (size 9 to 14) (size 15 to 20)
#    0.000    1.667    3.333    1.500    2.333    2.000 
#    0.000    0.000    0.000    0.000    0.000  105.000 
#    0.000    0.000    0.000    0.000    0.000    0.000 
#
# Total GULP energy -267772.681159 kJ/mol
# GULP energy per Si atom -5578.597524 kJ/mol
# Density = 1.940659 g / cm^3
# Si number density = 19.450860 Si / 1000 Ang^3
#
#
#
# Elastic Constant Matrix: (Units=GPa)
#
#
# Indices 1 2 3 4 5 6 
#
# 1 126.6542 55.1547 56.2206 0.0000 0.0000 0.0000
# 2 55.1547 106.0355 38.8482 0.0000 0.0000 0.0000
# 3 56.2206 38.8482 65.1416 0.0000 0.0000 0.0000
# 4 0.0000 0.0000 0.0000 37.3970 0.0000 0.0000
# 5 0.0000 0.0000 0.0000 0.0000 30.5944 0.0000
# 6 0.0000 0.0000 0.0000 0.0000 0.0000 17.1370
#
#
#
# Elastic Compliance Matrix: (Units=1/GPa)
#
#
# Indices 1 2 3 4 5 6 
#
# 1 0.013795 -0.003600 -0.009759 0.000000 0.000000 0.000000
# 2 -0.003600 0.013007 -0.004650 0.000000 0.000000 0.000000
# 3 -0.009759 -0.004650 0.026547 0.000000 0.000000 0.000000
# 4 0.000000 0.000000 0.000000 0.026740 0.000000 0.000000
# 5 0.000000 0.000000 0.000000 0.000000 0.032686 0.000000
# 6 0.000000 0.000000 0.000000 0.000000 0.000000 0.058353
#
#
# Mechanical properties :
#
#
# Convention : Reuss Voigt Hill
#
# Bulk Modulus (GPa) = 57.70011 66.47537 62.08774
# Shear Modulus (GPa) = 23.48272 26.86621 25.17446
#
# Velocity S-wave (km/s) = 3.47837 3.72053 3.60148
# Velocity P-wave (km/s) = 6.77208 7.25994 7.02025
#
# Compressibility (1/GPa) = 0.01733099
#
# Stress axis : x y z
#
# Youngs Moduli (GPa) = 72.48879 76.88160 37.66967
#
# Poissons Ratio (x) = 0.27679 0.36762
# Poissons Ratio (y) = 0.26098 0.17515
# Poissons Ratio (z) = 0.70741 0.35748
#
# Static dielectric constant tensor:
#      x y z
#    x 1.684920 0.000000 0.000000 
#    y 0.000000 1.744350 0.000000 
#    z 0.000000 0.000000 1.718770 
# 
# From -- ./inp_files/26511.got.cif
#   From: 2010.05.17/outbox.cif.g08.bks.cpg/sg54_14_cif.got.tgz:26511.got - 2010.06.03 13:09:01.
