data_PCOD9421198
_publ_section_title
;
Structure prediction by ZEFSAII (Michael W. Deem and Ramdas Pophale) SiO2 
 PCOD9421198
Probable space group: P C C A
;
_chemical_formula_sum "Si O2"
_cell_formula_units_Z 48
_cell_length_a 29.773155
_cell_length_b 9.209448
_cell_length_c 8.764844
_cell_angle_alpha 90.000000
_cell_angle_beta 90.000000
_cell_angle_gamma 90.000000
_cell_volume 2403.270465
_symmetry_space_group_name_H-M "P C C A"
_symmetry_group_IT_number 54
_symmetry_cell_setting 'orthorhombic'
loop_
_space_group_symop_operation_xyz
x,y,z
1/2-x,-y,z
1/2+x,-y,1/2-z
-x,y,1/2-z
-x,-y,-z
1/2+x,y,-z
1/2-x,y,1/2+z
x,-y,1/2+z
loop_
_atom_site_type_symbol
_atom_site_label
_atom_site_fract_x
_atom_site_fract_y
_atom_site_fract_z
Si Si1 0.406354 0.081758 0.134254
Si Si2 0.177395 0.703050 0.181613
Si Si3 0.841499 0.834075 0.812405
Si Si4 0.205625 0.926293 0.385656
Si Si5 0.533326 0.948956 0.132065
Si Si6 0.302102 0.556482 0.359529
O O1 0.365696 0.193576 0.159331
O O2 0.443296 0.077203 0.268908
O O3 0.388991 0.912628 0.142449
O O4 0.427306 0.120143 0.969817
O O5 0.214538 0.813545 0.249051
O O6 0.169856 0.586196 0.314600
O O7 0.192822 0.619346 0.030264
O O8 0.825623 0.679940 0.745812
O O9 0.824648 0.946615 0.683223
O O10 0.816328 0.849902 0.972184
O O11 0.250000 0.000000 0.441882
O O12 0.500000 0.867390 0.250000
O O13 0.500000 0.000000 0.000000
O O14 0.250000 0.500000 0.335167
#
# Coordination Sequence:
#
# PCOD9421198 Si02
#       6
#     8   8   8   8   8   8
#     4  10  19  37  59  91 120 144 192 236 293 370
#     4  11  24  39  58  80 114 161 203 255 300 341
#     4  11  22  37  60  84 115 156 198 255 301 342
#     4  11  22  37  55  80 109 149 201 256 310 351
#     4   9  18  33  60  95 122 142 169 228 298 363
#     4  12  25  41  55  80 118 166 220 258 293 337
#
# _framework density 19.972781999999999
#
# number of rings (size 3 to 8) (size 9 to 14) (size 15 to 20)
#    0.000    1.333    0.000    8.000    0.000    4.000 
#    0.000    1.667    0.000    0.000    0.000   73.500 
#    0.000    0.000    0.000    0.000    0.000    0.000 
#
# Total GULP energy -267236.648191 kJ/mol
# GULP energy per Si atom -5567.430171 kJ/mol
# Density = 1.992732 g / cm^3
# Si number density = 19.972782 Si / 1000 Ang^3
#
#
#
# Elastic Constant Matrix: (Units=GPa)
#
#
# Indices 1 2 3 4 5 6 
#
# 1 70.9464 35.3055 36.1812 0.0000 0.0000 0.0000
# 2 35.3055 107.4495 37.9595 0.0000 0.0000 0.0000
# 3 36.1812 37.9595 121.1167 0.0000 0.0000 0.0000
# 4 0.0000 0.0000 0.0000 34.8362 0.0000 0.0000
# 5 0.0000 0.0000 0.0000 0.0000 40.9028 0.0000
# 6 0.0000 0.0000 0.0000 0.0000 0.0000 9.7121
#
#
#
# Elastic Compliance Matrix: (Units=1/GPa)
#
#
# Indices 1 2 3 4 5 6 
#
# 1 0.018475 -0.004634 -0.004067 0.000000 0.000000 0.000000
# 2 -0.004634 0.011628 -0.002260 0.000000 0.000000 0.000000
# 3 -0.004067 -0.002260 0.010180 0.000000 0.000000 0.000000
# 4 0.000000 0.000000 0.000000 0.028706 0.000000 0.000000
# 5 0.000000 0.000000 0.000000 0.000000 0.024448 0.000000
# 6 0.000000 0.000000 0.000000 0.000000 0.000000 0.102964
#
#
# Mechanical properties :
#
#
# Convention : Reuss Voigt Hill
#
# Bulk Modulus (GPa) = 54.46245 57.60056 56.03151
# Shear Modulus (GPa) = 22.27749 29.76132 26.01940
#
# Velocity S-wave (km/s) = 3.34337 3.86436 3.61327
# Velocity P-wave (km/s) = 6.49859 6.98664 6.74703
#
# Compressibility (1/GPa) = 0.01836127
#
# Stress axis : x y z
#
# Youngs Moduli (GPa) = 54.12701 86.00180 98.23487
#
# Poissons Ratio (x) = 0.39851 0.39950
# Poissons Ratio (y) = 0.25081 0.22201
# Poissons Ratio (z) = 0.22012 0.19436
#
# Static dielectric constant tensor:
#      x y z
#    x 1.838720 0.000000 0.000000 
#    y 0.000000 1.733890 0.000000 
#    z 0.000000 0.000000 1.769610 
# 
# From -- ./inp_files/5834.got.cif
#   From: 2010.05.17/outbox.cif.g08.bks.cpg/sg54_3_cif.got.tgz:5834.got - 2010.06.03 13:09:01.
