data_PCOD9421883
_publ_section_title
;
Structure prediction by ZEFSAII (Michael W. Deem and Ramdas Pophale) SiO2 
 PCOD9421883
Probable space group: P C C A
;
_chemical_formula_sum "Si O2"
_cell_formula_units_Z 64
_cell_length_a 20.525425
_cell_length_b 8.657485
_cell_length_c 18.421411
_cell_angle_alpha 90.000000
_cell_angle_beta 90.000000
_cell_angle_gamma 90.000000
_cell_volume 3273.458190
_symmetry_space_group_name_H-M "P C C A"
_symmetry_group_IT_number 54
_symmetry_cell_setting 'orthorhombic'
loop_
_space_group_symop_operation_xyz
x,y,z
1/2-x,-y,z
1/2+x,-y,1/2-z
-x,y,1/2-z
-x,-y,-z
1/2+x,y,-z
1/2-x,y,1/2+z
x,-y,1/2+z
loop_
_atom_site_type_symbol
_atom_site_label
_atom_site_fract_x
_atom_site_fract_y
_atom_site_fract_z
Si Si1 0.795106 0.355711 0.458106
Si Si2 0.085787 0.930069 0.061999
Si Si3 0.808844 0.742526 0.347271
Si Si4 0.628640 0.169356 0.061480
Si Si5 0.566748 0.136156 0.794747
Si Si6 0.821963 0.041926 0.710309
Si Si7 0.401384 0.533188 0.143621
Si Si8 0.003229 0.638221 0.441993
O O1 0.750000 0.500000 0.479254
O O2 0.759389 0.284056 0.387675
O O3 0.807106 0.239114 0.523238
O O4 0.866056 0.409098 0.430420
O O5 0.147428 0.835971 0.094310
O O6 0.035520 0.796106 0.038460
O O7 0.062937 0.036527 0.130191
O O8 0.103163 0.039893 0.994910
O O9 0.806391 0.837472 0.274228
O O10 0.845656 0.582823 0.328156
O O11 0.640916 0.103990 0.140527
O O12 0.575927 0.305292 0.070624
O O13 0.500000 0.114671 0.750000
O O14 0.578763 0.315311 0.813284
O O15 0.629467 0.079107 0.749065
O O16 0.750000 0.000000 0.683845
O O17 0.464714 0.430931 0.126813
O O18 0.000000 0.500000 0.500000
#
# Coordination Sequence:
#
# PCOD9421883 Si02
#       8
#     8   8   8   8   8   8   8   8
#     4  10  20  39  65  92 121 169 222 264 317 405
#     4  10  22  39  65  91 123 177 216 260 335 396
#     4   9  22  40  67  86 123 168 225 266 314 398
#     4  12  24  40  64  93 136 168 214 272 344 393
#     4  11  22  42  68  98 130 172 227 276 327 403
#     4  11  26  43  61  98 135 170 216 283 336 391
#     4  10  20  40  65  95 118 173 219 261 330 391
#     4  11  21  38  62  95 132 163 215 271 326 395
#
# _framework density 19.551188
#
# number of rings (size 3 to 8) (size 9 to 14) (size 15 to 20)
#    0.000    1.500    2.500    1.875    3.500    2.000 
#    0.000    5.625    0.000    0.000    0.000    0.000 
#    0.000    0.000    0.000    0.000    0.000    0.000 
#
# Total GULP energy -357125.863073 kJ/mol
# GULP energy per Si atom -5580.091611 kJ/mol
# Density = 1.950669 g / cm^3
# Si number density = 19.551188 Si / 1000 Ang^3
#
#
#
# Elastic Constant Matrix: (Units=GPa)
#
#
# Indices 1 2 3 4 5 6 
#
# 1 97.0016 41.4409 42.0807 0.0000 0.0000 0.0000
# 2 41.4409 100.6198 41.5843 0.0000 0.0000 0.0000
# 3 42.0807 41.5843 74.9124 0.0000 0.0000 0.0000
# 4 0.0000 0.0000 0.0000 14.7977 0.0000 0.0000
# 5 0.0000 0.0000 0.0000 0.0000 23.8546 0.0000
# 6 0.0000 0.0000 0.0000 0.0000 0.0000 21.3192
#
#
#
# Elastic Compliance Matrix: (Units=1/GPa)
#
#
# Indices 1 2 3 4 5 6 
#
# 1 0.014462 -0.003373 -0.006252 0.000000 0.000000 0.000000
# 2 -0.003373 0.013684 -0.005701 0.000000 0.000000 0.000000
# 3 -0.006252 -0.005701 0.020026 0.000000 0.000000 0.000000
# 4 0.000000 0.000000 0.000000 0.067578 0.000000 0.000000
# 5 0.000000 0.000000 0.000000 0.000000 0.041921 0.000000
# 6 0.000000 0.000000 0.000000 0.000000 0.000000 0.046906
#
#
# Mechanical properties :
#
#
# Convention : Reuss Voigt Hill
#
# Bulk Modulus (GPa) = 57.07763 58.08286 57.58024
# Shear Modulus (GPa) = 20.74112 21.82284 21.28198
#
# Velocity S-wave (km/s) = 3.26062 3.34457 3.30286
# Velocity P-wave (km/s) = 6.59036 6.68487 6.63778
#
# Compressibility (1/GPa) = 0.01752000
#
# Stress axis : x y z
#
# Youngs Moduli (GPa) = 69.14677 73.07955 49.93619
#
# Poissons Ratio (x) = 0.24647 0.31218
# Poissons Ratio (y) = 0.23320 0.28471
# Poissons Ratio (z) = 0.43228 0.41666
#
# Static dielectric constant tensor:
#      x y z
#    x 1.735250 0.000000 0.000000 
#    y 0.000000 1.779720 0.000000 
#    z 0.000000 0.000000 1.723340 
# 
# From -- ./inp_files/18929.got.cif
#   From: 2010.05.17/outbox.cif.g08.bks.cpg/sg54_10_cif.got.tgz:18929.got - 2010.06.03 13:09:01.
