data_PCOD9421345
_publ_section_title
;
Structure prediction by ZEFSAII (Michael W. Deem and Ramdas Pophale) SiO2 
 PCOD9421345
Probable space group: P C C A
;
_chemical_formula_sum "Si O2"
_cell_formula_units_Z 56
_cell_length_a 8.869109
_cell_length_b 17.978413
_cell_length_c 17.190869
_cell_angle_alpha 90.000000
_cell_angle_beta 90.000000
_cell_angle_gamma 90.000000
_cell_volume 2741.127117
_symmetry_space_group_name_H-M "P C C A"
_symmetry_group_IT_number 54
_symmetry_cell_setting 'orthorhombic'
loop_
_space_group_symop_operation_xyz
x,y,z
1/2-x,-y,z
1/2+x,-y,1/2-z
-x,y,1/2-z
-x,-y,-z
1/2+x,y,-z
1/2-x,y,1/2+z
x,-y,1/2+z
loop_
_atom_site_type_symbol
_atom_site_label
_atom_site_fract_x
_atom_site_fract_y
_atom_site_fract_z
Si Si1 0.515071 0.396875 0.030065
Si Si2 0.363108 0.231669 0.713994
Si Si3 0.049648 0.910668 0.610727
Si Si4 0.140618 0.856240 0.305017
Si Si5 0.753785 0.295725 0.942151
Si Si6 0.250000 0.000000 0.716054
Si Si7 0.250000 0.500000 0.453392
Si Si8 0.761572 0.140108 0.532056
O O1 0.417927 0.330904 0.063583
O O2 0.636336 0.440177 0.083876
O O3 0.625430 0.355511 0.968036
O O4 0.379754 0.452028 0.999518
O O5 0.500000 0.276715 0.750000
O O6 0.429769 0.157670 0.671153
O O7 0.255966 0.208900 0.784073
O O8 0.283282 0.270356 0.643739
O O9 0.104506 0.981233 0.661659
O O10 0.171561 0.902690 0.541723
O O11 0.887812 0.898280 0.569349
O O12 0.214837 0.931151 0.271309
O O13 0.119081 0.860023 0.396889
O O14 0.000000 0.843327 0.250000
O O15 0.760106 0.224771 0.000877
#
# Coordination Sequence:
#
# PCOD9421345 Si02
#       8
#     8   8   8   8   8   4   4   8
#     4   9  17  31  55  89 127 159 196 244 284 338
#     4  10  20  39  56  81 120 157 190 247 312 357
#     4  10  23  40  60  83 112 153 193 258 306 366
#     4  11  26  39  62  82 113 156 199 257 303 375
#     4  10  20  32  59  89 123 154 201 244 304 367
#     4  10  26  44  60  82 110 150 220 238 318 382
#     4   8  16  32  52  88 132 156 198 240 282 316
#     4  11  23  39  61  86 122 152 193 255 322 350
#
# _framework density 20.429554
#
# number of rings (size 3 to 8) (size 9 to 14) (size 15 to 20)
#    0.000    2.000    1.429    1.714   10.000    1.143 
#    0.000    0.000    0.000    0.000    0.000    6.000 
#    0.000    0.000    0.000    0.000    0.000    0.000 
#
# Total GULP energy -311842.080134 kJ/mol
# GULP energy per Si atom -5568.608574 kJ/mol
# Density = 2.038306 g / cm^3
# Si number density = 20.429554 Si / 1000 Ang^3
#
#
#
# Elastic Constant Matrix: (Units=GPa)
#
#
# Indices 1 2 3 4 5 6 
#
# 1 90.2367 24.7078 8.7787 0.0000 0.0000 0.0000
# 2 24.7078 53.4592 16.9783 0.0000 0.0000 0.0000
# 3 8.7787 16.9783 86.9183 0.0000 0.0000 0.0000
# 4 0.0000 0.0000 0.0000 -5.8482 0.0000 0.0000
# 5 0.0000 0.0000 0.0000 0.0000 16.4115 0.0000
# 6 0.0000 0.0000 0.0000 0.0000 0.0000 29.7593
#
#
#
# Elastic Compliance Matrix: (Units=1/GPa)
#
#
# Indices 1 2 3 4 5 6 
#
# 1 0.012689 -0.005819 -0.000145 0.000000 0.000000 0.000000
# 2 -0.005819 0.022611 -0.003829 0.000000 0.000000 0.000000
# 3 -0.000145 -0.003829 0.012268 0.000000 0.000000 0.000000
# 4 0.000000 0.000000 0.000000 -0.170991 0.000000 0.000000
# 5 0.000000 0.000000 0.000000 0.000000 0.060933 0.000000
# 6 0.000000 0.000000 0.000000 0.000000 0.000000 0.033603
#
#
# Mechanical properties :
#
#
# Convention : Reuss Voigt Hill
#
# Bulk Modulus (GPa) = 35.73653 36.83820 36.28736
# Shear Modulus (GPa) = 193316.21038 20.07446 96668.14242
#
# Velocity S-wave (km/s) = 307.94673 3.13808 217.76252
# Velocity P-wave (km/s) = 355.61090 5.58578 251.48590
#
# Compressibility (1/GPa) = 0.02798257
#
# Stress axis : x y z
#
# Youngs Moduli (GPa) = 78.80656 44.22582 81.51513
#
# Poissons Ratio (x) = 0.25734 0.01182
# Poissons Ratio (y) = 0.45855 0.31213
# Poissons Ratio (z) = 0.01143 0.16935
#
# Static dielectric constant tensor:
#      x y z
#    x 1.858820 0.000000 0.000000 
#    y 0.000000 1.819020 0.000000 
#    z 0.000000 0.000000 1.680750 
# 
# From -- ./inp_files/16857.got.cif
#   From: 2010.05.17/outbox.cif.g08.bks.cpg/sg54_9_cif.got.tgz:16857.got - 2010.06.03 13:09:01.
