data_PCOD9421188
_publ_section_title
;
Structure prediction by ZEFSAII (Michael W. Deem and Ramdas Pophale) SiO2 
 PCOD9421188
Probable space group: P C C A
;
_chemical_formula_sum "Si O2"
_cell_formula_units_Z 48
_cell_length_a 7.581691
_cell_length_b 10.688379
_cell_length_c 28.004662
_cell_angle_alpha 90.000000
_cell_angle_beta 90.000000
_cell_angle_gamma 90.000000
_cell_volume 2269.385422
_symmetry_space_group_name_H-M "P C C A"
_symmetry_group_IT_number 54
_symmetry_cell_setting 'orthorhombic'
loop_
_space_group_symop_operation_xyz
x,y,z
1/2-x,-y,z
1/2+x,-y,1/2-z
-x,y,1/2-z
-x,-y,-z
1/2+x,y,-z
1/2-x,y,1/2+z
x,-y,1/2+z
loop_
_atom_site_type_symbol
_atom_site_label
_atom_site_fract_x
_atom_site_fract_y
_atom_site_fract_z
Si Si1 0.069176 0.078130 0.803304
Si Si2 0.750000 0.500000 0.803533
Si Si3 0.413034 0.838086 0.546573
Si Si4 0.500000 0.315402 0.750000
Si Si5 0.077164 0.706278 0.140391
Si Si6 0.496968 0.884797 0.442374
Si Si7 0.458745 0.833876 0.158018
O O1 0.000000 0.096483 0.750000
O O2 0.059719 0.209463 0.830189
O O3 0.250000 0.000000 0.803158
O O4 0.943135 0.980510 0.830853
O O5 0.657240 0.401194 0.768858
O O6 0.893690 0.431318 0.837661
O O7 0.459709 0.729609 0.584291
O O8 0.426631 0.818797 0.489842
O O9 0.208456 0.868625 0.555978
O O10 0.528863 0.964421 0.555741
O O11 0.456394 0.229440 0.795445
O O12 0.269431 0.769068 0.150893
O O13 0.438199 0.827822 0.392091
#
# Coordination Sequence:
#
# PCOD9421188 Si02
#       7
#     8   4   8   4   8   8   8
#     4  12  24  34  56  89 122 153 191 251 317 377
#     4  10  24  40  60  82 112 164 216 246 288 364
#     4   9  17  31  53  79 115 150 183 237 298 367
#     4  10  22  38  60  78 114 154 200 248 300 358
#     4  10  21  39  59  80 118 162 198 246 298 367
#     4   9  17  30  52  81 113 147 184 231 304 372
#     4  10  19  37  57  82 115 155 189 240 312 364
#
# _framework density 21.151102000000002
#
# number of rings (size 3 to 8) (size 9 to 14) (size 15 to 20)
#    0.000    2.000    2.500    1.500    3.500    1.333 
#    0.000    0.000    0.000   10.000    0.000    0.000 
#    0.000    0.000    0.000    0.000    0.000    0.000 
#
# Total GULP energy -267809.486222 kJ/mol
# GULP energy per Si atom -5579.364296 kJ/mol
# Density = 2.110296 g / cm^3
# Si number density = 21.151102 Si / 1000 Ang^3
#
#
#
# Elastic Constant Matrix: (Units=GPa)
#
#
# Indices 1 2 3 4 5 6 
#
# 1 41.0368 13.8007 21.9653 0.0000 0.0000 0.0000
# 2 13.8007 67.7843 53.0174 0.0000 0.0000 0.0000
# 3 21.9653 53.0174 219.6932 0.0000 0.0000 0.0000
# 4 0.0000 0.0000 0.0000 5.8224 0.0000 0.0000
# 5 0.0000 0.0000 0.0000 0.0000 9.8214 0.0000
# 6 0.0000 0.0000 0.0000 0.0000 0.0000 13.1011
#
#
#
# Elastic Compliance Matrix: (Units=1/GPa)
#
#
# Indices 1 2 3 4 5 6 
#
# 1 0.026648 -0.004119 -0.001670 0.000000 0.000000 0.000000
# 2 -0.004119 0.018822 -0.004130 0.000000 0.000000 0.000000
# 3 -0.001670 -0.004130 0.005716 0.000000 0.000000 0.000000
# 4 0.000000 0.000000 0.000000 0.171751 0.000000 0.000000
# 5 0.000000 0.000000 0.000000 0.000000 0.101819 0.000000
# 6 0.000000 0.000000 0.000000 0.000000 0.000000 0.076329
#
#
# Mechanical properties :
#
#
# Convention : Reuss Voigt Hill
#
# Bulk Modulus (GPa) = 31.90221 56.23124 44.06672
# Shear Modulus (GPa) = 11.59094 21.73105 16.66100
#
# Velocity S-wave (km/s) = 2.34349 3.20882 2.80967
# Velocity P-wave (km/s) = 4.73691 6.35389 5.60403
#
# Compressibility (1/GPa) = 0.03134579
#
# Stress axis : x y z
#
# Youngs Moduli (GPa) = 37.52683 53.12979 174.96121
#
# Poissons Ratio (x) = 0.21884 0.29223
# Poissons Ratio (y) = 0.15457 0.72265
# Poissons Ratio (z) = 0.06268 0.21944
#
# Static dielectric constant tensor:
#      x y z
#    x 1.947070 0.000000 0.000000 
#    y 0.000000 1.763190 0.000000 
#    z 0.000000 0.000000 1.813770 
# 
# From -- ./inp_files/23537.got.cif
#   From: 2010.05.17/outbox.cif.g08.bks.cpg/sg54_12_cif.got.tgz:23537.got - 2010.06.03 13:09:01.
