data_PCOD9421761
_publ_section_title
;
Structure prediction by ZEFSAII (Michael W. Deem and Ramdas Pophale) SiO2 
 PCOD9421761
Probable space group: P C C A
;
_chemical_formula_sum "Si O2"
_cell_formula_units_Z 48
_cell_length_a 13.589174
_cell_length_b 7.654273
_cell_length_c 23.511499
_cell_angle_alpha 90.000000
_cell_angle_beta 90.000000
_cell_angle_gamma 90.000000
_cell_volume 2445.554391
_symmetry_space_group_name_H-M "P C C A"
_symmetry_group_IT_number 54
_symmetry_cell_setting 'orthorhombic'
loop_
_space_group_symop_operation_xyz
x,y,z
1/2-x,-y,z
1/2+x,-y,1/2-z
-x,y,1/2-z
-x,-y,-z
1/2+x,y,-z
1/2-x,y,1/2+z
x,-y,1/2+z
loop_
_atom_site_type_symbol
_atom_site_label
_atom_site_fract_x
_atom_site_fract_y
_atom_site_fract_z
Si Si1 0.035489 0.116686 0.185687
Si Si2 0.882395 0.823825 0.593130
Si Si3 0.452026 0.680042 0.018109
Si Si4 0.835665 0.769451 0.095735
Si Si5 0.497843 0.287720 0.181615
Si Si6 0.144802 0.410713 0.135945
O O1 0.130262 0.236945 0.174382
O O2 0.000000 0.121870 0.250000
O O3 0.951779 0.209155 0.147198
O O4 0.041717 0.910993 0.169316
O O5 0.779616 0.719975 0.592262
O O6 0.955552 0.797233 0.539635
O O7 0.849401 0.022510 0.600296
O O8 0.382028 0.650716 0.072268
O O9 0.500000 0.500000 0.000000
O O10 0.390081 0.733357 0.963510
O O11 0.896926 0.696349 0.149472
O O12 0.500000 0.305796 0.250000
O O13 0.430111 0.438130 0.155729
O O14 0.250000 0.500000 0.138840
#
# Coordination Sequence:
#
# PCOD9421761 Si02
#       6
#     8   8   8   8   8   8
#     4   9  20  41  64  88 123 160 201 250 302 358
#     4   9  21  37  59  89 113 155 201 248 300 360
#     4  11  22  37  57  81 119 154 196 247 297 356
#     4  10  20  38  61  85 118 152 203 248 300 363
#     4  10  21  40  64  89 121 160 201 252 305 355
#     4  11  24  39  57  90 124 158 203 247 300 362
#
# _framework density 19.627451000000001
#
# number of rings (size 3 to 8) (size 9 to 14) (size 15 to 20)
#    0.000    2.000    1.667    1.000    2.333    2.000 
#    0.000    3.333    0.000    0.000    0.000    0.000 
#    0.000    0.000    0.000    0.000    0.000    0.000 
#
# Total GULP energy -267565.833380 kJ/mol
# GULP energy per Si atom -5574.288195 kJ/mol
# Density = 1.958278 g / cm^3
# Si number density = 19.627451 Si / 1000 Ang^3
#
#
#
# Elastic Constant Matrix: (Units=GPa)
#
#
# Indices 1 2 3 4 5 6 
#
# 1 106.9208 22.2400 35.4127 0.0000 0.0000 0.0000
# 2 22.2400 48.5286 11.4002 0.0000 0.0000 0.0000
# 3 35.4127 11.4002 106.6581 0.0000 0.0000 0.0000
# 4 0.0000 0.0000 0.0000 20.8400 0.0000 0.0000
# 5 0.0000 0.0000 0.0000 0.0000 11.0949 0.0000
# 6 0.0000 0.0000 0.0000 0.0000 0.0000 27.2714
#
#
#
# Elastic Compliance Matrix: (Units=1/GPa)
#
#
# Indices 1 2 3 4 5 6 
#
# 1 0.011368 -0.004435 -0.003301 0.000000 0.000000 0.000000
# 2 -0.004435 0.022867 -0.000972 0.000000 0.000000 0.000000
# 3 -0.003301 -0.000972 0.010575 0.000000 0.000000 0.000000
# 4 0.000000 0.000000 0.000000 0.047985 0.000000 0.000000
# 5 0.000000 0.000000 0.000000 0.000000 0.090131 0.000000
# 6 0.000000 0.000000 0.000000 0.000000 0.000000 0.036668
#
#
# Mechanical properties :
#
#
# Convention : Reuss Voigt Hill
#
# Bulk Modulus (GPa) = 36.50032 44.46813 40.48422
# Shear Modulus (GPa) = 20.31357 24.71159 22.51258
#
# Velocity S-wave (km/s) = 3.22056 3.55213 3.39040
# Velocity P-wave (km/s) = 5.69792 6.28719 5.99980
#
# Compressibility (1/GPa) = 0.02739702
#
# Stress axis : x y z
#
# Youngs Moduli (GPa) = 87.96404 43.73109 94.55854
#
# Poissons Ratio (x) = 0.19393 0.31209
# Poissons Ratio (y) = 0.39008 0.09189
# Poissons Ratio (z) = 0.29033 0.04250
#
# Static dielectric constant tensor:
#      x y z
#    x 1.735950 0.000000 0.000000 
#    y 0.000000 1.709640 0.000000 
#    z 0.000000 0.000000 1.583670 
# 
# From -- ./inp_files/24063.got.cif
#   From: 2010.05.17/outbox.cif.g08.bks.cpg/sg54_13_cif.got.tgz:24063.got - 2010.06.03 13:09:01.
