data_PCOD9421920
_publ_section_title
;
Structure prediction by ZEFSAII (Michael W. Deem and Ramdas Pophale) SiO2 
 PCOD9421920
Probable space group: P C C A
;
_chemical_formula_sum "Si O2"
_cell_formula_units_Z 44
_cell_length_a 25.246799
_cell_length_b 6.416013
_cell_length_c 14.351438
_cell_angle_alpha 90.000000
_cell_angle_beta 90.000000
_cell_angle_gamma 90.000000
_cell_volume 2324.700328
_symmetry_space_group_name_H-M "P C C A"
_symmetry_group_IT_number 54
_symmetry_cell_setting 'orthorhombic'
loop_
_space_group_symop_operation_xyz
x,y,z
1/2-x,-y,z
1/2+x,-y,1/2-z
-x,y,1/2-z
-x,-y,-z
1/2+x,y,-z
1/2-x,y,1/2+z
x,-y,1/2+z
loop_
_atom_site_type_symbol
_atom_site_label
_atom_site_fract_x
_atom_site_fract_y
_atom_site_fract_z
Si Si1 0.559524 0.248026 0.719822
Si Si2 0.876300 0.862852 0.215038
Si Si3 0.286984 0.831068 0.353143
Si Si4 0.750000 0.500000 0.286931
Si Si5 0.866722 0.509254 0.358331
Si Si6 0.874585 0.521044 0.574370
O O1 0.500000 0.291218 0.750000
O O2 0.599495 0.347805 0.796339
O O3 0.577322 0.356286 0.623617
O O4 0.571258 0.003120 0.709779
O O5 0.876359 0.733941 0.310619
O O6 0.870289 0.693339 0.132467
O O7 0.829559 0.030654 0.202998
O O8 0.251227 0.698819 0.281788
O O9 0.321966 0.663756 0.409549
O O10 0.250000 0.000000 0.405164
O O11 0.803676 0.479647 0.344898
O O12 0.881725 0.491727 0.465387
#
# Coordination Sequence:
#
# PCOD9421920 Si02
#       6
#     8   8   8   4   8   8
#     4  10  23  44  66  90 124 167 214 264 318 370
#     4  10  20  40  61  85 126 164 206 255 310 366
#     4  11  19  37  61  87 127 171 204 246 302 372
#     4  12  20  38  62  94 130 168 204 250 308 380
#     4  11  23  40  64  96 130 164 208 259 315 377
#     4  10  23  41  62  98 125 158 211 260 312 370
#
# _framework density 18.927171999999999
#
# number of rings (size 3 to 8) (size 9 to 14) (size 15 to 20)
#    0.000    1.455    7.273    0.000    0.000    8.727 
#    3.273    1.818    0.000    0.000    0.000    0.000 
#    0.000    0.000    0.000    0.000    0.000    0.000 
#
# Total GULP energy -245371.621497 kJ/mol
# GULP energy per Si atom -5576.627761 kJ/mol
# Density = 1.888409 g / cm^3
# Si number density = 18.927172 Si / 1000 Ang^3
#
#
#
# Elastic Constant Matrix: (Units=GPa)
#
#
# Indices 1 2 3 4 5 6 
#
# 1 87.8124 33.0682 20.8563 0.0000 0.0000 0.0000
# 2 33.0682 105.9613 39.8211 0.0000 0.0000 0.0000
# 3 20.8563 39.8211 114.6998 0.0000 0.0000 0.0000
# 4 0.0000 0.0000 0.0000 -1.4621 0.0000 0.0000
# 5 0.0000 0.0000 0.0000 0.0000 9.1855 0.0000
# 6 0.0000 0.0000 0.0000 0.0000 0.0000 19.2364
#
#
#
# Elastic Compliance Matrix: (Units=1/GPa)
#
#
# Indices 1 2 3 4 5 6 
#
# 1 0.013024 -0.003651 -0.001101 0.000000 0.000000 0.000000
# 2 -0.003651 0.011877 -0.003460 0.000000 0.000000 0.000000
# 3 -0.001101 -0.003460 0.010120 0.000000 0.000000 0.000000
# 4 0.000000 0.000000 0.000000 -0.683945 0.000000 0.000000
# 5 0.000000 0.000000 0.000000 0.000000 0.108868 0.000000
# 6 0.000000 0.000000 0.000000 0.000000 0.000000 0.051985
#
#
# Mechanical properties :
#
#
# Convention : Reuss Voigt Hill
#
# Bulk Modulus (GPa) = 53.76806 55.10719 54.43763
# Shear Modulus (GPa) = -10.74228 19.70714 4.48243
#
# Velocity S-wave (km/s) = -2.38493 3.23028 1.54058
# Velocity P-wave (km/s) = 4.57008 6.56441 5.65585
#
# Compressibility (1/GPa) = 0.01859840
#
# Stress axis : x y z
#
# Youngs Moduli (GPa) = 76.78019 84.19718 98.81786
#
# Poissons Ratio (x) = 0.30740 0.10877
# Poissons Ratio (y) = 0.28032 0.34186
# Poissons Ratio (z) = 0.08451 0.29128
#
# Static dielectric constant tensor:
#      x y z
#    x 1.707210 0.000000 0.000000 
#    y 0.000000 1.686370 0.000000 
#    z 0.000000 0.000000 1.615440 
# 
# From -- ./inp_files/15069.got.cif
#   From: 2010.05.17/outbox.cif.g08.bks.cpg/sg54_8_cif.got.tgz:15069.got - 2010.06.03 13:09:01.
