data_PCOD9421098
_publ_section_title
;
Structure prediction by ZEFSAII (Michael W. Deem and Ramdas Pophale) SiO2 
 PCOD9421098
Probable space group: P C C A
;
_chemical_formula_sum "Si O2"
_cell_formula_units_Z 36
_cell_length_a 5.136127
_cell_length_b 10.418066
_cell_length_c 25.591213
_cell_angle_alpha 90.000000
_cell_angle_beta 90.000000
_cell_angle_gamma 90.000000
_cell_volume 1369.347679
_symmetry_space_group_name_H-M "P C C A"
_symmetry_group_IT_number 54
_symmetry_cell_setting 'orthorhombic'
loop_
_space_group_symop_operation_xyz
x,y,z
1/2-x,-y,z
1/2+x,-y,1/2-z
-x,y,1/2-z
-x,-y,-z
1/2+x,y,-z
1/2-x,y,1/2+z
x,-y,1/2+z
loop_
_atom_site_type_symbol
_atom_site_label
_atom_site_fract_x
_atom_site_fract_y
_atom_site_fract_z
Si Si1 0.500000 0.642731 0.750000
Si Si2 0.750000 0.500000 0.040160
Si Si3 0.014322 0.858593 0.523331
Si Si4 0.468440 0.182617 0.860152
Si Si5 0.475690 0.648332 0.637127
Si Si6 0.500000 0.173239 0.750000
O O1 0.501200 0.575515 0.693294
O O2 0.248409 0.733693 0.749698
O O3 0.908562 0.582156 0.086103
O O4 0.500000 0.500000 0.000000
O O5 0.761972 0.788960 0.500814
O O6 0.011754 0.881523 0.584456
O O7 0.000000 0.000000 0.500000
O O8 0.171625 0.230465 0.858460
O O9 0.510587 0.106124 0.806270
O O10 0.678683 0.299957 0.864778
#
# Coordination Sequence:
#
# PCOD9421098 Si02
#       6
#     4   4   8   8   8   4
#     4   8  16  34  55  78 103 132 186 238 278 326
#     4  12  26  40  52  78 122 156 190 234 282 342
#     4  10  21  35  53  79 111 141 178 229 274 328
#     4  10  19  35  59  81 106 143 188 231 285 339
#     4  10  21  37  57  81 109 147 190 238 284 335
#     4   8  16  30  53  82 105 130 176 234 276 330
#
# _framework density 26.289891999999998
#
# number of rings (size 3 to 8) (size 9 to 14) (size 15 to 20)
#    0.000    2.222    0.000    2.667    0.000    5.333 
#    0.000    7.778    0.000    5.333    0.000    0.000 
#    0.000    0.000    0.000    0.000    0.000    0.000 
#
# Total GULP energy -200520.943086 kJ/mol
# GULP energy per Si atom -5570.026197 kJ/mol
# Density = 2.623005 g / cm^3
# Si number density = 26.289892 Si / 1000 Ang^3
#
#
#
# Elastic Constant Matrix: (Units=GPa)
#
#
# Indices 1 2 3 4 5 6 
#
# 1 202.3216 15.3156 12.0967 0.0000 0.0000 0.0000
# 2 15.3156 31.4046 39.0147 0.0000 0.0000 0.0000
# 3 12.0967 39.0147 354.8052 0.0000 0.0000 0.0000
# 4 0.0000 0.0000 0.0000 222.3736 0.0000 0.0000
# 5 0.0000 0.0000 0.0000 0.0000 33.5439 0.0000
# 6 0.0000 0.0000 0.0000 0.0000 0.0000 25.3780
#
#
#
# Elastic Compliance Matrix: (Units=1/GPa)
#
#
# Indices 1 2 3 4 5 6 
#
# 1 0.005136 -0.002649 0.000116 0.000000 0.000000 0.000000
# 2 -0.002649 0.038247 -0.004115 0.000000 0.000000 0.000000
# 3 0.000116 -0.004115 0.003267 0.000000 0.000000 0.000000
# 4 0.000000 0.000000 0.000000 0.004497 0.000000 0.000000
# 5 0.000000 0.000000 0.000000 0.000000 0.029812 0.000000
# 6 0.000000 0.000000 0.000000 0.000000 0.000000 0.039404
#
#
# Mechanical properties :
#
#
# Convention : Reuss Voigt Hill
#
# Bulk Modulus (GPa) = 29.98182 80.15393 55.06788
# Shear Modulus (GPa) = 34.53571 91.06608 62.80089
#
# Velocity S-wave (km/s) = 3.62836 5.89189 4.89282
# Velocity P-wave (km/s) = 5.38353 8.76587 7.27403
#
# Compressibility (1/GPa) = 0.03335355
#
# Stress axis : x y z
#
# Youngs Moduli (GPa) = 194.69559 26.14579 306.08989
#
# Poissons Ratio (x) = 0.06927 -0.03557
# Poissons Ratio (y) = 0.51579 1.25967
# Poissons Ratio (z) = -0.02262 0.10760
#
# Static dielectric constant tensor:
#      x y z
#    x 2.211200 0.000000 0.000000 
#    y 0.000000 1.868590 0.000000 
#    z 0.000000 0.000000 2.136060 
# 
# From -- ./inp_files/19627.got.cif
#   From: 2010.05.17/outbox.cif.g08.bks.cpg/sg54_10_cif.got.tgz:19627.got - 2010.06.03 13:09:01.
