data_PCOD9421641
_publ_section_title
;
Structure prediction by ZEFSAII (Michael W. Deem and Ramdas Pophale) SiO2 
 PCOD9421641
Probable space group: P C C A
;
_chemical_formula_sum "Si O2"
_cell_formula_units_Z 48
_cell_length_a 19.029162
_cell_length_b 8.311417
_cell_length_c 15.440128
_cell_angle_alpha 90.000000
_cell_angle_beta 90.000000
_cell_angle_gamma 90.000000
_cell_volume 2441.999845
_symmetry_space_group_name_H-M "P C C A"
_symmetry_group_IT_number 54
_symmetry_cell_setting 'orthorhombic'
loop_
_space_group_symop_operation_xyz
x,y,z
1/2-x,-y,z
1/2+x,-y,1/2-z
-x,y,1/2-z
-x,-y,-z
1/2+x,y,-z
1/2-x,y,1/2+z
x,-y,1/2+z
loop_
_atom_site_type_symbol
_atom_site_label
_atom_site_fract_x
_atom_site_fract_y
_atom_site_fract_z
Si Si1 0.580213 0.220496 0.891622
Si Si2 0.850488 0.375694 0.229895
Si Si3 0.572673 0.933399 0.765607
Si Si4 0.574840 0.170781 0.599898
Si Si5 0.679222 0.085393 0.023588
Si Si6 0.701496 0.739739 0.708268
O O1 0.599116 0.341771 0.812555
O O2 0.501548 0.231657 0.930440
O O3 0.577183 0.043096 0.849462
O O4 0.641940 0.213738 0.961272
O O5 0.884804 0.321993 0.139567
O O6 0.824844 0.556567 0.216161
O O7 0.781539 0.262390 0.241074
O O8 0.500000 0.835901 0.750000
O O9 0.643999 0.836968 0.761429
O O10 0.567662 0.058855 0.685760
O O11 0.622115 0.057279 0.539793
O O12 0.698421 0.177498 0.113304
O O13 0.750000 0.000000 0.990639
#
# Coordination Sequence:
#
# PCOD9421641 Si02
#       6
#     8   8   8   8   8   8
#     4  10  21  34  59  88 111 140 194 245 280 328
#     4  10  20  37  56  79 112 153 190 231 279 345
#     4   8  17  32  54  80 107 140 185 232 272 326
#     4   9  18  37  57  81 113 152 183 229 288 341
#     4  11  21  36  58  85 114 152 189 236 289 341
#     4  10  21  36  55  79 113 152 187 222 285 351
#
# _framework density 19.656020000000002
#
# number of rings (size 3 to 8) (size 9 to 14) (size 15 to 20)
#    0.000    2.333    1.667    2.000    2.333    1.333 
#    0.000    5.833    0.000    0.000    0.000    0.000 
#    0.000    0.000    0.000    0.000    0.000    0.000 
#
# Total GULP energy -267223.376543 kJ/mol
# GULP energy per Si atom -5567.153678 kJ/mol
# Density = 1.961128 g / cm^3
# Si number density = 19.656020 Si / 1000 Ang^3
#
#
#
# Elastic Constant Matrix: (Units=GPa)
#
#
# Indices 1 2 3 4 5 6 
#
# 1 103.8766 15.6716 -0.4140 0.0000 0.0000 0.0000
# 2 15.6716 33.0046 -5.5997 0.0000 0.0000 0.0000
# 3 -0.4140 -5.5997 20.0591 0.0000 0.0000 0.0000
# 4 0.0000 0.0000 0.0000 6.0785 0.0000 0.0000
# 5 0.0000 0.0000 0.0000 0.0000 17.3857 0.0000
# 6 0.0000 0.0000 0.0000 0.0000 0.0000 21.8148
#
#
#
# Elastic Compliance Matrix: (Units=1/GPa)
#
#
# Indices 1 2 3 4 5 6 
#
# 1 0.010398 -0.005145 -0.001222 0.000000 0.000000 0.000000
# 2 -0.005145 0.034351 0.009483 0.000000 0.000000 0.000000
# 3 -0.001222 0.009483 0.052475 0.000000 0.000000 0.000000
# 4 0.000000 0.000000 0.000000 0.164515 0.000000 0.000000
# 5 0.000000 0.000000 0.000000 0.000000 0.057519 0.000000
# 6 0.000000 0.000000 0.000000 0.000000 0.000000 0.045840
#
#
# Mechanical properties :
#
#
# Convention : Reuss Voigt Hill
#
# Bulk Modulus (GPa) = 9.66583 19.58402 14.62493
# Shear Modulus (GPa) = 12.71136 18.87461 15.79299
#
# Velocity S-wave (km/s) = 2.54577 3.10215 2.83763
# Velocity P-wave (km/s) = 3.68367 4.77662 4.26530
#
# Compressibility (1/GPa) = 0.10345718
#
# Stress axis : x y z
#
# Youngs Moduli (GPa) = 96.17149 29.11161 19.05682
#
# Poissons Ratio (x) = 0.14977 0.02328
# Poissons Ratio (y) = 0.49476 -0.18072
# Poissons Ratio (z) = 0.11748 -0.27607
#
# Static dielectric constant tensor:
#      x y z
#    x 1.795090 0.000000 0.000000 
#    y 0.000000 1.682720 0.000000 
#    z 0.000000 0.000000 1.723030 
# 
# From -- ./inp_files/18501.got.cif
#   From: 2010.05.17/outbox.cif.g08.bks.cpg/sg54_10_cif.got.tgz:18501.got - 2010.06.03 13:09:01.
