data_PCOD9421784
_publ_section_title
;
Structure prediction by ZEFSAII (Michael W. Deem and Ramdas Pophale) SiO2 
 PCOD9421784
Probable space group: P C C A
;
_chemical_formula_sum "Si O2"
_cell_formula_units_Z 60
_cell_length_a 24.465966
_cell_length_b 11.307726
_cell_length_c 9.449242
_cell_angle_alpha 90.000000
_cell_angle_beta 90.000000
_cell_angle_gamma 90.000000
_cell_volume 2614.174753
_symmetry_space_group_name_H-M "P C C A"
_symmetry_group_IT_number 54
_symmetry_cell_setting 'orthorhombic'
loop_
_space_group_symop_operation_xyz
x,y,z
1/2-x,-y,z
1/2+x,-y,1/2-z
-x,y,1/2-z
-x,-y,-z
1/2+x,y,-z
1/2-x,y,1/2+z
x,-y,1/2+z
loop_
_atom_site_type_symbol
_atom_site_label
_atom_site_fract_x
_atom_site_fract_y
_atom_site_fract_z
Si Si1 0.078720 0.988480 0.376897
Si Si2 0.000000 0.327114 0.250000
Si Si3 0.150471 0.957907 0.628913
Si Si4 0.698974 0.266895 0.713878
Si Si5 0.509480 0.809046 0.980366
Si Si6 0.107728 0.456862 0.364676
Si Si7 0.701438 0.799963 0.890359
Si Si8 0.595636 0.651952 0.841498
O O1 0.096366 0.005370 0.216587
O O2 0.032413 0.891504 0.398686
O O3 0.132021 0.951718 0.466528
O O4 0.055585 0.109836 0.443140
O O5 0.019182 0.251715 0.114908
O O6 0.948248 0.399267 0.193744
O O7 0.195447 0.061141 0.643191
O O8 0.168318 0.835613 0.698287
O O9 0.659583 0.380661 0.692888
O O10 0.755434 0.275259 0.799592
O O11 0.711888 0.219179 0.556641
O O12 0.538707 0.712776 0.882064
O O13 0.106662 0.443639 0.533745
O O14 0.104297 0.589051 0.307112
O O15 0.641587 0.749853 0.860037
#
# Coordination Sequence:
#
# PCOD9421784 Si02
#       8
#     8   4   8   8   8   8   8   8
#     4  11  22  37  64  97 133 178 211 268 329 395
#     4  10  20  42  64  90 130 180 210 266 330 388
#     4  12  22  42  63  98 133 171 217 271 338 393
#     4  11  25  44  67  94 131 174 220 272 340 395
#     4  10  20  38  63  93 137 173 220 264 324 399
#     4  10  23  43  69  92 132 173 215 278 327 393
#     4  11  25  44  66  94 132 172 220 285 331 400
#     4  10  22  47  63  97 133 170 227 273 331 392
#
# _framework density 22.951792999999999
#
# number of rings (size 3 to 8) (size 9 to 14) (size 15 to 20)
#    0.000    1.333    2.667    3.600    1.867    6.400 
#    4.800    2.667    0.000    0.000    0.000    0.000 
#    0.000    0.000    0.000    0.000    0.000    0.000 
#
# Total GULP energy -335836.397011 kJ/mol
# GULP energy per Si atom -5597.273284 kJ/mol
# Density = 2.289955 g / cm^3
# Si number density = 22.951793 Si / 1000 Ang^3
#
#
#
# Elastic Constant Matrix: (Units=GPa)
#
#
# Indices 1 2 3 4 5 6 
#
# 1 58.8317 -8.8643 10.4170 0.0000 0.0000 0.0000
# 2 -8.8643 33.7414 16.1298 0.0000 0.0000 0.0000
# 3 10.4170 16.1298 42.0424 0.0000 0.0000 0.0000
# 4 0.0000 0.0000 0.0000 25.0191 0.0000 0.0000
# 5 0.0000 0.0000 0.0000 0.0000 26.8131 0.0000
# 6 0.0000 0.0000 0.0000 0.0000 0.0000 7.5146
#
#
#
# Elastic Compliance Matrix: (Units=1/GPa)
#
#
# Indices 1 2 3 4 5 6 
#
# 1 0.019901 0.009289 -0.008495 0.000000 0.000000 0.000000
# 2 0.009289 0.040629 -0.017889 0.000000 0.000000 0.000000
# 3 -0.008495 -0.017889 0.032754 0.000000 0.000000 0.000000
# 4 0.000000 0.000000 0.000000 0.039970 0.000000 0.000000
# 5 0.000000 0.000000 0.000000 0.000000 0.037295 0.000000
# 6 0.000000 0.000000 0.000000 0.000000 0.000000 0.133075
#
#
# Mechanical properties :
#
#
# Convention : Reuss Voigt Hill
#
# Bulk Modulus (GPa) = 16.92201 18.88670 17.90435
# Shear Modulus (GPa) = 13.98553 19.66488 16.82521
#
# Velocity S-wave (km/s) = 2.47117 2.93027 2.71046
# Velocity P-wave (km/s) = 3.94095 4.43795 4.19681
#
# Compressibility (1/GPa) = 0.05909465
#
# Stress axis : x y z
#
# Youngs Moduli (GPa) = 50.24769 24.61269 30.53097
#
# Poissons Ratio (x) = -0.22863 0.25936
# Poissons Ratio (y) = -0.46677 0.54618
# Poissons Ratio (z) = 0.42685 0.44030
#
# Static dielectric constant tensor:
#      x y z
#    x 1.884510 0.000000 0.000000 
#    y 0.000000 1.873190 0.000000 
#    z 0.000000 0.000000 1.830170 
# 
# From -- ./inp_files/5590.got.cif
#   From: 2010.05.17/outbox.cif.g08.bks.cpg/sg54_3_cif.got.tgz:5590.got - 2010.06.03 13:09:01.
