data_PCOD9421928
_publ_section_title
;
Structure prediction by ZEFSAII (Michael W. Deem and Ramdas Pophale) SiO2 
 PCOD9421928
Probable space group: P C C A
;
_chemical_formula_sum "Si O2"
_cell_formula_units_Z 48
_cell_length_a 10.942337
_cell_length_b 12.227986
_cell_length_c 16.733179
_cell_angle_alpha 90.000000
_cell_angle_beta 90.000000
_cell_angle_gamma 90.000000
_cell_volume 2238.945260
_symmetry_space_group_name_H-M "P C C A"
_symmetry_group_IT_number 54
_symmetry_cell_setting 'orthorhombic'
loop_
_space_group_symop_operation_xyz
x,y,z
1/2-x,-y,z
1/2+x,-y,1/2-z
-x,y,1/2-z
-x,-y,-z
1/2+x,y,-z
1/2-x,y,1/2+z
x,-y,1/2+z
loop_
_atom_site_type_symbol
_atom_site_label
_atom_site_fract_x
_atom_site_fract_y
_atom_site_fract_z
Si Si1 0.237356 0.762830 0.294469
Si Si2 0.984892 0.275339 0.462524
Si Si3 0.749112 0.239245 0.876768
Si Si4 0.688052 0.118238 0.541979
Si Si5 0.992374 0.349570 0.637506
Si Si6 0.370347 0.569232 0.362411
O O1 0.254844 0.820427 0.209144
O O2 0.267943 0.831601 0.373367
O O3 0.100062 0.717035 0.305613
O O4 0.328517 0.657576 0.296574
O O5 0.881079 0.291356 0.396652
O O6 0.943764 0.313030 0.549578
O O7 0.043338 0.153152 0.459983
O O8 0.091734 0.358479 0.437899
O O9 0.865665 0.318077 0.865758
O O10 0.770338 0.171062 0.957712
O O11 0.750000 0.000000 0.540924
O O12 0.970860 0.477175 0.654118
O O13 0.250000 0.500000 0.381000
#
# Coordination Sequence:
#
# PCOD9421928 Si02
#       6
#     8   8   8   8   8   8
#     4  10  21  43  64  89 137 167 213 278 330 381
#     4  10  21  40  65  95 130 170 215 274 323 387
#     4  11  23  40  65  94 131 173 217 272 330 389
#     4  10  23  43  69  94 126 169 219 275 336 391
#     4  10  20  40  62  91 134 173 218 264 323 388
#     4   9  20  37  61  90 131 172 215 266 317 390
#
# _framework density 21.438666999999999
#
# number of rings (size 3 to 8) (size 9 to 14) (size 15 to 20)
#    0.000    2.000    1.667    1.000    2.333    4.667 
#   15.000    0.000    3.667    0.000    0.000    0.000 
#    0.000    0.000    0.000    0.000    0.000    0.000 
#
# Total GULP energy -267357.781731 kJ/mol
# GULP energy per Si atom -5569.953786 kJ/mol
# Density = 2.138987 g / cm^3
# Si number density = 21.438667 Si / 1000 Ang^3
#
#
#
# Elastic Constant Matrix: (Units=GPa)
#
#
# Indices 1 2 3 4 5 6 
#
# 1 53.9019 46.6324 37.5746 0.0000 0.0000 0.0000
# 2 46.6324 91.8560 36.6951 0.0000 0.0000 0.0000
# 3 37.5746 36.6951 172.5279 0.0000 0.0000 0.0000
# 4 0.0000 0.0000 0.0000 -1.5264 0.0000 0.0000
# 5 0.0000 0.0000 0.0000 0.0000 30.3476 0.0000
# 6 0.0000 0.0000 0.0000 0.0000 0.0000 -8.6622
#
#
#
# Elastic Compliance Matrix: (Units=1/GPa)
#
#
# Indices 1 2 3 4 5 6 
#
# 1 0.035773 -0.016446 -0.004293 0.000000 0.000000 0.000000
# 2 -0.016446 0.019458 -0.000557 0.000000 0.000000 0.000000
# 3 -0.004293 -0.000557 0.006850 0.000000 0.000000 0.000000
# 4 0.000000 0.000000 0.000000 -0.655120 0.000000 0.000000
# 5 0.000000 0.000000 0.000000 0.000000 0.032952 0.000000
# 6 0.000000 0.000000 0.000000 0.000000 0.000000 -0.115444
#
#
# Mechanical properties :
#
#
# Convention : Reuss Voigt Hill
#
# Bulk Modulus (GPa) = 51.31071 62.23225 56.77148
# Shear Modulus (GPa) = -7.98154 17.19071 4.60459
#
# Velocity S-wave (km/s) = -1.93159 2.83478 1.46713
# Velocity P-wave (km/s) = 4.36016 6.30917 5.42294
#
# Compressibility (1/GPa) = 0.01948911
#
# Stress axis : x y z
#
# Youngs Moduli (GPa) = 27.95439 51.39277 145.99440
#
# Poissons Ratio (x) = 0.84519 0.62676
# Poissons Ratio (y) = 0.45973 0.08130
# Poissons Ratio (z) = 0.12001 0.02862
#
# Static dielectric constant tensor:
#      x y z
#    x 1.868540 0.000000 0.000000 
#    y 0.000000 1.774880 0.000000 
#    z 0.000000 0.000000 1.793080 
# 
# From -- ./inp_files/17306.got.cif
#   From: 2010.05.17/outbox.cif.g08.bks.cpg/sg54_9_cif.got.tgz:17306.got - 2010.06.03 13:09:01.
