data_PCOD9421762
_publ_section_title
;
Structure prediction by ZEFSAII (Michael W. Deem and Ramdas Pophale) SiO2 
 PCOD9421762
Probable space group: P C C A
;
_chemical_formula_sum "Si O2"
_cell_formula_units_Z 48
_cell_length_a 5.390850
_cell_length_b 13.418731
_cell_length_c 28.325644
_cell_angle_alpha 90.000000
_cell_angle_beta 90.000000
_cell_angle_gamma 90.000000
_cell_volume 2049.030803
_symmetry_space_group_name_H-M "P C C A"
_symmetry_group_IT_number 54
_symmetry_cell_setting 'orthorhombic'
loop_
_space_group_symop_operation_xyz
x,y,z
1/2-x,-y,z
1/2+x,-y,1/2-z
-x,y,1/2-z
-x,-y,-z
1/2+x,y,-z
1/2-x,y,1/2+z
x,-y,1/2+z
loop_
_atom_site_type_symbol
_atom_site_label
_atom_site_fract_x
_atom_site_fract_y
_atom_site_fract_z
Si Si1 0.750000 0.500000 0.430260
Si Si2 0.595519 0.867871 0.361915
Si Si3 0.525200 0.687635 0.972372
Si Si4 0.250000 0.000000 0.222959
Si Si5 0.910319 0.829239 0.114027
Si Si6 0.427720 0.671932 0.803731
Si Si7 0.575892 0.371046 0.847634
O O1 0.932470 0.572050 0.459013
O O2 0.920493 0.431428 0.396190
O O3 0.340028 0.890518 0.387113
O O4 0.587617 0.746988 0.359605
O O5 0.845772 0.895008 0.388573
O O6 0.631160 0.914795 0.310454
O O7 0.443146 0.744875 0.925197
O O8 0.301480 0.711881 0.008323
O O9 0.500000 0.036250 0.250000
O O10 0.913685 0.773175 0.165126
O O11 0.500000 0.692728 0.750000
O O12 0.658767 0.608754 0.823569
O O13 0.164771 0.619070 0.814459
#
# Coordination Sequence:
#
# PCOD9421762 Si02
#       7
#     4   8   8   4   8   8   8
#     4  12  24  46  66 100 140 186 236 304 356 428
#     4  10  21  41  64  94 136 185 211 277 360 410
#     4  12  26  42  68 104 139 181 237 305 370 421
#     4  12  26  42  70 116 142 170 238 304 358 436
#     4  10  21  42  66  95 140 181 232 278 352 430
#     4  10  20  38  61  86 115 172 230 274 326 390
#     4  10  23  38  65  88 133 180 224 279 333 404
#
# _framework density 23.425708
#
# number of rings (size 3 to 8) (size 9 to 14) (size 15 to 20)
#    0.000    1.333    3.333    3.000    2.333   10.000 
#    0.000    1.667    0.000    0.000    0.000   11.667 
#    0.000    0.000    0.000    0.000    0.000    0.000 
#
# Total GULP energy -268089.605807 kJ/mol
# GULP energy per Si atom -5585.200121 kJ/mol
# Density = 2.337239 g / cm^3
# Si number density = 23.425708 Si / 1000 Ang^3
#
#
#
# Elastic Constant Matrix: (Units=GPa)
#
#
# Indices 1 2 3 4 5 6 
#
# 1 247.8376 20.8954 28.8480 0.0000 0.0000 0.0000
# 2 20.8954 65.8262 3.3746 0.0000 0.0000 0.0000
# 3 28.8480 3.3746 55.8751 0.0000 0.0000 0.0000
# 4 0.0000 0.0000 0.0000 29.1822 0.0000 0.0000
# 5 0.0000 0.0000 0.0000 0.0000 36.2349 0.0000
# 6 0.0000 0.0000 0.0000 0.0000 0.0000 19.2348
#
#
#
# Elastic Compliance Matrix: (Units=1/GPa)
#
#
# Indices 1 2 3 4 5 6 
#
# 1 0.004398 -0.001284 -0.002193 0.000000 0.000000 0.000000
# 2 -0.001284 0.015613 -0.000280 0.000000 0.000000 0.000000
# 3 -0.002193 -0.000280 0.019046 0.000000 0.000000 0.000000
# 4 0.000000 0.000000 0.000000 0.034267 0.000000 0.000000
# 5 0.000000 0.000000 0.000000 0.000000 0.027598 0.000000
# 6 0.000000 0.000000 0.000000 0.000000 0.000000 0.051989
#
#
# Mechanical properties :
#
#
# Convention : Reuss Voigt Hill
#
# Bulk Modulus (GPa) = 31.70213 52.86389 42.28301
# Shear Modulus (GPa) = 29.24977 38.02511 33.63744
#
# Velocity S-wave (km/s) = 3.53741 4.03329 3.79346
# Velocity P-wave (km/s) = 5.49971 6.65624 6.10542
#
# Compressibility (1/GPa) = 0.03154362
#
# Stress axis : x y z
#
# Youngs Moduli (GPa) = 227.35338 64.04762 52.50337
#
# Poissons Ratio (x) = 0.08222 0.11516
# Poissons Ratio (y) = 0.29187 0.01471
# Poissons Ratio (z) = 0.49867 0.01794
#
# Static dielectric constant tensor:
#      x y z
#    x 2.145110 0.000000 0.000000 
#    y 0.000000 2.040020 0.000000 
#    z 0.000000 0.000000 1.891650 
# 
# From -- ./inp_files/27188.got.cif
#   From: 2010.05.17/outbox.cif.g08.bks.cpg/sg54_14_cif.got.tgz:27188.got - 2010.06.03 13:09:01.
