data_PCOD9421796
_publ_section_title
;
Structure prediction by ZEFSAII (Michael W. Deem and Ramdas Pophale) SiO2 
 PCOD9421796
Probable space group: P C C A
;
_chemical_formula_sum "Si O2"
_cell_formula_units_Z 44
_cell_length_a 14.947897
_cell_length_b 12.496010
_cell_length_c 10.331132
_cell_angle_alpha 90.000000
_cell_angle_beta 90.000000
_cell_angle_gamma 90.000000
_cell_volume 1929.742542
_symmetry_space_group_name_H-M "P C C A"
_symmetry_group_IT_number 54
_symmetry_cell_setting 'orthorhombic'
loop_
_space_group_symop_operation_xyz
x,y,z
1/2-x,-y,z
1/2+x,-y,1/2-z
-x,y,1/2-z
-x,-y,-z
1/2+x,y,-z
1/2-x,y,1/2+z
x,-y,1/2+z
loop_
_atom_site_type_symbol
_atom_site_label
_atom_site_fract_x
_atom_site_fract_y
_atom_site_fract_z
Si Si1 0.146418 0.532999 0.034882
Si Si2 0.869811 0.397247 0.228052
Si Si3 0.212109 0.730529 0.169458
Si Si4 0.105646 0.079360 0.785369
Si Si5 0.637546 0.899427 0.417457
Si Si6 0.500000 0.211843 0.750000
O O1 0.250000 0.500000 0.029907
O O2 0.103117 0.455192 0.139486
O O3 0.150931 0.656807 0.077973
O O4 0.112867 0.524652 0.890115
O O5 0.768104 0.355901 0.245724
O O6 0.922612 0.289269 0.203104
O O7 0.150878 0.807499 0.253482
O O8 0.286022 0.807036 0.097679
O O9 0.000000 0.081610 0.750000
O O10 0.149928 0.992240 0.689285
O O11 0.126624 0.058102 0.936698
O O12 0.542500 0.851888 0.368719
#
# Coordination Sequence:
#
# PCOD9421796 Si02
#       6
#     8   8   8   8   8   4
#     4  10  20  38  64  93 123 167 213 269 319 388
#     4  10  22  40  65  92 131 167 218 264 329 384
#     4  10  23  41  68  98 129 175 220 266 326 401
#     4  12  26  43  68 102 135 174 223 282 330 390
#     4  11  25  45  67  95 136 177 225 266 340 394
#     4  10  24  42  64  90 132 176 212 280 328 392
#
# _framework density 22.800968000000001
#
# number of rings (size 3 to 8) (size 9 to 14) (size 15 to 20)
#    0.000    1.455    0.909    3.818    2.545    8.000 
#    1.636    0.000    0.000    0.000    0.000    0.000 
#    0.000    0.000    0.000    0.000    0.000    0.000 
#
# Total GULP energy -245772.699684 kJ/mol
# GULP energy per Si atom -5585.743175 kJ/mol
# Density = 2.274907 g / cm^3
# Si number density = 22.800968 Si / 1000 Ang^3
#
#
#
# Elastic Constant Matrix: (Units=GPa)
#
#
# Indices 1 2 3 4 5 6 
#
# 1 64.7765 5.3374 15.3339 0.0000 0.0000 0.0000
# 2 5.3374 81.2605 49.9508 0.0000 0.0000 0.0000
# 3 15.3339 49.9508 155.3524 0.0000 0.0000 0.0000
# 4 0.0000 0.0000 0.0000 31.7691 0.0000 0.0000
# 5 0.0000 0.0000 0.0000 0.0000 5.9762 0.0000
# 6 0.0000 0.0000 0.0000 0.0000 0.0000 -2.8865
#
#
#
# Elastic Compliance Matrix: (Units=1/GPa)
#
#
# Indices 1 2 3 4 5 6 
#
# 1 0.015808 -0.000099 -0.001529 0.000000 0.000000 0.000000
# 2 -0.000099 0.015338 -0.004922 0.000000 0.000000 0.000000
# 3 -0.001529 -0.004922 0.008170 0.000000 0.000000 0.000000
# 4 0.000000 0.000000 0.000000 0.031477 0.000000 0.000000
# 5 0.000000 0.000000 0.000000 0.000000 0.167331 0.000000
# 6 0.000000 0.000000 0.000000 0.000000 0.000000 -0.346438
#
#
# Mechanical properties :
#
#
# Convention : Reuss Voigt Hill
#
# Bulk Modulus (GPa) = 38.14201 49.18151 43.66176
# Shear Modulus (GPa) = -57.81928 22.35624 -17.73152
#
# Velocity S-wave (km/s) = -5.04116 3.13468 -2.79169
# Velocity P-wave (km/s) = 4.13761 5.89223 2.96636
#
# Compressibility (1/GPa) = 0.02621781
#
# Stress axis : x y z
#
# Youngs Moduli (GPa) = 63.26047 65.19704 122.39273
#
# Poissons Ratio (x) = 0.00643 0.18708
# Poissons Ratio (y) = 0.00624 0.60241
# Poissons Ratio (z) = 0.09670 0.32090
#
# Static dielectric constant tensor:
#      x y z
#    x 1.984690 0.000000 0.000000 
#    y 0.000000 1.864960 0.000000 
#    z 0.000000 0.000000 1.882010 
# 
# From -- ./inp_files/8857.got.cif
#   From: 2010.05.17/outbox.cif.g08.bks.cpg/sg54_5_cif.got.tgz:8857.got - 2010.06.03 13:09:01.
