data_PCOD9421735
_publ_section_title
;
Structure prediction by ZEFSAII (Michael W. Deem and Ramdas Pophale) SiO2 
 PCOD9421735
Probable space group: P C C A
;
_chemical_formula_sum "Si O2"
_cell_formula_units_Z 40
_cell_length_a 26.113491
_cell_length_b 5.240124
_cell_length_c 15.445932
_cell_angle_alpha 90.000000
_cell_angle_beta 90.000000
_cell_angle_gamma 90.000000
_cell_volume 2113.589376
_symmetry_space_group_name_H-M "P C C A"
_symmetry_group_IT_number 54
_symmetry_cell_setting 'orthorhombic'
loop_
_space_group_symop_operation_xyz
x,y,z
1/2-x,-y,z
1/2+x,-y,1/2-z
-x,y,1/2-z
-x,-y,-z
1/2+x,y,-z
1/2-x,y,1/2+z
x,-y,1/2+z
loop_
_atom_site_type_symbol
_atom_site_label
_atom_site_fract_x
_atom_site_fract_y
_atom_site_fract_z
Si Si1 0.614095 0.048721 0.931483
Si Si2 0.191536 0.538841 0.334333
Si Si3 0.442450 0.861962 0.721967
Si Si4 0.354754 0.444172 0.153853
Si Si5 0.628586 0.040824 0.624846
O O1 0.603518 0.008922 0.031734
O O2 0.639369 0.317747 0.908893
O O3 0.565052 0.012100 0.868631
O O4 0.651103 0.819562 0.898398
O O5 0.250000 0.500000 0.360370
O O6 0.185637 0.518422 0.229945
O O7 0.170046 0.815381 0.360568
O O8 0.156032 0.313820 0.371798
O O9 0.500000 0.817653 0.750000
O O10 0.409092 0.606890 0.703627
O O11 0.411575 0.009476 0.797047
#
# Coordination Sequence:
#
# PCOD9421735 Si02
#       5
#     8   8   8   8   8
#     4  10  20  38  59  83 124 146 193 236 293 341
#     4  11  21  40  63  84 114 156 199 241 300 352
#     4   9  21  38  61  88 120 159 198 235 298 349
#     4   9  19  39  56  85 117 153 188 246 284 345
#     4  11  22  39  62  86 121 155 192 249 294 346
#
# _framework density 18.925152000000001
#
# number of rings (size 3 to 8) (size 9 to 14) (size 15 to 20)
#    1.200    0.800    2.000    1.800    0.000    1.600 
#    0.000    7.000    0.000    0.000    0.000    0.000 
#    0.000    0.000    0.000    0.000    0.000    0.000 
#
# Total GULP energy -222808.363686 kJ/mol
# GULP energy per Si atom -5570.209092 kJ/mol
# Density = 1.888208 g / cm^3
# Si number density = 18.925152 Si / 1000 Ang^3
#
#
#
# Elastic Constant Matrix: (Units=GPa)
#
#
# Indices 1 2 3 4 5 6 
#
# 1 65.5315 -10.0923 7.4928 0.0000 0.0000 0.0000
# 2 -10.0923 78.3431 0.2319 0.0000 0.0000 0.0000
# 3 7.4928 0.2319 77.4245 0.0000 0.0000 0.0000
# 4 0.0000 0.0000 0.0000 26.0199 0.0000 0.0000
# 5 0.0000 0.0000 0.0000 0.0000 3.2784 0.0000
# 6 0.0000 0.0000 0.0000 0.0000 0.0000 11.5437
#
#
#
# Elastic Compliance Matrix: (Units=1/GPa)
#
#
# Indices 1 2 3 4 5 6 
#
# 1 0.015748 0.002033 -0.001530 0.000000 0.000000 0.000000
# 2 0.002033 0.013027 -0.000236 0.000000 0.000000 0.000000
# 3 -0.001530 -0.000236 0.013065 0.000000 0.000000 0.000000
# 4 0.000000 0.000000 0.000000 0.038432 0.000000 0.000000
# 5 0.000000 0.000000 0.000000 0.000000 0.305023 0.000000
# 6 0.000000 0.000000 0.000000 0.000000 0.000000 0.086627
#
#
# Mechanical properties :
#
#
# Convention : Reuss Voigt Hill
#
# Bulk Modulus (GPa) = 23.59932 24.06267 23.83099
# Shear Modulus (GPa) = 10.29841 23.07953 16.68897
#
# Velocity S-wave (km/s) = 2.33527 3.49595 2.97280
# Velocity P-wave (km/s) = 4.44614 5.38867 4.93994
#
# Compressibility (1/GPa) = 0.04237410
#
# Stress axis : x y z
#
# Youngs Moduli (GPa) = 63.50052 76.76377 76.54279
#
# Poissons Ratio (x) = -0.15608 0.11712
# Poissons Ratio (y) = -0.12911 0.01805
# Poissons Ratio (z) = 0.09716 0.01810
#
# Static dielectric constant tensor:
#      x y z
#    x 1.627010 0.000000 0.000000 
#    y 0.000000 1.665040 0.000000 
#    z 0.000000 0.000000 1.673160 
# 
# From -- ./inp_files/15041.got.cif
#   From: 2010.05.17/outbox.cif.g08.bks.cpg/sg54_8_cif.got.tgz:15041.got - 2010.06.03 13:09:01.
