data_PCOD9421565
_publ_section_title
;
Structure prediction by ZEFSAII (Michael W. Deem and Ramdas Pophale) SiO2 
 PCOD9421565
Probable space group: P C C A
;
_chemical_formula_sum "Si O2"
_cell_formula_units_Z 44
_cell_length_a 7.917748
_cell_length_b 16.214097
_cell_length_c 16.781049
_cell_angle_alpha 90.000000
_cell_angle_beta 90.000000
_cell_angle_gamma 90.000000
_cell_volume 2154.336540
_symmetry_space_group_name_H-M "P C C A"
_symmetry_group_IT_number 54
_symmetry_cell_setting 'orthorhombic'
loop_
_space_group_symop_operation_xyz
x,y,z
1/2-x,-y,z
1/2+x,-y,1/2-z
-x,y,1/2-z
-x,-y,-z
1/2+x,y,-z
1/2-x,y,1/2+z
x,-y,1/2+z
loop_
_atom_site_type_symbol
_atom_site_label
_atom_site_fract_x
_atom_site_fract_y
_atom_site_fract_z
Si Si1 0.070461 0.226889 0.922830
Si Si2 0.658914 0.082551 0.191618
Si Si3 0.043231 0.271839 0.407836
Si Si4 0.432578 0.616221 0.660840
Si Si5 0.456038 0.561835 0.156438
Si Si6 0.500000 0.176151 0.750000
O O1 0.073475 0.140983 0.875287
O O2 0.259091 0.257208 0.909465
O O3 0.954514 0.299446 0.886815
O O4 0.034114 0.226033 0.016286
O O5 0.500000 0.063471 0.250000
O O6 0.822287 0.127874 0.233192
O O7 0.750000 0.000000 0.159531
O O8 0.970830 0.232791 0.327129
O O9 0.025353 0.369750 0.403172
O O10 0.500000 0.632370 0.750000
O O11 0.241285 0.585507 0.658026
O O12 0.517625 0.530065 0.632967
O O13 0.500000 0.571475 0.250000
#
# Coordination Sequence:
#
# PCOD9421565 Si02
#       6
#     8   8   8   8   8   4
#     4  11  25  40  64  97 130 171 220 278 344 401
#     4  11  24  45  73 101 132 174 221 283 341 421
#     4  11  23  41  63  94 132 172 222 274 327 403
#     4  10  21  36  58  93 129 176 227 274 336 394
#     4  10  20  36  60  89 131 177 225 275 323 396
#     4  10  24  44  68  98 128 178 230 264 338 412
#
# _framework density 20.423921
#
# number of rings (size 3 to 8) (size 9 to 14) (size 15 to 20)
#    0.000    1.455    1.818    2.727    7.636    2.909 
#    0.000    4.545    0.000    0.000    0.000    0.000 
#    0.000    0.000    0.000    0.000    0.000    0.000 
#
# Total GULP energy -245219.059345 kJ/mol
# GULP energy per Si atom -5573.160440 kJ/mol
# Density = 2.037744 g / cm^3
# Si number density = 20.423921 Si / 1000 Ang^3
#
#
#
# Elastic Constant Matrix: (Units=GPa)
#
#
# Indices 1 2 3 4 5 6 
#
# 1 31.7989 25.0019 12.1671 0.0000 0.0000 0.0000
# 2 25.0019 132.6609 64.1697 0.0000 0.0000 0.0000
# 3 12.1671 64.1697 99.1077 0.0000 0.0000 0.0000
# 4 0.0000 0.0000 0.0000 28.2015 0.0000 0.0000
# 5 0.0000 0.0000 0.0000 0.0000 20.4413 0.0000
# 6 0.0000 0.0000 0.0000 0.0000 0.0000 28.5719
#
#
#
# Elastic Compliance Matrix: (Units=1/GPa)
#
#
# Indices 1 2 3 4 5 6 
#
# 1 0.036918 -0.006939 -0.000040 0.000000 0.000000 0.000000
# 2 -0.006939 0.012279 -0.007099 0.000000 0.000000 0.000000
# 3 -0.000040 -0.007099 0.014691 0.000000 0.000000 0.000000
# 4 0.000000 0.000000 0.000000 0.035459 0.000000 0.000000
# 5 0.000000 0.000000 0.000000 0.000000 0.048921 0.000000
# 6 0.000000 0.000000 0.000000 0.000000 0.000000 0.034999
#
#
# Mechanical properties :
#
#
# Convention : Reuss Voigt Hill
#
# Bulk Modulus (GPa) = 27.98403 51.80500 39.89451
# Shear Modulus (GPa) = 22.38799 26.25819 24.32309
#
# Velocity S-wave (km/s) = 3.31443 3.58950 3.45470
# Velocity P-wave (km/s) = 5.32716 6.52681 5.95726
#
# Compressibility (1/GPa) = 0.03573467
#
# Stress axis : x y z
#
# Youngs Moduli (GPa) = 27.08681 81.43669 68.06790
#
# Poissons Ratio (x) = 0.56505 0.00271
# Poissons Ratio (y) = 0.18794 0.48320
# Poissons Ratio (z) = 0.00108 0.57810
#
# Static dielectric constant tensor:
#      x y z
#    x 1.772730 0.000000 0.000000 
#    y 0.000000 1.909600 0.000000 
#    z 0.000000 0.000000 1.649120 
# 
# From -- ./inp_files/11651.got.cif
#   From: 2010.05.17/outbox.cif.g08.bks.cpg/sg54_6_cif.got.tgz:11651.got - 2010.06.03 13:09:01.
