data_PCOD9421935
_publ_section_title
;
Structure prediction by ZEFSAII (Michael W. Deem and Ramdas Pophale) SiO2 
 PCOD9421935
Probable space group: P C C A
;
_chemical_formula_sum "Si O2"
_cell_formula_units_Z 60
_cell_length_a 24.911353
_cell_length_b 8.024139
_cell_length_c 15.812915
_cell_angle_alpha 90.000000
_cell_angle_beta 90.000000
_cell_angle_gamma 90.000000
_cell_volume 3160.877722
_symmetry_space_group_name_H-M "P C C A"
_symmetry_group_IT_number 54
_symmetry_cell_setting 'orthorhombic'
loop_
_space_group_symop_operation_xyz
x,y,z
1/2-x,-y,z
1/2+x,-y,1/2-z
-x,y,1/2-z
-x,-y,-z
1/2+x,y,-z
1/2-x,y,1/2+z
x,-y,1/2+z
loop_
_atom_site_type_symbol
_atom_site_label
_atom_site_fract_x
_atom_site_fract_y
_atom_site_fract_z
Si Si1 0.240958 0.178582 0.238910
Si Si2 0.841308 0.833828 0.137787
Si Si3 0.021608 0.197948 0.338638
Si Si4 0.458632 0.806514 0.821156
Si Si5 0.040541 0.648651 0.508106
Si Si6 0.250000 0.500000 0.624291
Si Si7 0.354542 0.212778 0.869453
Si Si8 0.342738 0.473416 0.489200
O O1 0.286745 0.165778 0.310088
O O2 0.252576 0.335633 0.181083
O O3 0.183817 0.207006 0.286430
O O4 0.250000 0.000000 0.192969
O O5 0.894238 0.798241 0.196060
O O6 0.834167 0.686808 0.070761
O O7 0.850976 0.019470 0.099276
O O8 0.083034 0.254339 0.352092
O O9 0.000000 0.267894 0.250000
O O10 0.981863 0.240073 0.415459
O O11 0.025757 0.999329 0.330086
O O12 0.500000 0.735960 0.750000
O O13 0.461136 0.734059 0.915940
O O14 0.098036 0.565311 0.524117
O O15 0.000000 0.500000 0.500000
O O16 0.301167 0.483271 0.564409
O O17 0.337305 0.357179 0.934227
#
# Coordination Sequence:
#
# PCOD9421935 Si02
#       8
#     8   8   8   8   8   4   8   8
#     4  10  22  40  62  88 118 154 204 253 300 361
#     4   9  20  40  62  85 114 158 201 246 297 359
#     4  10  21  38  61  88 119 161 203 250 305 363
#     4   9  20  38  62  88 118 158 202 247 306 365
#     4  11  22  38  56  90 126 155 199 250 302 367
#     4  12  26  38  58  90 124 154 198 252 310 360
#     4  10  20  40  64  84 115 158 204 247 298 361
#     4  11  23  39  59  87 121 157 200 245 307 362
#
# _framework density 18.982068999999999
#
# number of rings (size 3 to 8) (size 9 to 14) (size 15 to 20)
#    0.000    1.867    1.333    2.000    1.867    2.667 
#    0.000    0.000    0.000    0.000    0.000    0.000 
#    0.000    0.000    0.000    0.000    0.000    0.000 
#
# Total GULP energy -334398.029599 kJ/mol
# GULP energy per Si atom -5573.300493 kJ/mol
# Density = 1.893886 g / cm^3
# Si number density = 18.982069 Si / 1000 Ang^3
#
#
#
# Elastic Constant Matrix: (Units=GPa)
#
#
# Indices 1 2 3 4 5 6 
#
# 1 97.8430 34.0279 41.9078 0.0000 0.0000 0.0000
# 2 34.0279 96.1017 30.5167 0.0000 0.0000 0.0000
# 3 41.9078 30.5167 61.3745 0.0000 0.0000 0.0000
# 4 0.0000 0.0000 0.0000 14.4610 0.0000 0.0000
# 5 0.0000 0.0000 0.0000 0.0000 23.4271 0.0000
# 6 0.0000 0.0000 0.0000 0.0000 0.0000 27.7209
#
#
#
# Elastic Compliance Matrix: (Units=1/GPa)
#
#
# Indices 1 2 3 4 5 6 
#
# 1 0.014908 -0.002430 -0.008971 0.000000 0.000000 0.000000
# 2 -0.002430 0.012753 -0.004682 0.000000 0.000000 0.000000
# 3 -0.008971 -0.004682 0.024747 0.000000 0.000000 0.000000
# 4 0.000000 0.000000 0.000000 0.069152 0.000000 0.000000
# 5 0.000000 0.000000 0.000000 0.000000 0.042686 0.000000
# 6 0.000000 0.000000 0.000000 0.000000 0.000000 0.036074
#
#
# Mechanical properties :
#
#
# Convention : Reuss Voigt Hill
#
# Bulk Modulus (GPa) = 49.40242 52.02488 50.71365
# Shear Modulus (GPa) = 20.90019 23.04625 21.97322
#
# Velocity S-wave (km/s) = 3.32181 3.48818 3.40601
# Velocity P-wave (km/s) = 6.38709 6.60985 6.49942
#
# Compressibility (1/GPa) = 0.02024192
#
# Stress axis : x y z
#
# Youngs Moduli (GPa) = 67.07761 78.41492 40.40879
#
# Poissons Ratio (x) = 0.19054 0.36252
# Poissons Ratio (y) = 0.16299 0.18918
# Poissons Ratio (z) = 0.60178 0.36712
#
# Static dielectric constant tensor:
#      x y z
#    x 1.221520 0.000000 0.000000 
#    y 0.000000 1.717070 0.000000 
#    z 0.000000 0.000000 1.555610 
# 
# From -- ./inp_files/14976.got.cif
#   From: 2010.05.17/outbox.cif.g08.bks.cpg/sg54_8_cif.got.tgz:14976.got - 2010.06.03 13:09:01.
