data_PCOD9421835
_publ_section_title
;
Structure prediction by ZEFSAII (Michael W. Deem and Ramdas Pophale) SiO2 
 PCOD9421835
Probable space group: P C C A
;
_chemical_formula_sum "Si O2"
_cell_formula_units_Z 28
_cell_length_a 17.859376
_cell_length_b 4.802506
_cell_length_c 13.681765
_cell_angle_alpha 90.000000
_cell_angle_beta 90.000000
_cell_angle_gamma 90.000000
_cell_volume 1173.481706
_symmetry_space_group_name_H-M "P C C A"
_symmetry_group_IT_number 54
_symmetry_cell_setting 'orthorhombic'
loop_
_space_group_symop_operation_xyz
x,y,z
1/2-x,-y,z
1/2+x,-y,1/2-z
-x,y,1/2-z
-x,-y,-z
1/2+x,y,-z
1/2-x,y,1/2+z
x,-y,1/2+z
loop_
_atom_site_type_symbol
_atom_site_label
_atom_site_fract_x
_atom_site_fract_y
_atom_site_fract_z
Si Si1 0.912929 0.905288 0.998041
Si Si2 0.100088 0.692284 0.717534
Si Si3 0.667681 0.413546 0.592060
Si Si4 0.000000 0.178296 0.750000
O O1 0.890268 0.824477 0.887828
O O2 0.896551 0.637264 0.065006
O O3 0.947484 0.408880 0.802332
O O4 0.000000 0.000000 0.000000
O O5 0.142522 0.140599 0.464325
O O6 0.058872 0.936865 0.782161
O O7 0.166305 0.617013 0.790536
O O8 0.750000 0.500000 0.559779
#
# Coordination Sequence:
#
# PCOD9421835 Si02
#       4
#     8   8   8   4
#     4  12  25  45  76 108 142 189 248 305 359 429
#     4  11  22  42  69  99 141 184 228 295 364 420
#     4  12  27  46  69 104 147 190 242 299 365 447
#     4  10  20  38  68 102 130 170 230 284 348 426
#
# _framework density 23.860616
#
# number of rings (size 3 to 8) (size 9 to 14) (size 15 to 20)
#    0.000    0.571    0.000   10.286    0.000    1.143 
#    0.000    5.714    0.000    0.000    0.000    0.000 
#    0.000    0.000    0.000    0.000    0.000    0.000 
#
# Total GULP energy -156212.895804 kJ/mol
# GULP energy per Si atom -5579.031993 kJ/mol
# Density = 2.380631 g / cm^3
# Si number density = 23.860616 Si / 1000 Ang^3
#
#
#
# Elastic Constant Matrix: (Units=GPa)
#
#
# Indices 1 2 3 4 5 6 
#
# 1 80.3547 19.4314 40.2924 0.0000 0.0000 0.0000
# 2 19.4314 141.5180 -0.8750 0.0000 0.0000 0.0000
# 3 40.2924 -0.8750 83.0226 0.0000 0.0000 0.0000
# 4 0.0000 0.0000 0.0000 33.2873 0.0000 0.0000
# 5 0.0000 0.0000 0.0000 0.0000 13.5312 0.0000
# 6 0.0000 0.0000 0.0000 0.0000 0.0000 22.7086
#
#
#
# Elastic Compliance Matrix: (Units=1/GPa)
#
#
# Indices 1 2 3 4 5 6 
#
# 1 0.017237 -0.002419 -0.008391 0.000000 0.000000 0.000000
# 2 -0.002419 0.007406 0.001252 0.000000 0.000000 0.000000
# 3 -0.008391 0.001252 0.016130 0.000000 0.000000 0.000000
# 4 0.000000 0.000000 0.000000 0.030042 0.000000 0.000000
# 5 0.000000 0.000000 0.000000 0.000000 0.073903 0.000000
# 6 0.000000 0.000000 0.000000 0.000000 0.000000 0.044036
#
#
# Mechanical properties :
#
#
# Convention : Reuss Voigt Hill
#
# Bulk Modulus (GPa) = 46.17214 46.95478 46.56346
# Shear Modulus (GPa) = 23.24611 30.30851 26.77731
#
# Velocity S-wave (km/s) = 3.12468 3.56790 3.35362
# Velocity P-wave (km/s) = 5.69306 6.05761 5.87816
#
# Compressibility (1/GPa) = 0.02165808
#
# Stress axis : x y z
#
# Youngs Moduli (GPa) = 58.01389 135.02421 61.99457
#
# Poissons Ratio (x) = 0.32658 0.52020
# Poissons Ratio (y) = 0.14032 -0.07761
# Poissons Ratio (z) = 0.48680 -0.16903
#
# Static dielectric constant tensor:
#      x y z
#    x 1.967440 0.000000 0.000000 
#    y 0.000000 1.929900 0.000000 
#    z 0.000000 0.000000 2.088370 
# 
# From -- ./inp_files/9225.got.cif
#   From: 2010.05.17/outbox.cif.g08.bks.cpg/sg54_5_cif.got.tgz:9225.got - 2010.06.03 13:09:01.
