data_PCOD9421602
_publ_section_title
;
Structure prediction by ZEFSAII (Michael W. Deem and Ramdas Pophale) SiO2 
 PCOD9421602
Probable space group: P C C A
;
_chemical_formula_sum "Si O2"
_cell_formula_units_Z 56
_cell_length_a 8.745859
_cell_length_b 16.162061
_cell_length_c 21.165299
_cell_angle_alpha 90.000000
_cell_angle_beta 90.000000
_cell_angle_gamma 90.000000
_cell_volume 2991.738436
_symmetry_space_group_name_H-M "P C C A"
_symmetry_group_IT_number 54
_symmetry_cell_setting 'orthorhombic'
loop_
_space_group_symop_operation_xyz
x,y,z
1/2-x,-y,z
1/2+x,-y,1/2-z
-x,y,1/2-z
-x,-y,-z
1/2+x,y,-z
1/2-x,y,1/2+z
x,-y,1/2+z
loop_
_atom_site_type_symbol
_atom_site_label
_atom_site_fract_x
_atom_site_fract_y
_atom_site_fract_z
Si Si1 0.221514 0.405064 0.920800
Si Si2 0.500000 0.688187 0.250000
Si Si3 0.389933 0.665971 0.540153
Si Si4 0.125248 0.942269 0.534796
Si Si5 0.248455 0.261800 0.835371
Si Si6 0.753890 0.599545 0.834400
Si Si7 0.857262 0.171328 0.040798
Si Si8 0.000000 0.312363 0.750000
O O1 0.250000 0.500000 0.909556
O O2 0.259516 0.357019 0.857202
O O3 0.053133 0.372054 0.939909
O O4 0.330246 0.381337 0.978674
O O5 0.618841 0.747519 0.214764
O O6 0.406854 0.632061 0.199865
O O7 0.277045 0.645976 0.598690
O O8 0.394371 0.760801 0.514388
O O9 0.235646 0.893523 0.486728
O O10 0.014190 0.872406 0.563684
O O11 0.250000 0.000000 0.571066
O O12 0.000000 0.000000 0.500000
O O13 0.276805 0.213151 0.899356
O O14 0.087564 0.255378 0.800620
O O15 0.750000 0.500000 0.843056
O O16 0.618434 0.630424 0.788056
#
# Coordination Sequence:
#
# PCOD9421602 Si02
#       8
#     8   4   8   8   8   8   8   4
#     4  11  23  36  54  76 113 151 202 252 305 353
#     4  10  25  36  54  80 111 152 220 248 291 334
#     4  11  23  36  56  85 111 156 195 245 307 359
#     4   9  19  36  60  98 124 145 174 213 291 374
#     4  10  22  38  57  80 113 157 203 249 294 341
#     4  11  23  37  56  75 113 154 213 260 303 334
#     4  10  20  36  63  87 128 149 183 239 296 360
#     4  10  21  42  52  76 113 152 224 244 307 328
#
# _framework density 18.718214
#
# number of rings (size 3 to 8) (size 9 to 14) (size 15 to 20)
#    0.000    1.714    1.429    3.000    8.000    2.286 
#    0.000    0.000    0.000    0.000    0.000   12.000 
#    0.000    0.000    0.000    0.000    0.000    0.000 
#
# Total GULP energy -312094.529142 kJ/mol
# GULP energy per Si atom -5573.116592 kJ/mol
# Density = 1.867561 g / cm^3
# Si number density = 18.718214 Si / 1000 Ang^3
#
#
#
# Elastic Constant Matrix: (Units=GPa)
#
#
# Indices 1 2 3 4 5 6 
#
# 1 112.7211 33.7180 23.8919 0.0000 0.0000 0.0000
# 2 33.7180 79.6932 18.8137 0.0000 0.0000 0.0000
# 3 23.8919 18.8137 65.4504 0.0000 0.0000 0.0000
# 4 0.0000 0.0000 0.0000 -5.7973 0.0000 0.0000
# 5 0.0000 0.0000 0.0000 0.0000 27.0545 0.0000
# 6 0.0000 0.0000 0.0000 0.0000 0.0000 18.9539
#
#
#
# Elastic Compliance Matrix: (Units=1/GPa)
#
#
# Indices 1 2 3 4 5 6 
#
# 1 0.010605 -0.003833 -0.002769 0.000000 0.000000 0.000000
# 2 -0.003833 0.014847 -0.002869 0.000000 0.000000 0.000000
# 3 -0.002769 -0.002869 0.017114 0.000000 0.000000 0.000000
# 4 0.000000 0.000000 0.000000 -0.172493 0.000000 0.000000
# 5 0.000000 0.000000 0.000000 0.000000 0.036962 0.000000
# 6 0.000000 0.000000 0.000000 0.000000 0.000000 0.052760
#
#
# Mechanical properties :
#
#
# Convention : Reuss Voigt Hill
#
# Bulk Modulus (GPa) = 42.32953 45.63465 43.98209
# Shear Modulus (GPa) = -373.47309 20.13829 -176.66740
#
# Velocity S-wave (km/s) = -14.14062 3.28360 -9.72561
# Velocity P-wave (km/s) = 15.61878 6.22967 10.12762
#
# Compressibility (1/GPa) = 0.02362417
#
# Stress axis : x y z
#
# Youngs Moduli (GPa) = 94.29465 67.35303 58.43088
#
# Poissons Ratio (x) = 0.25818 0.16182
# Poissons Ratio (y) = 0.36145 0.16761
# Poissons Ratio (z) = 0.26114 0.19321
#
# Static dielectric constant tensor:
#      x y z
#    x 1.729140 0.000000 0.000000 
#    y 0.000000 1.702030 0.000000 
#    z 0.000000 0.000000 1.626770 
# 
# From -- ./inp_files/20595.got.cif
#   From: 2010.05.17/outbox.cif.g08.bks.cpg/sg54_11_cif.got.tgz:20595.got - 2010.06.03 13:09:01.
