data_PCOD9421434
_publ_section_title
;
Structure prediction by ZEFSAII (Michael W. Deem and Ramdas Pophale) SiO2 
 PCOD9421434
Probable space group: P C C A
;
_chemical_formula_sum "Si O2"
_cell_formula_units_Z 56
_cell_length_a 14.754903
_cell_length_b 24.512179
_cell_length_c 8.772500
_cell_angle_alpha 90.000000
_cell_angle_beta 90.000000
_cell_angle_gamma 90.000000
_cell_volume 3172.792389
_symmetry_space_group_name_H-M "P C C A"
_symmetry_group_IT_number 54
_symmetry_cell_setting 'orthorhombic'
loop_
_space_group_symop_operation_xyz
x,y,z
1/2-x,-y,z
1/2+x,-y,1/2-z
-x,y,1/2-z
-x,-y,-z
1/2+x,y,-z
1/2-x,y,1/2+z
x,-y,1/2+z
loop_
_atom_site_type_symbol
_atom_site_label
_atom_site_fract_x
_atom_site_fract_y
_atom_site_fract_z
Si Si1 0.499843 0.764984 0.933670
Si Si2 0.350531 0.442763 0.566534
Si Si3 0.499885 0.060252 0.433760
Si Si4 0.650248 0.442367 0.567007
Si Si5 0.000296 0.644648 0.933127
Si Si6 0.649547 0.147837 0.066324
Si Si7 0.649274 0.852111 0.934299
O O1 0.500000 0.763766 0.750000
O O2 0.411057 0.799789 0.980462
O O3 0.588660 0.799710 0.980813
O O4 0.499739 0.704199 0.995866
O O5 0.346927 0.446696 0.749783
O O6 0.384991 0.500360 0.500311
O O7 0.250540 0.435017 0.499245
O O8 0.414266 0.392434 0.523580
O O9 0.500000 0.057710 0.250000
O O10 0.411124 0.095347 0.479007
O O11 0.588476 0.095434 0.479398
O O12 0.500000 0.000000 0.500000
O O13 0.587260 0.391697 0.524067
O O14 0.000000 0.649957 0.750000
O O15 0.654708 0.148062 0.250319
O O16 0.750176 0.147744 0.000484
#
# Coordination Sequence:
#
# PCOD9421434 Si02
#       7
#     8   8   8   8   8   8   8
#     4   9  20  37  54  73 101 135 171 210 254 301
#     4  10  20  35  53  75 102 132 166 206 252 304
#     4   9  19  35  53  77 110 139 170 210 252 299
#     4  10  20  35  53  75 102 132 166 206 252 304
#     4  10  22  36  52  76 104 132 167 210 255 302
#     4   9  19  36  55  76 103 137 173 211 253 299
#     4   9  19  36  55  76 103 137 173 211 253 299
#
# _framework density 17.650067
#
# number of rings (size 3 to 8) (size 9 to 14) (size 15 to 20)
#    0.000    2.571    0.000    3.857    0.000    6.286 
#    0.000   11.429    0.000    0.000    0.000    0.000 
#    0.000    0.000    0.000    0.000    0.000    0.000 
#
# Total GULP energy -312390.054227 kJ/mol
# GULP energy per Si atom -5578.393825 kJ/mol
# Density = 1.760989 g / cm^3
# Si number density = 17.650067 Si / 1000 Ang^3
#
#
#
# Elastic Constant Matrix: (Units=GPa)
#
#
# Indices 1 2 3 4 5 6 
#
# 1 161.9429 102.2710 38.9427 0.0000 0.0000 0.0000
# 2 102.2710 196.6819 44.8648 0.0000 0.0000 0.0000
# 3 38.9427 44.8648 30.1957 0.0000 0.0000 0.0000
# 4 0.0000 0.0000 0.0000 37.1060 0.0000 0.0000
# 5 0.0000 0.0000 0.0000 0.0000 28.3529 0.0000
# 6 0.0000 0.0000 0.0000 0.0000 0.0000 12.3059
#
#
#
# Elastic Compliance Matrix: (Units=1/GPa)
#
#
# Indices 1 2 3 4 5 6 
#
# 1 0.010357 -0.003538 -0.008101 0.000000 0.000000 0.000000
# 2 -0.003538 0.008899 -0.008660 0.000000 0.000000 0.000000
# 3 -0.008101 -0.008660 0.056433 0.000000 0.000000 0.000000
# 4 0.000000 0.000000 0.000000 0.026950 0.000000 0.000000
# 5 0.000000 0.000000 0.000000 0.000000 0.035270 0.000000
# 6 0.000000 0.000000 0.000000 0.000000 0.000000 0.081262
#
#
# Mechanical properties :
#
#
# Convention : Reuss Voigt Hill
#
# Bulk Modulus (GPa) = 28.49732 84.55306 56.52519
# Shear Modulus (GPa) = 18.41849 29.06908 23.74378
#
# Velocity S-wave (km/s) = 3.23389 4.06269 3.67175
# Velocity P-wave (km/s) = 5.48861 8.36758 7.07606
#
# Compressibility (1/GPa) = 0.03509102
#
# Stress axis : x y z
#
# Youngs Moduli (GPa) = 96.55089 112.36823 17.72018
#
# Poissons Ratio (x) = 0.39751 0.14356
# Poissons Ratio (y) = 0.34156 0.15346
# Poissons Ratio (z) = 0.78219 0.97314
#
# Static dielectric constant tensor:
#      x y z
#    x 1.594550 0.000000 0.000000 
#    y 0.000000 1.583060 0.000000 
#    z 0.000000 0.000000 1.596780 
# 
# From -- ./inp_files/3676.got.cif
#   From: 2010.05.17/outbox.cif.g08.bks.cpg/sg54_2_cif.got.tgz:3676.got - 2010.06.03 13:09:01.
