data_PCOD9421772
_publ_section_title
;
Structure prediction by ZEFSAII (Michael W. Deem and Ramdas Pophale) SiO2 
 PCOD9421772
Probable space group: P C C A
;
_chemical_formula_sum "Si O2"
_cell_formula_units_Z 48
_cell_length_a 29.082318
_cell_length_b 6.060220
_cell_length_c 12.451797
_cell_angle_alpha 90.000000
_cell_angle_beta 90.000000
_cell_angle_gamma 90.000000
_cell_volume 2194.570015
_symmetry_space_group_name_H-M "P C C A"
_symmetry_group_IT_number 54
_symmetry_cell_setting 'orthorhombic'
loop_
_space_group_symop_operation_xyz
x,y,z
1/2-x,-y,z
1/2+x,-y,1/2-z
-x,y,1/2-z
-x,-y,-z
1/2+x,y,-z
1/2-x,y,1/2+z
x,-y,1/2+z
loop_
_atom_site_type_symbol
_atom_site_label
_atom_site_fract_x
_atom_site_fract_y
_atom_site_fract_z
Si Si1 0.167239 0.040794 0.230885
Si Si2 0.580167 0.282648 0.773774
Si Si3 0.250000 0.000000 0.894657
Si Si4 0.500000 0.567337 0.750000
Si Si5 0.209223 0.361552 0.052636
Si Si6 0.039154 0.095862 0.576780
Si Si7 0.371401 0.656022 0.583155
O O1 0.121501 0.150473 0.280366
O O2 0.206114 0.031038 0.319299
O O3 0.186206 0.195145 0.135866
O O4 0.153301 0.814455 0.171009
O O5 0.541550 0.413139 0.709070
O O6 0.554925 0.103914 0.847380
O O7 0.603336 0.464048 0.850579
O O8 0.235453 0.211847 0.965431
O O9 0.483149 0.719175 0.653102
O O10 0.250000 0.500000 0.107426
O O11 0.168686 0.531047 0.016441
O O12 0.087061 0.200640 0.531366
O O13 0.000000 0.000000 0.500000
#
# Coordination Sequence:
#
# PCOD9421772 Si02
#       7
#     8   8   4   4   8   8   8
#     4  10  22  44  64  86 127 167 204 258 315 371
#     4   9  20  40  62  87 122 164 206 256 314 367
#     4  12  24  38  64  96 120 158 214 260 308 374
#     4  10  20  38  62  92 126 164 212 256 302 372
#     4  11  23  41  62  89 125 162 205 256 314 378
#     4  10  21  40  64  92 126 166 211 261 320 381
#     4   9  20  41  63  85 122 166 204 257 321 373
#
# _framework density 21.872164999999999
#
# number of rings (size 3 to 8) (size 9 to 14) (size 15 to 20)
#    0.000    2.000    0.000    3.000    0.000    6.000 
#    0.000   40.000    0.000    0.000    0.000    0.000 
#    0.000    0.000    0.000    0.000    0.000    0.000 
#
# Total GULP energy -267948.990178 kJ/mol
# GULP energy per Si atom -5582.270629 kJ/mol
# Density = 2.182238 g / cm^3
# Si number density = 21.872165 Si / 1000 Ang^3
#
#
#
# Elastic Constant Matrix: (Units=GPa)
#
#
# Indices 1 2 3 4 5 6 
#
# 1 181.4192 87.6142 51.0019 0.0000 0.0000 0.0000
# 2 87.6142 136.0996 34.2282 0.0000 0.0000 0.0000
# 3 51.0019 34.2282 49.8004 0.0000 0.0000 0.0000
# 4 0.0000 0.0000 0.0000 7.3892 0.0000 0.0000
# 5 0.0000 0.0000 0.0000 0.0000 7.0493 0.0000
# 6 0.0000 0.0000 0.0000 0.0000 0.0000 69.0871
#
#
#
# Elastic Compliance Matrix: (Units=1/GPa)
#
#
# Indices 1 2 3 4 5 6 
#
# 1 0.009556 -0.004462 -0.006720 0.000000 0.000000 0.000000
# 2 -0.004462 0.010966 -0.002968 0.000000 0.000000 0.000000
# 3 -0.006720 -0.002968 0.029002 0.000000 0.000000 0.000000
# 4 0.000000 0.000000 0.000000 0.135332 0.000000 0.000000
# 5 0.000000 0.000000 0.000000 0.000000 0.141858 0.000000
# 6 0.000000 0.000000 0.000000 0.000000 0.000000 0.014474
#
#
# Mechanical properties :
#
#
# Convention : Reuss Voigt Hill
#
# Bulk Modulus (GPa) = 47.11366 79.22306 63.16836
# Shear Modulus (GPa) = 13.27801 29.67012 21.47407
#
# Velocity S-wave (km/s) = 2.46656 3.68710 3.13677
# Velocity P-wave (km/s) = 5.44969 7.37739 6.48556
#
# Compressibility (1/GPa) = 0.02122527
#
# Stress axis : x y z
#
# Youngs Moduli (GPa) = 104.64679 91.18993 34.48027
#
# Poissons Ratio (x) = 0.40685 0.23171
# Poissons Ratio (y) = 0.46689 0.10233
# Poissons Ratio (z) = 0.70323 0.27064
#
# Static dielectric constant tensor:
#      x y z
#    x 1.859510 0.000000 0.000000 
#    y 0.000000 1.801980 0.000000 
#    z 0.000000 0.000000 1.780050 
# 
# From -- ./inp_files/15215.got.cif
#   From: 2010.05.17/outbox.cif.g08.bks.cpg/sg54_8_cif.got.tgz:15215.got - 2010.06.03 13:09:01.
