data_PCOD9421083
_publ_section_title
;
Structure prediction by ZEFSAII (Michael W. Deem and Ramdas Pophale) SiO2 
 PCOD9421083
Probable space group: P C C A
;
_chemical_formula_sum "Si O2"
_cell_formula_units_Z 64
_cell_length_a 13.435934
_cell_length_b 10.076975
_cell_length_c 23.264895
_cell_angle_alpha 90.000000
_cell_angle_beta 90.000000
_cell_angle_gamma 90.000000
_cell_volume 3149.917213
_symmetry_space_group_name_H-M "P C C A"
_symmetry_group_IT_number 54
_symmetry_cell_setting 'orthorhombic'
loop_
_space_group_symop_operation_xyz
x,y,z
1/2-x,-y,z
1/2+x,-y,1/2-z
-x,y,1/2-z
-x,-y,-z
1/2+x,y,-z
1/2-x,y,1/2+z
x,-y,1/2+z
loop_
_atom_site_type_symbol
_atom_site_label
_atom_site_fract_x
_atom_site_fract_y
_atom_site_fract_z
Si Si1 0.033142 0.861798 0.026614
Si Si2 0.434628 0.629114 0.819681
Si Si3 0.149127 0.733772 0.215176
Si Si4 0.081497 0.336685 0.321191
Si Si5 0.129286 0.256103 0.199666
Si Si6 0.847192 0.329507 0.048833
Si Si7 0.387174 0.373672 0.453122
Si Si8 0.860765 0.979533 0.363868
O O1 0.069349 0.905063 0.090250
O O2 0.948116 0.748532 0.020414
O O3 0.120357 0.792154 0.990616
O O4 0.000000 0.000000 0.000000
O O5 0.551044 0.655260 0.806408
O O6 0.367879 0.731167 0.783512
O O7 0.391593 0.485429 0.801837
O O8 0.419350 0.633669 0.886893
O O9 0.258642 0.687939 0.195206
O O10 0.144706 0.880825 0.189992
O O11 0.111773 0.241102 0.268659
O O12 0.124050 0.307793 0.384085
O O13 0.961499 0.343922 0.322990
O O14 0.113917 0.122284 0.162776
O O15 0.897393 0.470544 0.029681
O O16 0.729736 0.346895 0.043473
O O17 0.750000 0.000000 0.389627
#
# Coordination Sequence:
#
# PCOD9421083 Si02
#       8
#     8   8   8   8   8   8   8   8
#     4  12  25  42  67  92 127 170 219 265 319 382
#     4  10  20  35  62  92 122 155 204 257 309 371
#     4  10  19  35  57  86 119 162 201 244 304 377
#     4  10  21  37  59  91 125 157 201 260 310 377
#     4  10  20  36  57  85 126 163 200 244 318 369
#     4  10  23  43  68  94 128 165 217 268 323 379
#     4  10  22  44  67  94 126 169 211 270 324 375
#     4  10  23  40  58  84 125 165 198 259 309 373
#
# _framework density 20.317993999999999
#
# number of rings (size 3 to 8) (size 9 to 14) (size 15 to 20)
#    0.000    1.750    1.250    3.375    1.750    5.000 
#    2.250    0.000    0.000    0.000    0.000    0.000 
#    0.000    0.000    0.000    0.000    0.000    0.000 
#
# Total GULP energy -356586.219113 kJ/mol
# GULP energy per Si atom -5571.659674 kJ/mol
# Density = 2.027175 g / cm^3
# Si number density = 20.317994 Si / 1000 Ang^3
#
#
#
# Elastic Constant Matrix: (Units=GPa)
#
#
# Indices 1 2 3 4 5 6 
#
# 1 80.9519 24.7400 10.2171 0.0000 0.0000 0.0000
# 2 24.7400 89.2047 28.9463 0.0000 0.0000 0.0000
# 3 10.2171 28.9463 26.4783 0.0000 0.0000 0.0000
# 4 0.0000 0.0000 0.0000 35.9760 0.0000 0.0000
# 5 0.0000 0.0000 0.0000 0.0000 12.2711 0.0000
# 6 0.0000 0.0000 0.0000 0.0000 0.0000 29.3583
#
#
#
# Elastic Compliance Matrix: (Units=1/GPa)
#
#
# Indices 1 2 3 4 5 6 
#
# 1 0.013548 -0.003194 -0.001736 0.000000 0.000000 0.000000
# 2 -0.003194 0.018126 -0.018583 0.000000 0.000000 0.000000
# 3 -0.001736 -0.018583 0.058752 0.000000 0.000000 0.000000
# 4 0.000000 0.000000 0.000000 0.027796 0.000000 0.000000
# 5 0.000000 0.000000 0.000000 0.000000 0.081492 0.000000
# 6 0.000000 0.000000 0.000000 0.000000 0.000000 0.034062
#
#
# Mechanical properties :
#
#
# Convention : Reuss Voigt Hill
#
# Bulk Modulus (GPa) = 23.04159 36.04908 29.54533
# Shear Modulus (GPa) = 16.93368 24.36986 20.65177
#
# Velocity S-wave (km/s) = 2.89006 3.46703 3.19160
# Velocity P-wave (km/s) = 4.74359 5.81446 5.30611
#
# Compressibility (1/GPa) = 0.04339979
#
# Stress axis : x y z
#
# Youngs Moduli (GPa) = 73.81002 55.16894 17.02077
#
# Poissons Ratio (x) = 0.17622 0.02955
# Poissons Ratio (y) = 0.23576 0.31630
# Poissons Ratio (z) = 0.12813 1.02521
#
# Static dielectric constant tensor:
#      x y z
#    x 1.764400 0.000000 0.000000 
#    y 0.000000 1.707170 0.000000 
#    z 0.000000 0.000000 1.749750 
# 
# From -- ./inp_files/24543.got.cif
#   From: 2010.05.17/outbox.cif.g08.bks.cpg/sg54_13_cif.got.tgz:24543.got - 2010.06.03 13:09:01.
