data_PCOD9421932
_publ_section_title
;
Structure prediction by ZEFSAII (Michael W. Deem and Ramdas Pophale) SiO2 
 PCOD9421932
Probable space group: P C C A
;
_chemical_formula_sum "Si O2"
_cell_formula_units_Z 64
_cell_length_a 26.379021
_cell_length_b 9.083897
_cell_length_c 13.458487
_cell_angle_alpha 90.000000
_cell_angle_beta 90.000000
_cell_angle_gamma 90.000000
_cell_volume 3224.980657
_symmetry_space_group_name_H-M "P C C A"
_symmetry_group_IT_number 54
_symmetry_cell_setting 'orthorhombic'
loop_
_space_group_symop_operation_xyz
x,y,z
1/2-x,-y,z
1/2+x,-y,1/2-z
-x,y,1/2-z
-x,-y,-z
1/2+x,y,-z
1/2-x,y,1/2+z
x,-y,1/2+z
loop_
_atom_site_type_symbol
_atom_site_label
_atom_site_fract_x
_atom_site_fract_y
_atom_site_fract_z
Si Si1 0.616469 0.564242 0.365279
Si Si2 0.299334 0.224815 0.701792
Si Si3 0.796017 0.896832 0.011341
Si Si4 0.893508 0.312075 0.721880
Si Si5 0.282529 0.355698 0.340947
Si Si6 0.444773 0.252686 0.793749
Si Si7 0.446701 0.475153 0.441631
Si Si8 0.370204 0.987975 0.332016
O O1 0.672710 0.625717 0.339135
O O2 0.601197 0.403510 0.323063
O O3 0.585146 0.682404 0.300901
O O4 0.596877 0.562226 0.477793
O O5 0.297454 0.122064 0.605631
O O6 0.245997 0.266851 0.752409
O O7 0.331213 0.128298 0.781532
O O8 0.783300 0.741749 0.060977
O O9 0.846411 0.958666 0.063899
O O10 0.750000 0.000000 0.040640
O O11 0.841185 0.383875 0.681307
O O12 0.938754 0.350959 0.644754
O O13 0.881214 0.139233 0.727603
O O14 0.250000 0.500000 0.355639
O O15 0.500000 0.232107 0.750000
O O16 0.439804 0.375363 0.879124
O O17 0.421471 0.103662 0.835776
O O18 0.500000 0.500000 0.500000
#
# Coordination Sequence:
#
# PCOD9421932 Si02
#       8
#     8   8   8   8   8   8   8   8
#     4  10  20  40  63  91 118 162 213 260 322 377
#     4  11  23  41  64  90 131 176 211 263 329 394
#     4  11  24  38  63  93 128 174 216 256 320 392
#     4  10  23  39  64  91 126 166 213 267 319 389
#     4  11  22  43  62  95 132 170 219 276 320 385
#     4  10  21  41  66  90 122 166 206 268 331 386
#     4  11  22  41  68  91 124 163 216 272 328 385
#     4  10  23  44  61  90 133 166 215 264 325 389
#
# _framework density 19.845079999999999
#
# number of rings (size 3 to 8) (size 9 to 14) (size 15 to 20)
#    0.000    1.500    3.750    1.500    3.500    1.500 
#    4.500    0.625    0.000    0.000    0.000    0.000 
#    0.000    0.000    0.000    0.000    0.000    0.000 
#
# Total GULP energy -356708.363787 kJ/mol
# GULP energy per Si atom -5573.568184 kJ/mol
# Density = 1.979991 g / cm^3
# Si number density = 19.845080 Si / 1000 Ang^3
#
#
#
# Elastic Constant Matrix: (Units=GPa)
#
#
# Indices 1 2 3 4 5 6 
#
# 1 62.1015 16.5052 11.3323 0.0000 0.0000 0.0000
# 2 16.5052 61.7693 7.3577 0.0000 0.0000 0.0000
# 3 11.3323 7.3577 80.6755 0.0000 0.0000 0.0000
# 4 0.0000 0.0000 0.0000 264.4424 0.0000 0.0000
# 5 0.0000 0.0000 0.0000 0.0000 19.0493 0.0000
# 6 0.0000 0.0000 0.0000 0.0000 0.0000 19.0504
#
#
#
# Elastic Compliance Matrix: (Units=1/GPa)
#
#
# Indices 1 2 3 4 5 6 
#
# 1 0.017670 -0.004475 -0.002074 0.000000 0.000000 0.000000
# 2 -0.004475 0.017500 -0.000968 0.000000 0.000000 0.000000
# 3 -0.002074 -0.000968 0.012775 0.000000 0.000000 0.000000
# 4 0.000000 0.000000 0.000000 0.003782 0.000000 0.000000
# 5 0.000000 0.000000 0.000000 0.000000 0.052495 0.000000
# 6 0.000000 0.000000 0.000000 0.000000 0.000000 0.052492
#
#
# Mechanical properties :
#
#
# Convention : Reuss Voigt Hill
#
# Bulk Modulus (GPa) = 30.38296 30.54853 30.46575
# Shear Modulus (GPa) = 27.36453 71.79848 49.58150
#
# Velocity S-wave (km/s) = 3.71739 6.02146 5.00385
# Velocity P-wave (km/s) = 5.81108 7.98567 6.98354
#
# Compressibility (1/GPa) = 0.03291318
#
# Stress axis : x y z
#
# Youngs Moduli (GPa) = 56.59184 57.14229 78.27847
#
# Poissons Ratio (x) = 0.25569 0.16235
# Poissons Ratio (y) = 0.25323 0.07573
# Poissons Ratio (z) = 0.11737 0.05529
#
# Static dielectric constant tensor:
#      x y z
#    x 1.737690 0.000000 0.000000 
#    y 0.000000 1.713760 0.000000 
#    z 0.000000 0.000000 1.698530 
# 
# From -- ./inp_files/10533.got.cif
#   From: 2010.05.17/outbox.cif.g08.bks.cpg/sg54_6_cif.got.tgz:10533.got - 2010.06.03 13:09:01.
