data_PCOD9421708
_publ_section_title
;
Structure prediction by ZEFSAII (Michael W. Deem and Ramdas Pophale) SiO2 
 PCOD9421708
Probable space group: P C C A
;
_chemical_formula_sum "Si O2"
_cell_formula_units_Z 64
_cell_length_a 31.641309
_cell_length_b 11.566000
_cell_length_c 8.496606
_cell_angle_alpha 90.000000
_cell_angle_beta 90.000000
_cell_angle_gamma 90.000000
_cell_volume 3109.446649
_symmetry_space_group_name_H-M "P C C A"
_symmetry_group_IT_number 54
_symmetry_cell_setting 'orthorhombic'
loop_
_space_group_symop_operation_xyz
x,y,z
1/2-x,-y,z
1/2+x,-y,1/2-z
-x,y,1/2-z
-x,-y,-z
1/2+x,y,-z
1/2-x,y,1/2+z
x,-y,1/2+z
loop_
_atom_site_type_symbol
_atom_site_label
_atom_site_fract_x
_atom_site_fract_y
_atom_site_fract_z
Si Si1 0.366446 0.847331 0.742731
Si Si2 0.567206 0.142451 0.811934
Si Si3 0.861298 0.401438 0.879324
Si Si4 0.770638 0.385478 0.000606
Si Si5 0.299229 0.256366 0.702595
Si Si6 0.958091 0.077000 0.655630
Si Si7 0.841849 0.947514 0.926015
Si Si8 0.112194 0.635051 0.762396
O O1 0.360624 0.711604 0.728927
O O2 0.416488 0.869449 0.761993
O O3 0.345277 0.915077 0.596380
O O4 0.344916 0.903800 0.895978
O O5 0.614397 0.093220 0.843432
O O6 0.574037 0.277149 0.775105
O O7 0.548432 0.061772 0.674973
O O8 0.542921 0.116312 0.974743
O O9 0.887780 0.505268 0.803447
O O10 0.811826 0.429950 0.906519
O O11 0.880168 0.370207 0.050413
O O12 0.750000 0.500000 0.077124
O O13 0.786953 0.290031 0.121692
O O14 0.735387 0.321727 0.899724
O O15 0.304434 0.121974 0.658906
O O16 0.345850 0.310827 0.681141
O O17 0.000000 0.109071 0.750000
#
# Coordination Sequence:
#
# PCOD9421708 Si02
#       8
#     8   8   8   8   8   8   8   8
#     4  10  23  39  66  90 125 161 206 253 310 379
#     4   9  20  36  60  93 126 155 195 249 300 366
#     4  11  25  38  63  87 120 168 211 261 308 365
#     4  11  22  36  58  88 117 157 208 261 307 357
#     4  10  22  36  58  83 120 151 201 260 311 354
#     4  10  20  37  66  98 129 156 198 248 315 372
#     4   9  21  38  60  84 121 157 201 248 307 367
#     4  10  23  39  59  90 122 158 216 254 306 364
#
# _framework density 20.582439999999998
#
# number of rings (size 3 to 8) (size 9 to 14) (size 15 to 20)
#    0.000    2.000    1.250    0.750   19.250    0.000 
#    0.000    0.625    0.000    1.500    0.000    0.000 
#    0.000    0.000    0.000    0.000    0.000    0.000 
#
# Total GULP energy -357231.320139 kJ/mol
# GULP energy per Si atom -5581.739377 kJ/mol
# Density = 2.053559 g / cm^3
# Si number density = 20.582440 Si / 1000 Ang^3
#
#
#
# Elastic Constant Matrix: (Units=GPa)
#
#
# Indices 1 2 3 4 5 6 
#
# 1 45.5180 16.6393 22.5438 0.0000 0.0000 0.0000
# 2 16.6393 98.6285 28.2224 0.0000 0.0000 0.0000
# 3 22.5438 28.2224 61.4673 0.0000 0.0000 0.0000
# 4 0.0000 0.0000 0.0000 24.9787 0.0000 0.0000
# 5 0.0000 0.0000 0.0000 0.0000 19.8453 0.0000
# 6 0.0000 0.0000 0.0000 0.0000 0.0000 14.9754
#
#
#
# Elastic Compliance Matrix: (Units=1/GPa)
#
#
# Indices 1 2 3 4 5 6 
#
# 1 0.027183 -0.001995 -0.009053 0.000000 0.000000 0.000000
# 2 -0.001995 0.011819 -0.004695 0.000000 0.000000 0.000000
# 3 -0.009053 -0.004695 0.021745 0.000000 0.000000 0.000000
# 4 0.000000 0.000000 0.000000 0.040034 0.000000 0.000000
# 5 0.000000 0.000000 0.000000 0.000000 0.050390 0.000000
# 6 0.000000 0.000000 0.000000 0.000000 0.000000 0.066776
#
#
# Mechanical properties :
#
#
# Convention : Reuss Voigt Hill
#
# Bulk Modulus (GPa) = 34.17699 37.82498 36.00098
# Shear Modulus (GPa) = 19.29109 21.17377 20.23243
#
# Velocity S-wave (km/s) = 3.06479 3.21086 3.13868
# Velocity P-wave (km/s) = 5.40045 5.67128 5.53752
#
# Compressibility (1/GPa) = 0.02925945
#
# Stress axis : x y z
#
# Youngs Moduli (GPa) = 36.78824 84.60876 45.98781
#
# Poissons Ratio (x) = 0.16882 0.41635
# Poissons Ratio (y) = 0.07340 0.21591
# Poissons Ratio (z) = 0.33306 0.39723
#
# Static dielectric constant tensor:
#      x y z
#    x 1.733230 0.000000 0.000000 
#    y 0.000000 1.774300 0.000000 
#    z 0.000000 0.000000 1.774070 
# 
# From -- ./inp_files/5988.got.cif
#   From: 2010.05.17/outbox.cif.g08.bks.cpg/sg54_3_cif.got.tgz:5988.got - 2010.06.03 13:09:01.
