data_PCOD9421969
_publ_section_title
;
Structure prediction by ZEFSAII (Michael W. Deem and Ramdas Pophale) SiO2 
 PCOD9421969
Probable space group: P C C A
;
_chemical_formula_sum "Si O2"
_cell_formula_units_Z 40
_cell_length_a 14.020039
_cell_length_b 7.937958
_cell_length_c 16.815755
_cell_angle_alpha 90.000000
_cell_angle_beta 90.000000
_cell_angle_gamma 90.000000
_cell_volume 1871.433458
_symmetry_space_group_name_H-M "P C C A"
_symmetry_group_IT_number 54
_symmetry_cell_setting 'orthorhombic'
loop_
_space_group_symop_operation_xyz
x,y,z
1/2-x,-y,z
1/2+x,-y,1/2-z
-x,y,1/2-z
-x,-y,-z
1/2+x,y,-z
1/2-x,y,1/2+z
x,-y,1/2+z
loop_
_atom_site_type_symbol
_atom_site_label
_atom_site_fract_x
_atom_site_fract_y
_atom_site_fract_z
Si Si1 0.750000 0.000000 0.397989
Si Si2 0.138049 0.531978 0.327726
Si Si3 0.175403 0.653968 0.160225
Si Si4 0.994855 0.727274 0.059309
Si Si5 0.048215 0.098250 0.090856
Si Si6 0.500000 0.259941 0.750000
O O1 0.724799 0.166661 0.349553
O O2 0.846876 0.050292 0.442618
O O3 0.250000 0.500000 0.341624
O O4 0.131765 0.645880 0.248165
O O5 0.089749 0.620931 0.402530
O O6 0.077723 0.370797 0.297792
O O7 0.250000 0.500000 0.151908
O O8 0.091920 0.648702 0.094682
O O9 0.991127 0.923056 0.087495
O O10 0.992101 0.753595 0.964709
O O11 0.052450 0.154343 0.181838
#
# Coordination Sequence:
#
# PCOD9421969 Si02
#       6
#     4   8   8   8   8   4
#     4  10  22  40  66  96 126 180 226 272 346 412
#     4  11  23  43  63 102 133 175 229 275 348 411
#     4  10  20  40  69  97 132 179 226 277 339 419
#     4  10  22  45  65  94 139 177 220 293 344 410
#     4  10  24  43  68  98 132 177 233 278 355 410
#     4  12  24  44  68  98 134 174 234 286 338 432
#
# _framework density 21.373989999999999
#
# number of rings (size 3 to 8) (size 9 to 14) (size 15 to 20)
#    0.000    1.600    2.000    2.400    5.600    0.800 
#   10.800    1.000    0.000    0.000    0.000    0.000 
#    0.000    0.000    0.000    0.000    0.000    0.000 
#
# Total GULP energy -223325.570772 kJ/mol
# GULP energy per Si atom -5583.139269 kJ/mol
# Density = 2.132534 g / cm^3
# Si number density = 21.373990 Si / 1000 Ang^3
#
#
#
# Elastic Constant Matrix: (Units=GPa)
#
#
# Indices 1 2 3 4 5 6 
#
# 1 114.6504 35.5087 34.1291 0.0000 0.0000 0.0000
# 2 35.5087 89.7218 40.3880 0.0000 0.0000 0.0000
# 3 34.1291 40.3880 105.7733 0.0000 0.0000 0.0000
# 4 0.0000 0.0000 0.0000 26.6084 0.0000 0.0000
# 5 0.0000 0.0000 0.0000 0.0000 3.2184 0.0000
# 6 0.0000 0.0000 0.0000 0.0000 0.0000 33.2620
#
#
#
# Elastic Compliance Matrix: (Units=1/GPa)
#
#
# Indices 1 2 3 4 5 6 
#
# 1 0.010326 -0.003124 -0.002139 0.000000 0.000000 0.000000
# 2 -0.003124 0.014404 -0.004492 0.000000 0.000000 0.000000
# 3 -0.002139 -0.004492 0.011860 0.000000 0.000000 0.000000
# 4 0.000000 0.000000 0.000000 0.037582 0.000000 0.000000
# 5 0.000000 0.000000 0.000000 0.000000 0.310714 0.000000
# 6 0.000000 0.000000 0.000000 0.000000 0.000000 0.030064
#
#
# Mechanical properties :
#
#
# Convention : Reuss Voigt Hill
#
# Bulk Modulus (GPa) = 58.54817 58.91078 58.72948
# Shear Modulus (GPa) = 11.35966 25.95908 18.65937
#
# Velocity S-wave (km/s) = 2.30787 3.48877 2.95785
# Velocity P-wave (km/s) = 5.87821 6.62197 6.26114
#
# Compressibility (1/GPa) = 0.01707995
#
# Stress axis : x y z
#
# Youngs Moduli (GPa) = 96.83851 69.42548 84.31998
#
# Poissons Ratio (x) = 0.21688 0.18037
# Poissons Ratio (y) = 0.30252 0.37876
# Poissons Ratio (z) = 0.20715 0.31186
#
# Static dielectric constant tensor:
#      x y z
#    x 1.893750 0.000000 0.000000 
#    y 0.000000 1.803050 0.000000 
#    z 0.000000 0.000000 1.753530 
# 
# From -- ./inp_files/13255.got.cif
#   From: 2010.05.17/outbox.cif.g08.bks.cpg/sg54_7_cif.got.tgz:13255.got - 2010.06.03 13:09:01.
