data_PCOD9421976
_publ_section_title
;
Structure prediction by ZEFSAII (Michael W. Deem and Ramdas Pophale) SiO2 
 PCOD9421976
Probable space group: P C C A
;
_chemical_formula_sum "Si O2"
_cell_formula_units_Z 40
_cell_length_a 9.901277
_cell_length_b 8.549492
_cell_length_c 24.822191
_cell_angle_alpha 90.000000
_cell_angle_beta 90.000000
_cell_angle_gamma 90.000000
_cell_volume 2101.220523
_symmetry_space_group_name_H-M "P C C A"
_symmetry_group_IT_number 54
_symmetry_cell_setting 'orthorhombic'
loop_
_space_group_symop_operation_xyz
x,y,z
1/2-x,-y,z
1/2+x,-y,1/2-z
-x,y,1/2-z
-x,-y,-z
1/2+x,y,-z
1/2-x,y,1/2+z
x,-y,1/2+z
loop_
_atom_site_type_symbol
_atom_site_label
_atom_site_fract_x
_atom_site_fract_y
_atom_site_fract_z
Si Si1 0.347171 0.256502 0.361295
Si Si2 0.114784 0.099951 0.970482
Si Si3 0.056641 0.601842 0.856356
Si Si4 0.500000 0.801376 0.250000
Si Si5 0.750000 0.000000 0.222751
Si Si6 0.610449 0.409382 0.963340
O O1 0.418180 0.173013 0.411869
O O2 0.419922 0.417567 0.344695
O O3 0.196689 0.318564 0.376714
O O4 0.324063 0.128685 0.314998
O O5 0.250000 0.000000 0.963130
O O6 0.140855 0.245842 0.008783
O O7 0.000000 0.000000 0.000000
O O8 0.016113 0.694121 0.802729
O O9 0.951074 0.613982 0.904399
O O10 0.366599 0.908759 0.245498
O O11 0.750000 0.500000 0.960920
O O12 0.500000 0.500000 0.000000
#
# Coordination Sequence:
#
# PCOD9421976 Si02
#       6
#     8   8   8   4   4   8
#     4  10  20  40  71  92 122 178 214 260 323 399
#     4  12  24  38  63  96 133 170 213 262 322 388
#     4  10  22  43  67  94 127 170 225 265 321 391
#     4  10  24  46  68  96 126 174 218 274 324 390
#     4  10  22  44  70  92 130 166 218 272 330 386
#     4  12  24  42  65  96 132 173 215 269 325 389
#
# _framework density 19.036556000000001
#
# number of rings (size 3 to 8) (size 9 to 14) (size 15 to 20)
#    0.000    1.200    3.000    3.600    2.800    0.800 
#   12.600    0.000    0.000    0.000    0.000    0.000 
#    0.000    0.000    0.000    0.000    0.000    0.000 
#
# Total GULP energy -223498.232671 kJ/mol
# GULP energy per Si atom -5587.455817 kJ/mol
# Density = 1.899323 g / cm^3
# Si number density = 19.036556 Si / 1000 Ang^3
#
#
#
# Elastic Constant Matrix: (Units=GPa)
#
#
# Indices 1 2 3 4 5 6 
#
# 1 76.0631 32.9599 49.0316 0.0000 0.0000 0.0000
# 2 32.9599 120.6249 42.6747 0.0000 0.0000 0.0000
# 3 49.0316 42.6747 90.1827 0.0000 0.0000 0.0000
# 4 0.0000 0.0000 0.0000 28.9900 0.0000 0.0000
# 5 0.0000 0.0000 0.0000 0.0000 32.6398 0.0000
# 6 0.0000 0.0000 0.0000 0.0000 0.0000 37.0433
#
#
#
# Elastic Compliance Matrix: (Units=1/GPa)
#
#
# Indices 1 2 3 4 5 6 
#
# 1 0.020637 -0.002005 -0.010271 0.000000 0.000000 0.000000
# 2 -0.002005 0.010152 -0.003714 0.000000 0.000000 0.000000
# 3 -0.010271 -0.003714 0.018430 0.000000 0.000000 0.000000
# 4 0.000000 0.000000 0.000000 0.034495 0.000000 0.000000
# 5 0.000000 0.000000 0.000000 0.000000 0.030637 0.000000
# 6 0.000000 0.000000 0.000000 0.000000 0.000000 0.026995
#
#
# Mechanical properties :
#
#
# Convention : Reuss Voigt Hill
#
# Bulk Modulus (GPa) = 58.00841 59.57812 58.79327
# Shear Modulus (GPa) = 27.92153 30.54825 29.23489
#
# Velocity S-wave (km/s) = 3.83395 4.01024 3.92308
# Velocity P-wave (km/s) = 7.08076 7.26686 7.17441
#
# Compressibility (1/GPa) = 0.01723888
#
# Stress axis : x y z
#
# Youngs Moduli (GPa) = 48.45684 98.50383 54.25827
#
# Poissons Ratio (x) = 0.19751 0.55730
# Poissons Ratio (y) = 0.09716 0.20150
# Poissons Ratio (z) = 0.49771 0.36582
#
# Static dielectric constant tensor:
#      x y z
#    x 1.618850 0.000000 0.000000 
#    y 0.000000 1.658080 0.000000 
#    z 0.000000 0.000000 1.636800 
# 
# From -- ./inp_files/25756.got.cif
#   From: 2010.05.17/outbox.cif.g08.bks.cpg/sg54_13_cif.got.tgz:25756.got - 2010.06.03 13:09:01.
