data_PCOD9421529
_publ_section_title
;
Structure prediction by ZEFSAII (Michael W. Deem and Ramdas Pophale) SiO2 
 PCOD9421529
Probable space group: P C C A
;
_chemical_formula_sum "Si O2"
_cell_formula_units_Z 44
_cell_length_a 11.147200
_cell_length_b 11.687072
_cell_length_c 18.015682
_cell_angle_alpha 90.000000
_cell_angle_beta 90.000000
_cell_angle_gamma 90.000000
_cell_volume 2347.049344
_symmetry_space_group_name_H-M "P C C A"
_symmetry_group_IT_number 54
_symmetry_cell_setting 'orthorhombic'
loop_
_space_group_symop_operation_xyz
x,y,z
1/2-x,-y,z
1/2+x,-y,1/2-z
-x,y,1/2-z
-x,-y,-z
1/2+x,y,-z
1/2-x,y,1/2+z
x,-y,1/2+z
loop_
_atom_site_type_symbol
_atom_site_label
_atom_site_fract_x
_atom_site_fract_y
_atom_site_fract_z
Si Si1 0.500000 0.050674 0.750000
Si Si2 0.796144 0.224510 0.300717
Si Si3 0.965102 0.833830 0.329342
Si Si4 0.723502 0.379388 0.665909
Si Si5 0.047768 0.639384 0.430868
Si Si6 0.456963 0.600956 0.105524
O O1 0.393777 0.130599 0.722153
O O2 0.521515 0.959670 0.683019
O O3 0.678917 0.166187 0.335403
O O4 0.753919 0.280364 0.223749
O O5 0.857859 0.325858 0.349712
O O6 0.000000 0.775516 0.250000
O O7 0.011979 0.760078 0.396794
O O8 0.750000 0.500000 0.705663
O O9 0.817108 0.381772 0.598219
O O10 0.586500 0.369870 0.640456
O O11 0.044461 0.635144 0.519181
O O12 0.961229 0.538678 0.397510
#
# Coordination Sequence:
#
# PCOD9421529 Si02
#       6
#     4   8   8   8   8   8
#     4  10  22  42  60  90 118 156 214 262 304 354
#     4  12  21  39  65  91 117 160 211 259 309 363
#     4  10  23  37  63  85 119 161 203 256 302 369
#     4  10  20  36  58  89 122 156 202 246 305 375
#     4  10  22  41  55  92 131 161 197 251 326 367
#     4  10  23  36  62  90 127 163 198 255 315 384
#
# _framework density 18.746943999999999
#
# number of rings (size 3 to 8) (size 9 to 14) (size 15 to 20)
#    0.545    1.091    3.636    0.545    5.091    0.000 
#    0.000    0.909    0.000    0.000    0.000    0.000 
#    0.000    0.000    0.000    0.000    0.000    0.000 
#
# Total GULP energy -245043.268993 kJ/mol
# GULP energy per Si atom -5569.165204 kJ/mol
# Density = 1.870428 g / cm^3
# Si number density = 18.746944 Si / 1000 Ang^3
#
#
#
# Elastic Constant Matrix: (Units=GPa)
#
#
# Indices 1 2 3 4 5 6 
#
# 1 65.7578 11.6675 7.3283 0.0000 0.0000 0.0000
# 2 11.6675 79.4212 28.7506 0.0000 0.0000 0.0000
# 3 7.3283 28.7506 52.2451 0.0000 0.0000 0.0000
# 4 0.0000 0.0000 0.000012201.7387 0.0000 0.0000
# 5 0.0000 0.0000 0.0000 0.0000 2.1669 0.0000
# 6 0.0000 0.0000 0.0000 0.0000 0.0000 19.8771
#
#
#
# Elastic Compliance Matrix: (Units=1/GPa)
#
#
# Indices 1 2 3 4 5 6 
#
# 1 0.015671 -0.001881 -0.001163 0.000000 0.000000 0.000000
# 2 -0.001881 0.015949 -0.008513 0.000000 0.000000 0.000000
# 3 -0.001163 -0.008513 0.023988 0.000000 0.000000 0.000000
# 4 0.000000 0.000000 0.000000 0.000082 0.000000 0.000000
# 5 0.000000 0.000000 0.000000 0.000000 0.461485 0.000000
# 6 0.000000 0.000000 0.000000 0.000000 0.000000 0.050309
#
#
# Mechanical properties :
#
#
# Convention : Reuss Voigt Hill
#
# Bulk Modulus (GPa) = 30.77476 32.54632 31.66054
# Shear Modulus (GPa) = 8.31352 2454.73507 1231.52430
#
# Velocity S-wave (km/s) = 2.10813 36.22496 25.65826
# Velocity P-wave (km/s) = 4.73045 42.03644 29.91187
#
# Compressibility (1/GPa) = 0.03249417
#
# Stress axis : x y z
#
# Youngs Moduli (GPa) = 63.81341 62.69922 41.68681
#
# Poissons Ratio (x) = 0.11795 0.04848
# Poissons Ratio (y) = 0.12004 0.35488
# Poissons Ratio (z) = 0.07421 0.53376
#
# Static dielectric constant tensor:
#      x y z
#    x 1.673460 0.000000 0.000000 
#    y 0.000000 1.682540 0.000000 
#    z 0.000000 0.000000 1.626560 
# 
# From -- ./inp_files/17205.got.cif
#   From: 2010.05.17/outbox.cif.g08.bks.cpg/sg54_9_cif.got.tgz:17205.got - 2010.06.03 13:09:01.
