data_PCOD9421373
_publ_section_title
;
Structure prediction by ZEFSAII (Michael W. Deem and Ramdas Pophale) SiO2 
 PCOD9421373
Probable space group: P C C A
;
_chemical_formula_sum "Si O2"
_cell_formula_units_Z 48
_cell_length_a 12.086060
_cell_length_b 10.914247
_cell_length_c 18.306640
_cell_angle_alpha 90.000000
_cell_angle_beta 90.000000
_cell_angle_gamma 90.000000
_cell_volume 2414.833351
_symmetry_space_group_name_H-M "P C C A"
_symmetry_group_IT_number 54
_symmetry_cell_setting 'orthorhombic'
loop_
_space_group_symop_operation_xyz
x,y,z
1/2-x,-y,z
1/2+x,-y,1/2-z
-x,y,1/2-z
-x,-y,-z
1/2+x,y,-z
1/2-x,y,1/2+z
x,-y,1/2+z
loop_
_atom_site_type_symbol
_atom_site_label
_atom_site_fract_x
_atom_site_fract_y
_atom_site_fract_z
Si Si1 0.577126 0.898212 0.603997
Si Si2 0.250000 0.000000 0.616690
Si Si3 0.000000 0.234837 0.750000
Si Si4 0.626928 0.166147 0.773965
Si Si5 0.329699 0.152204 0.892083
Si Si6 0.292690 0.636445 0.671041
Si Si7 0.873490 0.225851 0.962863
O O1 0.543967 0.851032 0.684547
O O2 0.704017 0.873509 0.585667
O O3 0.496568 0.822229 0.552657
O O4 0.579122 0.044921 0.597464
O O5 0.157794 0.947119 0.673165
O O6 0.301053 0.891507 0.567360
O O7 0.896186 0.316007 0.779086
O O8 0.500000 0.177445 0.750000
O O9 0.682463 0.163076 0.694353
O O10 0.685808 0.278791 0.814074
O O11 0.363211 0.252831 0.951415
O O12 0.250000 0.500000 0.683297
O O13 0.336850 0.664060 0.589409
#
# Coordination Sequence:
#
# PCOD9421373 Si02
#       7
#     8   4   4   8   8   8   8
#     4  10  20  33  59  86 122 163 195 239 309 381
#     4  10  20  36  52  86 118 160 188 246 304 376
#     4  10  20  40  64  88 122 162 216 260 310 364
#     4  11  23  35  58  90 123 150 203 259 307 359
#     4  11  21  34  56  92 125 155 200 242 308 390
#     4  10  23  42  63  85 115 167 217 263 306 355
#     4  10  22  37  58  83 124 162 198 247 313 374
#
# _framework density 19.877147999999998
#
# number of rings (size 3 to 8) (size 9 to 14) (size 15 to 20)
#    0.000    1.667    1.667    3.500    7.000    2.667 
#    0.000    0.833    0.000    3.000    0.000    0.000 
#    0.000    0.000    0.000    0.000    0.000    0.000 
#
# Total GULP energy -267423.357849 kJ/mol
# GULP energy per Si atom -5571.319955 kJ/mol
# Density = 1.983191 g / cm^3
# Si number density = 19.877148 Si / 1000 Ang^3
#
#
#
# Elastic Constant Matrix: (Units=GPa)
#
#
# Indices 1 2 3 4 5 6 
#
# 1 122.9614 26.7781 6.0699 0.0000 0.0000 0.0000
# 2 26.7781 51.5889 6.2505 0.0000 0.0000 0.0000
# 3 6.0699 6.2505 79.6697 0.0000 0.0000 0.0000
# 4 0.0000 0.0000 0.0000 11.9530 0.0000 0.0000
# 5 0.0000 0.0000 0.0000 0.0000 -147.1730 0.0000
# 6 0.0000 0.0000 0.0000 0.0000 0.0000 23.8956
#
#
#
# Elastic Compliance Matrix: (Units=1/GPa)
#
#
# Indices 1 2 3 4 5 6 
#
# 1 0.009178 -0.004724 -0.000329 0.000000 0.000000 0.000000
# 2 -0.004724 0.022002 -0.001366 0.000000 0.000000 0.000000
# 3 -0.000329 -0.001366 0.012684 0.000000 0.000000 0.000000
# 4 0.000000 0.000000 0.000000 0.083661 0.000000 0.000000
# 5 0.000000 0.000000 0.000000 0.000000 -0.006795 0.000000
# 6 0.000000 0.000000 0.000000 0.000000 0.000000 0.041849
#
#
# Mechanical properties :
#
#
# Convention : Reuss Voigt Hill
#
# Bulk Modulus (GPa) = 32.23140 36.93522 34.58331
# Shear Modulus (GPa) = 26.91679 -7.92344 9.49668
#
# Velocity S-wave (km/s) = 3.68388 -1.99871 2.18816
# Velocity P-wave (km/s) = 5.86047 3.64631 4.88061
#
# Compressibility (1/GPa) = 0.03102564
#
# Stress axis : x y z
#
# Youngs Moduli (GPa) = 108.96055 45.45123 78.83916
#
# Poissons Ratio (x) = 0.21471 0.02591
# Poissons Ratio (y) = 0.51473 0.10771
# Poissons Ratio (z) = 0.03581 0.06210
#
# Static dielectric constant tensor:
#      x y z
#    x 1.732140 0.000000 0.000000 
#    y 0.000000 1.696910 0.000000 
#    z 0.000000 0.000000 1.811530 
# 
# From -- ./inp_files/17328.got.cif
#   From: 2010.05.17/outbox.cif.g08.bks.cpg/sg54_9_cif.got.tgz:17328.got - 2010.06.03 13:09:01.
