data_PCOD9421912
_publ_section_title
;
Structure prediction by ZEFSAII (Michael W. Deem and Ramdas Pophale) SiO2 
 PCOD9421912
Probable space group: P C C A
;
_chemical_formula_sum "Si O2"
_cell_formula_units_Z 52
_cell_length_a 26.543497
_cell_length_b 11.559759
_cell_length_c 9.344039
_cell_angle_alpha 90.000000
_cell_angle_beta 90.000000
_cell_angle_gamma 90.000000
_cell_volume 2867.091553
_symmetry_space_group_name_H-M "P C C A"
_symmetry_group_IT_number 54
_symmetry_cell_setting 'orthorhombic'
loop_
_space_group_symop_operation_xyz
x,y,z
1/2-x,-y,z
1/2+x,-y,1/2-z
-x,y,1/2-z
-x,-y,-z
1/2+x,y,-z
1/2-x,y,1/2+z
x,-y,1/2+z
loop_
_atom_site_type_symbol
_atom_site_label
_atom_site_fract_x
_atom_site_fract_y
_atom_site_fract_z
Si Si1 0.445987 0.640495 0.730735
Si Si2 0.314563 0.609158 0.978906
Si Si3 0.410170 0.556210 0.426823
Si Si4 0.961441 0.003035 0.631783
Si Si5 0.608296 0.205759 0.061978
Si Si6 0.942588 0.249904 0.262196
Si Si7 0.750000 0.500000 0.269542
O O1 0.500000 0.695770 0.750000
O O2 0.434787 0.600111 0.572116
O O3 0.444359 0.531871 0.837560
O O4 0.404816 0.727400 0.791884
O O5 0.360510 0.516762 0.965239
O O6 0.337561 0.739144 0.978664
O O7 0.281068 0.582745 0.838378
O O8 0.284809 0.574985 0.122902
O O9 0.404956 0.666264 0.322968
O O10 0.944888 0.876834 0.689498
O O11 0.000000 0.052479 0.750000
O O12 0.911597 0.076484 0.592951
O O13 0.000000 0.000000 0.500000
O O14 0.573444 0.243544 0.927322
O O15 0.000000 0.294826 0.250000
#
# Coordination Sequence:
#
# PCOD9421912 Si02
#       7
#     8   8   8   8   8   8   4
#     4  11  21  31  49  73 115 156 185 230 267 324
#     4  10  21  37  60  84 111 138 180 237 297 361
#     4  11  21  34  51  82 111 146 194 228 278 339
#     4  11  22  38  55  80 120 164 199 228 264 312
#     4  11  21  36  54  82 111 148 198 233 270 338
#     4  11  21  34  53  77 119 162 195 231 261 314
#     4  10  20  40  60  84 110 138 174 240 318 362
#
# _framework density 18.136846999999999
#
# number of rings (size 3 to 8) (size 9 to 14) (size 15 to 20)
#    0.000    1.231    3.077    6.923    2.154    0.000 
#    0.000    0.000    0.000    0.000    0.000   18.308 
#    0.000    0.000    0.000    0.000    0.000    0.000 
#
# Total GULP energy -289826.173536 kJ/mol
# GULP energy per Si atom -5573.580260 kJ/mol
# Density = 1.809557 g / cm^3
# Si number density = 18.136847 Si / 1000 Ang^3
#
#
#
# Elastic Constant Matrix: (Units=GPa)
#
#
# Indices 1 2 3 4 5 6 
#
# 1 58.9344 16.9221 6.4854 0.0000 0.0000 0.0000
# 2 16.9221 84.3835 6.5358 0.0000 0.0000 0.0000
# 3 6.4854 6.5358 88.3658 0.0000 0.0000 0.0000
# 4 0.0000 0.0000 0.0000 5.9247 0.0000 0.0000
# 5 0.0000 0.0000 0.0000 0.0000 28.3373 0.0000
# 6 0.0000 0.0000 0.0000 0.0000 0.0000 19.9834
#
#
#
# Elastic Compliance Matrix: (Units=1/GPa)
#
#
# Indices 1 2 3 4 5 6 
#
# 1 0.018104 -0.003548 -0.001066 0.000000 0.000000 0.000000
# 2 -0.003548 0.012614 -0.000673 0.000000 0.000000 0.000000
# 3 -0.001066 -0.000673 0.011445 0.000000 0.000000 0.000000
# 4 0.000000 0.000000 0.000000 0.168784 0.000000 0.000000
# 5 0.000000 0.000000 0.000000 0.000000 0.035289 0.000000
# 6 0.000000 0.000000 0.000000 0.000000 0.000000 0.050042
#
#
# Mechanical properties :
#
#
# Convention : Reuss Voigt Hill
#
# Bulk Modulus (GPa) = 31.65635 32.39671 32.02653
# Shear Modulus (GPa) = 15.75394 24.29845 20.02620
#
# Velocity S-wave (km/s) = 2.95043 3.66420 3.32651
# Velocity P-wave (km/s) = 5.39432 5.98356 5.69657
#
# Compressibility (1/GPa) = 0.03158924
#
# Stress axis : x y z
#
# Youngs Moduli (GPa) = 55.23605 79.27538 87.37748
#
# Poissons Ratio (x) = 0.28127 0.09317
# Poissons Ratio (y) = 0.19598 0.05877
# Poissons Ratio (z) = 0.05890 0.05332
#
# Static dielectric constant tensor:
#      x y z
#    x 1.666140 0.000000 0.000000 
#    y 0.000000 1.665760 0.000000 
#    z 0.000000 0.000000 1.641060 
# 
# From -- ./inp_files/5554.got.cif
#   From: 2010.05.17/outbox.cif.g08.bks.cpg/sg54_3_cif.got.tgz:5554.got - 2010.06.03 13:09:01.
