data_PCOD9421249
_publ_section_title
;
Structure prediction by ZEFSAII (Michael W. Deem and Ramdas Pophale) SiO2 
 PCOD9421249
Probable space group: P C C A
;
_chemical_formula_sum "Si O2"
_cell_formula_units_Z 40
_cell_length_a 14.074597
_cell_length_b 5.607190
_cell_length_c 20.999384
_cell_angle_alpha 90.000000
_cell_angle_beta 90.000000
_cell_angle_gamma 90.000000
_cell_volume 1657.249117
_symmetry_space_group_name_H-M "P C C A"
_symmetry_group_IT_number 54
_symmetry_cell_setting 'orthorhombic'
loop_
_space_group_symop_operation_xyz
x,y,z
1/2-x,-y,z
1/2+x,-y,1/2-z
-x,y,1/2-z
-x,-y,-z
1/2+x,y,-z
1/2-x,y,1/2+z
x,-y,1/2+z
loop_
_atom_site_type_symbol
_atom_site_label
_atom_site_fract_x
_atom_site_fract_y
_atom_site_fract_z
Si Si1 0.994982 0.724820 0.565713
Si Si2 0.345363 0.632792 0.880978
Si Si3 0.386625 0.602506 0.735803
Si Si4 0.852860 0.944705 0.006913
Si Si5 0.922362 0.095952 0.307011
O O1 0.095531 0.727087 0.529149
O O2 0.021735 0.885805 0.626782
O O3 0.940749 0.504401 0.597306
O O4 0.924191 0.833578 0.512399
O O5 0.250000 0.500000 0.903342
O O6 0.342324 0.642163 0.805239
O O7 0.343303 0.876906 0.918891
O O8 0.500000 0.591181 0.750000
O O9 0.365211 0.344030 0.704835
O O10 0.368893 0.843127 0.696037
O O11 0.750000 0.000000 0.979916
O O12 0.000000 0.087357 0.250000
#
# Coordination Sequence:
#
# PCOD9421249 Si02
#       5
#     8   8   8   8   8
#     4  11  23  42  67  94 133 185 222 293 353 411
#     4  12  23  40  66 100 133 179 232 292 346 430
#     4  10  20  36  65  92 130 165 219 274 342 403
#     4  11  24  42  65  96 131 177 238 287 347 419
#     4  10  19  38  65  94 127 173 219 273 343 419
#
# _framework density 24.136385000000001
#
# number of rings (size 3 to 8) (size 9 to 14) (size 15 to 20)
#    0.000    1.200    6.000    3.000    0.000    0.000 
#    0.000    2.000    0.000    0.000    0.000    0.000 
#    0.000    0.000    0.000    0.000    0.000    0.000 
#
# Total GULP energy -223272.609599 kJ/mol
# GULP energy per Si atom -5581.815240 kJ/mol
# Density = 2.408145 g / cm^3
# Si number density = 24.136385 Si / 1000 Ang^3
#
#
#
# Elastic Constant Matrix: (Units=GPa)
#
#
# Indices 1 2 3 4 5 6 
#
# 1 106.0392 31.9462 27.0191 0.0000 0.0000 0.0000
# 2 31.9462 138.7108 7.2490 0.0000 0.0000 0.0000
# 3 27.0191 7.2490 79.6175 0.0000 0.0000 0.0000
# 4 0.0000 0.0000 0.0000 374.6170 0.0000 0.0000
# 5 0.0000 0.0000 0.0000 0.0000 24.3461 0.0000
# 6 0.0000 0.0000 0.0000 0.0000 0.0000 -3.9308
#
#
#
# Elastic Compliance Matrix: (Units=1/GPa)
#
#
# Indices 1 2 3 4 5 6 
#
# 1 0.011041 -0.002358 -0.003532 0.000000 0.000000 0.000000
# 2 -0.002358 0.007747 0.000095 0.000000 0.000000 0.000000
# 3 -0.003532 0.000095 0.013750 0.000000 0.000000 0.000000
# 4 0.000000 0.000000 0.000000 0.002669 0.000000 0.000000
# 5 0.000000 0.000000 0.000000 0.000000 0.041074 0.000000
# 6 0.000000 0.000000 0.000000 0.000000 0.000000 -0.254400
#
#
# Mechanical properties :
#
#
# Convention : Reuss Voigt Hill
#
# Bulk Modulus (GPa) = 47.73845 50.75513 49.24679
# Shear Modulus (GPa) = -31.33928 96.21667 32.43870
#
# Velocity S-wave (km/s) = -3.60728 6.32062 3.67000
# Velocity P-wave (km/s) = 1.57215 8.62213 6.19729
#
# Compressibility (1/GPa) = 0.02094748
#
# Stress axis : x y z
#
# Youngs Moduli (GPa) = 90.57203 129.07555 72.72681
#
# Poissons Ratio (x) = 0.30439 0.25688
# Poissons Ratio (y) = 0.21359 -0.00690
# Poissons Ratio (z) = 0.31991 -0.01225
#
# Static dielectric constant tensor:
#      x y z
#    x 1.985180 0.000000 0.000000 
#    y 0.000000 2.030430 0.000000 
#    z 0.000000 0.000000 1.904070 
# 
# From -- ./inp_files/24327.got.cif
#   From: 2010.05.17/outbox.cif.g08.bks.cpg/sg54_13_cif.got.tgz:24327.got - 2010.06.03 13:09:01.
