data_PCOD9421038
_publ_section_title
;
Structure prediction by ZEFSAII (Michael W. Deem and Ramdas Pophale) SiO2 
 PCOD9421038
Probable space group: P C C A
;
_chemical_formula_sum "Si O2"
_cell_formula_units_Z 44
_cell_length_a 11.813848
_cell_length_b 9.473910
_cell_length_c 17.870726
_cell_angle_alpha 90.000000
_cell_angle_beta 90.000000
_cell_angle_gamma 90.000000
_cell_volume 2000.151212
_symmetry_space_group_name_H-M "P C C A"
_symmetry_group_IT_number 54
_symmetry_cell_setting 'orthorhombic'
loop_
_space_group_symop_operation_xyz
x,y,z
1/2-x,-y,z
1/2+x,-y,1/2-z
-x,y,1/2-z
-x,-y,-z
1/2+x,y,-z
1/2-x,y,1/2+z
x,-y,1/2+z
loop_
_atom_site_type_symbol
_atom_site_label
_atom_site_fract_x
_atom_site_fract_y
_atom_site_fract_z
Si Si1 0.909279 0.139792 0.601401
Si Si2 0.125848 0.728600 0.025694
Si Si3 0.000000 0.652651 0.750000
Si Si4 0.750000 0.000000 0.496286
Si Si5 0.697918 0.340902 0.639540
Si Si6 0.635662 0.430943 0.329430
Si Si7 0.500000 0.814888 0.750000
O O1 0.856772 0.020329 0.550476
O O2 0.807746 0.241548 0.627565
O O3 0.963689 0.093298 0.679385
O O4 0.002545 0.217331 0.551110
O O5 0.149895 0.606348 0.084568
O O6 0.217526 0.854216 0.043114
O O7 0.135127 0.677957 0.940691
O O8 0.113523 0.710461 0.792612
O O9 0.042245 0.548692 0.684409
O O10 0.750000 0.500000 0.645952
O O11 0.750000 0.500000 0.301118
O O12 0.594467 0.292460 0.284089
#
# Coordination Sequence:
#
# PCOD9421038 Si02
#       7
#     8   8   4   4   8   8   4
#     4  10  21  40  60  83 117 157 198 246 299 349
#     4  10  22  38  62  86 114 155 201 247 296 351
#     4  11  22  34  55  88 127 158 186 231 292 365
#     4  10  22  40  58  82 114 152 204 260 298 340
#     4  11  22  37  59  90 125 158 191 238 298 360
#     4  10  19  34  57  87 118 150 187 232 291 355
#     4   9  18  34  57  82 117 156 186 229 290 353
#
# _framework density 21.998335999999998
#
# number of rings (size 3 to 8) (size 9 to 14) (size 15 to 20)
#    0.000    1.818    0.000    6.000    0.000    5.818 
#    0.000    7.273    0.000    0.000    0.000    0.000 
#    0.000    0.000    0.000    0.000    0.000    0.000 
#
# Total GULP energy -245187.907904 kJ/mol
# GULP energy per Si atom -5572.452452 kJ/mol
# Density = 2.194827 g / cm^3
# Si number density = 21.998336 Si / 1000 Ang^3
#
#
#
# Elastic Constant Matrix: (Units=GPa)
#
#
# Indices 1 2 3 4 5 6 
#
# 1 92.1724 12.1906 41.2344 0.0000 0.0000 0.0000
# 2 12.1906 23.4768 8.3279 0.0000 0.0000 0.0000
# 3 41.2344 8.3279 146.8167 0.0000 0.0000 0.0000
# 4 0.0000 0.0000 0.0000 0.0485 0.0000 0.0000
# 5 0.0000 0.0000 0.0000 0.0000 41.9612 0.0000
# 6 0.0000 0.0000 0.0000 0.0000 0.0000 18.9848
#
#
#
# Elastic Compliance Matrix: (Units=1/GPa)
#
#
# Indices 1 2 3 4 5 6 
#
# 1 0.013094 -0.005607 -0.003359 0.000000 0.000000 0.000000
# 2 -0.005607 0.045871 -0.001027 0.000000 0.000000 0.000000
# 3 -0.003359 -0.001027 0.007813 0.000000 0.000000 0.000000
# 4 0.000000 0.000000 0.000000 20.625677 0.000000 0.000000
# 5 0.000000 0.000000 0.000000 0.000000 0.023832 0.000000
# 6 0.000000 0.000000 0.000000 0.000000 0.000000 0.052674
#
#
# Mechanical properties :
#
#
# Convention : Reuss Voigt Hill
#
# Bulk Modulus (GPa) = 21.37200 42.88574 32.12887
# Shear Modulus (GPa) = 0.24033 25.57978 12.91006
#
# Velocity S-wave (km/s) = 0.33089 3.41369 2.42516
# Velocity P-wave (km/s) = 3.14362 5.92242 4.74117
#
# Compressibility (1/GPa) = 0.04679019
#
# Stress axis : x y z
#
# Youngs Moduli (GPa) = 76.37253 21.80018 127.99218
#
# Poissons Ratio (x) = 0.12224 0.42997
# Poissons Ratio (y) = 0.42825 0.13146
# Poissons Ratio (z) = 0.25656 0.02239
#
# Static dielectric constant tensor:
#      x y z
#    x 1.804460 0.000000 0.000000 
#    y 0.000000 1.823220 0.000000 
#    z 0.000000 0.000000 1.839090 
# 
# From -- ./inp_files/17258.got.cif
#   From: 2010.05.17/outbox.cif.g08.bks.cpg/sg54_9_cif.got.tgz:17258.got - 2010.06.03 13:09:01.
