data_PCOD9421612
_publ_section_title
;
Structure prediction by ZEFSAII (Michael W. Deem and Ramdas Pophale) SiO2 
 PCOD9421612
Probable space group: P C C A
;
_chemical_formula_sum "Si O2"
_cell_formula_units_Z 48
_cell_length_a 15.711554
_cell_length_b 9.629552
_cell_length_c 13.780881
_cell_angle_alpha 90.000000
_cell_angle_beta 90.000000
_cell_angle_gamma 90.000000
_cell_volume 2084.981509
_symmetry_space_group_name_H-M "P C C A"
_symmetry_group_IT_number 54
_symmetry_cell_setting 'orthorhombic'
loop_
_space_group_symop_operation_xyz
x,y,z
1/2-x,-y,z
1/2+x,-y,1/2-z
-x,y,1/2-z
-x,-y,-z
1/2+x,y,-z
1/2-x,y,1/2+z
x,-y,1/2+z
loop_
_atom_site_type_symbol
_atom_site_label
_atom_site_fract_x
_atom_site_fract_y
_atom_site_fract_z
Si Si1 0.656274 0.961854 0.730270
Si Si2 0.609316 0.741550 0.158165
Si Si3 0.444299 0.244147 0.154050
Si Si4 0.537334 0.345475 0.978444
Si Si5 0.199576 0.708890 0.409054
Si Si6 0.340899 0.513370 0.723968
O O1 0.613118 0.886470 0.821212
O O2 0.670410 0.853464 0.641526
O O3 0.750000 0.000000 0.763345
O O4 0.611078 0.100074 0.693043
O O5 0.695909 0.717213 0.090203
O O6 0.624485 0.635239 0.246550
O O7 0.518695 0.702683 0.112754
O O8 0.500000 0.254286 0.250000
O O9 0.500644 0.241365 0.060400
O O10 0.395193 0.389491 0.155783
O O11 0.639611 0.330117 0.998270
O O12 0.500000 0.500000 0.000000
O O13 0.173735 0.596446 0.325767
O O14 0.250000 0.500000 0.676534
#
# Coordination Sequence:
#
# PCOD9421612 Si02
#       6
#     8   8   8   8   8   8
#     4   9  19  38  64  84 116 166 209 244 306 383
#     4  10  20  36  64  88 117 162 210 248 304 380
#     4  11  20  39  62  87 122 162 205 258 317 364
#     4  12  22  37  64  92 121 162 206 262 316 374
#     4   9  18  37  60  83 121 165 201 238 317 379
#     4   9  17  35  60  84 117 163 205 249 304 373
#
# _framework density 23.021787
#
# number of rings (size 3 to 8) (size 9 to 14) (size 15 to 20)
#    0.000    2.000    5.000    1.000    0.000    0.667 
#    3.000    5.000    0.000    0.000    0.000    0.000 
#    0.000    0.000    0.000    0.000    0.000    0.000 
#
# Total GULP energy -267779.653100 kJ/mol
# GULP energy per Si atom -5578.742773 kJ/mol
# Density = 2.296939 g / cm^3
# Si number density = 23.021787 Si / 1000 Ang^3
#
#
#
# Elastic Constant Matrix: (Units=GPa)
#
#
# Indices 1 2 3 4 5 6 
#
# 1 114.7914 31.6964 44.4685 0.0000 0.0000 0.0000
# 2 31.6964 141.8648 10.9503 0.0000 0.0000 0.0000
# 3 44.4685 10.9503 35.4673 0.0000 0.0000 0.0000
# 4 0.0000 0.0000 0.0000 15.1328 0.0000 0.0000
# 5 0.0000 0.0000 0.0000 0.0000 40.7818 0.0000
# 6 0.0000 0.0000 0.0000 0.0000 0.0000 39.8895
#
#
#
# Elastic Compliance Matrix: (Units=1/GPa)
#
#
# Indices 1 2 3 4 5 6 
#
# 1 0.017635 -0.002288 -0.021404 0.000000 0.000000 0.000000
# 2 -0.002288 0.007518 0.000547 0.000000 0.000000 0.000000
# 3 -0.021404 0.000547 0.054862 0.000000 0.000000 0.000000
# 4 0.000000 0.000000 0.000000 0.066082 0.000000 0.000000
# 5 0.000000 0.000000 0.000000 0.000000 0.024521 0.000000
# 6 0.000000 0.000000 0.000000 0.000000 0.000000 0.025069
#
#
# Mechanical properties :
#
#
# Convention : Reuss Voigt Hill
#
# Bulk Modulus (GPa) = 29.65085 51.81711 40.73398
# Shear Modulus (GPa) = 19.74596 32.82804 26.28700
#
# Velocity S-wave (km/s) = 2.93184 3.78028 3.38277
# Velocity P-wave (km/s) = 4.93643 6.45064 5.74365
#
# Compressibility (1/GPa) = 0.03372584
#
# Stress axis : x y z
#
# Youngs Moduli (GPa) = 56.70636 133.01599 18.22766
#
# Poissons Ratio (x) = 0.30433 0.39014
# Poissons Ratio (y) = 0.12974 -0.00998
# Poissons Ratio (z) = 1.21373 -0.07283
#
# Static dielectric constant tensor:
#      x y z
#    x 0.301380 0.000000 0.000000 
#    y 0.000000 1.908680 0.000000 
#    z 0.000000 0.000000 1.891630 
# 
# From -- ./inp_files/17992.got.cif
#   From: 2010.05.17/outbox.cif.g08.bks.cpg/sg54_9_cif.got.tgz:17992.got - 2010.06.03 13:09:01.
