data_PCOD9421557
_publ_section_title
;
Structure prediction by ZEFSAII (Michael W. Deem and Ramdas Pophale) SiO2 
 PCOD9421557
Probable space group: P C C A
;
_chemical_formula_sum "Si O2"
_cell_formula_units_Z 36
_cell_length_a 10.402503
_cell_length_b 8.714869
_cell_length_c 19.021963
_cell_angle_alpha 90.000000
_cell_angle_beta 90.000000
_cell_angle_gamma 90.000000
_cell_volume 1724.463655
_symmetry_space_group_name_H-M "P C C A"
_symmetry_group_IT_number 54
_symmetry_cell_setting 'orthorhombic'
loop_
_space_group_symop_operation_xyz
x,y,z
1/2-x,-y,z
1/2+x,-y,1/2-z
-x,y,1/2-z
-x,-y,-z
1/2+x,y,-z
1/2-x,y,1/2+z
x,-y,1/2+z
loop_
_atom_site_type_symbol
_atom_site_label
_atom_site_fract_x
_atom_site_fract_y
_atom_site_fract_z
Si Si1 0.876874 0.605380 0.159589
Si Si2 0.233285 0.180828 0.561027
Si Si3 0.239490 0.182319 0.724690
Si Si4 0.475971 0.321118 0.488147
Si Si5 0.000000 0.365260 0.250000
O O1 0.750000 0.500000 0.148848
O O2 0.851393 0.727663 0.221272
O O3 0.914310 0.691617 0.089197
O O4 0.980819 0.480299 0.184550
O O5 0.202658 0.208678 0.643342
O O6 0.368791 0.258530 0.541243
O O7 0.114538 0.239706 0.514002
O O8 0.250000 0.000000 0.551046
O O9 0.377315 0.260286 0.737801
O O10 0.250000 0.000000 0.737111
O O11 0.500000 0.500000 0.500000
#
# Coordination Sequence:
#
# PCOD9421557 Si02
#       5
#     8   8   8   8   4
#     4  10  21  38  61  91 122 160 208 257 313 377
#     4  11  25  43  63  91 128 166 208 262 324 382
#     4  10  23  40  62  92 124 163 210 261 316 379
#     4  12  24  41  66  94 126 168 214 262 316 385
#     4  10  20  36  60  86 122 160 202 256 310 368
#
# _framework density 20.876055000000001
#
# number of rings (size 3 to 8) (size 9 to 14) (size 15 to 20)
#    0.000    1.333    0.000    5.333    0.000   10.667 
#    0.000    0.000    0.000    0.000    0.000    0.000 
#    0.000    0.000    0.000    0.000    0.000    0.000 
#
# Total GULP energy -201343.483969 kJ/mol
# GULP energy per Si atom -5592.874555 kJ/mol
# Density = 2.082854 g / cm^3
# Si number density = 20.876055 Si / 1000 Ang^3
#
#
#
# Elastic Constant Matrix: (Units=GPa)
#
#
# Indices 1 2 3 4 5 6 
#
# 1 84.2707 48.2648 30.5344 0.0000 0.0000 0.0000
# 2 48.2648 116.2389 41.6343 0.0000 0.0000 0.0000
# 3 30.5344 41.6343 71.7447 0.0000 0.0000 0.0000
# 4 0.0000 0.0000 0.0000 27.0725 0.0000 0.0000
# 5 0.0000 0.0000 0.0000 0.0000 29.9297 0.0000
# 6 0.0000 0.0000 0.0000 0.0000 0.0000 31.2239
#
#
#
# Elastic Compliance Matrix: (Units=1/GPa)
#
#
# Indices 1 2 3 4 5 6 
#
# 1 0.016355 -0.005426 -0.003812 0.000000 0.000000 0.000000
# 2 -0.005426 0.012660 -0.005038 0.000000 0.000000 0.000000
# 3 -0.003812 -0.005038 0.018484 0.000000 0.000000 0.000000
# 4 0.000000 0.000000 0.000000 0.036938 0.000000 0.000000
# 5 0.000000 0.000000 0.000000 0.000000 0.033412 0.000000
# 6 0.000000 0.000000 0.000000 0.000000 0.000000 0.032027
#
#
# Mechanical properties :
#
#
# Convention : Reuss Voigt Hill
#
# Bulk Modulus (GPa) = 52.77440 57.01349 54.89394
# Shear Modulus (GPa) = 27.06458 27.76660 27.41559
#
# Velocity S-wave (km/s) = 3.60452 3.65097 3.62782
# Velocity P-wave (km/s) = 6.53132 6.71882 6.62573
#
# Compressibility (1/GPa) = 0.01894858
#
# Stress axis : x y z
#
# Youngs Moduli (GPa) = 61.14236 78.98765 54.10011
#
# Poissons Ratio (x) = 0.42855 0.20624
# Poissons Ratio (y) = 0.33173 0.27254
# Poissons Ratio (z) = 0.23309 0.39792
#
# Static dielectric constant tensor:
#      x y z
#    x 1.757920 0.000000 0.000000 
#    y 0.000000 1.690070 0.000000 
#    z 0.000000 0.000000 1.775700 
# 
# From -- ./inp_files/20116.got.cif
#   From: 2010.05.17/outbox.cif.g08.bks.cpg/sg54_11_cif.got.tgz:20116.got - 2010.06.03 13:09:01.
