data_PCOD9421092
_publ_section_title
;
Structure prediction by ZEFSAII (Michael W. Deem and Ramdas Pophale) SiO2 
 PCOD9421092
Probable space group: P C C A
;
_chemical_formula_sum "Si O2"
_cell_formula_units_Z 56
_cell_length_a 17.531316
_cell_length_b 10.015339
_cell_length_c 18.464765
_cell_angle_alpha 90.000000
_cell_angle_beta 90.000000
_cell_angle_gamma 90.000000
_cell_volume 3242.081714
_symmetry_space_group_name_H-M "P C C A"
_symmetry_group_IT_number 54
_symmetry_cell_setting 'orthorhombic'
loop_
_space_group_symop_operation_xyz
x,y,z
1/2-x,-y,z
1/2+x,-y,1/2-z
-x,y,1/2-z
-x,-y,-z
1/2+x,y,-z
1/2-x,y,1/2+z
x,-y,1/2+z
loop_
_atom_site_type_symbol
_atom_site_label
_atom_site_fract_x
_atom_site_fract_y
_atom_site_fract_z
Si Si1 0.100755 0.407886 0.048413
Si Si2 0.210056 0.644532 0.841495
Si Si3 0.190454 0.805501 0.456019
Si Si4 0.283682 0.352775 0.677345
Si Si5 0.413778 0.952340 0.493723
Si Si6 0.206389 0.873966 0.096086
Si Si7 0.921966 0.648194 0.549674
O O1 0.146730 0.366052 0.120370
O O2 0.010725 0.386729 0.058396
O O3 0.134866 0.310489 0.986471
O O4 0.109994 0.558925 0.017669
O O5 0.250000 0.500000 0.841452
O O6 0.262534 0.748023 0.887853
O O7 0.196925 0.689286 0.758984
O O8 0.130622 0.619535 0.881978
O O9 0.250856 0.837986 0.520146
O O10 0.138518 0.939100 0.451423
O O11 0.250000 0.500000 0.680576
O O12 0.220021 0.252870 0.645669
O O13 0.375724 0.927642 0.572564
O O14 0.414808 0.805559 0.460955
O O15 0.500000 0.000000 0.500000
O O16 0.250000 0.000000 0.129402
#
# Coordination Sequence:
#
# PCOD9421092 Si02
#       7
#     8   8   8   8   8   8   8
#     4  10  21  36  60  87 110 147 190 236 288 344
#     4  11  22  37  59  86 115 147 190 240 285 349
#     4  10  19  35  58  84 111 141 190 236 276 332
#     4  10  22  38  58  84 114 151 189 233 297 346
#     4  11  20  33  56  87 114 145 190 237 278 330
#     4   9  19  35  56  81 110 145 187 235 274 330
#     4  11  21  35  59  87 113 148 187 238 290 330
#
# _framework density 17.272853000000001
#
# number of rings (size 3 to 8) (size 9 to 14) (size 15 to 20)
#    0.000    1.714    4.286    0.857    2.000    0.571 
#    2.571    0.000    0.000    0.857    0.000    0.000 
#    0.000    0.000    0.000    0.000    0.000    0.000 
#
# Total GULP energy -312022.090597 kJ/mol
# GULP energy per Si atom -5571.823046 kJ/mol
# Density = 1.723354 g / cm^3
# Si number density = 17.272853 Si / 1000 Ang^3
#
#
#
# Elastic Constant Matrix: (Units=GPa)
#
#
# Indices 1 2 3 4 5 6 
#
# 1 103.6109 26.4731 43.1739 0.0000 0.0000 0.0000
# 2 26.4731 107.7616 35.8638 0.0000 0.0000 0.0000
# 3 43.1739 35.8638 101.9291 0.0000 0.0000 0.0000
# 4 0.0000 0.0000 0.0000 -10.4805 0.0000 0.0000
# 5 0.0000 0.0000 0.0000 0.0000 -4.2137 0.0000
# 6 0.0000 0.0000 0.0000 0.0000 0.0000 30.8143
#
#
#
# Elastic Compliance Matrix: (Units=1/GPa)
#
#
# Indices 1 2 3 4 5 6 
#
# 1 0.011907 -0.001412 -0.004547 0.000000 0.000000 0.000000
# 2 -0.001412 0.010678 -0.003159 0.000000 0.000000 0.000000
# 3 -0.004547 -0.003159 0.012848 0.000000 0.000000 0.000000
# 4 0.000000 0.000000 0.000000 -0.095415 0.000000 0.000000
# 5 0.000000 0.000000 0.000000 0.000000 -0.237323 0.000000
# 6 0.000000 0.000000 0.000000 0.000000 0.000000 0.032453
#
#
# Mechanical properties :
#
#
# Convention : Reuss Voigt Hill
#
# Bulk Modulus (GPa) = 58.14705 58.25815 58.20260
# Shear Modulus (GPa) = -20.75676 17.07673 -1.84001
#
# Velocity S-wave (km/s) = -3.47031 3.14768 -1.03324
# Velocity P-wave (km/s) = 4.20470 6.85653 5.68733
#
# Compressibility (1/GPa) = 0.01719778
#
# Stress axis : x y z
#
# Youngs Moduli (GPa) = 83.98591 93.65107 77.83319
#
# Poissons Ratio (x) = 0.13223 0.35387
# Poissons Ratio (y) = 0.11858 0.24587
# Poissons Ratio (z) = 0.38184 0.29584
#
# Static dielectric constant tensor:
#      x y z
#    x 1.610130 0.000000 0.000000 
#    y 0.000000 1.624950 0.000000 
#    z 0.000000 0.000000 1.584170 
# 
# From -- ./inp_files/18699.got.cif
#   From: 2010.05.17/outbox.cif.g08.bks.cpg/sg54_10_cif.got.tgz:18699.got - 2010.06.03 13:09:01.
