data_PCOD9421527
_publ_section_title
;
Structure prediction by ZEFSAII (Michael W. Deem and Ramdas Pophale) SiO2 
 PCOD9421527
Probable space group: P C C A
;
_chemical_formula_sum "Si O2"
_cell_formula_units_Z 60
_cell_length_a 13.362665
_cell_length_b 23.197319
_cell_length_c 9.238587
_cell_angle_alpha 90.000000
_cell_angle_beta 90.000000
_cell_angle_gamma 90.000000
_cell_volume 2863.758746
_symmetry_space_group_name_H-M "P C C A"
_symmetry_group_IT_number 54
_symmetry_cell_setting 'orthorhombic'
loop_
_space_group_symop_operation_xyz
x,y,z
1/2-x,-y,z
1/2+x,-y,1/2-z
-x,y,1/2-z
-x,-y,-z
1/2+x,y,-z
1/2-x,y,1/2+z
x,-y,1/2+z
loop_
_atom_site_type_symbol
_atom_site_label
_atom_site_fract_x
_atom_site_fract_y
_atom_site_fract_z
Si Si1 0.332625 0.100408 0.664090
Si Si2 0.361847 0.524256 0.603689
Si Si3 0.821258 0.946458 0.122533
Si Si4 0.242129 0.286766 0.992831
Si Si5 0.406557 0.419060 0.799785
Si Si6 0.619122 0.227235 0.750627
Si Si7 0.192547 0.363829 0.748484
Si Si8 0.000000 0.990637 0.750000
O O1 0.318106 0.104475 0.493288
O O2 0.230441 0.076754 0.732890
O O3 0.366760 0.158242 0.741530
O O4 0.416678 0.051127 0.682133
O O5 0.250000 0.500000 0.571796
O O6 0.409470 0.469266 0.678723
O O7 0.402567 0.551311 0.456432
O O8 0.362773 0.576060 0.720721
O O9 0.750000 0.000000 0.073690
O O10 0.932792 0.969337 0.147445
O O11 0.174228 0.250804 0.104341
O O12 0.306235 0.328145 0.099626
O O13 0.317747 0.252569 0.886002
O O14 0.170284 0.324728 0.887200
O O15 0.500000 0.380946 0.750000
O O16 0.306247 0.383464 0.778838
O O17 0.500000 0.239602 0.750000
#
# Coordination Sequence:
#
# PCOD9421527 Si02
#       8
#     8   8   8   8   8   8   8   4
#     4  11  21  39  63  91 132 177 210 265 334 387
#     4  10  20  36  58  87 127 166 203 242 329 404
#     4  10  21  36  60  96 135 172 211 263 315 395
#     4  10  23  43  69  92 125 164 231 289 329 390
#     4  11  22  35  58  92 127 163 204 259 319 411
#     4  11  24  47  71  96 128 176 225 282 344 392
#     4  10  20  40  63  86 121 168 207 266 340 379
#     4  10  20  36  60 100 132 170 218 256 316 406
#
# _framework density 20.951485000000002
#
# number of rings (size 3 to 8) (size 9 to 14) (size 15 to 20)
#    0.000    1.600    2.000    4.000    1.867    3.200 
#    2.400    2.667    0.000    0.000    0.000    0.000 
#    0.000    0.000    0.000    0.000    0.000    0.000 
#
# Total GULP energy -334797.882569 kJ/mol
# GULP energy per Si atom -5579.964709 kJ/mol
# Density = 2.090380 g / cm^3
# Si number density = 20.951485 Si / 1000 Ang^3
#
#
#
# Elastic Constant Matrix: (Units=GPa)
#
#
# Indices 1 2 3 4 5 6 
#
# 1 59.8512 9.4315 21.9069 0.0000 0.0000 0.0000
# 2 9.4315 78.9663 26.0795 0.0000 0.0000 0.0000
# 3 21.9069 26.0795 108.1857 0.0000 0.0000 0.0000
# 4 0.0000 0.0000 0.0000 40.1722 0.0000 0.0000
# 5 0.0000 0.0000 0.0000 0.0000 12.6847 0.0000
# 6 0.0000 0.0000 0.0000 0.0000 0.0000 208.7396
#
#
#
# Elastic Compliance Matrix: (Units=1/GPa)
#
#
# Indices 1 2 3 4 5 6 
#
# 1 0.018123 -0.001035 -0.003420 0.000000 0.000000 0.000000
# 2 -0.001035 0.013818 -0.003121 0.000000 0.000000 0.000000
# 3 -0.003420 -0.003121 0.010688 0.000000 0.000000 0.000000
# 4 0.000000 0.000000 0.000000 0.024893 0.000000 0.000000
# 5 0.000000 0.000000 0.000000 0.000000 0.078835 0.000000
# 6 0.000000 0.000000 0.000000 0.000000 0.000000 0.004791
#
#
# Mechanical properties :
#
#
# Convention : Reuss Voigt Hill
#
# Bulk Modulus (GPa) = 36.39518 40.20433 38.29975
# Shear Modulus (GPa) = 28.49649 64.95833 46.72741
#
# Velocity S-wave (km/s) = 3.69198 5.57418 4.72769
# Velocity P-wave (km/s) = 5.96516 7.78842 6.93695
#
# Compressibility (1/GPa) = 0.02747617
#
# Stress axis : x y z
#
# Youngs Moduli (GPa) = 55.17820 72.36868 93.55920
#
# Poissons Ratio (x) = 0.07490 0.32000
# Poissons Ratio (y) = 0.05711 0.29204
# Poissons Ratio (z) = 0.18873 0.22590
#
# Static dielectric constant tensor:
#      x y z
#    x 1.870630 0.000000 0.000000 
#    y 0.000000 1.757790 0.000000 
#    z 0.000000 0.000000 1.761080 
# 
# From -- ./inp_files/3734.got.cif
#   From: 2010.05.17/outbox.cif.g08.bks.cpg/sg54_2_cif.got.tgz:3734.got - 2010.06.03 13:09:01.
