data_PCOD9421134
_publ_section_title
;
Structure prediction by ZEFSAII (Michael W. Deem and Ramdas Pophale) SiO2 
 PCOD9421134
Probable space group: P C C A
;
_chemical_formula_sum "Si O2"
_cell_formula_units_Z 32
_cell_length_a 16.862684
_cell_length_b 4.890160
_cell_length_c 19.265999
_cell_angle_alpha 90.000000
_cell_angle_beta 90.000000
_cell_angle_gamma 90.000000
_cell_volume 1588.697836
_symmetry_space_group_name_H-M "P C C A"
_symmetry_group_IT_number 54
_symmetry_cell_setting 'orthorhombic'
loop_
_space_group_symop_operation_xyz
x,y,z
1/2-x,-y,z
1/2+x,-y,1/2-z
-x,y,1/2-z
-x,-y,-z
1/2+x,y,-z
1/2-x,y,1/2+z
x,-y,1/2+z
loop_
_atom_site_type_symbol
_atom_site_label
_atom_site_fract_x
_atom_site_fract_y
_atom_site_fract_z
Si Si1 0.662025 0.116854 0.301014
Si Si2 0.458254 0.194195 0.917299
Si Si3 0.932588 0.303829 0.930518
Si Si4 0.411853 0.605769 0.270423
O O1 0.634258 0.233496 0.375131
O O2 0.648562 0.364179 0.247167
O O3 0.750000 0.000000 0.302157
O O4 0.606318 0.866968 0.277466
O O5 0.536141 0.387781 0.924635
O O6 0.412755 0.291582 0.849297
O O7 0.491354 0.887603 0.912305
O O8 0.412630 0.235743 0.989791
O O9 0.500000 0.503712 0.250000
#
# Coordination Sequence:
#
# PCOD9421134 Si02
#       4
#     8   8   8   8
#     4  12  24  38  59  89 129 163 200 254 323 373
#     4  10  20  33  61  86 116 146 208 256 293 349
#     4  10  19  36  55  89 115 153 197 255 302 359
#     4  12  21  38  62  91 119 163 210 260 300 368
#
# _framework density 20.142284
#
# number of rings (size 3 to 8) (size 9 to 14) (size 15 to 20)
#    0.000    1.000    5.000    3.000    0.000    0.000 
#    0.000    1.250    0.000    9.000    0.000    0.000 
#    0.000    0.000    0.000    0.000    0.000    0.000 
#
# Total GULP energy -178916.994398 kJ/mol
# GULP energy per Si atom -5591.156075 kJ/mol
# Density = 2.009644 g / cm^3
# Si number density = 20.142284 Si / 1000 Ang^3
#
#
#
# Elastic Constant Matrix: (Units=GPa)
#
#
# Indices 1 2 3 4 5 6 
#
# 1 53.5112 6.1576 45.4432 0.0000 0.0000 0.0000
# 2 6.1576 76.7482 11.1398 0.0000 0.0000 0.0000
# 3 45.4432 11.1398 155.3965 0.0000 0.0000 0.0000
# 4 0.0000 0.0000 0.0000 29.6171 0.0000 0.0000
# 5 0.0000 0.0000 0.0000 0.0000 16.8120 0.0000
# 6 0.0000 0.0000 0.0000 0.0000 0.0000 32.3008
#
#
#
# Elastic Compliance Matrix: (Units=1/GPa)
#
#
# Indices 1 2 3 4 5 6 
#
# 1 0.024931 -0.000952 -0.007222 0.000000 0.000000 0.000000
# 2 -0.000952 0.013203 -0.000668 0.000000 0.000000 0.000000
# 3 -0.007222 -0.000668 0.008595 0.000000 0.000000 0.000000
# 4 0.000000 0.000000 0.000000 0.033764 0.000000 0.000000
# 5 0.000000 0.000000 0.000000 0.000000 0.059481 0.000000
# 6 0.000000 0.000000 0.000000 0.000000 0.000000 0.030959
#
#
# Mechanical properties :
#
#
# Convention : Reuss Voigt Hill
#
# Bulk Modulus (GPa) = 34.43050 45.68188 40.05619
# Shear Modulus (GPa) = 25.21441 30.60700 27.91071
#
# Velocity S-wave (km/s) = 3.54194 3.90236 3.72651
# Velocity P-wave (km/s) = 5.81875 6.55998 6.20045
#
# Compressibility (1/GPa) = 0.02904402
#
# Stress axis : x y z
#
# Youngs Moduli (GPa) = 40.11135 75.74055 116.34546
#
# Poissons Ratio (x) = 0.07210 0.84028
# Poissons Ratio (y) = 0.03818 0.07773
# Poissons Ratio (z) = 0.28970 0.05060
#
# Static dielectric constant tensor:
#      x y z
#    x 1.710020 0.000000 0.000000 
#    y 0.000000 1.712110 0.000000 
#    z 0.000000 0.000000 1.752070 
# 
# From -- ./inp_files/21731.got.cif
#   From: 2010.05.17/outbox.cif.g08.bks.cpg/sg54_11_cif.got.tgz:21731.got - 2010.06.03 13:09:01.
