data_PCOD9421140
_publ_section_title
;
Structure prediction by ZEFSAII (Michael W. Deem and Ramdas Pophale) SiO2 
 PCOD9421140
Probable space group: P C C A
;
_chemical_formula_sum "Si O2"
_cell_formula_units_Z 40
_cell_length_a 16.522334
_cell_length_b 11.356276
_cell_length_c 9.948104
_cell_angle_alpha 90.000000
_cell_angle_beta 90.000000
_cell_angle_gamma 90.000000
_cell_volume 1866.584491
_symmetry_space_group_name_H-M "P C C A"
_symmetry_group_IT_number 54
_symmetry_cell_setting 'orthorhombic'
loop_
_space_group_symop_operation_xyz
x,y,z
1/2-x,-y,z
1/2+x,-y,1/2-z
-x,y,1/2-z
-x,-y,-z
1/2+x,y,-z
1/2-x,y,1/2+z
x,-y,1/2+z
loop_
_atom_site_type_symbol
_atom_site_label
_atom_site_fract_x
_atom_site_fract_y
_atom_site_fract_z
Si Si1 0.585911 0.090080 0.322232
Si Si2 0.891971 0.821179 0.846273
Si Si3 0.547244 0.733874 0.059310
Si Si4 0.695692 0.384817 0.493215
Si Si5 0.223857 0.751970 0.262350
O O1 0.500000 0.089233 0.250000
O O2 0.578283 0.180361 0.443893
O O3 0.657686 0.143797 0.229987
O O4 0.599578 0.958784 0.376188
O O5 0.925539 0.795167 0.697034
O O6 0.798373 0.794504 0.830110
O O7 0.949495 0.738817 0.938567
O O8 0.601741 0.616760 0.043678
O O9 0.750000 0.500000 0.505660
O O10 0.691175 0.351867 0.334730
O O11 0.740458 0.293536 0.596624
#
# Coordination Sequence:
#
# PCOD9421140 Si02
#       5
#     8   8   8   8   8
#     4  11  21  33  56  86 123 152 185 234 292 348
#     4  10  19  36  57  83 120 157 185 231 287 359
#     4   9  20  35  55  85 113 153 195 231 287 349
#     4  10  21  41  61  81 113 152 198 250 294 331
#     4  10  23  36  60  87 115 151 198 240 290 353
#
# _framework density 21.429514999999999
#
# number of rings (size 3 to 8) (size 9 to 14) (size 15 to 20)
#    0.000    2.000    2.000    1.800    2.800    0.000 
#    0.000    7.000    8.800    0.000    0.000    0.000 
#    0.000    0.000    0.000    0.000    0.000    0.000 
#
# Total GULP energy -222789.338138 kJ/mol
# GULP energy per Si atom -5569.733453 kJ/mol
# Density = 2.138074 g / cm^3
# Si number density = 21.429515 Si / 1000 Ang^3
#
#
#
# Elastic Constant Matrix: (Units=GPa)
#
#
# Indices 1 2 3 4 5 6 
#
# 1 100.9347 30.0724 -19.6722 0.0000 0.0000 0.0000
# 2 30.0724 54.8074 -8.8277 0.0000 0.0000 0.0000
# 3 -19.6722 -8.8277 51.0477 0.0000 0.0000 0.0000
# 4 0.0000 0.0000 0.0000 3.5450 0.0000 0.0000
# 5 0.0000 0.0000 0.0000 0.0000 20.3120 0.0000
# 6 0.0000 0.0000 0.0000 0.0000 0.0000 7.9153
#
#
#
# Elastic Compliance Matrix: (Units=1/GPa)
#
#
# Indices 1 2 3 4 5 6 
#
# 1 0.012499 -0.006257 0.003735 0.000000 0.000000 0.000000
# 2 -0.006257 0.021900 0.001376 0.000000 0.000000 0.000000
# 3 0.003735 0.001376 0.021267 0.000000 0.000000 0.000000
# 4 0.000000 0.000000 0.000000 0.282089 0.000000 0.000000
# 5 0.000000 0.000000 0.000000 0.000000 0.049232 0.000000
# 6 0.000000 0.000000 0.000000 0.000000 0.000000 0.126337
#
#
# Mechanical properties :
#
#
# Convention : Reuss Voigt Hill
#
# Bulk Modulus (GPa) = 18.73531 23.32607 21.03069
# Shear Modulus (GPa) = 9.37369 20.03562 14.70465
#
# Velocity S-wave (km/s) = 2.09373 3.06102 2.62236
# Velocity P-wave (km/s) = 3.82187 4.83754 4.35938
#
# Compressibility (1/GPa) = 0.05337516
#
# Stress axis : x y z
#
# Youngs Moduli (GPa) = 80.00330 45.66122 47.02161
#
# Poissons Ratio (x) = 0.28569 -0.17562
# Poissons Ratio (y) = 0.50056 -0.06471
# Poissons Ratio (z) = -0.29881 -0.06283
#
# Static dielectric constant tensor:
#      x y z
#    x 1.898410 0.000000 0.000000 
#    y 0.000000 1.936040 0.000000 
#    z 0.000000 0.000000 1.786390 
# 
# From -- ./inp_files/8196.got.cif
#   From: 2010.05.17/outbox.cif.g08.bks.cpg/sg54_5_cif.got.tgz:8196.got - 2010.06.03 13:09:01.
