data_PCOD9421530
_publ_section_title
;
Structure prediction by ZEFSAII (Michael W. Deem and Ramdas Pophale) SiO2 
 PCOD9421530
Probable space group: P C C A
;
_chemical_formula_sum "Si O2"
_cell_formula_units_Z 36
_cell_length_a 7.057107
_cell_length_b 14.027696
_cell_length_c 16.394392
_cell_angle_alpha 90.000000
_cell_angle_beta 90.000000
_cell_angle_gamma 90.000000
_cell_volume 1622.962043
_symmetry_space_group_name_H-M "P C C A"
_symmetry_group_IT_number 54
_symmetry_cell_setting 'orthorhombic'
loop_
_space_group_symop_operation_xyz
x,y,z
1/2-x,-y,z
1/2+x,-y,1/2-z
-x,y,1/2-z
-x,-y,-z
1/2+x,y,-z
1/2-x,y,1/2+z
x,-y,1/2+z
loop_
_atom_site_type_symbol
_atom_site_label
_atom_site_fract_x
_atom_site_fract_y
_atom_site_fract_z
Si Si1 0.500000 0.713028 0.750000
Si Si2 0.054755 0.830182 0.395908
Si Si3 0.653433 0.404085 0.822629
Si Si4 0.619926 0.777378 0.423314
Si Si5 0.968442 0.031773 0.347121
O O1 0.614157 0.779877 0.687127
O O2 0.662245 0.647112 0.786106
O O3 0.125422 0.784480 0.479262
O O4 0.830976 0.804709 0.395537
O O5 0.078047 0.943153 0.387728
O O6 0.750000 0.500000 0.858419
O O7 0.500000 0.422182 0.750000
O O8 0.571183 0.326289 0.886909
O O9 0.496842 0.865869 0.388726
O O10 0.000000 0.036728 0.250000
O O11 0.750000 0.000000 0.358882
#
# Coordination Sequence:
#
# PCOD9421530 Si02
#       5
#     4   8   8   8   8
#     4  10  22  42  66  92 126 174 216 264 322 396
#     4  10  21  39  60  90 130 167 209 260 326 382
#     4  11  23  43  68  95 126 166 221 269 330 387
#     4  10  23  37  60  94 126 162 217 265 321 389
#     4  10  20  36  58  91 126 168 214 257 315 396
#
# _framework density 22.181664999999999
#
# number of rings (size 3 to 8) (size 9 to 14) (size 15 to 20)
#    0.000    1.778    2.222    1.333    3.111    1.778 
#    0.000    5.556    0.000    0.000    0.000    0.000 
#    0.000    0.000    0.000    0.000    0.000    0.000 
#
# Total GULP energy -201010.027810 kJ/mol
# GULP energy per Si atom -5583.611884 kJ/mol
# Density = 2.213118 g / cm^3
# Si number density = 22.181665 Si / 1000 Ang^3
#
#
#
# Elastic Constant Matrix: (Units=GPa)
#
#
# Indices 1 2 3 4 5 6 
#
# 1 42.1066 19.9307 -12.4862 0.0000 0.0000 0.0000
# 2 19.9307 186.2353 73.5930 0.0000 0.0000 0.0000
# 3 -12.4862 73.5930 111.6963 0.0000 0.0000 0.0000
# 4 0.0000 0.0000 0.0000 -29.5939 0.0000 0.0000
# 5 0.0000 0.0000 0.0000 0.0000 6.4559 0.0000
# 6 0.0000 0.0000 0.0000 0.0000 0.0000 66.8575
#
#
#
# Elastic Compliance Matrix: (Units=1/GPa)
#
#
# Indices 1 2 3 4 5 6 
#
# 1 0.028608 -0.005848 0.007051 0.000000 0.000000 0.000000
# 2 -0.005848 0.008455 -0.006224 0.000000 0.000000 0.000000
# 3 0.007051 -0.006224 0.013842 0.000000 0.000000 0.000000
# 4 0.000000 0.000000 0.000000 -0.033791 0.000000 0.000000
# 5 0.000000 0.000000 0.000000 0.000000 0.154896 0.000000
# 6 0.000000 0.000000 0.000000 0.000000 0.000000 0.014957
#
#
# Mechanical properties :
#
#
# Convention : Reuss Voigt Hill
#
# Bulk Modulus (GPa) = 24.47221 55.79034 40.13128
# Shear Modulus (GPa) = 23.73816 26.01063 24.87440
#
# Velocity S-wave (km/s) = 3.27489 3.42807 3.35236
# Velocity P-wave (km/s) = 5.03552 6.39336 5.75463
#
# Compressibility (1/GPa) = 0.04086267
#
# Stress axis : x y z
#
# Youngs Moduli (GPa) = 34.95506 118.27242 72.24303
#
# Poissons Ratio (x) = 0.69165 -0.50939
# Poissons Ratio (y) = 0.20441 0.44968
# Poissons Ratio (z) = -0.24647 0.73618
#
# Static dielectric constant tensor:
#      x y z
#    x 1.893220 0.000000 0.000000 
#    y 0.000000 1.847230 0.000000 
#    z 0.000000 0.000000 2.552880 
# 
# From -- ./inp_files/11412.got.cif
#   From: 2010.05.17/outbox.cif.g08.bks.cpg/sg54_6_cif.got.tgz:11412.got - 2010.06.03 13:09:01.
