data_PCOD9421161
_publ_section_title
;
Structure prediction by ZEFSAII (Michael W. Deem and Ramdas Pophale) SiO2 
 PCOD9421161
Probable space group: P C C A
;
_chemical_formula_sum "Si O2"
_cell_formula_units_Z 32
_cell_length_a 15.985066
_cell_length_b 8.172782
_cell_length_c 10.388302
_cell_angle_alpha 90.000000
_cell_angle_beta 90.000000
_cell_angle_gamma 90.000000
_cell_volume 1357.153325
_symmetry_space_group_name_H-M "P C C A"
_symmetry_group_IT_number 54
_symmetry_cell_setting 'orthorhombic'
loop_
_space_group_symop_operation_xyz
x,y,z
1/2-x,-y,z
1/2+x,-y,1/2-z
-x,y,1/2-z
-x,-y,-z
1/2+x,y,-z
1/2-x,y,1/2+z
x,-y,1/2+z
loop_
_atom_site_type_symbol
_atom_site_label
_atom_site_fract_x
_atom_site_fract_y
_atom_site_fract_z
Si Si1 0.153755 0.057463 0.087007
Si Si2 0.374661 0.839515 0.819762
Si Si3 0.204570 0.331596 0.266678
Si Si4 0.447911 0.486023 0.870198
O O1 0.160677 0.239077 0.148276
O O2 0.250000 0.000000 0.073049
O O3 0.109989 0.941568 0.191411
O O4 0.110760 0.059834 0.949230
O O5 0.276068 0.789349 0.817773
O O6 0.421209 0.668318 0.828774
O O7 0.250000 0.500000 0.225299
O O8 0.137092 0.380245 0.374793
O O9 0.500000 0.417339 0.750000
O O10 0.500000 0.500000 0.000000
#
# Coordination Sequence:
#
# PCOD9421161 Si02
#       4
#     8   8   8   8
#     4  10  19  36  61  92 119 150 198 252 299 354
#     4  10  22  39  63  90 121 158 201 249 302 361
#     4   9  20  37  62  90 118 155 201 251 301 356
#     4  11  24  42  61  88 123 161 203 250 303 361
#
# _framework density 23.578764
#
# number of rings (size 3 to 8) (size 9 to 14) (size 15 to 20)
#    0.000    2.000    0.000    3.750    0.000   11.000 
#    0.000    6.250    0.000    0.000    0.000    0.000 
#    0.000    0.000    0.000    0.000    0.000    0.000 
#
# Total GULP energy -179095.845692 kJ/mol
# GULP energy per Si atom -5596.745178 kJ/mol
# Density = 2.352510 g / cm^3
# Si number density = 23.578764 Si / 1000 Ang^3
#
#
#
# Elastic Constant Matrix: (Units=GPa)
#
#
# Indices 1 2 3 4 5 6 
#
# 1 64.4298 6.1111 28.0367 0.0000 0.0000 0.0000
# 2 6.1111 75.5532 15.2090 0.0000 0.0000 0.0000
# 3 28.0367 15.2090 112.7074 0.0000 0.0000 0.0000
# 4 0.0000 0.0000 0.0000 30.9259 0.0000 0.0000
# 5 0.0000 0.0000 0.0000 0.0000 13.2031 0.0000
# 6 0.0000 0.0000 0.0000 0.0000 0.0000 17.7700
#
#
#
# Elastic Compliance Matrix: (Units=1/GPa)
#
#
# Indices 1 2 3 4 5 6 
#
# 1 0.017427 -0.000552 -0.004261 0.000000 0.000000 0.000000
# 2 -0.000552 0.013623 -0.001701 0.000000 0.000000 0.000000
# 3 -0.004261 -0.001701 0.010162 0.000000 0.000000 0.000000
# 4 0.000000 0.000000 0.000000 0.032335 0.000000 0.000000
# 5 0.000000 0.000000 0.000000 0.000000 0.075740 0.000000
# 6 0.000000 0.000000 0.000000 0.000000 0.000000 0.056275
#
#
# Mechanical properties :
#
#
# Convention : Reuss Voigt Hill
#
# Bulk Modulus (GPa) = 35.48019 39.04489 37.26254
# Shear Modulus (GPa) = 21.93138 25.93536 23.93337
#
# Velocity S-wave (km/s) = 3.05312 3.32014 3.18942
# Velocity P-wave (km/s) = 5.24489 5.59402 5.42227
#
# Compressibility (1/GPa) = 0.02818474
#
# Stress axis : x y z
#
# Youngs Moduli (GPa) = 57.38175 73.40655 98.40651
#
# Poissons Ratio (x) = 0.04051 0.41928
# Poissons Ratio (y) = 0.03167 0.16739
# Poissons Ratio (z) = 0.24448 0.12486
#
# Static dielectric constant tensor:
#      x y z
#    x 3.446230 0.000000 0.000000 
#    y 0.000000 1.932700 0.000000 
#    z 0.000000 0.000000 1.869250 
# 
# From -- ./inp_files/7939.got.cif
#   From: 2010.05.17/outbox.cif.g08.bks.cpg/sg54_4_cif.got.tgz:7939.got - 2010.06.03 13:09:01.
