data_PCOD9421453
_publ_section_title
;
Structure prediction by ZEFSAII (Michael W. Deem and Ramdas Pophale) SiO2 
 PCOD9421453
Probable space group: P C C A
;
_chemical_formula_sum "Si O2"
_cell_formula_units_Z 64
_cell_length_a 13.824852
_cell_length_b 23.852925
_cell_length_c 7.922783
_cell_angle_alpha 90.000000
_cell_angle_beta 90.000000
_cell_angle_gamma 90.000000
_cell_volume 2612.641941
_symmetry_space_group_name_H-M "P C C A"
_symmetry_group_IT_number 54
_symmetry_cell_setting 'orthorhombic'
loop_
_space_group_symop_operation_xyz
x,y,z
1/2-x,-y,z
1/2+x,-y,1/2-z
-x,y,1/2-z
-x,-y,-z
1/2+x,y,-z
1/2-x,y,1/2+z
x,-y,1/2+z
loop_
_atom_site_type_symbol
_atom_site_label
_atom_site_fract_x
_atom_site_fract_y
_atom_site_fract_z
Si Si1 0.727731 0.936473 0.195692
Si Si2 0.384539 0.119875 0.107840
Si Si3 0.568266 0.893273 0.417159
Si Si4 0.567619 0.234772 0.918351
Si Si5 0.610792 0.460263 0.193720
Si Si6 0.314387 0.428276 0.678446
Si Si7 0.887001 0.745668 0.386578
Si Si8 0.786295 0.302201 0.220598
O O1 0.828670 0.908322 0.240583
O O2 0.655683 0.932741 0.358730
O O3 0.750000 0.000000 0.150949
O O4 0.676218 0.899093 0.055784
O O5 0.491073 0.097003 0.065562
O O6 0.379394 0.186808 0.128375
O O7 0.500000 0.892785 0.250000
O O8 0.600544 0.829069 0.446447
O O9 0.500000 0.233227 0.750000
O O10 0.500322 0.259346 0.066183
O O11 0.658619 0.270632 0.870531
O O12 0.500000 0.447700 0.250000
O O13 0.628507 0.527454 0.203407
O O14 0.698594 0.441278 0.317963
O O15 0.639867 0.436028 0.008946
O O16 0.315770 0.366494 0.755368
O O17 0.826454 0.712460 0.245340
O O18 0.832928 0.723183 0.553765
#
# Coordination Sequence:
#
# PCOD9421453 Si02
#       8
#     8   8   8   8   8   8   8   8
#     4  11  21  34  54  79 106 142 193 243 285 338
#     4  10  20  37  57  77 109 149 186 230 291 360
#     4   8  16  33  54  74 106 147 180 219 281 354
#     4   8  16  32  54  79 107 147 187 218 278 364
#     4  11  24  44  66  90 129 175 213 259 318 376
#     4  11  24  41  63  93 125 164 217 262 308 377
#     4  10  20  35  58  84 112 149 187 232 298 361
#     4  11  21  36  59  89 118 143 190 253 291 339
#
# _framework density 24.496276999999999
#
# number of rings (size 3 to 8) (size 9 to 14) (size 15 to 20)
#    0.000    2.000    0.000    6.750    0.000    3.000 
#    0.000    2.500    0.000    4.500    0.000    0.000 
#    0.000    0.000    0.000    0.000    0.000    0.000 
#
# Total GULP energy -357811.002118 kJ/mol
# GULP energy per Si atom -5590.796908 kJ/mol
# Density = 2.444052 g / cm^3
# Si number density = 24.496277 Si / 1000 Ang^3
#
#
#
# Elastic Constant Matrix: (Units=GPa)
#
#
# Indices 1 2 3 4 5 6 
#
# 1 111.1206 46.4011 6.6372 0.0000 0.0000 0.0000
# 2 46.4011 58.2223 13.3805 0.0000 0.0000 0.0000
# 3 6.6372 13.3805 80.9840 0.0000 0.0000 0.0000
# 4 0.0000 0.0000 0.0000 96.6562 0.0000 0.0000
# 5 0.0000 0.0000 0.0000 0.0000 39.4583 0.0000
# 6 0.0000 0.0000 0.0000 0.0000 0.0000 195.9217
#
#
#
# Elastic Compliance Matrix: (Units=1/GPa)
#
#
# Indices 1 2 3 4 5 6 
#
# 1 0.013526 -0.010940 0.000699 0.000000 0.000000 0.000000
# 2 -0.010940 0.026702 -0.003515 0.000000 0.000000 0.000000
# 3 0.000699 -0.003515 0.012872 0.000000 0.000000 0.000000
# 4 0.000000 0.000000 0.000000 0.010346 0.000000 0.000000
# 5 0.000000 0.000000 0.000000 0.000000 0.025343 0.000000
# 6 0.000000 0.000000 0.000000 0.000000 0.000000 0.005104
#
#
# Mechanical properties :
#
#
# Convention : Reuss Voigt Hill
#
# Bulk Modulus (GPa) = 39.08241 42.57385 40.82813
# Shear Modulus (GPa) = 38.48074 78.66777 58.57425
#
# Velocity S-wave (km/s) = 3.96773 5.67308 4.89524
# Velocity P-wave (km/s) = 6.08109 7.76719 6.97528
#
# Compressibility (1/GPa) = 0.02558696
#
# Stress axis : x y z
#
# Youngs Moduli (GPa) = 73.93241 37.44975 77.69027
#
# Poissons Ratio (x) = 0.40971 -0.05431
# Poissons Ratio (y) = 0.80884 0.27310
# Poissons Ratio (z) = -0.05168 0.13165
#
# Static dielectric constant tensor:
#      x y z
#    x 1.920760 0.000000 0.000000 
#    y 0.000000 1.920290 0.000000 
#    z 0.000000 0.000000 2.076770 
# 
# From -- ./inp_files/3738.got.cif
#   From: 2010.05.17/outbox.cif.g08.bks.cpg/sg54_2_cif.got.tgz:3738.got - 2010.06.03 13:09:01.
