data_PCOD9421492
_publ_section_title
;
Structure prediction by ZEFSAII (Michael W. Deem and Ramdas Pophale) SiO2 
 PCOD9421492
Probable space group: P C C A
;
_chemical_formula_sum "Si O2"
_cell_formula_units_Z 40
_cell_length_a 22.960230
_cell_length_b 7.560224
_cell_length_c 9.599006
_cell_angle_alpha 90.000000
_cell_angle_beta 90.000000
_cell_angle_gamma 90.000000
_cell_volume 1666.238483
_symmetry_space_group_name_H-M "P C C A"
_symmetry_group_IT_number 54
_symmetry_cell_setting 'orthorhombic'
loop_
_space_group_symop_operation_xyz
x,y,z
1/2-x,-y,z
1/2+x,-y,1/2-z
-x,y,1/2-z
-x,-y,-z
1/2+x,y,-z
1/2-x,y,1/2+z
x,-y,1/2+z
loop_
_atom_site_type_symbol
_atom_site_label
_atom_site_fract_x
_atom_site_fract_y
_atom_site_fract_z
Si Si1 0.689101 0.097053 0.433776
Si Si2 0.377012 0.405996 0.147653
Si Si3 0.975237 0.802633 0.532912
Si Si4 0.094759 0.673298 0.440366
Si Si5 0.620519 0.943600 0.195936
O O1 0.680582 0.283678 0.355840
O O2 0.750000 0.000000 0.425610
O O3 0.670378 0.128446 0.593276
O O4 0.643121 0.972312 0.350325
O O5 0.399768 0.445731 0.301621
O O6 0.366600 0.579348 0.056447
O O7 0.426938 0.282424 0.072325
O O8 0.031623 0.683492 0.511365
O O9 0.938536 0.834426 0.673997
O O10 0.000000 0.000000 0.500000
O O11 0.108786 0.863073 0.372762
#
# Coordination Sequence:
#
# PCOD9421492 Si02
#       5
#     8   8   8   8   8
#     4  10  20  38  61  84 110 148 199 251 291 338
#     4  10  21  36  56  86 118 152 195 238 293 358
#     4   9  18  34  55  81 115 155 194 237 285 343
#     4  10  20  36  55  83 122 155 188 236 294 361
#     4   9  20  36  58  84 112 148 197 242 289 350
#
# _framework density 24.006167999999999
#
# number of rings (size 3 to 8) (size 9 to 14) (size 15 to 20)
#    0.000    2.400    0.000    1.800    0.000    4.800 
#    0.000   16.000    0.000    4.800    0.000    0.000 
#    0.000    0.000    0.000    0.000    0.000    0.000 
#
# Total GULP energy -223188.964332 kJ/mol
# GULP energy per Si atom -5579.724108 kJ/mol
# Density = 2.395153 g / cm^3
# Si number density = 24.006168 Si / 1000 Ang^3
#
#
#
# Elastic Constant Matrix: (Units=GPa)
#
#
# Indices 1 2 3 4 5 6 
#
# 1 75.9033 13.5216 -1.0892 0.0000 0.0000 0.0000
# 2 13.5216 103.5418 4.8092 0.0000 0.0000 0.0000
# 3 -1.0892 4.8092 102.4366 0.0000 0.0000 0.0000
# 4 0.0000 0.0000 0.0000 36.3864 0.0000 0.0000
# 5 0.0000 0.0000 0.0000 0.0000 18.6768 0.0000
# 6 0.0000 0.0000 0.0000 0.0000 0.0000 23.9468
#
#
#
# Elastic Compliance Matrix: (Units=1/GPa)
#
#
# Indices 1 2 3 4 5 6 
#
# 1 0.013494 -0.001773 0.000227 0.000000 0.000000 0.000000
# 2 -0.001773 0.009912 -0.000484 0.000000 0.000000 0.000000
# 3 0.000227 -0.000484 0.009787 0.000000 0.000000 0.000000
# 4 0.000000 0.000000 0.000000 0.027483 0.000000 0.000000
# 5 0.000000 0.000000 0.000000 0.000000 0.053542 0.000000
# 6 0.000000 0.000000 0.000000 0.000000 0.000000 0.041759
#
#
# Mechanical properties :
#
#
# Convention : Reuss Voigt Hill
#
# Bulk Modulus (GPa) = 34.32588 35.15166 34.73877
# Shear Modulus (GPa) = 29.45534 33.44467 31.45001
#
# Velocity S-wave (km/s) = 3.50664 3.73657 3.62343
# Velocity P-wave (km/s) = 5.54303 5.76979 5.65755
#
# Compressibility (1/GPa) = 0.02913254
#
# Stress axis : x y z
#
# Youngs Moduli (GPa) = 74.10870 100.88862 102.17348
#
# Poissons Ratio (x) = 0.17884 -0.02316
# Poissons Ratio (y) = 0.13137 0.04947
# Poissons Ratio (z) = -0.01680 0.04885
#
# Static dielectric constant tensor:
#      x y z
#    x 1.905000 0.000000 0.000000 
#    y 0.000000 2.005420 0.000000 
#    z 0.000000 0.000000 1.922660 
# 
# From -- ./inp_files/5018.got.cif
#   From: 2010.05.17/outbox.cif.g08.bks.cpg/sg54_3_cif.got.tgz:5018.got - 2010.06.03 13:09:01.
