data_PCOD9421153
_publ_section_title
;
Structure prediction by ZEFSAII (Michael W. Deem and Ramdas Pophale) SiO2 
 PCOD9421153
Probable space group: P C C A
;
_chemical_formula_sum "Si O2"
_cell_formula_units_Z 40
_cell_length_a 5.160215
_cell_length_b 27.608391
_cell_length_c 14.101663
_cell_angle_alpha 90.000000
_cell_angle_beta 90.000000
_cell_angle_gamma 90.000000
_cell_volume 2008.996710
_symmetry_space_group_name_H-M "P C C A"
_symmetry_group_IT_number 54
_symmetry_cell_setting 'orthorhombic'
loop_
_space_group_symop_operation_xyz
x,y,z
1/2-x,-y,z
1/2+x,-y,1/2-z
-x,y,1/2-z
-x,-y,-z
1/2+x,y,-z
1/2-x,y,1/2+z
x,-y,1/2+z
loop_
_atom_site_type_symbol
_atom_site_label
_atom_site_fract_x
_atom_site_fract_y
_atom_site_fract_z
Si Si1 0.250000 0.000000 0.434735
Si Si2 0.907902 0.294032 0.062704
Si Si3 0.261024 0.805677 0.436010
Si Si4 0.748434 0.902156 0.185482
Si Si5 0.000000 0.467941 0.250000
Si Si6 0.366053 0.403471 0.932772
O O1 0.232028 0.951173 0.374247
O O2 0.500000 0.000000 0.500000
O O3 0.828213 0.244992 0.117274
O O4 0.869410 0.347517 0.103392
O O5 0.702535 0.292089 0.974695
O O6 0.474000 0.805776 0.520109
O O7 0.289249 0.854281 0.377051
O O8 0.500000 0.907731 0.250000
O O9 0.000000 0.896081 0.250000
O O10 0.250000 0.500000 0.223445
O O11 0.913970 0.436967 0.158040
O O12 0.097683 0.410485 0.990302
#
# Coordination Sequence:
#
# PCOD9421153 Si02
#       6
#     4   8   8   8   4   8
#     4  12  24  42  64  84 106 156 208 238 286 354
#     4   8  16  32  58  83 109 148 193 236 286 343
#     4  10  19  36  60  84 113 153 196 237 281 352
#     4  12  24  39  57  86 124 150 186 244 302 347
#     4  12  26  40  60  92 124 158 210 256 304 372
#     4  10  21  40  63  87 121 162 202 252 310 361
#
# _framework density 19.910437000000002
#
# number of rings (size 3 to 8) (size 9 to 14) (size 15 to 20)
#    0.000    1.600    0.000    5.400    0.000    2.400 
#    1.800    0.000    2.200    0.000    0.000    0.000 
#    0.000    0.000    0.000    0.000    0.000    0.000 
#
# Total GULP energy -223278.604587 kJ/mol
# GULP energy per Si atom -5581.965115 kJ/mol
# Density = 1.986512 g / cm^3
# Si number density = 19.910437 Si / 1000 Ang^3
#
#
#
# Elastic Constant Matrix: (Units=GPa)
#
#
# Indices 1 2 3 4 5 6 
#
# 1 125.0878 24.8506 18.6530 0.0000 0.0000 0.0000
# 2 24.8506 170.6539 56.5548 0.0000 0.0000 0.0000
# 3 18.6530 56.5548 46.8388 0.0000 0.0000 0.0000
# 4 0.0000 0.0000 0.0000 71.8572 0.0000 0.0000
# 5 0.0000 0.0000 0.0000 0.0000 34.8097 0.0000
# 6 0.0000 0.0000 0.0000 0.0000 0.0000 33.4686
#
#
#
# Elastic Compliance Matrix: (Units=1/GPa)
#
#
# Indices 1 2 3 4 5 6 
#
# 1 0.008503 -0.000193 -0.003153 0.000000 0.000000 0.000000
# 2 -0.000193 0.009773 -0.011723 0.000000 0.000000 0.000000
# 3 -0.003153 -0.011723 0.036761 0.000000 0.000000 0.000000
# 4 0.000000 0.000000 0.000000 0.013916 0.000000 0.000000
# 5 0.000000 0.000000 0.000000 0.000000 0.028728 0.000000
# 6 0.000000 0.000000 0.000000 0.000000 0.000000 0.029879
#
#
# Mechanical properties :
#
#
# Convention : Reuss Voigt Hill
#
# Bulk Modulus (GPa) = 40.16434 60.29969 50.23202
# Shear Modulus (GPa) = 30.12091 44.19523 37.15807
#
# Velocity S-wave (km/s) = 3.89372 4.71648 4.32471
# Velocity P-wave (km/s) = 6.35854 7.74671 7.08670
#
# Compressibility (1/GPa) = 0.02489771
#
# Stress axis : x y z
#
# Youngs Moduli (GPa) = 117.60649 102.32155 27.20307
#
# Poissons Ratio (x) = 0.01979 0.08576
# Poissons Ratio (y) = 0.02275 0.31891
# Poissons Ratio (z) = 0.37077 1.19955
#
# Static dielectric constant tensor:
#      x y z
#    x 1.670200 0.000000 0.000000 
#    y 0.000000 2.161400 0.000000 
#    z 0.000000 0.000000 1.659000 
# 
# From -- ./inp_files/6472.got.cif
#   From: 2010.05.17/outbox.cif.g08.bks.cpg/sg54_4_cif.got.tgz:6472.got - 2010.06.03 13:09:01.
