data_PCOD9421050
_publ_section_title
;
Structure prediction by ZEFSAII (Michael W. Deem and Ramdas Pophale) SiO2 
 PCOD9421050
Probable space group: P C C A
;
_chemical_formula_sum "Si O2"
_cell_formula_units_Z 56
_cell_length_a 13.693363
_cell_length_b 20.815057
_cell_length_c 9.600611
_cell_angle_alpha 90.000000
_cell_angle_beta 90.000000
_cell_angle_gamma 90.000000
_cell_volume 2736.444213
_symmetry_space_group_name_H-M "P C C A"
_symmetry_group_IT_number 54
_symmetry_cell_setting 'orthorhombic'
loop_
_space_group_symop_operation_xyz
x,y,z
1/2-x,-y,z
1/2+x,-y,1/2-z
-x,y,1/2-z
-x,-y,-z
1/2+x,y,-z
1/2-x,y,1/2+z
x,-y,1/2+z
loop_
_atom_site_type_symbol
_atom_site_label
_atom_site_fract_x
_atom_site_fract_y
_atom_site_fract_z
Si Si1 0.688135 0.263735 0.667962
Si Si2 0.000000 0.030416 0.250000
Si Si3 0.785550 0.657220 0.391216
Si Si4 0.675333 0.946335 0.843902
Si Si5 0.413251 0.420031 0.547686
Si Si6 0.856087 0.468682 0.744960
Si Si7 0.500000 0.331490 0.750000
Si Si8 0.181148 0.887002 0.872815
O O1 0.682978 0.297488 0.517659
O O2 0.773265 0.297058 0.756913
O O3 0.592542 0.286507 0.749053
O O4 0.689180 0.187453 0.664705
O O5 0.918007 0.076403 0.178538
O O6 0.929309 0.981034 0.333347
O O7 0.683961 0.623966 0.440650
O O8 0.844576 0.595308 0.337873
O O9 0.725677 0.921828 0.700927
O O10 0.750000 0.000000 0.898639
O O11 0.678588 0.892270 0.960747
O O12 0.400084 0.476859 0.657963
O O13 0.413652 0.449027 0.393957
O O14 0.498521 0.376353 0.612552
O O15 0.750000 0.500000 0.702189
#
# Coordination Sequence:
#
# PCOD9421050 Si02
#       8
#     8   4   8   8   8   8   4   8
#     4  11  22  41  62  85 120 162 206 243 298 368
#     4  10  21  38  64  94 133 166 194 262 310 358
#     4  10  20  37  62  83 113 158 207 250 292 362
#     4  10  21  39  63  98 126 160 207 255 309 361
#     4  10  21  36  57  86 115 151 199 255 315 363
#     4  10  19  34  61  88 110 149 205 256 310 366
#     4  10  25  40  56  86 127 156 198 256 320 374
#     4  11  22  38  64  93 125 168 212 250 305 375
#
# _framework density 20.464514999999999
#
# number of rings (size 3 to 8) (size 9 to 14) (size 15 to 20)
#    0.000    1.714    1.429    4.286    4.000    1.714 
#    0.000    2.857    0.000    0.000    0.000    0.000 
#    0.000    0.000    0.000    0.000    0.000    0.000 
#
# Total GULP energy -312371.174979 kJ/mol
# GULP energy per Si atom -5578.056696 kJ/mol
# Density = 2.041794 g / cm^3
# Si number density = 20.464515 Si / 1000 Ang^3
#
#
#
# Elastic Constant Matrix: (Units=GPa)
#
#
# Indices 1 2 3 4 5 6 
#
# 1 48.9552 24.5955 -0.3365 0.0000 0.0000 0.0000
# 2 24.5955 141.8140 31.0554 0.0000 0.0000 0.0000
# 3 -0.3365 31.0554 87.1336 0.0000 0.0000 0.0000
# 4 0.0000 0.0000 0.0000 27.6078 0.0000 0.0000
# 5 0.0000 0.0000 0.0000 0.0000 10.9855 0.0000
# 6 0.0000 0.0000 0.0000 0.0000 0.0000 19.8209
#
#
#
# Elastic Compliance Matrix: (Units=1/GPa)
#
#
# Indices 1 2 3 4 5 6 
#
# 1 0.022583 -0.004269 0.001609 0.000000 0.000000 0.000000
# 2 -0.004269 0.008455 -0.003030 0.000000 0.000000 0.000000
# 3 0.001609 -0.003030 0.012563 0.000000 0.000000 0.000000
# 4 0.000000 0.000000 0.000000 0.036222 0.000000 0.000000
# 5 0.000000 0.000000 0.000000 0.000000 0.091029 0.000000
# 6 0.000000 0.000000 0.000000 0.000000 0.000000 0.050452
#
#
# Mechanical properties :
#
#
# Convention : Reuss Voigt Hill
#
# Bulk Modulus (GPa) = 31.03640 43.17018 37.10329
# Shear Modulus (GPa) = 20.54029 26.52208 23.53118
#
# Velocity S-wave (km/s) = 3.17156 3.60391 3.39463
# Velocity P-wave (km/s) = 5.34889 6.20149 5.79090
#
# Compressibility (1/GPa) = 0.03222024
#
# Stress axis : x y z
#
# Youngs Moduli (GPa) = 44.28184 118.26741 79.60012
#
# Poissons Ratio (x) = 0.50487 -0.12805
# Poissons Ratio (y) = 0.18903 0.24120
# Poissons Ratio (z) = -0.07124 0.35836
#
# Static dielectric constant tensor:
#      x y z
#    x 1.774240 0.000000 0.000000 
#    y 0.000000 1.681750 0.000000 
#    z 0.000000 0.000000 1.739030 
# 
# From -- ./inp_files/3719.got.cif
#   From: 2010.05.17/outbox.cif.g08.bks.cpg/sg54_2_cif.got.tgz:3719.got - 2010.06.03 13:09:01.
