data_PCOD9421498
_publ_section_title
;
Structure prediction by ZEFSAII (Michael W. Deem and Ramdas Pophale) SiO2 
 PCOD9421498
Probable space group: P C C A
;
_chemical_formula_sum "Si O2"
_cell_formula_units_Z 36
_cell_length_a 20.987869
_cell_length_b 6.490106
_cell_length_c 13.122756
_cell_angle_alpha 90.000000
_cell_angle_beta 90.000000
_cell_angle_gamma 90.000000
_cell_volume 1787.496453
_symmetry_space_group_name_H-M "P C C A"
_symmetry_group_IT_number 54
_symmetry_cell_setting 'orthorhombic'
loop_
_space_group_symop_operation_xyz
x,y,z
1/2-x,-y,z
1/2+x,-y,1/2-z
-x,y,1/2-z
-x,-y,-z
1/2+x,y,-z
1/2-x,y,1/2+z
x,-y,1/2+z
loop_
_atom_site_type_symbol
_atom_site_label
_atom_site_fract_x
_atom_site_fract_y
_atom_site_fract_z
Si Si1 0.041352 0.303665 0.470414
Si Si2 0.922538 0.052415 0.396058
Si Si3 0.359357 0.217983 0.805131
Si Si4 0.807922 0.123594 0.542013
Si Si5 0.750000 0.500000 0.664212
O O1 0.095927 0.336291 0.386562
O O2 0.000000 0.500000 0.500000
O O3 0.991267 0.148886 0.417596
O O4 0.070990 0.186129 0.568692
O O5 0.899427 0.115494 0.284825
O O6 0.869216 0.146872 0.471290
O O7 0.303326 0.374744 0.772968
O O8 0.327876 0.030737 0.867326
O O9 0.783640 0.333646 0.590911
O O10 0.750000 0.000000 0.487271
#
# Coordination Sequence:
#
# PCOD9421498 Si02
#       5
#     8   8   8   8   4
#     4  10  21  39  60  85 117 154 197 246 302 363
#     4  10  21  37  59  84 114 151 194 246 301 354
#     4  10  21  37  57  86 116 150 198 247 296 360
#     4   9  20  36  54  80 115 150 190 241 293 354
#     4  10  20  36  56  80 118 156 192 238 294 358
#
# _framework density 20.139900000000001
#
# number of rings (size 3 to 8) (size 9 to 14) (size 15 to 20)
#    0.000    2.222    0.000    2.000    0.000    5.333 
#    0.000    6.667    0.000    0.000    0.000    0.000 
#    0.000    0.000    0.000    0.000    0.000    0.000 
#
# Total GULP energy -200831.874987 kJ/mol
# GULP energy per Si atom -5578.663194 kJ/mol
# Density = 2.009406 g / cm^3
# Si number density = 20.139900 Si / 1000 Ang^3
#
#
#
# Elastic Constant Matrix: (Units=GPa)
#
#
# Indices 1 2 3 4 5 6 
#
# 1 93.8265 28.8872 26.4068 0.0000 0.0000 0.0000
# 2 28.8872 76.1074 42.8645 0.0000 0.0000 0.0000
# 3 26.4068 42.8645 62.7495 0.0000 0.0000 0.0000
# 4 0.0000 0.0000 0.0000 10.4484 0.0000 0.0000
# 5 0.0000 0.0000 0.0000 0.0000 26.0389 0.0000
# 6 0.0000 0.0000 0.0000 0.0000 0.0000 52.1167
#
#
#
# Elastic Compliance Matrix: (Units=1/GPa)
#
#
# Indices 1 2 3 4 5 6 
#
# 1 0.012469 -0.002889 -0.003274 0.000000 0.000000 0.000000
# 2 -0.002889 0.022025 -0.013829 0.000000 0.000000 0.000000
# 3 -0.003274 -0.013829 0.026761 0.000000 0.000000 0.000000
# 4 0.000000 0.000000 0.000000 0.095709 0.000000 0.000000
# 5 0.000000 0.000000 0.000000 0.000000 0.038404 0.000000
# 6 0.000000 0.000000 0.000000 0.000000 0.000000 0.019188
#
#
# Mechanical properties :
#
#
# Convention : Reuss Voigt Hill
#
# Bulk Modulus (GPa) = 47.01392 47.66671 47.34032
# Shear Modulus (GPa) = 19.11098 26.68910 22.90004
#
# Velocity S-wave (km/s) = 3.08378 3.64426 3.37567
# Velocity P-wave (km/s) = 6.00616 6.43636 6.22498
#
# Compressibility (1/GPa) = 0.02127030
#
# Stress axis : x y z
#
# Youngs Moduli (GPa) = 80.20037 45.40364 37.36761
#
# Poissons Ratio (x) = 0.13116 0.12234
# Poissons Ratio (y) = 0.23168 0.51678
# Poissons Ratio (z) = 0.26257 0.62791
#
# Static dielectric constant tensor:
#      x y z
#    x 1.770110 0.000000 0.000000 
#    y 0.000000 1.735010 0.000000 
#    z 0.000000 0.000000 1.682750 
# 
# From -- ./inp_files/9735.got.cif
#   From: 2010.05.17/outbox.cif.g08.bks.cpg/sg54_5_cif.got.tgz:9735.got - 2010.06.03 13:09:01.
