data_PCOD9421800
_publ_section_title
;
Structure prediction by ZEFSAII (Michael W. Deem and Ramdas Pophale) SiO2 
 PCOD9421800
Probable space group: P C C A
;
_chemical_formula_sum "Si O2"
_cell_formula_units_Z 56
_cell_length_a 8.067557
_cell_length_b 21.049061
_cell_length_c 14.177361
_cell_angle_alpha 90.000000
_cell_angle_beta 90.000000
_cell_angle_gamma 90.000000
_cell_volume 2407.521461
_symmetry_space_group_name_H-M "P C C A"
_symmetry_group_IT_number 54
_symmetry_cell_setting 'orthorhombic'
loop_
_space_group_symop_operation_xyz
x,y,z
1/2-x,-y,z
1/2+x,-y,1/2-z
-x,y,1/2-z
-x,-y,-z
1/2+x,y,-z
1/2-x,y,1/2+z
x,-y,1/2+z
loop_
_atom_site_type_symbol
_atom_site_label
_atom_site_fract_x
_atom_site_fract_y
_atom_site_fract_z
Si Si1 0.310544 0.567836 0.286218
Si Si2 0.796515 0.640570 0.377836
Si Si3 0.811645 0.137186 0.711095
Si Si4 0.015139 0.850774 0.477787
Si Si5 0.750000 0.000000 0.672294
Si Si6 0.500000 0.000000 0.000000
Si Si7 0.709832 0.786895 0.376086
Si Si8 0.907256 0.566892 0.028462
O O1 0.250000 0.500000 0.246698
O O2 0.500000 0.573659 0.250000
O O3 0.214482 0.622775 0.231626
O O4 0.745142 0.434133 0.105396
O O5 0.763670 0.714644 0.387848
O O6 0.659185 0.599596 0.434181
O O7 0.963599 0.613863 0.422231
O O8 0.838305 0.152174 0.600968
O O9 0.709585 0.189448 0.768565
O O10 0.000000 0.136645 0.750000
O O11 0.740403 0.066212 0.727806
O O12 0.049075 0.803442 0.563671
O O13 0.849020 0.831357 0.424228
O O14 0.004117 0.922678 0.513119
O O15 0.593863 0.992357 0.602645
O O16 0.000000 0.500000 0.000000
#
# Coordination Sequence:
#
# PCOD9421800 Si02
#       8
#     8   8   8   8   4   4   8   8
#     4  12  25  44  70 103 140 179 231 297 359 424
#     4  12  25  42  67  99 136 183 228 282 357 430
#     4   9  21  38  59  88 123 166 216 269 330 403
#     4  10  21  40  63  89 125 168 221 278 334 402
#     4  10  20  38  64  96 126 164 220 284 344 400
#     4  10  20  38  66  94 122 166 222 282 344 394
#     4  11  24  41  62  91 131 176 220 272 341 421
#     4  12  25  45  74 105 138 181 239 299 357 427
#
# _framework density 23.260435000000001
#
# number of rings (size 3 to 8) (size 9 to 14) (size 15 to 20)
#    0.000    1.143    0.000    7.714    0.000    8.000 
#    0.000    3.571    0.000    0.000    0.000    0.000 
#    0.000    0.000    0.000    0.000    0.000    0.000 
#
# Total GULP energy -311866.666184 kJ/mol
# GULP energy per Si atom -5569.047610 kJ/mol
# Density = 2.320749 g / cm^3
# Si number density = 23.260435 Si / 1000 Ang^3
#
#
#
# Elastic Constant Matrix: (Units=GPa)
#
#
# Indices 1 2 3 4 5 6 
#
# 1 65.2869 11.0945 27.6251 0.0000 0.0000 0.0000
# 2 11.0945 113.6208 43.1329 0.0000 0.0000 0.0000
# 3 27.6251 43.1329 113.8748 0.0000 0.0000 0.0000
# 4 0.0000 0.0000 0.0000 -96.4697 0.0000 0.0000
# 5 0.0000 0.0000 0.0000 0.0000 -3.2999 0.0000
# 6 0.0000 0.0000 0.0000 0.0000 0.0000 10.9734
#
#
#
# Elastic Compliance Matrix: (Units=1/GPa)
#
#
# Indices 1 2 3 4 5 6 
#
# 1 0.017070 -0.000111 -0.004099 0.000000 0.000000 0.000000
# 2 -0.000111 0.010280 -0.003867 0.000000 0.000000 0.000000
# 3 -0.004099 -0.003867 0.011241 0.000000 0.000000 0.000000
# 4 0.000000 0.000000 0.000000 -0.010366 0.000000 0.000000
# 5 0.000000 0.000000 0.000000 0.000000 -0.303036 0.000000
# 6 0.000000 0.000000 0.000000 0.000000 0.000000 0.091130
#
#
# Mechanical properties :
#
#
# Convention : Reuss Voigt Hill
#
# Bulk Modulus (GPa) = 44.56851 50.72082 47.64467
# Shear Modulus (GPa) = -31.24059 -3.69726 -17.46892
#
# Velocity S-wave (km/s) = -3.66878 -1.26212 -2.74344
# Velocity P-wave (km/s) = 1.12056 4.44174 3.23919
#
# Compressibility (1/GPa) = 0.02243737
#
# Stress axis : x y z
#
# Youngs Moduli (GPa) = 58.58118 97.27633 88.96237
#
# Poissons Ratio (x) = 0.01077 0.36467
# Poissons Ratio (y) = 0.00648 0.34401
# Poissons Ratio (z) = 0.24014 0.37616
#
# Static dielectric constant tensor:
#      x y z
#    x 1.935350 0.000000 0.000000 
#    y 0.000000 1.830040 0.000000 
#    z 0.000000 0.000000 1.908400 
# 
# From -- ./inp_files/11894.got.cif
#   From: 2010.05.17/outbox.cif.g08.bks.cpg/sg54_6_cif.got.tgz:11894.got - 2010.06.03 13:09:01.
