data_PCOD9421380
_publ_section_title
;
Structure prediction by ZEFSAII (Michael W. Deem and Ramdas Pophale) SiO2 
 PCOD9421380
Probable space group: P C C A
;
_chemical_formula_sum "Si O2"
_cell_formula_units_Z 60
_cell_length_a 24.223361
_cell_length_b 21.138730
_cell_length_c 5.348538
_cell_angle_alpha 90.000000
_cell_angle_beta 90.000000
_cell_angle_gamma 90.000000
_cell_volume 2738.724701
_symmetry_space_group_name_H-M "P C C A"
_symmetry_group_IT_number 54
_symmetry_cell_setting 'orthorhombic'
loop_
_space_group_symop_operation_xyz
x,y,z
1/2-x,-y,z
1/2+x,-y,1/2-z
-x,y,1/2-z
-x,-y,-z
1/2+x,y,-z
1/2-x,y,1/2+z
x,-y,1/2+z
loop_
_atom_site_type_symbol
_atom_site_label
_atom_site_fract_x
_atom_site_fract_y
_atom_site_fract_z
Si Si1 0.851577 0.746058 0.727560
Si Si2 0.316166 0.089389 0.353376
Si Si3 0.081455 0.965997 0.177269
Si Si4 0.565116 0.541410 0.752752
Si Si5 0.617411 0.674367 0.722715
Si Si6 0.500000 0.737211 0.750000
Si Si7 0.804074 0.863777 0.642940
Si Si8 0.547849 0.840210 0.092314
O O1 0.857559 0.704394 0.476624
O O2 0.798234 0.792077 0.736218
O O3 0.900938 0.800141 0.711613
O O4 0.855223 0.702834 0.972655
O O5 0.351363 0.035520 0.218841
O O6 0.337594 0.102526 0.632355
O O7 0.250338 0.092566 0.388927
O O8 0.324322 0.143421 0.142253
O O9 0.063162 0.991097 0.445928
O O10 0.066136 0.893988 0.105961
O O11 0.500000 0.562259 0.750000
O O12 0.572360 0.497049 0.510262
O O13 0.608281 0.599188 0.738313
O O14 0.554403 0.698192 0.703229
O O15 0.486917 0.783843 0.526672
O O16 0.500000 0.874181 0.250000
#
# Coordination Sequence:
#
# PCOD9421380 Si02
#       8
#     8   8   8   8   8   4   8   8
#     4  11  22  35  61  87 118 148 196 257 298 363
#     4  10  21  40  64  83 116 143 185 230 314 384
#     4  12  28  44  63  85 113 147 203 251 292 383
#     4  10  20  34  52  76 121 174 214 252 285 327
#     4  11  21  35  55  89 118 155 212 250 283 343
#     4  10  22  36  56  84 108 150 204 254 288 358
#     4  10  20  38  63  90 110 152 179 231 319 375
#     4  11  24  40  63  82 116 156 203 249 323 352
#
# _framework density 21.908006
#
# number of rings (size 3 to 8) (size 9 to 14) (size 15 to 20)
#    0.000    1.333    3.333    2.400    3.733    0.533 
#    0.000    8.000    0.000    0.000    0.000    0.000 
#    0.000    0.000    0.000  168.000    0.000    0.800 
#
# Total GULP energy -334097.261974 kJ/mol
# GULP energy per Si atom -5568.287700 kJ/mol
# Density = 2.185814 g / cm^3
# Si number density = 21.908006 Si / 1000 Ang^3
#
#
#
# Elastic Constant Matrix: (Units=GPa)
#
#
# Indices 1 2 3 4 5 6 
#
# 1 38.7442 9.6080 17.2118 0.0000 0.0000 0.0000
# 2 9.6080 106.9660 46.8558 0.0000 0.0000 0.0000
# 3 17.2118 46.8558 131.2840 0.0000 0.0000 0.0000
# 4 0.0000 0.0000 0.0000 26.9334 0.0000 0.0000
# 5 0.0000 0.0000 0.0000 0.0000 15.4289 0.0000
# 6 0.0000 0.0000 0.0000 0.0000 0.0000 24.9003
#
#
#
# Elastic Compliance Matrix: (Units=1/GPa)
#
#
# Indices 1 2 3 4 5 6 
#
# 1 0.027507 -0.001056 -0.003229 0.000000 0.000000 0.000000
# 2 -0.001056 0.011122 -0.003831 0.000000 0.000000 0.000000
# 3 -0.003229 -0.003831 0.009408 0.000000 0.000000 0.000000
# 4 0.000000 0.000000 0.000000 0.037129 0.000000 0.000000
# 5 0.000000 0.000000 0.000000 0.000000 0.064813 0.000000
# 6 0.000000 0.000000 0.000000 0.000000 0.000000 0.040160
#
#
# Mechanical properties :
#
#
# Convention : Reuss Voigt Hill
#
# Bulk Modulus (GPa) = 31.44306 47.14948 39.29627
# Shear Modulus (GPa) = 23.04442 27.00711 25.02576
#
# Velocity S-wave (km/s) = 3.24678 3.51486 3.38348
# Velocity P-wave (km/s) = 5.33281 6.16771 5.76539
#
# Compressibility (1/GPa) = 0.03180353
#
# Stress axis : x y z
#
# Youngs Moduli (GPa) = 36.35459 89.91387 106.29569
#
# Poissons Ratio (x) = 0.09496 0.34326
# Poissons Ratio (y) = 0.03840 0.40721
# Poissons Ratio (z) = 0.11740 0.34445
#
# Static dielectric constant tensor:
#      x y z
#    x 2.217620 0.000000 0.000000 
#    y 0.000000 1.782200 0.000000 
#    z 0.000000 0.000000 1.948690 
# 
# From -- ./inp_files/2225.got.cif
#   From: 2010.05.17/outbox.cif.g08.bks.cpg/sg54_2_cif.got.tgz:2225.got - 2010.06.03 13:09:01.
