data_PCOD9421420
_publ_section_title
;
Structure prediction by ZEFSAII (Michael W. Deem and Ramdas Pophale) SiO2 
 PCOD9421420
Probable space group: P C C A
;
_chemical_formula_sum "Si O2"
_cell_formula_units_Z 40
_cell_length_a 12.549904
_cell_length_b 9.906302
_cell_length_c 16.053286
_cell_angle_alpha 90.000000
_cell_angle_beta 90.000000
_cell_angle_gamma 90.000000
_cell_volume 1995.794908
_symmetry_space_group_name_H-M "P C C A"
_symmetry_group_IT_number 54
_symmetry_cell_setting 'orthorhombic'
loop_
_space_group_symop_operation_xyz
x,y,z
1/2-x,-y,z
1/2+x,-y,1/2-z
-x,y,1/2-z
-x,-y,-z
1/2+x,y,-z
1/2-x,y,1/2+z
x,-y,1/2+z
loop_
_atom_site_type_symbol
_atom_site_label
_atom_site_fract_x
_atom_site_fract_y
_atom_site_fract_z
Si Si1 0.476926 0.224048 0.498167
Si Si2 0.616842 0.669498 0.344551
Si Si3 0.000000 0.905284 0.750000
Si Si4 0.250000 0.500000 0.272389
Si Si5 0.530089 0.595639 0.662435
Si Si6 0.124545 0.971294 0.908449
O O1 0.391002 0.296040 0.558425
O O2 0.498372 0.319690 0.419265
O O3 0.580705 0.170423 0.550639
O O4 0.422109 0.089895 0.464516
O O5 0.576885 0.804613 0.300240
O O6 0.716958 0.618859 0.291724
O O7 0.535926 0.543661 0.336824
O O8 0.069290 0.982392 0.818100
O O9 0.346815 0.447846 0.328854
O O10 0.500000 0.666968 0.750000
O O11 0.250000 0.000000 0.902948
#
# Coordination Sequence:
#
# PCOD9421420 Si02
#       6
#     8   8   4   4   8   8
#     4  10  23  40  61  91 128 159 215 263 306 377
#     4  10  20  39  59  90 124 161 197 267 313 370
#     4  10  20  42  62  84 128 162 210 266 310 366
#     4  10  20  34  60  96 118 168 210 232 332 384
#     4  10  21  36  60  91 125 162 204 260 316 377
#     4  10  24  42  63  89 122 173 213 257 319 364
#
# _framework density 20.042138999999999
#
# number of rings (size 3 to 8) (size 9 to 14) (size 15 to 20)
#    0.000    2.000    3.000    0.600    4.200    4.000 
#    0.000    9.000    0.000    0.000    0.000    0.000 
#    0.000    0.000    0.000    0.000    0.000    0.000 
#
# Total GULP energy -222852.793147 kJ/mol
# GULP energy per Si atom -5571.319829 kJ/mol
# Density = 1.999652 g / cm^3
# Si number density = 20.042139 Si / 1000 Ang^3
#
#
#
# Elastic Constant Matrix: (Units=GPa)
#
#
# Indices 1 2 3 4 5 6 
#
# 1 84.8099 14.3253 20.7378 0.0000 0.0000 0.0000
# 2 14.3253 41.8740 25.6980 0.0000 0.0000 0.0000
# 3 20.7378 25.6980 125.8078 0.0000 0.0000 0.0000
# 4 0.0000 0.0000 0.0000 2941.2217 0.0000 0.0000
# 5 0.0000 0.0000 0.0000 0.0000 12.2528 0.0000
# 6 0.0000 0.0000 0.0000 0.0000 0.0000 15.8103
#
#
#
# Elastic Compliance Matrix: (Units=1/GPa)
#
#
# Indices 1 2 3 4 5 6 
#
# 1 0.012721 -0.003504 -0.001381 0.000000 0.000000 0.000000
# 2 -0.003504 0.028269 -0.005197 0.000000 0.000000 0.000000
# 3 -0.001381 -0.005197 0.009238 0.000000 0.000000 0.000000
# 4 0.000000 0.000000 0.000000 0.000340 0.000000 0.000000
# 5 0.000000 0.000000 0.000000 0.000000 0.081614 0.000000
# 6 0.000000 0.000000 0.000000 0.000000 0.000000 0.063250
#
#
# Mechanical properties :
#
#
# Convention : Reuss Voigt Hill
#
# Bulk Modulus (GPa) = 33.26284 41.55710 37.40997
# Shear Modulus (GPa) = 22.16144 606.63899 314.40021
#
# Velocity S-wave (km/s) = 3.32888 17.41663 12.53835
# Velocity P-wave (km/s) = 5.60426 20.62115 15.11025
#
# Compressibility (1/GPa) = 0.03006358
#
# Stress axis : x y z
#
# Youngs Moduli (GPa) = 78.61211 35.37414 108.25096
#
# Poissons Ratio (x) = 0.12396 0.14950
# Poissons Ratio (y) = 0.27548 0.56255
# Poissons Ratio (z) = 0.10857 0.18383
#
# Static dielectric constant tensor:
#      x y z
#    x 1.739220 0.000000 0.000000 
#    y 0.000000 1.718740 0.000000 
#    z 0.000000 0.000000 1.783520 
# 
# From -- ./inp_files/12513.got.cif
#   From: 2010.05.17/outbox.cif.g08.bks.cpg/sg54_7_cif.got.tgz:12513.got - 2010.06.03 13:09:01.
