data_PCOD9421723
_publ_section_title
;
Structure prediction by ZEFSAII (Michael W. Deem and Ramdas Pophale) SiO2 
 PCOD9421723
Probable space group: P C C A
;
_chemical_formula_sum "Si O2"
_cell_formula_units_Z 48
_cell_length_a 15.422965
_cell_length_b 9.386005
_cell_length_c 17.551000
_cell_angle_alpha 90.000000
_cell_angle_beta 90.000000
_cell_angle_gamma 90.000000
_cell_volume 2540.683227
_symmetry_space_group_name_H-M "P C C A"
_symmetry_group_IT_number 54
_symmetry_cell_setting 'orthorhombic'
loop_
_space_group_symop_operation_xyz
x,y,z
1/2-x,-y,z
1/2+x,-y,1/2-z
-x,y,1/2-z
-x,-y,-z
1/2+x,y,-z
1/2-x,y,1/2+z
x,-y,1/2+z
loop_
_atom_site_type_symbol
_atom_site_label
_atom_site_fract_x
_atom_site_fract_y
_atom_site_fract_z
Si Si1 0.750000 0.000000 0.163858
Si Si2 0.000000 0.316428 0.250000
Si Si3 0.353535 0.523673 0.677975
Si Si4 0.488751 0.898450 0.619833
Si Si5 0.412609 0.165077 0.893394
Si Si6 0.062761 0.373329 0.525963
Si Si7 0.375239 0.171642 0.246130
O O1 0.824696 0.075288 0.115582
O O2 0.714363 0.121763 0.219367
O O3 0.075917 0.407152 0.206923
O O4 0.050600 0.223951 0.313318
O O5 0.250000 0.500000 0.687729
O O6 0.372916 0.561799 0.589422
O O7 0.377173 0.663532 0.726522
O O8 0.485017 0.758821 0.567969
O O9 0.557499 0.866104 0.687078
O O10 0.399868 0.909075 0.668001
O O11 0.516599 0.046174 0.582285
O O12 0.399679 0.295305 0.951300
O O13 0.000000 0.500000 0.500000
#
# Coordination Sequence:
#
# PCOD9421723 Si02
#       7
#     4   4   8   8   8   8   8
#     4  10  20  38  56  94 124 154 214 268 326 384
#     4  12  22  40  70  94 126 170 228 280 334 398
#     4  11  23  40  60  96 130 169 217 270 331 395
#     4   9  19  37  63  86 114 158 209 251 317 376
#     4  11  22  38  63  92 119 168 213 266 324 393
#     4  11  22  42  59  87 127 168 209 260 323 394
#     4   9  18  36  61  85 120 155 200 267 313 372
#
# _framework density 18.892555000000002
#
# number of rings (size 3 to 8) (size 9 to 14) (size 15 to 20)
#    0.000    1.667    1.667    5.500    0.000    0.000 
#    6.000    4.167    0.000    0.000    0.000    0.000 
#    0.000    0.000    0.000    0.000    0.000    0.000 
#
# Total GULP energy -267392.350723 kJ/mol
# GULP energy per Si atom -5570.673973 kJ/mol
# Density = 1.884956 g / cm^3
# Si number density = 18.892555 Si / 1000 Ang^3
#
#
#
# Elastic Constant Matrix: (Units=GPa)
#
#
# Indices 1 2 3 4 5 6 
#
# 1 66.0128 28.8882 23.4194 0.0000 0.0000 0.0000
# 2 28.8882 78.4783 40.4857 0.0000 0.0000 0.0000
# 3 23.4194 40.4857 91.2273 0.0000 0.0000 0.0000
# 4 0.0000 0.0000 0.0000 39.0741 0.0000 0.0000
# 5 0.0000 0.0000 0.0000 0.0000 8.5575 0.0000
# 6 0.0000 0.0000 0.0000 0.0000 0.0000 34.4544
#
#
#
# Elastic Compliance Matrix: (Units=1/GPa)
#
#
# Indices 1 2 3 4 5 6 
#
# 1 0.018400 -0.005624 -0.002228 0.000000 0.000000 0.000000
# 2 -0.005624 0.018245 -0.006653 0.000000 0.000000 0.000000
# 3 -0.002228 -0.006653 0.014486 0.000000 0.000000 0.000000
# 4 0.000000 0.000000 0.000000 0.025592 0.000000 0.000000
# 5 0.000000 0.000000 0.000000 0.000000 0.116857 0.000000
# 6 0.000000 0.000000 0.000000 0.000000 0.000000 0.029024
#
#
# Mechanical properties :
#
#
# Convention : Reuss Voigt Hill
#
# Bulk Modulus (GPa) = 45.20497 46.81166 46.00832
# Shear Modulus (GPa) = 19.30597 25.94554 22.62575
#
# Velocity S-wave (km/s) = 3.20016 3.70985 3.46439
# Velocity P-wave (km/s) = 6.13466 6.57133 6.35674
#
# Compressibility (1/GPa) = 0.02212146
#
# Stress axis : x y z
#
# Youngs Moduli (GPa) = 54.34778 54.81018 69.03172
#
# Poissons Ratio (x) = 0.30825 0.15378
# Poissons Ratio (y) = 0.30565 0.45928
# Poissons Ratio (z) = 0.12107 0.36466
#
# Static dielectric constant tensor:
#      x y z
#    x 1.737220 0.000000 0.000000 
#    y 0.000000 1.652060 0.000000 
#    z 0.000000 0.000000 1.681070 
# 
# From -- ./inp_files/18095.got.cif
#   From: 2010.05.17/outbox.cif.g08.bks.cpg/sg54_10_cif.got.tgz:18095.got - 2010.06.03 13:09:01.
