data_PCOD9421257
_publ_section_title
;
Structure prediction by ZEFSAII (Michael W. Deem and Ramdas Pophale) SiO2 
 PCOD9421257
Probable space group: P C C A
;
_chemical_formula_sum "Si O2"
_cell_formula_units_Z 56
_cell_length_a 14.231579
_cell_length_b 14.132333
_cell_length_c 13.650389
_cell_angle_alpha 90.000000
_cell_angle_beta 90.000000
_cell_angle_gamma 90.000000
_cell_volume 2745.440133
_symmetry_space_group_name_H-M "P C C A"
_symmetry_group_IT_number 54
_symmetry_cell_setting 'orthorhombic'
loop_
_space_group_symop_operation_xyz
x,y,z
1/2-x,-y,z
1/2+x,-y,1/2-z
-x,y,1/2-z
-x,-y,-z
1/2+x,y,-z
1/2-x,y,1/2+z
x,-y,1/2+z
loop_
_atom_site_type_symbol
_atom_site_label
_atom_site_fract_x
_atom_site_fract_y
_atom_site_fract_z
Si Si1 0.038604 0.918897 0.859893
Si Si2 0.400856 0.542668 0.696138
Si Si3 0.289139 0.597752 0.884244
Si Si4 0.576171 0.874149 0.555770
Si Si5 0.286647 0.795477 0.423965
Si Si6 0.945451 0.592604 0.960425
Si Si7 0.070325 0.277868 0.558199
O O1 0.135471 0.859635 0.870728
O O2 0.000000 0.910969 0.750000
O O3 0.061496 0.027080 0.888918
O O4 0.963330 0.886271 0.943928
O O5 0.500000 0.531698 0.750000
O O6 0.327456 0.566088 0.779722
O O7 0.391051 0.446200 0.633964
O O8 0.407248 0.634055 0.626942
O O9 0.250000 0.500000 0.929425
O O10 0.226038 0.690630 0.877945
O O11 0.373340 0.624642 0.956806
O O12 0.684492 0.842710 0.564637
O O13 0.506008 0.794783 0.599926
O O14 0.335259 0.775537 0.528938
O O15 0.000000 0.500000 0.000000
O O16 0.022604 0.675206 0.960089
#
# Coordination Sequence:
#
# PCOD9421257 Si02
#       7
#     8   8   8   8   8   8   8
#     4  10  24  45  71 103 135 173 220 279 351 407
#     4  11  21  36  60  87 122 175 228 266 326 388
#     4  12  24  39  58  93 129 173 224 274 323 389
#     4  10  21  45  71  97 134 175 216 274 342 411
#     4  11  23  42  68  95 138 173 224 275 334 400
#     4  10  19  39  59  80 127 173 214 272 321 383
#     4  10  21  40  65  90 127 179 213 271 333 390
#
# _framework density 20.397459000000001
#
# number of rings (size 3 to 8) (size 9 to 14) (size 15 to 20)
#    0.000    1.429    4.286    2.143    0.000    4.571 
#    5.143    7.143    0.000    0.000    0.000    0.000 
#    0.000    0.000    0.000    0.000    0.000    0.000 
#
# Total GULP energy -312375.138209 kJ/mol
# GULP energy per Si atom -5578.127468 kJ/mol
# Density = 2.035103 g / cm^3
# Si number density = 20.397459 Si / 1000 Ang^3
#
#
#
# Elastic Constant Matrix: (Units=GPa)
#
#
# Indices 1 2 3 4 5 6 
#
# 1 119.9480 45.3488 37.0392 0.0000 0.0000 0.0000
# 2 45.3488 90.7475 0.9321 0.0000 0.0000 0.0000
# 3 37.0392 0.9321 68.5202 0.0000 0.0000 0.0000
# 4 0.0000 0.0000 0.0000 -18.3894 0.0000 0.0000
# 5 0.0000 0.0000 0.0000 0.0000 21.8445 0.0000
# 6 0.0000 0.0000 0.0000 0.0000 0.0000 38.0824
#
#
#
# Elastic Compliance Matrix: (Units=1/GPa)
#
#
# Indices 1 2 3 4 5 6 
#
# 1 0.012860 -0.006356 -0.006865 0.000000 0.000000 0.000000
# 2 -0.006356 0.014162 0.003243 0.000000 0.000000 0.000000
# 3 -0.006865 0.003243 0.018261 0.000000 0.000000 0.000000
# 4 0.000000 0.000000 0.000000 -0.054379 0.000000 0.000000
# 5 0.000000 0.000000 0.000000 0.000000 0.045778 0.000000
# 6 0.000000 0.000000 0.000000 0.000000 0.000000 0.026259
#
#
# Mechanical properties :
#
#
# Convention : Reuss Voigt Hill
#
# Bulk Modulus (GPa) = 39.48246 49.53952 44.51099
# Shear Modulus (GPa) = 54.74098 21.36721 38.05409
#
# Velocity S-wave (km/s) = 5.18608 3.24009 4.32398
# Velocity P-wave (km/s) = 7.43365 6.19172 6.84093
#
# Compressibility (1/GPa) = 0.02532770
#
# Stress axis : x y z
#
# Youngs Moduli (GPa) = 77.76195 70.60926 54.76137
#
# Poissons Ratio (x) = 0.44878 0.37594
# Poissons Ratio (y) = 0.49424 -0.17759
# Poissons Ratio (z) = 0.53384 -0.22899
#
# Static dielectric constant tensor:
#      x y z
#    x 1.784570 0.000000 0.000000 
#    y 0.000000 1.758140 0.000000 
#    z 0.000000 0.000000 1.755800 
# 
# From -- ./inp_files/8412.got.cif
#   From: 2010.05.17/outbox.cif.g08.bks.cpg/sg54_5_cif.got.tgz:8412.got - 2010.06.03 13:09:01.
