data_PCOD9421425
_publ_section_title
;
Structure prediction by ZEFSAII (Michael W. Deem and Ramdas Pophale) SiO2 
 PCOD9421425
Probable space group: P C C A
;
_chemical_formula_sum "Si O2"
_cell_formula_units_Z 40
_cell_length_a 8.882789
_cell_length_b 10.069960
_cell_length_c 22.067626
_cell_angle_alpha 90.000000
_cell_angle_beta 90.000000
_cell_angle_gamma 90.000000
_cell_volume 1973.934359
_symmetry_space_group_name_H-M "P C C A"
_symmetry_group_IT_number 54
_symmetry_cell_setting 'orthorhombic'
loop_
_space_group_symop_operation_xyz
x,y,z
1/2-x,-y,z
1/2+x,-y,1/2-z
-x,y,1/2-z
-x,-y,-z
1/2+x,y,-z
1/2-x,y,1/2+z
x,-y,1/2+z
loop_
_atom_site_type_symbol
_atom_site_label
_atom_site_fract_x
_atom_site_fract_y
_atom_site_fract_z
Si Si1 0.242512 0.300281 0.480058
Si Si2 0.640469 0.124420 0.293792
Si Si3 0.958987 0.568120 0.920097
Si Si4 0.971002 0.752386 0.418125
Si Si5 0.848202 0.368652 0.288228
O O1 0.351634 0.387368 0.524279
O O2 0.358309 0.221788 0.438129
O O3 0.124637 0.381514 0.438711
O O4 0.140532 0.216564 0.526260
O O5 0.500000 0.097632 0.250000
O O6 0.576524 0.173345 0.358109
O O7 0.744175 0.245322 0.270616
O O8 0.750000 0.000000 0.300448
O O9 0.896083 0.634499 0.859103
O O10 0.958662 0.409174 0.910253
O O11 0.750000 0.500000 0.278659
O O12 0.000000 0.373187 0.250000
#
# Coordination Sequence:
#
# PCOD9421425 Si02
#       5
#     8   8   8   8   8
#     4  10  20  34  64 104 146 178 204 267 336 410
#     4  12  28  51  69  91 130 184 234 284 345 410
#     4  11  19  35  62 103 143 170 213 262 342 388
#     4  11  20  38  64  98 136 176 219 263 331 404
#     4  12  25  42  68 103 135 168 229 291 336 396
#
# _framework density 20.264099000000002
#
# number of rings (size 3 to 8) (size 9 to 14) (size 15 to 20)
#    0.000    0.800    4.000    6.000    2.800    0.000 
#    0.000    1.000    0.000    0.000    0.000    0.000 
#    0.000    0.000    0.000    0.000    0.000    0.000 
#
# Total GULP energy -223690.295669 kJ/mol
# GULP energy per Si atom -5592.257392 kJ/mol
# Density = 2.021798 g / cm^3
# Si number density = 20.264099 Si / 1000 Ang^3
#
#
#
# Elastic Constant Matrix: (Units=GPa)
#
#
# Indices 1 2 3 4 5 6 
#
# 1 200.0163 58.4998 74.2091 0.0000 0.0000 0.0000
# 2 58.4998 77.9660 43.7967 0.0000 0.0000 0.0000
# 3 74.2091 43.7967 93.8895 0.0000 0.0000 0.0000
# 4 0.0000 0.0000 0.0000 19.5566 0.0000 0.0000
# 5 0.0000 0.0000 0.0000 0.0000 18.9785 0.0000
# 6 0.0000 0.0000 0.0000 0.0000 0.0000 29.1114
#
#
#
# Elastic Compliance Matrix: (Units=1/GPa)
#
#
# Indices 1 2 3 4 5 6 
#
# 1 0.007608 -0.003158 -0.004540 0.000000 0.000000 0.000000
# 2 -0.003158 0.018691 -0.006223 0.000000 0.000000 0.000000
# 3 -0.004540 -0.006223 0.017142 0.000000 0.000000 0.000000
# 4 0.000000 0.000000 0.000000 0.051134 0.000000 0.000000
# 5 0.000000 0.000000 0.000000 0.000000 0.052691 0.000000
# 6 0.000000 0.000000 0.000000 0.000000 0.000000 0.034351
#
#
# Mechanical properties :
#
#
# Convention : Reuss Voigt Hill
#
# Bulk Modulus (GPa) = 64.10553 80.54254 72.32404
# Shear Modulus (GPa) = 23.29294 26.55373 24.92333
#
# Velocity S-wave (km/s) = 3.39406 3.62385 3.51083
# Velocity P-wave (km/s) = 6.86026 7.57248 7.22515
#
# Compressibility (1/GPa) = 0.01559928
#
# Stress axis : x y z
#
# Youngs Moduli (GPa) = 131.44834 53.50103 58.33670
#
# Poissons Ratio (x) = 0.16895 0.26484
# Poissons Ratio (y) = 0.41510 0.36303
# Poissons Ratio (z) = 0.59675 0.33293
#
# Static dielectric constant tensor:
#      x y z
#    x 1.741940 0.000000 0.000000 
#    y 0.000000 1.738290 0.000000 
#    z 0.000000 0.000000 1.728150 
# 
# From -- ./inp_files/23206.got.cif
#   From: 2010.05.17/outbox.cif.g08.bks.cpg/sg54_12_cif.got.tgz:23206.got - 2010.06.03 13:09:01.
