data_PCOD9421573
_publ_section_title
;
Structure prediction by ZEFSAII (Michael W. Deem and Ramdas Pophale) SiO2 
 PCOD9421573
Probable space group: P C C A
;
_chemical_formula_sum "Si O2"
_cell_formula_units_Z 40
_cell_length_a 9.924797
_cell_length_b 5.334489
_cell_length_c 29.596632
_cell_angle_alpha 90.000000
_cell_angle_beta 90.000000
_cell_angle_gamma 90.000000
_cell_volume 1566.955810
_symmetry_space_group_name_H-M "P C C A"
_symmetry_group_IT_number 54
_symmetry_cell_setting 'orthorhombic'
loop_
_space_group_symop_operation_xyz
x,y,z
1/2-x,-y,z
1/2+x,-y,1/2-z
-x,y,1/2-z
-x,-y,-z
1/2+x,y,-z
1/2-x,y,1/2+z
x,-y,1/2+z
loop_
_atom_site_type_symbol
_atom_site_label
_atom_site_fract_x
_atom_site_fract_y
_atom_site_fract_z
Si Si1 0.750000 0.500000 0.934820
Si Si2 0.445734 0.596810 0.896817
Si Si3 0.461668 0.914714 0.351146
Si Si4 0.000000 0.735563 0.750000
Si Si5 0.088394 0.249052 0.993458
Si Si6 0.250000 0.500000 0.711806
Si Si7 0.250000 0.000000 0.153783
O O1 0.610177 0.572432 0.908278
O O2 0.794541 0.720249 0.969688
O O3 0.404335 0.326398 0.877109
O O4 0.374037 0.709104 0.941338
O O5 0.410828 0.808433 0.860210
O O6 0.476392 0.876632 0.297355
O O7 0.614389 0.930252 0.371185
O O8 0.125471 0.560812 0.742230
O O9 0.000000 0.500000 0.000000
O O10 0.000000 0.000000 0.000000
O O11 0.222518 0.249528 0.683148
#
# Coordination Sequence:
#
# PCOD9421573 Si02
#       7
#     4   8   8   4   8   4   4
#     4  10  22  41  67  92 130 168 210 282 347 393
#     4  11  22  37  62  96 126 166 219 271 323 397
#     4  11  22  38  62  93 132 166 217 273 326 386
#     4  10  24  44  66  96 134 184 220 276 338 392
#     4  10  22  39  60  89 123 161 203 255 333 404
#     4  10  22  39  65  88 122 168 228 266 327 393
#     4  10  20  36  60  92 118 160 214 278 324 376
#
# _framework density 25.527206
#
# number of rings (size 3 to 8) (size 9 to 14) (size 15 to 20)
#    0.000    1.600    0.000    6.000    0.000   14.400 
#    0.000    1.000    0.000    4.800    0.000    0.000 
#    0.000    0.000    0.000    0.000    0.000    0.000 
#
# Total GULP energy -223514.898444 kJ/mol
# GULP energy per Si atom -5587.872461 kJ/mol
# Density = 2.546910 g / cm^3
# Si number density = 25.527206 Si / 1000 Ang^3
#
#
#
# Elastic Constant Matrix: (Units=GPa)
#
#
# Indices 1 2 3 4 5 6 
#
# 1 83.0853 55.2758 31.2594 0.0000 0.0000 0.0000
# 2 55.2758 222.3663 61.3882 0.0000 0.0000 0.0000
# 3 31.2594 61.3882 125.6737 0.0000 0.0000 0.0000
# 4 0.0000 0.0000 0.0000 4.3130 0.0000 0.0000
# 5 0.0000 0.0000 0.0000 0.0000 32.6043 0.0000
# 6 0.0000 0.0000 0.0000 0.0000 0.0000 24.9936
#
#
#
# Elastic Compliance Matrix: (Units=1/GPa)
#
#
# Indices 1 2 3 4 5 6 
#
# 1 0.014928 -0.003104 -0.002197 0.000000 0.000000 0.000000
# 2 -0.003104 0.005844 -0.002082 0.000000 0.000000 0.000000
# 3 -0.002197 -0.002082 0.009521 0.000000 0.000000 0.000000
# 4 0.000000 0.000000 0.000000 0.231857 0.000000 0.000000
# 5 0.000000 0.000000 0.000000 0.000000 0.030671 0.000000
# 6 0.000000 0.000000 0.000000 0.000000 0.000000 0.040010
#
#
# Mechanical properties :
#
#
# Convention : Reuss Voigt Hill
#
# Bulk Modulus (GPa) = 64.41083 80.77470 72.59276
# Shear Modulus (GPa) = 14.17350 31.26232 22.71791
#
# Velocity S-wave (km/s) = 2.35889 3.50332 2.98644
# Velocity P-wave (km/s) = 5.71893 6.93366 6.35538
#
# Compressibility (1/GPa) = 0.01552534
#
# Stress axis : x y z
#
# Youngs Moduli (GPa) = 66.99044 171.12744 105.03486
#
# Poissons Ratio (x) = 0.53122 0.23072
# Poissons Ratio (y) = 0.20796 0.21871
# Poissons Ratio (z) = 0.14715 0.35634
#
# Static dielectric constant tensor:
#      x y z
#    x 2.133800 0.000000 0.000000 
#    y 0.000000 1.417230 0.000000 
#    z 0.000000 0.000000 2.126990 
# 
# From -- ./inp_files/26127.got.cif
#   From: 2010.05.17/outbox.cif.g08.bks.cpg/sg54_14_cif.got.tgz:26127.got - 2010.06.03 13:09:01.
