data_PCOD9421327
_publ_section_title
;
Structure prediction by ZEFSAII (Michael W. Deem and Ramdas Pophale) SiO2 
 PCOD9421327
Probable space group: P C C A
;
_chemical_formula_sum "Si O2"
_cell_formula_units_Z 40
_cell_length_a 5.157250
_cell_length_b 12.132354
_cell_length_c 32.903047
_cell_angle_alpha 90.000000
_cell_angle_beta 90.000000
_cell_angle_gamma 90.000000
_cell_volume 2058.729919
_symmetry_space_group_name_H-M "P C C A"
_symmetry_group_IT_number 54
_symmetry_cell_setting 'orthorhombic'
loop_
_space_group_symop_operation_xyz
x,y,z
1/2-x,-y,z
1/2+x,-y,1/2-z
-x,y,1/2-z
-x,-y,-z
1/2+x,y,-z
1/2-x,y,1/2+z
x,-y,1/2+z
loop_
_atom_site_type_symbol
_atom_site_label
_atom_site_fract_x
_atom_site_fract_y
_atom_site_fract_z
Si Si1 0.221602 0.793969 0.339863
Si Si2 0.750000 0.500000 0.848114
Si Si3 0.750000 0.000000 0.720566
Si Si4 0.751218 0.727928 0.887502
Si Si5 0.854227 0.390747 0.214317
Si Si6 0.229274 0.369864 0.526886
O O1 0.262245 0.896253 0.310062
O O2 0.481804 0.763842 0.365306
O O3 0.166478 0.691726 0.308858
O O4 0.979724 0.803863 0.370322
O O5 0.664277 0.603612 0.874719
O O6 0.532133 0.445707 0.820007
O O7 0.500000 0.994207 0.750000
O O8 0.778458 0.712579 0.935668
O O9 0.750000 0.500000 0.235924
O O10 0.000000 0.325960 0.250000
O O11 0.250000 0.500000 0.538943
O O12 0.446649 0.353381 0.492400
#
# Coordination Sequence:
#
# PCOD9421327 Si02
#       6
#     8   4   4   8   8   8
#     4  11  25  39  62  87 114 162 205 255 313 355
#     4  10  20  32  48  78 118 158 190 232 296 346
#     4  12  26  48  68  88 120 160 216 274 308 356
#     4  11  21  38  59  88 123 158 199 247 297 368
#     4  11  20  32  50  77 113 153 190 238 290 363
#     4  10  20  34  56  89 128 170 200 234 296 372
#
# _framework density 19.429454
#
# number of rings (size 3 to 8) (size 9 to 14) (size 15 to 20)
#    0.000    1.200    4.000    3.000    0.000    2.400 
#    0.000    0.000    0.000    0.000    0.000   14.000 
#    0.000    0.000    0.000    0.000    0.000    0.000 
#
# Total GULP energy -223010.020941 kJ/mol
# GULP energy per Si atom -5575.250524 kJ/mol
# Density = 1.938523 g / cm^3
# Si number density = 19.429454 Si / 1000 Ang^3
#
#
#
# Elastic Constant Matrix: (Units=GPa)
#
#
# Indices 1 2 3 4 5 6 
#
# 1 84.7355 6.6325 19.0691 0.0000 0.0000 0.0000
# 2 6.6325 67.5625 31.0380 0.0000 0.0000 0.0000
# 3 19.0691 31.0380 91.1630 0.0000 0.0000 0.0000
# 4 0.0000 0.0000 0.0000 37.1393 0.0000 0.0000
# 5 0.0000 0.0000 0.0000 0.0000 21.9930 0.0000
# 6 0.0000 0.0000 0.0000 0.0000 0.0000 15.2155
#
#
#
# Elastic Compliance Matrix: (Units=1/GPa)
#
#
# Indices 1 2 3 4 5 6 
#
# 1 0.012384 -0.000030 -0.002580 0.000000 0.000000 0.000000
# 2 -0.000030 0.017545 -0.005967 0.000000 0.000000 0.000000
# 3 -0.002580 -0.005967 0.013541 0.000000 0.000000 0.000000
# 4 0.000000 0.000000 0.000000 0.026926 0.000000 0.000000
# 5 0.000000 0.000000 0.000000 0.000000 0.045469 0.000000
# 6 0.000000 0.000000 0.000000 0.000000 0.000000 0.065722
#
#
# Mechanical properties :
#
#
# Convention : Reuss Voigt Hill
#
# Bulk Modulus (GPa) = 38.00132 39.66001 38.83066
# Shear Modulus (GPa) = 24.09462 27.31765 25.70614
#
# Velocity S-wave (km/s) = 3.52534 3.75372 3.64132
# Velocity P-wave (km/s) = 6.01429 6.26449 6.14067
#
# Compressibility (1/GPa) = 0.02631488
#
# Stress axis : x y z
#
# Youngs Moduli (GPa) = 80.74634 56.99479 73.85122
#
# Poissons Ratio (x) = 0.00174 0.19055
# Poissons Ratio (y) = 0.00246 0.44069
# Poissons Ratio (z) = 0.20834 0.34010
#
# Static dielectric constant tensor:
#      x y z
#    x 1.102100 0.000000 0.000000 
#    y 0.000000 1.694350 0.000000 
#    z 0.000000 0.000000 1.683640 
# 
# From -- ./inp_files/27057.got.cif
#   From: 2010.05.17/outbox.cif.g08.bks.cpg/sg54_14_cif.got.tgz:27057.got - 2010.06.03 13:09:01.
