data_PCOD9421491
_publ_section_title
;
Structure prediction by ZEFSAII (Michael W. Deem and Ramdas Pophale) SiO2 
 PCOD9421491
Probable space group: P C C A
;
_chemical_formula_sum "Si O2"
_cell_formula_units_Z 60
_cell_length_a 27.238924
_cell_length_b 16.114431
_cell_length_c 5.729799
_cell_angle_alpha 90.000000
_cell_angle_beta 90.000000
_cell_angle_gamma 90.000000
_cell_volume 2515.036605
_symmetry_space_group_name_H-M "P C C A"
_symmetry_group_IT_number 54
_symmetry_cell_setting 'orthorhombic'
loop_
_space_group_symop_operation_xyz
x,y,z
1/2-x,-y,z
1/2+x,-y,1/2-z
-x,y,1/2-z
-x,-y,-z
1/2+x,y,-z
1/2-x,y,1/2+z
x,-y,1/2+z
loop_
_atom_site_type_symbol
_atom_site_label
_atom_site_fract_x
_atom_site_fract_y
_atom_site_fract_z
Si Si1 0.052550 0.592757 0.700207
Si Si2 0.140169 0.826515 0.620265
Si Si3 0.500000 0.879801 0.750000
Si Si4 0.232404 0.902356 0.843615
Si Si5 0.111660 0.685845 0.337185
Si Si6 0.651585 0.480879 0.281920
Si Si7 0.557551 0.769452 0.059855
Si Si8 0.395167 0.958045 0.815802
O O1 0.066250 0.635774 0.454205
O O2 0.099669 0.533235 0.740890
O O3 0.000000 0.550061 0.750000
O O4 0.049367 0.675155 0.860224
O O5 0.177287 0.872696 0.790185
O O6 0.144366 0.730971 0.535802
O O7 0.139237 0.881540 0.387647
O O8 0.087822 0.821444 0.751060
O O9 0.511446 0.820131 0.969260
O O10 0.452352 0.933188 0.807900
O O11 0.255890 0.869444 0.601384
O O12 0.250000 0.000000 0.851403
O O13 0.140979 0.616574 0.199309
O O14 0.090461 0.755008 0.168659
O O15 0.675320 0.507842 0.526110
O O16 0.386213 0.989412 0.554091
#
# Coordination Sequence:
#
# PCOD9421491 Si02
#       8
#     8   8   4   8   8   8   8   8
#     4  10  21  34  54  85 127 182 241 288 330 370
#     4  11  26  43  70  98 132 175 217 276 355 414
#     4  12  24  44  62  90 128 186 244 290 332 366
#     4  10  25  46  75 105 137 159 204 269 348 443
#     4  10  21  39  57  88 125 178 218 277 328 394
#     4  10  20  36  55  82 126 168 225 278 322 373
#     4  11  22  40  61  89 133 182 232 285 329 394
#     4  12  28  44  65  86 125 168 230 284 325 388
#
# _framework density 23.856514000000001
#
# number of rings (size 3 to 8) (size 9 to 14) (size 15 to 20)
#    0.000    1.333    2.667    2.000    7.467    3.200 
#    1.200    0.000    0.000    0.000    0.000    0.000 
#    0.000   28.800    0.000    0.000    0.000    0.000 
#
# Total GULP energy -334633.142448 kJ/mol
# GULP energy per Si atom -5577.219041 kJ/mol
# Density = 2.380222 g / cm^3
# Si number density = 23.856514 Si / 1000 Ang^3
#
#
#
# Elastic Constant Matrix: (Units=GPa)
#
#
# Indices 1 2 3 4 5 6 
#
# 1 47.9047 21.3132 20.8305 0.0000 0.0000 0.0000
# 2 21.3132 64.3460 29.8320 0.0000 0.0000 0.0000
# 3 20.8305 29.8320 144.3044 0.0000 0.0000 0.0000
# 4 0.0000 0.0000 0.0000 40.3917 0.0000 0.0000
# 5 0.0000 0.0000 0.0000 0.0000 33.4501 0.0000
# 6 0.0000 0.0000 0.0000 0.0000 0.0000 15.9181
#
#
#
# Elastic Compliance Matrix: (Units=1/GPa)
#
#
# Indices 1 2 3 4 5 6 
#
# 1 0.025046 -0.007322 -0.002102 0.000000 0.000000 0.000000
# 2 -0.007322 0.019329 -0.002939 0.000000 0.000000 0.000000
# 3 -0.002102 -0.002939 0.007841 0.000000 0.000000 0.000000
# 4 0.000000 0.000000 0.000000 0.024758 0.000000 0.000000
# 5 0.000000 0.000000 0.000000 0.000000 0.029895 0.000000
# 6 0.000000 0.000000 0.000000 0.000000 0.000000 0.062822
#
#
# Mechanical properties :
#
#
# Convention : Reuss Voigt Hill
#
# Bulk Modulus (GPa) = 36.37569 44.50073 40.43821
# Shear Modulus (GPa) = 24.56059 30.25727 27.40893
#
# Velocity S-wave (km/s) = 3.21208 3.56519 3.39323
# Velocity P-wave (km/s) = 5.38864 5.97004 5.68678
#
# Compressibility (1/GPa) = 0.02749089
#
# Stress axis : x y z
#
# Youngs Moduli (GPa) = 39.92631 51.73678 127.53859
#
# Poissons Ratio (x) = 0.37879 0.26807
# Poissons Ratio (y) = 0.29232 0.37483
# Poissons Ratio (z) = 0.08392 0.15205
#
# Static dielectric constant tensor:
#      x y z
#    x 1.943240 0.000000 0.000000 
#    y 0.000000 1.918260 0.000000 
#    z 0.000000 0.000000 1.973870 
# 
# From -- ./inp_files/1985.got.cif
#   From: 2010.05.17/outbox.cif.g08.bks.cpg/sg54_1_cif.got.tgz:1985.got - 2010.06.03 13:09:01.
