data_PCOD9421719
_publ_section_title
;
Structure prediction by ZEFSAII (Michael W. Deem and Ramdas Pophale) SiO2 
 PCOD9421719
Probable space group: P C C A
;
_chemical_formula_sum "Si O2"
_cell_formula_units_Z 60
_cell_length_a 17.821897
_cell_length_b 5.287704
_cell_length_c 30.641645
_cell_angle_alpha 90.000000
_cell_angle_beta 90.000000
_cell_angle_gamma 90.000000
_cell_volume 2887.574128
_symmetry_space_group_name_H-M "P C C A"
_symmetry_group_IT_number 54
_symmetry_cell_setting 'orthorhombic'
loop_
_space_group_symop_operation_xyz
x,y,z
1/2-x,-y,z
1/2+x,-y,1/2-z
-x,y,1/2-z
-x,-y,-z
1/2+x,y,-z
1/2-x,y,1/2+z
x,-y,1/2+z
loop_
_atom_site_type_symbol
_atom_site_label
_atom_site_fract_x
_atom_site_fract_y
_atom_site_fract_z
Si Si1 0.750000 0.500000 0.944012
Si Si2 0.661875 0.513198 0.701865
Si Si3 0.118626 0.842315 0.069379
Si Si4 0.563698 0.947602 0.844429
Si Si5 0.823064 0.118198 0.512732
Si Si6 0.338556 0.988634 0.241703
Si Si7 0.970776 0.430504 0.138254
Si Si8 0.533627 0.400130 0.045672
O O1 0.818134 0.366019 0.919028
O O2 0.709570 0.306607 0.976375
O O3 0.750000 0.500000 0.690460
O O4 0.646802 0.779999 0.725276
O O5 0.608312 0.488340 0.660501
O O6 0.646424 0.280014 0.734974
O O7 0.031774 0.779841 0.062885
O O8 0.115095 0.011472 0.112685
O O9 0.140191 0.916675 0.020023
O O10 0.502080 0.167498 0.843751
O O11 0.612334 0.967599 0.801057
O O12 0.526670 0.666872 0.849834
O O13 0.887678 0.258645 0.539048
O O14 0.750000 0.000000 0.536253
O O15 0.250000 0.000000 0.230719
O O16 0.961003 0.405548 0.085775
O O17 0.500000 0.500000 0.000000
#
# Coordination Sequence:
#
# PCOD9421719 Si02
#       8
#     4   8   8   8   8   8   8   8
#     4  10  20  38  56  90 118 166 204 270 318 384
#     4  10  22  44  65  93 128 165 210 262 321 377
#     4  10  22  38  62  87 128 167 209 265 329 382
#     4  11  24  41  62  98 128 163 216 258 320 395
#     4  10  21  38  59  88 120 165 217 266 325 381
#     4  10  22  41  67  95 127 169 209 258 322 387
#     4  11  25  42  64  95 127 169 216 263 324 384
#     4  11  21  41  64  88 125 169 216 268 325 381
#
# _framework density 20.778689
#
# number of rings (size 3 to 8) (size 9 to 14) (size 15 to 20)
#    0.000    1.600    1.333    2.800    1.867    5.867 
#    4.800    2.000    0.000    0.000    0.000    0.000 
#    0.000    0.000    0.000    0.000    0.000    0.000 
#
# Total GULP energy -334530.428278 kJ/mol
# GULP energy per Si atom -5575.507138 kJ/mol
# Density = 2.073140 g / cm^3
# Si number density = 20.778689 Si / 1000 Ang^3
#
#
#
# Elastic Constant Matrix: (Units=GPa)
#
#
# Indices 1 2 3 4 5 6 
#
# 1 93.6716 11.5786 30.2351 0.0000 0.0000 0.0000
# 2 11.5786 59.3607 -8.0699 0.0000 0.0000 0.0000
# 3 30.2351 -8.0699 76.6660 0.0000 0.0000 0.0000
# 4 0.0000 0.0000 0.0000 6.4762 0.0000 0.0000
# 5 0.0000 0.0000 0.0000 0.0000 -6.6416 0.0000
# 6 0.0000 0.0000 0.0000 0.0000 0.0000 24.8017
#
#
#
# Elastic Compliance Matrix: (Units=1/GPa)
#
#
# Indices 1 2 3 4 5 6 
#
# 1 0.012817 -0.003233 -0.005395 0.000000 0.000000 0.000000
# 2 -0.003233 0.017906 0.003160 0.000000 0.000000 0.000000
# 3 -0.005395 0.003160 0.015504 0.000000 0.000000 0.000000
# 4 0.000000 0.000000 0.000000 0.154412 0.000000 0.000000
# 5 0.000000 0.000000 0.000000 0.000000 -0.150567 0.000000
# 6 0.000000 0.000000 0.000000 0.000000 0.000000 0.040320
#
#
# Mechanical properties :
#
#
# Convention : Reuss Voigt Hill
#
# Bulk Modulus (GPa) = 28.33635 33.02066 30.67850
# Shear Modulus (GPa) = 44.21182 17.99089 31.10136
#
# Velocity S-wave (km/s) = 4.61776 2.94570 3.87304
# Velocity P-wave (km/s) = 6.48833 5.24363 5.89890
#
# Compressibility (1/GPa) = 0.03529036
#
# Stress axis : x y z
#
# Youngs Moduli (GPa) = 78.02365 55.84579 64.50021
#
# Poissons Ratio (x) = 0.18057 0.34797
# Poissons Ratio (y) = 0.25228 -0.20382
# Poissons Ratio (z) = 0.42093 -0.17647
#
# Static dielectric constant tensor:
#      x y z
#    x 1.718750 0.000000 0.000000 
#    y 0.000000 1.764470 0.000000 
#    z 0.000000 0.000000 1.737270 
# 
# From -- ./inp_files/26640.got.cif
#   From: 2010.05.17/outbox.cif.g08.bks.cpg/sg54_14_cif.got.tgz:26640.got - 2010.06.03 13:09:01.
