data_PCOD9421513
_publ_section_title
;
Structure prediction by ZEFSAII (Michael W. Deem and Ramdas Pophale) SiO2 
 PCOD9421513
Probable space group: P C C A
;
_chemical_formula_sum "Si O2"
_cell_formula_units_Z 56
_cell_length_a 23.285405
_cell_length_b 6.231007
_cell_length_c 21.795414
_cell_angle_alpha 90.000000
_cell_angle_beta 90.000000
_cell_angle_gamma 90.000000
_cell_volume 3162.329780
_symmetry_space_group_name_H-M "P C C A"
_symmetry_group_IT_number 54
_symmetry_cell_setting 'orthorhombic'
loop_
_space_group_symop_operation_xyz
x,y,z
1/2-x,-y,z
1/2+x,-y,1/2-z
-x,y,1/2-z
-x,-y,-z
1/2+x,y,-z
1/2-x,y,1/2+z
x,-y,1/2+z
loop_
_atom_site_type_symbol
_atom_site_label
_atom_site_fract_x
_atom_site_fract_y
_atom_site_fract_z
Si Si1 0.250000 0.000000 0.195901
Si Si2 0.500000 0.800174 0.750000
Si Si3 0.071623 0.414353 0.067478
Si Si4 0.493168 0.126897 0.854822
Si Si5 0.525847 0.746392 0.559971
Si Si6 0.809662 0.388704 0.370663
Si Si7 0.917671 0.491175 0.673325
Si Si8 0.309768 0.384062 0.255234
O O1 0.211151 0.156065 0.153587
O O2 0.292432 0.141342 0.238345
O O3 0.548797 0.645348 0.724729
O O4 0.516199 0.956528 0.805751
O O5 0.041097 0.294828 0.124456
O O6 0.139132 0.407833 0.080869
O O7 0.038390 0.642481 0.060948
O O8 0.053639 0.286908 0.006184
O O9 0.440314 0.264468 0.827372
O O10 0.474806 0.985956 0.913610
O O11 0.562835 0.606383 0.608296
O O12 0.750000 0.500000 0.391114
O O13 0.830703 0.513244 0.309279
O O14 0.852726 0.442639 0.690765
O O15 0.250000 0.500000 0.268299
#
# Coordination Sequence:
#
# PCOD9421513 Si02
#       8
#     4   4   8   8   8   8   8   8
#     4   8  18  36  50  82 108 146 184 224 286 328
#     4  10  22  30  50  84 110 140 178 228 286 332
#     4  10  20  36  58  76 114 145 192 232 272 331
#     4  10  21  33  53  82 109 148 180 225 289 338
#     4   9  21  37  52  83 106 151 186 230 277 332
#     4   9  20  33  53  80 108 142 184 228 279 327
#     4  10  21  35  52  79 116 136 186 228 277 340
#     4   9  20  34  54  78 110 145 184 229 284 336
#
# _framework density 17.708462999999998
#
# number of rings (size 3 to 8) (size 9 to 14) (size 15 to 20)
#    0.000    2.857    0.000    0.857   10.000    4.571 
#    0.000    0.714    0.000    0.857    0.000    0.000 
#    0.000    0.000    0.000    0.000    0.000    0.000 
#
# Total GULP energy -311978.512285 kJ/mol
# GULP energy per Si atom -5571.044862 kJ/mol
# Density = 1.766816 g / cm^3
# Si number density = 17.708463 Si / 1000 Ang^3
#
#
#
# Elastic Constant Matrix: (Units=GPa)
#
#
# Indices 1 2 3 4 5 6 
#
# 1 91.1118 34.2267 49.6756 0.0000 0.0000 0.0000
# 2 34.2267 98.5890 24.3818 0.0000 0.0000 0.0000
# 3 49.6756 24.3818 61.4906 0.0000 0.0000 0.0000
# 4 0.0000 0.0000 0.0000 2.1116 0.0000 0.0000
# 5 0.0000 0.0000 0.0000 0.0000 30.0792 0.0000
# 6 0.0000 0.0000 0.0000 0.0000 0.0000 5.7035
#
#
#
# Elastic Compliance Matrix: (Units=1/GPa)
#
#
# Indices 1 2 3 4 5 6 
#
# 1 0.020573 -0.003362 -0.015287 0.000000 0.000000 0.000000
# 2 -0.003362 0.011795 -0.001961 0.000000 0.000000 0.000000
# 3 -0.015287 -0.001961 0.029390 0.000000 0.000000 0.000000
# 4 0.000000 0.000000 0.000000 0.473574 0.000000 0.000000
# 5 0.000000 0.000000 0.000000 0.000000 0.033246 0.000000
# 6 0.000000 0.000000 0.000000 0.000000 0.000000 0.175331
#
#
# Mechanical properties :
#
#
# Convention : Reuss Voigt Hill
#
# Bulk Modulus (GPa) = 48.68939 51.97329 50.33134
# Shear Modulus (GPa) = 6.31333 17.10602 11.70967
#
# Velocity S-wave (km/s) = 1.89021 3.11139 2.57426
# Velocity P-wave (km/s) = 5.68494 6.50544 6.10898
#
# Compressibility (1/GPa) = 0.02053835
#
# Stress axis : x y z
#
# Youngs Moduli (GPa) = 48.60682 84.78032 34.02492
#
# Poissons Ratio (x) = 0.28500 0.52015
# Poissons Ratio (y) = 0.16340 0.06673
# Poissons Ratio (z) = 0.74307 0.16627
#
# Static dielectric constant tensor:
#      x y z
#    x 1.643040 0.000000 0.000000 
#    y 0.000000 1.651820 0.000000 
#    z 0.000000 0.000000 1.617620 
# 
# From -- ./inp_files/24829.got.cif
#   From: 2010.05.17/outbox.cif.g08.bks.cpg/sg54_13_cif.got.tgz:24829.got - 2010.06.03 13:09:01.
