data_PCOD9421383
_publ_section_title
;
Structure prediction by ZEFSAII (Michael W. Deem and Ramdas Pophale) SiO2 
 PCOD9421383
Probable space group: P C C A
;
_chemical_formula_sum "Si O2"
_cell_formula_units_Z 60
_cell_length_a 27.270692
_cell_length_b 22.381390
_cell_length_c 5.127310
_cell_angle_alpha 90.000000
_cell_angle_beta 90.000000
_cell_angle_gamma 90.000000
_cell_volume 3129.484388
_symmetry_space_group_name_H-M "P C C A"
_symmetry_group_IT_number 54
_symmetry_cell_setting 'orthorhombic'
loop_
_space_group_symop_operation_xyz
x,y,z
1/2-x,-y,z
1/2+x,-y,1/2-z
-x,y,1/2-z
-x,-y,-z
1/2+x,y,-z
1/2-x,y,1/2+z
x,-y,1/2+z
loop_
_atom_site_type_symbol
_atom_site_label
_atom_site_fract_x
_atom_site_fract_y
_atom_site_fract_z
Si Si1 0.415386 0.672978 0.193195
Si Si2 0.052440 0.840977 0.115348
Si Si3 0.880922 0.265325 0.784586
Si Si4 0.440884 0.462566 0.753550
Si Si5 0.500000 0.249515 0.750000
Si Si6 0.279950 0.220258 0.988330
Si Si7 0.393416 0.037678 0.953990
Si Si8 0.218040 0.077577 0.516121
O O1 0.407661 0.695245 0.490502
O O2 0.419053 0.602154 0.194453
O O3 0.465875 0.704653 0.091057
O O4 0.377183 0.698980 0.985411
O O5 0.090479 0.797776 0.268498
O O6 0.078748 0.900987 0.022175
O O7 0.000000 0.854274 0.250000
O O8 0.036766 0.796267 0.885918
O O9 0.828957 0.250662 0.911849
O O10 0.500000 0.455647 0.750000
O O11 0.427281 0.510465 0.532767
O O12 0.237136 0.234227 0.196428
O O13 0.289009 0.149047 0.002573
O O14 0.334950 0.048954 0.972341
O O15 0.405965 0.987769 0.170126
O O16 0.257726 0.063374 0.293326
#
# Coordination Sequence:
#
# PCOD9421383 Si02
#       8
#     8   8   8   8   4   8   8   8
#     4  11  21  35  58  89 120 156 216 230 286 335
#     4  11  24  43  61  82 115 157 195 244 302 334
#     4  11  22  37  62  90 118 154 196 252 286 358
#     4  10  20  34  52  79 124 171 204 245 285 330
#     4  10  22  38  60  84 112 160 196 254 272 354
#     4  10  20  37  61  90 119 149 180 235 315 372
#     4  12  28  43  62  86 112 146 199 249 289 363
#     4  10  21  40  64  86 113 144 180 232 305 375
#
# _framework density 19.172487
#
# number of rings (size 3 to 8) (size 9 to 14) (size 15 to 20)
#    0.000    1.333    3.333    2.400    1.867    2.133 
#    0.000    0.000    0.000    0.000    0.000    0.000 
#    0.000   37.333    0.000    0.000    0.000    0.000 
#
# Total GULP energy -334956.145462 kJ/mol
# GULP energy per Si atom -5582.602424 kJ/mol
# Density = 1.912885 g / cm^3
# Si number density = 19.172487 Si / 1000 Ang^3
#
#
#
# Elastic Constant Matrix: (Units=GPa)
#
#
# Indices 1 2 3 4 5 6 
#
# 1 41.9967 23.7312 -10.3071 0.0000 0.0000 0.0000
# 2 23.7312 84.2785 -10.1807 0.0000 0.0000 0.0000
# 3 -10.3071 -10.1807 48.0443 0.0000 0.0000 0.0000
# 4 0.0000 0.0000 0.0000 33.6422 0.0000 0.0000
# 5 0.0000 0.0000 0.0000 0.0000 17.1116 0.0000
# 6 0.0000 0.0000 0.0000 0.0000 0.0000 -45.2257
#
#
#
# Elastic Compliance Matrix: (Units=1/GPa)
#
#
# Indices 1 2 3 4 5 6 
#
# 1 0.029298 -0.007687 0.004656 0.000000 0.000000 0.000000
# 2 -0.007687 0.014194 0.001359 0.000000 0.000000 0.000000
# 3 0.004656 0.001359 0.022101 0.000000 0.000000 0.000000
# 4 0.000000 0.000000 0.000000 0.029725 0.000000 0.000000
# 5 0.000000 0.000000 0.000000 0.000000 0.058440 0.000000
# 6 0.000000 0.000000 0.000000 0.000000 0.000000 -0.022111
#
#
# Mechanical properties :
#
#
# Convention : Reuss Voigt Hill
#
# Bulk Modulus (GPa) = 16.06459 20.08959 18.07709
# Shear Modulus (GPa) = 32.10470 12.51069 22.30770
#
# Velocity S-wave (km/s) = 4.09653 2.55725 3.41475
# Velocity P-wave (km/s) = 5.54730 4.38411 4.99965
#
# Compressibility (1/GPa) = 0.06224871
#
# Stress axis : x y z
#
# Youngs Moduli (GPa) = 34.13193 70.45166 45.24686
#
# Poissons Ratio (x) = 0.54158 -0.21069
# Poissons Ratio (y) = 0.26238 -0.06147
# Poissons Ratio (z) = -0.15893 -0.09572
#
# Static dielectric constant tensor:
#      x y z
#    x 1.697050 0.000000 0.000000 
#    y 0.000000 1.644390 0.000000 
#    z 0.000000 0.000000 1.708100 
# 
# From -- ./inp_files/1986.got.cif
#   From: 2010.05.17/outbox.cif.g08.bks.cpg/sg54_1_cif.got.tgz:1986.got - 2010.06.03 13:09:01.
