data_PCOD9421348
_publ_section_title
;
Structure prediction by ZEFSAII (Michael W. Deem and Ramdas Pophale) SiO2 
 PCOD9421348
Probable space group: P C C A
;
_chemical_formula_sum "Si O2"
_cell_formula_units_Z 40
_cell_length_a 8.309738
_cell_length_b 9.120036
_cell_length_c 26.722175
_cell_angle_alpha 90.000000
_cell_angle_beta 90.000000
_cell_angle_gamma 90.000000
_cell_volume 2025.142964
_symmetry_space_group_name_H-M "P C C A"
_symmetry_group_IT_number 54
_symmetry_cell_setting 'orthorhombic'
loop_
_space_group_symop_operation_xyz
x,y,z
1/2-x,-y,z
1/2+x,-y,1/2-z
-x,y,1/2-z
-x,-y,-z
1/2+x,y,-z
1/2-x,y,1/2+z
x,-y,1/2+z
loop_
_atom_site_type_symbol
_atom_site_label
_atom_site_fract_x
_atom_site_fract_y
_atom_site_fract_z
Si Si1 0.589072 0.353778 0.163080
Si Si2 0.973075 0.593345 0.575543
Si Si3 0.000000 0.571380 0.750000
Si Si4 0.250000 0.500000 0.501042
Si Si5 0.573701 0.924244 0.804642
Si Si6 0.050273 0.222205 0.336158
O O1 0.561128 0.460426 0.115336
O O2 0.584403 0.455470 0.212664
O O3 0.764024 0.276860 0.164058
O O4 0.451964 0.228955 0.166626
O O5 0.823063 0.616527 0.538274
O O6 0.014236 0.729198 0.610318
O O7 0.114280 0.556429 0.537786
O O8 0.949902 0.689996 0.792917
O O9 0.500000 0.895467 0.750000
O O10 0.463516 0.051468 0.827722
O O11 0.750000 0.000000 0.802547
#
# Coordination Sequence:
#
# PCOD9421348 Si02
#       6
#     8   8   4   4   8   8
#     4  11  22  40  60  91 126 165 199 247 306 362
#     4  10  21  39  68  95 122 155 205 260 317 356
#     4  10  20  32  62  86 126 152 210 232 294 362
#     4  10  20  40  66  96 120 152 206 268 314 366
#     4  12  26  40  60  85 128 173 207 243 294 366
#     4  11  22  40  60  91 126 165 199 247 306 362
#
# _framework density 19.751693
#
# number of rings (size 3 to 8) (size 9 to 14) (size 15 to 20)
#    0.000    1.200    4.000    3.600    2.800    1.600 
#    7.200    0.000    0.000    7.200    0.000    0.000 
#    0.000    0.000    0.000    0.000    0.000    0.000 
#
# Total GULP energy -222721.675905 kJ/mol
# GULP energy per Si atom -5568.041898 kJ/mol
# Density = 1.970674 g / cm^3
# Si number density = 19.751693 Si / 1000 Ang^3
#
#
#
# Elastic Constant Matrix: (Units=GPa)
#
#
# Indices 1 2 3 4 5 6 
#
# 1 65.6618 15.3018 26.5516 0.0000 0.0000 0.0000
# 2 15.3018 94.5251 27.7832 0.0000 0.0000 0.0000
# 3 26.5516 27.7832 142.2000 0.0000 0.0000 0.0000
# 4 0.0000 0.0000 0.0000 63.1429 0.0000 0.0000
# 5 0.0000 0.0000 0.0000 0.0000 21.1026 0.0000
# 6 0.0000 0.0000 0.0000 0.0000 0.0000 19.2163
#
#
#
# Elastic Compliance Matrix: (Units=1/GPa)
#
#
# Indices 1 2 3 4 5 6 
#
# 1 0.016791 -0.001906 -0.002763 0.000000 0.000000 0.000000
# 2 -0.001906 0.011440 -0.001879 0.000000 0.000000 0.000000
# 3 -0.002763 -0.001879 0.007915 0.000000 0.000000 0.000000
# 4 0.000000 0.000000 0.000000 0.015837 0.000000 0.000000
# 5 0.000000 0.000000 0.000000 0.000000 0.047387 0.000000
# 6 0.000000 0.000000 0.000000 0.000000 0.000000 0.052039
#
#
# Mechanical properties :
#
#
# Convention : Reuss Voigt Hill
#
# Bulk Modulus (GPa) = 43.38367 49.07335 46.22851
# Shear Modulus (GPa) = 29.03773 36.20906 32.62340
#
# Velocity S-wave (km/s) = 3.83840 4.28625 4.06849
# Velocity P-wave (km/s) = 6.45419 7.02816 6.74728
#
# Compressibility (1/GPa) = 0.02305015
#
# Stress axis : x y z
#
# Youngs Moduli (GPa) = 59.55593 87.41168 126.33609
#
# Poissons Ratio (x) = 0.16661 0.34904
# Poissons Ratio (y) = 0.11352 0.23742
# Poissons Ratio (z) = 0.16454 0.16427
#
# Static dielectric constant tensor:
#      x y z
#    x 1.820330 0.000000 0.000000 
#    y 0.000000 1.694500 0.000000 
#    z 0.000000 0.000000 1.676400 
# 
# From -- ./inp_files/23299.got.cif
#   From: 2010.05.17/outbox.cif.g08.bks.cpg/sg54_12_cif.got.tgz:23299.got - 2010.06.03 13:09:01.
