data_PCOD9421245
_publ_section_title
;
Structure prediction by ZEFSAII (Michael W. Deem and Ramdas Pophale) SiO2 
 PCOD9421245
Probable space group: P C C A
;
_chemical_formula_sum "Si O2"
_cell_formula_units_Z 64
_cell_length_a 15.396874
_cell_length_b 11.696253
_cell_length_c 17.955346
_cell_angle_alpha 90.000000
_cell_angle_beta 90.000000
_cell_angle_gamma 90.000000
_cell_volume 3233.501658
_symmetry_space_group_name_H-M "P C C A"
_symmetry_group_IT_number 54
_symmetry_cell_setting 'orthorhombic'
loop_
_space_group_symop_operation_xyz
x,y,z
1/2-x,-y,z
1/2+x,-y,1/2-z
-x,y,1/2-z
-x,-y,-z
1/2+x,y,-z
1/2-x,y,1/2+z
x,-y,1/2+z
loop_
_atom_site_type_symbol
_atom_site_label
_atom_site_fract_x
_atom_site_fract_y
_atom_site_fract_z
Si Si1 0.650894 0.002610 0.943160
Si Si2 0.572076 0.750493 0.459172
Si Si3 0.499493 0.841531 0.613740
Si Si4 0.440823 0.247834 0.823322
Si Si5 0.844722 0.459314 0.120355
Si Si6 0.901613 0.499145 0.468173
Si Si7 0.007571 0.401235 0.666488
Si Si8 0.649276 0.979037 0.120344
O O1 0.581157 0.927181 0.898351
O O2 0.750000 0.000000 0.917218
O O3 0.624171 0.135003 0.941866
O O4 0.646058 0.962682 0.030055
O O5 0.520914 0.780283 0.534777
O O6 0.504828 0.731650 0.392845
O O7 0.625875 0.633611 0.466238
O O8 0.481746 0.734945 0.666452
O O9 0.584416 0.914985 0.635148
O O10 0.500000 0.244992 0.750000
O O11 0.374520 0.352814 0.830122
O O12 0.390092 0.130191 0.838097
O O13 0.750000 0.500000 0.140620
O O14 0.915303 0.559743 0.131966
O O15 0.848292 0.433273 0.031060
O O16 0.915576 0.548522 0.385501
O O17 0.000000 0.500000 0.500000
O O18 0.000000 0.446655 0.750000
O O19 0.750000 0.000000 0.139569
#
# Coordination Sequence:
#
# PCOD9421245 Si02
#       8
#     8   8   8   8   8   8   8   8
#     4  10  21  36  62  96 125 164 213 273 323 382
#     4  11  18  39  61  88 121 158 222 262 322 388
#     4  11  19  38  64  88 126 171 205 271 328 379
#     4  12  23  39  65  91 124 177 218 266 336 397
#     4  11  24  40  65  94 125 161 220 277 322 390
#     4  10  19  38  64  89 116 163 208 265 313 388
#     4  11  23  40  63  91 128 169 212 253 334 405
#     4  10  22  37  64  94 121 160 221 268 319 396
#
# _framework density 19.792783
#
# number of rings (size 3 to 8) (size 9 to 14) (size 15 to 20)
#    0.000    1.250    7.500    1.125    1.750    1.500 
#    0.000    2.500    0.000    0.000    0.000    0.000 
#    0.000    0.000    0.000    0.000    0.000    0.000 
#
# Total GULP energy -357110.362220 kJ/mol
# GULP energy per Si atom -5579.849410 kJ/mol
# Density = 1.974773 g / cm^3
# Si number density = 19.792783 Si / 1000 Ang^3
#
#
#
# Elastic Constant Matrix: (Units=GPa)
#
#
# Indices 1 2 3 4 5 6 
#
# 1 89.7634 41.4967 28.1856 0.0000 0.0000 0.0000
# 2 41.4967 124.2410 38.6781 0.0000 0.0000 0.0000
# 3 28.1856 38.6781 73.1500 0.0000 0.0000 0.0000
# 4 0.0000 0.0000 0.0000 6.4320 0.0000 0.0000
# 5 0.0000 0.0000 0.0000 0.0000 7.0728 0.0000
# 6 0.0000 0.0000 0.0000 0.0000 0.0000 20.2230
#
#
#
# Elastic Compliance Matrix: (Units=1/GPa)
#
#
# Indices 1 2 3 4 5 6 
#
# 1 0.013872 -0.003554 -0.003466 0.000000 0.000000 0.000000
# 2 -0.003554 0.010546 -0.004206 0.000000 0.000000 0.000000
# 3 -0.003466 -0.004206 0.017230 0.000000 0.000000 0.000000
# 4 0.000000 0.000000 0.000000 0.155472 0.000000 0.000000
# 5 0.000000 0.000000 0.000000 0.000000 0.141386 0.000000
# 6 0.000000 0.000000 0.000000 0.000000 0.000000 0.049449
#
#
# Mechanical properties :
#
#
# Convention : Reuss Voigt Hill
#
# Bulk Modulus (GPa) = 52.09796 55.98612 54.04204
# Shear Modulus (GPa) = 11.99603 18.66517 15.33060
#
# Velocity S-wave (km/s) = 2.46454 3.07421 2.78610
# Velocity P-wave (km/s) = 5.87175 6.39911 6.14109
#
# Compressibility (1/GPa) = 0.01919461
#
# Stress axis : x y z
#
# Youngs Moduli (GPa) = 72.08924 94.82684 58.03812
#
# Poissons Ratio (x) = 0.33704 0.20114
# Poissons Ratio (y) = 0.25622 0.24413
# Poissons Ratio (z) = 0.24983 0.39888
#
# Static dielectric constant tensor:
#      x y z
#    x 1.677960 0.000000 0.000000 
#    y 0.000000 1.752560 0.000000 
#    z 0.000000 0.000000 1.750100 
# 
# From -- ./inp_files/18229.got.cif
#   From: 2010.05.17/outbox.cif.g08.bks.cpg/sg54_10_cif.got.tgz:18229.got - 2010.06.03 13:09:01.
