data_PCOD9421540
_publ_section_title
;
Structure prediction by ZEFSAII (Michael W. Deem and Ramdas Pophale) SiO2 
 PCOD9421540
Probable space group: P C C A
;
_chemical_formula_sum "Si O2"
_cell_formula_units_Z 40
_cell_length_a 24.587133
_cell_length_b 9.107979
_cell_length_c 9.336056
_cell_angle_alpha 90.000000
_cell_angle_beta 90.000000
_cell_angle_gamma 90.000000
_cell_volume 2090.707894
_symmetry_space_group_name_H-M "P C C A"
_symmetry_group_IT_number 54
_symmetry_cell_setting 'orthorhombic'
loop_
_space_group_symop_operation_xyz
x,y,z
1/2-x,-y,z
1/2+x,-y,1/2-z
-x,y,1/2-z
-x,-y,-z
1/2+x,y,-z
1/2-x,y,1/2+z
x,-y,1/2+z
loop_
_atom_site_type_symbol
_atom_site_label
_atom_site_fract_x
_atom_site_fract_y
_atom_site_fract_z
Si Si1 0.416414 0.287371 0.298474
Si Si2 0.821318 0.117608 0.591563
Si Si3 0.978620 0.812618 0.942082
Si Si4 0.412110 0.925464 0.537220
Si Si5 0.500000 0.542029 0.250000
Si Si6 0.750000 0.000000 0.849405
O O1 0.360479 0.259156 0.387354
O O2 0.461148 0.201638 0.392745
O O3 0.405058 0.205703 0.149270
O O4 0.446789 0.442248 0.280418
O O5 0.791109 0.080777 0.740116
O O6 0.779805 0.113894 0.457678
O O7 0.860631 0.980470 0.551048
O O8 0.981654 0.652388 0.875290
O O9 0.935224 0.928849 0.882521
O O10 0.038667 0.876315 0.936224
#
# Coordination Sequence:
#
# PCOD9421540 Si02
#       6
#     8   8   8   8   4   4
#     4  11  21  37  53  86 129 165 197 248 304 372
#     4  10  21  36  62  91 121 150 203 269 315 354
#     4  10  23  34  56  85 126 166 204 242 293 361
#     4  10  20  36  59  85 122 159 206 247 303 356
#     4  12  24  34  54  88 132 174 204 240 296 378
#     4  10  20  38  60  94 118 144 210 284 316 344
#
# _framework density 19.132275
#
# number of rings (size 3 to 8) (size 9 to 14) (size 15 to 20)
#    0.000    1.600    4.000    0.600    8.400    0.000 
#    0.000    0.000    0.000    0.000    0.000   47.600 
#    0.000    0.000    0.000    0.000    0.000    0.000 
#
# Total GULP energy -222750.889607 kJ/mol
# GULP energy per Si atom -5568.772240 kJ/mol
# Density = 1.908873 g / cm^3
# Si number density = 19.132275 Si / 1000 Ang^3
#
#
#
# Elastic Constant Matrix: (Units=GPa)
#
#
# Indices 1 2 3 4 5 6 
#
# 1 104.2236 36.1918 41.9413 0.0000 0.0000 0.0000
# 2 36.1918 102.7596 29.8707 0.0000 0.0000 0.0000
# 3 41.9413 29.8707 88.7091 0.0000 0.0000 0.0000
# 4 0.0000 0.0000 0.0000 24.3276 0.0000 0.0000
# 5 0.0000 0.0000 0.0000 0.0000 27.0382 0.0000
# 6 0.0000 0.0000 0.0000 0.0000 0.0000 9.6814
#
#
#
# Elastic Compliance Matrix: (Units=1/GPa)
#
#
# Indices 1 2 3 4 5 6 
#
# 1 0.012636 -0.003008 -0.004961 0.000000 0.000000 0.000000
# 2 -0.003008 0.011503 -0.002451 0.000000 0.000000 0.000000
# 3 -0.004961 -0.002451 0.014444 0.000000 0.000000 0.000000
# 4 0.000000 0.000000 0.000000 0.041106 0.000000 0.000000
# 5 0.000000 0.000000 0.000000 0.000000 0.036985 0.000000
# 6 0.000000 0.000000 0.000000 0.000000 0.000000 0.103291
#
#
# Mechanical properties :
#
#
# Convention : Reuss Voigt Hill
#
# Bulk Modulus (GPa) = 56.36403 56.85553 56.60978
# Shear Modulus (GPa) = 20.26594 24.72202 22.49398
#
# Velocity S-wave (km/s) = 3.25815 3.59857 3.43258
# Velocity P-wave (km/s) = 6.60895 6.85914 6.73521
#
# Compressibility (1/GPa) = 0.01774181
#
# Stress axis : x y z
#
# Youngs Moduli (GPa) = 79.14009 86.93032 69.23356
#
# Poissons Ratio (x) = 0.26150 0.34348
# Poissons Ratio (y) = 0.23807 0.16971
# Poissons Ratio (z) = 0.39263 0.21309
#
# Static dielectric constant tensor:
#      x y z
#    x 1.727730 0.000000 0.000000 
#    y 0.000000 1.685540 0.000000 
#    z 0.000000 0.000000 1.751890 
# 
# From -- ./inp_files/5463.got.cif
#   From: 2010.05.17/outbox.cif.g08.bks.cpg/sg54_3_cif.got.tgz:5463.got - 2010.06.03 13:09:01.
