data_PCOD9421460
_publ_section_title
;
Structure prediction by ZEFSAII (Michael W. Deem and Ramdas Pophale) SiO2 
 PCOD9421460
Probable space group: P C C A
;
_chemical_formula_sum "Si O2"
_cell_formula_units_Z 64
_cell_length_a 9.407680
_cell_length_b 12.178129
_cell_length_c 28.260393
_cell_angle_alpha 90.000000
_cell_angle_beta 90.000000
_cell_angle_gamma 90.000000
_cell_volume 3237.735027
_symmetry_space_group_name_H-M "P C C A"
_symmetry_group_IT_number 54
_symmetry_cell_setting 'orthorhombic'
loop_
_space_group_symop_operation_xyz
x,y,z
1/2-x,-y,z
1/2+x,-y,1/2-z
-x,y,1/2-z
-x,-y,-z
1/2+x,y,-z
1/2-x,y,1/2+z
x,-y,1/2+z
loop_
_atom_site_type_symbol
_atom_site_label
_atom_site_fract_x
_atom_site_fract_y
_atom_site_fract_z
Si Si1 0.530906 0.225502 0.802170
Si Si2 0.918029 0.744404 0.524275
Si Si3 0.434126 0.888053 0.101508
Si Si4 0.694986 0.375475 0.297897
Si Si5 0.603521 0.870523 0.927786
Si Si6 0.536432 0.664615 0.622026
Si Si7 0.745186 0.629955 0.193147
Si Si8 0.353033 0.600243 0.972369
O O1 0.500000 0.176017 0.750000
O O2 0.527656 0.137351 0.844163
O O3 0.680561 0.288301 0.808734
O O4 0.411960 0.321534 0.803603
O O5 0.907185 0.834772 0.482487
O O6 0.761162 0.698028 0.532824
O O7 0.982090 0.800803 0.570035
O O8 0.024445 0.645941 0.507135
O O9 0.266735 0.871833 0.089859
O O10 0.463188 0.012099 0.084673
O O11 0.750000 0.500000 0.298282
O O12 0.572631 0.371980 0.337105
O O13 0.669210 0.351999 0.242154
O O14 0.525471 0.772991 0.900977
O O15 0.680396 0.687978 0.649619
O O16 0.571694 0.582118 0.578652
O O17 0.750000 0.500000 0.184016
O O18 0.250000 0.500000 0.987297
#
# Coordination Sequence:
#
# PCOD9421460 Si02
#       8
#     8   8   8   8   8   8   8   8
#     4  10  21  38  60  92 125 161 204 247 310 377
#     4  11  22  43  65  94 121 160 213 253 309 362
#     4  11  21  42  67  86 122 161 207 263 317 354
#     4  10  20  35  59  88 120 163 211 250 301 373
#     4  10  23  40  63  92 114 160 210 262 309 367
#     4  11  21  38  56  89 122 156 209 252 315 361
#     4  10  20  36  59  87 126 163 199 257 304 363
#     4  11  24  40  60  91 130 167 200 252 307 381
#
# _framework density 19.766905999999999
#
# number of rings (size 3 to 8) (size 9 to 14) (size 15 to 20)
#    0.000    1.500    2.500    3.000    0.000    3.000 
#    0.000    6.250    0.000    0.000    0.000    0.000 
#    0.000    0.000    0.000    0.000    0.000    0.000 
#
# Total GULP energy -357102.524971 kJ/mol
# GULP energy per Si atom -5579.726953 kJ/mol
# Density = 1.972192 g / cm^3
# Si number density = 19.766906 Si / 1000 Ang^3
#
#
#
# Elastic Constant Matrix: (Units=GPa)
#
#
# Indices 1 2 3 4 5 6 
#
# 1 60.6382 -2.7546 15.7044 0.0000 0.0000 0.0000
# 2 -2.7546 46.7490 17.7431 0.0000 0.0000 0.0000
# 3 15.7044 17.7431 107.9902 0.0000 0.0000 0.0000
# 4 0.0000 0.0000 0.0000 15.9380 0.0000 0.0000
# 5 0.0000 0.0000 0.0000 0.0000 28.6572 0.0000
# 6 0.0000 0.0000 0.0000 0.0000 0.0000 19.5956
#
#
#
# Elastic Compliance Matrix: (Units=1/GPa)
#
#
# Indices 1 2 3 4 5 6 
#
# 1 0.017329 0.002109 -0.002867 0.000000 0.000000 0.000000
# 2 0.002109 0.023070 -0.004097 0.000000 0.000000 0.000000
# 3 -0.002867 -0.004097 0.010350 0.000000 0.000000 0.000000
# 4 0.000000 0.000000 0.000000 0.062743 0.000000 0.000000
# 5 0.000000 0.000000 0.000000 0.000000 0.034895 0.000000
# 6 0.000000 0.000000 0.000000 0.000000 0.000000 0.051032
#
#
# Mechanical properties :
#
#
# Convention : Reuss Voigt Hill
#
# Bulk Modulus (GPa) = 24.36629 30.75147 27.55888
# Shear Modulus (GPa) = 22.44067 25.15045 23.79556
#
# Velocity S-wave (km/s) = 3.37302 3.57087 3.47336
# Velocity P-wave (km/s) = 5.24627 5.70897 5.48250
#
# Compressibility (1/GPa) = 0.04104030
#
# Stress axis : x y z
#
# Youngs Moduli (GPa) = 57.70508 43.34599 96.61675
#
# Poissons Ratio (x) = -0.09142 0.27697
# Poissons Ratio (y) = -0.12171 0.39586
# Poissons Ratio (z) = 0.16542 0.17760
#
# Static dielectric constant tensor:
#      x y z
#    x 1.712260 0.000000 0.000000 
#    y 0.000000 1.676280 0.000000 
#    z 0.000000 0.000000 1.713800 
# 
# From -- ./inp_files/27937.got.cif
#   From: 2010.05.17/outbox.cif.g08.bks.cpg/sg54_14_cif.got.tgz:27937.got - 2010.06.03 13:09:01.
