data_PCOD9421717
_publ_section_title
;
Structure prediction by ZEFSAII (Michael W. Deem and Ramdas Pophale) SiO2 
 PCOD9421717
Probable space group: P C C A
;
_chemical_formula_sum "Si O2"
_cell_formula_units_Z 40
_cell_length_a 14.216239
_cell_length_b 9.476297
_cell_length_c 14.321903
_cell_angle_alpha 90.000000
_cell_angle_beta 90.000000
_cell_angle_gamma 90.000000
_cell_volume 1929.408146
_symmetry_space_group_name_H-M "P C C A"
_symmetry_group_IT_number 54
_symmetry_cell_setting 'orthorhombic'
loop_
_space_group_symop_operation_xyz
x,y,z
1/2-x,-y,z
1/2+x,-y,1/2-z
-x,y,1/2-z
-x,-y,-z
1/2+x,y,-z
1/2-x,y,1/2+z
x,-y,1/2+z
loop_
_atom_site_type_symbol
_atom_site_label
_atom_site_fract_x
_atom_site_fract_y
_atom_site_fract_z
Si Si1 0.122961 0.753158 0.577193
Si Si2 0.482072 0.998446 0.147303
Si Si3 0.882852 0.260090 0.634336
Si Si4 0.453743 0.464117 0.100792
Si Si5 0.818474 0.227712 0.835073
O O1 0.152336 0.716261 0.470804
O O2 0.083629 0.616213 0.630639
O O3 0.215630 0.805883 0.628641
O O4 0.041537 0.871561 0.578081
O O5 0.500000 0.935621 0.250000
O O6 0.567644 0.106065 0.131016
O O7 0.391034 0.099627 0.151421
O O8 0.816995 0.263021 0.724474
O O9 0.963306 0.378090 0.651503
O O10 0.365290 0.357850 0.107786
O O11 0.500000 0.500000 0.000000
#
# Coordination Sequence:
#
# PCOD9421717 Si02
#       5
#     8   8   8   8   8
#     4  11  20  35  59  88 108 139 193 237 265 322
#     4   9  19  36  58  81 112 149 183 223 280 340
#     4   9  20  39  58  77 113 155 180 218 286 338
#     4   9  19  36  58  79 106 145 186 222 272 336
#     4  10  20  38  56  81 118 148 176 230 288 326
#
# _framework density 20.731745
#
# number of rings (size 3 to 8) (size 9 to 14) (size 15 to 20)
#    0.000    2.400    0.000    3.600    0.000    1.600 
#    0.000   24.000    0.000    0.000    0.000    0.000 
#    0.000    0.000    0.000    0.000    0.000    0.000 
#
# Total GULP energy -222885.862118 kJ/mol
# GULP energy per Si atom -5572.146553 kJ/mol
# Density = 2.068456 g / cm^3
# Si number density = 20.731745 Si / 1000 Ang^3
#
#
#
# Elastic Constant Matrix: (Units=GPa)
#
#
# Indices 1 2 3 4 5 6 
#
# 1 43.0280 -1.9445 9.5756 0.0000 0.0000 0.0000
# 2 -1.9445 80.2100 4.0215 0.0000 0.0000 0.0000
# 3 9.5756 4.0215 97.2234 0.0000 0.0000 0.0000
# 4 0.0000 0.0000 0.0000 20.2927 0.0000 0.0000
# 5 0.0000 0.0000 0.0000 0.0000 29.2819 0.0000
# 6 0.0000 0.0000 0.0000 0.0000 0.0000 5.9612
#
#
#
# Elastic Compliance Matrix: (Units=1/GPa)
#
#
# Indices 1 2 3 4 5 6 
#
# 1 0.023800 0.000696 -0.002373 0.000000 0.000000 0.000000
# 2 0.000696 0.012514 -0.000586 0.000000 0.000000 0.000000
# 3 -0.002373 -0.000586 0.010544 0.000000 0.000000 0.000000
# 4 0.000000 0.000000 0.000000 0.049279 0.000000 0.000000
# 5 0.000000 0.000000 0.000000 0.000000 0.034151 0.000000
# 6 0.000000 0.000000 0.000000 0.000000 0.000000 0.167752
#
#
# Mechanical properties :
#
#
# Convention : Reuss Voigt Hill
#
# Bulk Modulus (GPa) = 23.62332 27.08520 25.35426
# Shear Modulus (GPa) = 15.78903 25.02774 20.40838
#
# Velocity S-wave (km/s) = 2.76268 3.47827 3.14092
# Velocity P-wave (km/s) = 4.64715 5.40594 5.04084
#
# Compressibility (1/GPa) = 0.04233106
#
# Stress axis : x y z
#
# Youngs Moduli (GPa) = 42.01647 79.91352 94.84475
#
# Poissons Ratio (x) = -0.05561 0.22506
# Poissons Ratio (y) = -0.02924 0.05559
# Poissons Ratio (z) = 0.09970 0.04684
#
# Static dielectric constant tensor:
#      x y z
#    x 1.725760 0.000000 0.000000 
#    y 0.000000 1.767460 0.000000 
#    z 0.000000 0.000000 1.787120 
# 
# From -- ./inp_files/13168.got.cif
#   From: 2010.05.17/outbox.cif.g08.bks.cpg/sg54_7_cif.got.tgz:13168.got - 2010.06.03 13:09:01.
