data_PCOD9421365
_publ_section_title
;
Structure prediction by ZEFSAII (Michael W. Deem and Ramdas Pophale) SiO2 
 PCOD9421365
Probable space group: P C C A
;
_chemical_formula_sum "Si O2"
_cell_formula_units_Z 56
_cell_length_a 5.283570
_cell_length_b 15.240071
_cell_length_c 31.584015
_cell_angle_alpha 90.000000
_cell_angle_beta 90.000000
_cell_angle_gamma 90.000000
_cell_volume 2543.207485
_symmetry_space_group_name_H-M "P C C A"
_symmetry_group_IT_number 54
_symmetry_cell_setting 'orthorhombic'
loop_
_space_group_symop_operation_xyz
x,y,z
1/2-x,-y,z
1/2+x,-y,1/2-z
-x,y,1/2-z
-x,-y,-z
1/2+x,y,-z
1/2-x,y,1/2+z
x,-y,1/2+z
loop_
_atom_site_type_symbol
_atom_site_label
_atom_site_fract_x
_atom_site_fract_y
_atom_site_fract_z
Si Si1 0.754891 0.717670 0.720921
Si Si2 0.020613 0.667878 0.862702
Si Si3 0.025224 0.746818 0.102349
Si Si4 0.052683 0.719445 0.010117
Si Si5 0.598585 0.090548 0.202390
Si Si6 0.485435 0.945140 0.610642
Si Si7 0.998105 0.556804 0.944544
O O1 0.500000 0.699651 0.750000
O O2 0.854565 0.652417 0.683639
O O3 0.724012 0.813444 0.698746
O O4 0.000000 0.726295 0.750000
O O5 0.242636 0.724716 0.883888
O O6 0.748012 0.718029 0.864850
O O7 0.988765 0.588009 0.895386
O O8 0.022566 0.848876 0.090978
O O9 0.073953 0.694197 0.059024
O O10 0.796692 0.771427 0.003682
O O11 0.026558 0.637924 0.977511
O O12 0.500000 0.094280 0.250000
O O13 0.431697 0.079001 0.160560
O O14 0.750000 0.000000 0.201906
O O15 0.250000 0.000000 0.594581
O O16 0.750000 0.000000 0.607987
O O17 0.750000 0.500000 0.953779
O O18 0.250000 0.500000 0.949127
#
# Coordination Sequence:
#
# PCOD9421365 Si02
#       7
#     8   8   8   8   8   8   8
#     4  11  24  40  64  95 132 178 232 281 321 395
#     4  12  24  44  67  99 134 185 222 272 344 409
#     4  12  23  43  66  94 134 183 234 277 324 425
#     4  12  23  43  64 102 135 181 213 265 346 417
#     4  10  20  33  55  89 130 168 211 277 349 388
#     4  11  24  39  62  90 126 181 233 285 339 390
#     4  12  26  44  70 108 145 168 213 276 352 437
#
# _framework density 22.019438000000001
#
# number of rings (size 3 to 8) (size 9 to 14) (size 15 to 20)
#    0.000    0.571    4.286    4.286    4.000    1.714 
#    0.000    0.000    0.000    4.286    0.000    0.000 
#    0.000    0.000    0.000    0.000    0.000    0.000 
#
# Total GULP energy -312211.339709 kJ/mol
# GULP energy per Si atom -5575.202495 kJ/mol
# Density = 2.196932 g / cm^3
# Si number density = 22.019438 Si / 1000 Ang^3
#
#
#
# Elastic Constant Matrix: (Units=GPa)
#
#
# Indices 1 2 3 4 5 6 
#
# 1 148.9285 24.7045 -0.5678 0.0000 0.0000 0.0000
# 2 24.7045 57.5944 21.4372 0.0000 0.0000 0.0000
# 3 -0.5678 21.4372 76.9728 0.0000 0.0000 0.0000
# 4 0.0000 0.0000 0.0000 33.1659 0.0000 0.0000
# 5 0.0000 0.0000 0.0000 0.0000 2.5585 0.0000
# 6 0.0000 0.0000 0.0000 0.0000 0.0000 18.7753
#
#
#
# Elastic Compliance Matrix: (Units=1/GPa)
#
#
# Indices 1 2 3 4 5 6 
#
# 1 0.007302 -0.003517 0.001033 0.000000 0.000000 0.000000
# 2 -0.003517 0.021064 -0.005892 0.000000 0.000000 0.000000
# 3 0.001033 -0.005892 0.014640 0.000000 0.000000 0.000000
# 4 0.000000 0.000000 0.000000 0.030151 0.000000 0.000000
# 5 0.000000 0.000000 0.000000 0.000000 0.390858 0.000000
# 6 0.000000 0.000000 0.000000 0.000000 0.000000 0.053262
#
#
# Mechanical properties :
#
#
# Convention : Reuss Voigt Hill
#
# Bulk Modulus (GPa) = 38.08805 41.62705 39.85755
# Shear Modulus (GPa) = 9.21181 26.76138 17.98659
#
# Velocity S-wave (km/s) = 2.04758 3.48997 2.86116
# Velocity P-wave (km/s) = 4.78802 5.93175 5.39030
#
# Compressibility (1/GPa) = 0.02625495
#
# Stress axis : x y z
#
# Youngs Moduli (GPa) = 136.95023 47.47327 68.30464
#
# Poissons Ratio (x) = 0.16695 -0.07058
# Poissons Ratio (y) = 0.48161 0.40248
# Poissons Ratio (z) = -0.14151 0.27973
#
# Static dielectric constant tensor:
#      x y z
#    x 1.870960 0.000000 0.000000 
#    y 0.000000 2.277410 0.000000 
#    z 0.000000 0.000000 1.971910 
# 
# From -- ./inp_files/27205.got.cif
#   From: 2010.05.17/outbox.cif.g08.bks.cpg/sg54_14_cif.got.tgz:27205.got - 2010.06.03 13:09:01.
