data_PCOD9421292
_publ_section_title
;
Structure prediction by ZEFSAII (Michael W. Deem and Ramdas Pophale) SiO2 
 PCOD9421292
Probable space group: P C C A
;
_chemical_formula_sum "Si O2"
_cell_formula_units_Z 36
_cell_length_a 8.040636
_cell_length_b 7.544884
_cell_length_c 25.026936
_cell_angle_alpha 90.000000
_cell_angle_beta 90.000000
_cell_angle_gamma 90.000000
_cell_volume 1518.275738
_symmetry_space_group_name_H-M "P C C A"
_symmetry_group_IT_number 54
_symmetry_cell_setting 'orthorhombic'
loop_
_space_group_symop_operation_xyz
x,y,z
1/2-x,-y,z
1/2+x,-y,1/2-z
-x,y,1/2-z
-x,-y,-z
1/2+x,y,-z
1/2-x,y,1/2+z
x,-y,1/2+z
loop_
_atom_site_type_symbol
_atom_site_label
_atom_site_fract_x
_atom_site_fract_y
_atom_site_fract_z
Si Si1 0.052983 0.462717 0.061562
Si Si2 0.892572 0.235331 0.633782
Si Si3 0.677587 0.800288 0.223501
Si Si4 0.000000 0.266402 0.750000
Si Si5 0.445444 0.952667 0.059834
O O1 0.250000 0.500000 0.067419
O O2 0.049586 0.410778 0.897827
O O3 0.029745 0.254355 0.069609
O O4 0.000000 0.500000 0.000000
O O5 0.708991 0.235015 0.660690
O O6 0.996679 0.196851 0.688425
O O7 0.938507 0.075786 0.595651
O O8 0.500000 0.782952 0.250000
O O9 0.812213 0.668263 0.249081
O O10 0.750000 0.000000 0.234967
O O11 0.250000 0.000000 0.067600
O O12 0.500000 0.000000 0.000000
#
# Coordination Sequence:
#
# PCOD9421292 Si02
#       5
#     8   8   8   4   8
#     4  12  24  49  75 115 170 214 282 357 427 519
#     4  10  23  44  74 113 160 219 276 347 426 504
#     4  10  19  41  74 114 160 218 285 345 414 513
#     4   8  22  42  70 112 164 208 286 320 438 490
#     4  12  24  45  78 118 161 224 282 350 433 518
#
# _framework density 23.711110000000001
#
# number of rings (size 3 to 8) (size 9 to 14) (size 15 to 20)
#    1.333    0.000    5.556    0.000    0.000    3.556 
#    4.000    1.111    0.000    2.667    0.000    0.000 
#    0.000    0.000    0.000    0.000    0.000    0.000 
#
# Total GULP energy -200437.631726 kJ/mol
# GULP energy per Si atom -5567.711992 kJ/mol
# Density = 2.365714 g / cm^3
# Si number density = 23.711110 Si / 1000 Ang^3
#
#
#
# Elastic Constant Matrix: (Units=GPa)
#
#
# Indices 1 2 3 4 5 6 
#
# 1 214.4702 80.1428 88.8101 0.0000 0.0000 0.0000
# 2 80.1428 202.8169 81.1488 0.0000 0.0000 0.0000
# 3 88.8101 81.1488 207.9365 0.0000 0.0000 0.0000
# 4 0.0000 0.0000 0.0000 -14.0215 0.0000 0.0000
# 5 0.0000 0.0000 0.0000 0.0000 54.1834 0.0000
# 6 0.0000 0.0000 0.0000 0.0000 0.0000 5.2596
#
#
#
# Elastic Compliance Matrix: (Units=1/GPa)
#
#
# Indices 1 2 3 4 5 6 
#
# 1 0.006081 -0.001616 -0.001966 0.000000 0.000000 0.000000
# 2 -0.001616 0.006272 -0.001758 0.000000 0.000000 0.000000
# 3 -0.001966 -0.001758 0.006335 0.000000 0.000000 0.000000
# 4 0.000000 0.000000 0.000000 -0.071319 0.000000 0.000000
# 5 0.000000 0.000000 0.000000 0.000000 0.018456 0.000000
# 6 0.000000 0.000000 0.000000 0.000000 0.000000 0.190128
#
#
# Mechanical properties :
#
#
# Convention : Reuss Voigt Hill
#
# Bulk Modulus (GPa) = 124.87647 125.04746 124.96196
# Shear Modulus (GPa) = 29.53288 34.09243 31.81265
#
# Velocity S-wave (km/s) = 3.53303 3.79598 3.66686
# Velocity P-wave (km/s) = 8.33206 8.48911 8.41095
#
# Compressibility (1/GPa) = 0.00800791
#
# Stress axis : x y z
#
# Youngs Moduli (GPa) = 164.45152 159.42935 157.85399
#
# Poissons Ratio (x) = 0.25764 0.31041
# Poissons Ratio (y) = 0.26576 0.27745
# Poissons Ratio (z) = 0.32339 0.28022
#
# Static dielectric constant tensor:
#      x y z
#    x -2.361090 0.000000 0.000000 
#    y 0.000000 2.190610 0.000000 
#    z 0.000000 0.000000 1.884910 
# 
# From -- ./inp_files/25669.got.cif
#   From: 2010.05.17/outbox.cif.g08.bks.cpg/sg54_13_cif.got.tgz:25669.got - 2010.06.03 13:09:01.
