data_PCOD9421973
_publ_section_title
;
Structure prediction by ZEFSAII (Michael W. Deem and Ramdas Pophale) SiO2 
 PCOD9421973
Probable space group: P C C A
;
_chemical_formula_sum "Si O2"
_cell_formula_units_Z 32
_cell_length_a 7.807841
_cell_length_b 8.436916
_cell_length_c 17.999926
_cell_angle_alpha 90.000000
_cell_angle_beta 90.000000
_cell_angle_gamma 90.000000
_cell_volume 1185.728901
_symmetry_space_group_name_H-M "P C C A"
_symmetry_group_IT_number 54
_symmetry_cell_setting 'orthorhombic'
loop_
_space_group_symop_operation_xyz
x,y,z
1/2-x,-y,z
1/2+x,-y,1/2-z
-x,y,1/2-z
-x,-y,-z
1/2+x,y,-z
1/2-x,y,1/2+z
x,-y,1/2+z
loop_
_atom_site_type_symbol
_atom_site_label
_atom_site_fract_x
_atom_site_fract_y
_atom_site_fract_z
Si Si1 0.031858 0.747818 0.024555
Si Si2 0.198623 0.816983 0.887413
Si Si3 0.188046 0.736099 0.229417
Si Si4 0.750000 0.500000 0.391901
Si Si5 0.750000 0.000000 0.881955
O O1 0.117038 0.586733 0.054421
O O2 0.141512 0.895901 0.056445
O O3 0.846603 0.744124 0.061316
O O4 0.030059 0.780300 0.935905
O O5 0.206984 0.751045 0.804920
O O6 0.250000 0.000000 0.881570
O O7 0.290388 0.636482 0.168296
O O8 0.152052 0.898757 0.185563
O O9 0.000000 0.668311 0.250000
#
# Coordination Sequence:
#
# PCOD9421973 Si02
#       5
#     8   8   8   4   4
#     4  11  25  44  68 102 147 181 234 296 356 433
#     4  12  24  43  73 105 138 184 242 300 351 419
#     4  11  22  44  68  98 138 182 236 291 349 426
#     4  10  24  46  64  98 144 188 222 302 348 438
#     4  10  20  40  70  96 138 178 232 300 342 414
#
# _framework density 26.987617
#
# number of rings (size 3 to 8) (size 9 to 14) (size 15 to 20)
#    0.000    1.000    7.500    0.750    0.000    2.000 
#    4.500    2.500    0.000    0.000    0.000    0.000 
#    0.000    0.000    0.000    0.000    0.000    0.000 
#
# Total GULP energy -178321.757053 kJ/mol
# GULP energy per Si atom -5572.554908 kJ/mol
# Density = 2.692619 g / cm^3
# Si number density = 26.987617 Si / 1000 Ang^3
#
#
#
# Elastic Constant Matrix: (Units=GPa)
#
#
# Indices 1 2 3 4 5 6 
#
# 1 71.5639 45.6285 36.1257 0.0000 0.0000 0.0000
# 2 45.6285 49.2659 41.1950 0.0000 0.0000 0.0000
# 3 36.1257 41.1950 261.4230 0.0000 0.0000 0.0000
# 4 0.0000 0.0000 0.0000 73.7519 0.0000 0.0000
# 5 0.0000 0.0000 0.0000 0.0000 26.4789 0.0000
# 6 0.0000 0.0000 0.0000 0.0000 0.0000 -26.0367
#
#
#
# Elastic Compliance Matrix: (Units=1/GPa)
#
#
# Indices 1 2 3 4 5 6 
#
# 1 0.034146 -0.031880 0.000305 0.000000 0.000000 0.000000
# 2 -0.031880 0.053143 -0.003969 0.000000 0.000000 0.000000
# 3 0.000305 -0.003969 0.004408 0.000000 0.000000 0.000000
# 4 0.000000 0.000000 0.000000 0.013559 0.000000 0.000000
# 5 0.000000 0.000000 0.000000 0.000000 0.037766 0.000000
# 6 0.000000 0.000000 0.000000 0.000000 0.000000 -0.038407
#
#
# Mechanical properties :
#
#
# Convention : Reuss Voigt Hill
#
# Bulk Modulus (GPa) = 48.52049 69.79456 59.15753
# Shear Modulus (GPa) = 27.38647 32.12573 29.75610
#
# Velocity S-wave (km/s) = 3.18902 3.45394 3.32412
# Velocity P-wave (km/s) = 5.61939 6.46716 6.05812
#
# Compressibility (1/GPa) = 0.02060985
#
# Stress axis : x y z
#
# Youngs Moduli (GPa) = 29.28613 18.81722 226.83631
#
# Poissons Ratio (x) = 0.59989 -0.06920
# Poissons Ratio (y) = 0.93364 0.90027
# Poissons Ratio (z) = -0.00893 0.07468
#
# Static dielectric constant tensor:
#      x y z
#    x 2.217130 0.000000 0.000000 
#    y 0.000000 2.303130 0.000000 
#    z 0.000000 0.000000 2.093870 
# 
# From -- ./inp_files/20058.got.cif
#   From: 2010.05.17/outbox.cif.g08.bks.cpg/sg54_11_cif.got.tgz:20058.got - 2010.06.03 13:09:01.
