data_PCOD9421905
_publ_section_title
;
Structure prediction by ZEFSAII (Michael W. Deem and Ramdas Pophale) SiO2 
 PCOD9421905
Probable space group: P C C A
;
_chemical_formula_sum "Si O2"
_cell_formula_units_Z 28
_cell_length_a 13.167316
_cell_length_b 8.748922
_cell_length_c 10.123905
_cell_angle_alpha 90.000000
_cell_angle_beta 90.000000
_cell_angle_gamma 90.000000
_cell_volume 1166.272040
_symmetry_space_group_name_H-M "P C C A"
_symmetry_group_IT_number 54
_symmetry_cell_setting 'orthorhombic'
loop_
_space_group_symop_operation_xyz
x,y,z
1/2-x,-y,z
1/2+x,-y,1/2-z
-x,y,1/2-z
-x,-y,-z
1/2+x,y,-z
1/2-x,y,1/2+z
x,-y,1/2+z
loop_
_atom_site_type_symbol
_atom_site_label
_atom_site_fract_x
_atom_site_fract_y
_atom_site_fract_z
Si Si1 0.599476 0.305074 0.559819
Si Si2 0.333426 0.129062 0.176969
Si Si3 0.917552 0.637819 0.132655
Si Si4 0.500000 0.920356 0.250000
O O1 0.673560 0.242072 0.446871
O O2 0.486314 0.321194 0.493866
O O3 0.630105 0.472581 0.607828
O O4 0.581021 0.185142 0.675950
O O5 0.345616 0.229798 0.309868
O O6 0.250000 0.000000 0.182844
O O7 0.438359 0.035276 0.156532
O O8 0.000000 0.615808 0.250000
#
# Coordination Sequence:
#
# PCOD9421905 Si02
#       4
#     8   8   8   4
#     4  10  20  39  71  95 132 184 228 285 352 419
#     4  11  24  41  67 105 141 179 234 295 352 415
#     4   9  18  40  70  98 129 179 237 281 353 418
#     4  12  22  40  66 102 140 182 234 286 358 410
#
# _framework density 24.008120999999999
#
# number of rings (size 3 to 8) (size 9 to 14) (size 15 to 20)
#    0.000    1.714    5.714    0.857    0.000    1.143 
#    0.000    1.429    6.286    0.000    0.000    0.000 
#    0.000    0.000    0.000    0.000    0.000    0.000 
#
# Total GULP energy -156635.323544 kJ/mol
# GULP energy per Si atom -5594.118698 kJ/mol
# Density = 2.395348 g / cm^3
# Si number density = 24.008121 Si / 1000 Ang^3
#
#
#
# Elastic Constant Matrix: (Units=GPa)
#
#
# Indices 1 2 3 4 5 6 
#
# 1 65.5358 44.9131 4.9913 0.0000 0.0000 0.0000
# 2 44.9131 182.8977 30.4419 0.0000 0.0000 0.0000
# 3 4.9913 30.4419 49.3591 0.0000 0.0000 0.0000
# 4 0.0000 0.0000 0.0000 37.4202 0.0000 0.0000
# 5 0.0000 0.0000 0.0000 0.0000 19.2315 0.0000
# 6 0.0000 0.0000 0.0000 0.0000 0.0000 43.7300
#
#
#
# Elastic Compliance Matrix: (Units=1/GPa)
#
#
# Indices 1 2 3 4 5 6 
#
# 1 0.018393 -0.004688 0.001032 0.000000 0.000000 0.000000
# 2 -0.004688 0.007288 -0.004021 0.000000 0.000000 0.000000
# 3 0.001032 -0.004021 0.022635 0.000000 0.000000 0.000000
# 4 0.000000 0.000000 0.000000 0.026724 0.000000 0.000000
# 5 0.000000 0.000000 0.000000 0.000000 0.051998 0.000000
# 6 0.000000 0.000000 0.000000 0.000000 0.000000 0.022868
#
#
# Mechanical properties :
#
#
# Convention : Reuss Voigt Hill
#
# Bulk Modulus (GPa) = 30.33858 50.94281 40.64069
# Shear Modulus (GPa) = 28.36908 34.57275 31.47092
#
# Velocity S-wave (km/s) = 3.44124 3.79891 3.62449
# Velocity P-wave (km/s) = 5.33420 6.36454 5.87201
#
# Compressibility (1/GPa) = 0.03296133
#
# Stress axis : x y z
#
# Youngs Moduli (GPa) = 54.36740 137.21047 44.17910
#
# Poissons Ratio (x) = 0.64330 -0.04557
# Poissons Ratio (y) = 0.25490 0.17763
# Poissons Ratio (z) = -0.05608 0.55169
#
# Static dielectric constant tensor:
#      x y z
#    x 2.027370 0.000000 0.000000 
#    y 0.000000 1.878800 0.000000 
#    z 0.000000 0.000000 1.909750 
# 
# From -- ./inp_files/7826.got.cif
#   From: 2010.05.17/outbox.cif.g08.bks.cpg/sg54_4_cif.got.tgz:7826.got - 2010.06.03 13:09:01.
