data_PCOD9421115
_publ_section_title
;
Structure prediction by ZEFSAII (Michael W. Deem and Ramdas Pophale) SiO2 
 PCOD9421115
Probable space group: P C C A
;
_chemical_formula_sum "Si O2"
_cell_formula_units_Z 44
_cell_length_a 12.911316
_cell_length_b 7.865844
_cell_length_c 17.710713
_cell_angle_alpha 90.000000
_cell_angle_beta 90.000000
_cell_angle_gamma 90.000000
_cell_volume 1798.671631
_symmetry_space_group_name_H-M "P C C A"
_symmetry_group_IT_number 54
_symmetry_cell_setting 'orthorhombic'
loop_
_space_group_symop_operation_xyz
x,y,z
1/2-x,-y,z
1/2+x,-y,1/2-z
-x,y,1/2-z
-x,-y,-z
1/2+x,y,-z
1/2-x,y,1/2+z
x,-y,1/2+z
loop_
_atom_site_type_symbol
_atom_site_label
_atom_site_fract_x
_atom_site_fract_y
_atom_site_fract_z
Si Si1 0.901132 0.341361 0.300215
Si Si2 0.568593 0.135174 0.396121
Si Si3 0.872290 0.490549 0.450762
Si Si4 0.173834 0.722895 0.240709
Si Si5 0.146220 0.246586 0.916997
Si Si6 0.250000 0.000000 0.515170
O O1 0.922430 0.361523 0.389559
O O2 0.792128 0.246911 0.286083
O O3 0.869991 0.534914 0.277503
O O4 0.000000 0.288143 0.250000
O O5 0.589674 0.320712 0.433283
O O6 0.599386 0.155508 0.308291
O O7 0.448522 0.111838 0.413144
O O8 0.648615 0.009024 0.433960
O O9 0.750000 0.500000 0.432807
O O10 0.881973 0.414765 0.534744
O O11 0.172213 0.727279 0.330433
O O12 0.239697 0.162913 0.962288
#
# Coordination Sequence:
#
# PCOD9421115 Si02
#       6
#     8   8   8   8   8   4
#     4  10  19  35  61  94 129 165 205 256 318 378
#     4  11  23  45  65  88 127 174 209 256 328 380
#     4  11  20  42  65  96 130 163 210 262 313 373
#     4  10  21  39  60  89 127 164 212 259 313 386
#     4  12  25  40  67  95 127 167 212 267 321 380
#     4  12  26  42  62  90 128 166 218 272 314 378
#
# _framework density 24.462498
#
# number of rings (size 3 to 8) (size 9 to 14) (size 15 to 20)
#    0.000    1.091    5.455    3.818    2.545    2.182 
#    0.000    1.818    0.000    0.000    0.000    2.545 
#    0.000    0.000    0.000    0.000    0.000    0.000 
#
# Total GULP energy -246056.351638 kJ/mol
# GULP energy per Si atom -5592.189810 kJ/mol
# Density = 2.440682 g / cm^3
# Si number density = 24.462498 Si / 1000 Ang^3
#
#
#
# Elastic Constant Matrix: (Units=GPa)
#
#
# Indices 1 2 3 4 5 6 
#
# 1 93.7672 -10.7410 11.3798 0.0000 0.0000 0.0000
# 2 -10.7410 42.2561 31.0148 0.0000 0.0000 0.0000
# 3 11.3798 31.0148 180.9785 0.0000 0.0000 0.0000
# 4 0.0000 0.0000 0.0000 -253.3016 0.0000 0.0000
# 5 0.0000 0.0000 0.0000 0.0000 40.1588 0.0000
# 6 0.0000 0.0000 0.0000 0.0000 0.0000 12.9634
#
#
#
# Elastic Compliance Matrix: (Units=1/GPa)
#
#
# Indices 1 2 3 4 5 6 
#
# 1 0.011275 0.003874 -0.001373 0.000000 0.000000 0.000000
# 2 0.003874 0.028401 -0.005111 0.000000 0.000000 0.000000
# 3 -0.001373 -0.005111 0.006488 0.000000 0.000000 0.000000
# 4 0.000000 0.000000 0.000000 -0.003948 0.000000 0.000000
# 5 0.000000 0.000000 0.000000 0.000000 0.024901 0.000000
# 6 0.000000 0.000000 0.000000 0.000000 0.000000 0.077140
#
#
# Mechanical properties :
#
#
# Convention : Reuss Voigt Hill
#
# Bulk Modulus (GPa) = 24.42372 42.25654 33.34013
# Shear Modulus (GPa) = 30.65129 -21.01267 4.81931
#
# Velocity S-wave (km/s) = 3.54360 -2.93401 1.40512
# Velocity P-wave (km/s) = 5.17191 2.41529 4.03623
#
# Compressibility (1/GPa) = 0.04094381
#
# Stress axis : x y z
#
# Youngs Moduli (GPa) = 88.69153 35.21005 154.13836
#
# Poissons Ratio (x) = -0.13639 0.21160
# Poissons Ratio (y) = -0.34355 0.78776
# Poissons Ratio (z) = 0.12175 0.17995
#
# Static dielectric constant tensor:
#      x y z
#    x 1.978970 0.000000 0.000000 
#    y 0.000000 1.973290 0.000000 
#    z 0.000000 0.000000 1.950430 
# 
# From -- ./inp_files/17915.got.cif
#   From: 2010.05.17/outbox.cif.g08.bks.cpg/sg54_9_cif.got.tgz:17915.got - 2010.06.03 13:09:01.
