data_PCOD9421290
_publ_section_title
;
Structure prediction by ZEFSAII (Michael W. Deem and Ramdas Pophale) SiO2 
 PCOD9421290
Probable space group: P C C A
;
_chemical_formula_sum "Si O2"
_cell_formula_units_Z 60
_cell_length_a 9.065632
_cell_length_b 14.923525
_cell_length_c 22.061696
_cell_angle_alpha 90.000000
_cell_angle_beta 90.000000
_cell_angle_gamma 90.000000
_cell_volume 2984.753012
_symmetry_space_group_name_H-M "P C C A"
_symmetry_group_IT_number 54
_symmetry_cell_setting 'orthorhombic'
loop_
_space_group_symop_operation_xyz
x,y,z
1/2-x,-y,z
1/2+x,-y,1/2-z
-x,y,1/2-z
-x,-y,-z
1/2+x,y,-z
1/2-x,y,1/2+z
x,-y,1/2+z
loop_
_atom_site_type_symbol
_atom_site_label
_atom_site_fract_x
_atom_site_fract_y
_atom_site_fract_z
Si Si1 0.554679 0.579270 0.079834
Si Si2 0.619248 0.388503 0.038329
Si Si3 0.250000 0.000000 0.197645
Si Si4 0.838030 0.840650 0.221029
Si Si5 0.919218 0.849211 0.579019
Si Si6 0.591488 0.806413 0.534079
Si Si7 0.528904 0.955636 0.616781
Si Si8 0.410305 0.717659 0.312426
O O1 0.562796 0.471224 0.078995
O O2 0.704939 0.610184 0.046127
O O3 0.561881 0.631426 0.143868
O O4 0.424346 0.599838 0.032274
O O5 0.555728 0.292856 0.057082
O O6 0.256159 0.908741 0.237012
O O7 0.107665 0.987474 0.156581
O O8 0.863788 0.900897 0.161374
O O9 0.755874 0.747811 0.206609
O O10 0.000000 0.826925 0.250000
O O11 0.763594 0.820065 0.549471
O O12 0.947009 0.801172 0.643278
O O13 0.051344 0.817483 0.535812
O O14 0.912244 0.955438 0.585906
O O15 0.494188 0.881851 0.566590
O O16 0.500000 0.711702 0.250000
#
# Coordination Sequence:
#
# PCOD9421290 Si02
#       8
#     8   8   4   8   8   8   8   8
#     4  10  21  39  71 101 129 169 215 274 330 394
#     4  10  19  41  68  99 127 168 218 264 330 396
#     4  10  22  38  60  90 122 184 226 268 310 392
#     4  10  21  41  63  87 129 181 233 265 320 388
#     4  12  25  40  61  98 131 175 214 276 330 389
#     4  12  23  40  64  93 131 169 218 267 332 391
#     4  11  23  38  61  89 133 172 221 270 324 384
#     4  12  23  42  67  99 130 173 222 275 330 393
#
# _framework density 20.102166
#
# number of rings (size 3 to 8) (size 9 to 14) (size 15 to 20)
#    0.000    1.067    4.000    2.400    1.867    1.067 
#    0.000    1.333    0.000   18.400    0.000    0.000 
#    0.000    0.000    0.000    0.000    0.000    0.000 
#
# Total GULP energy -334782.654353 kJ/mol
# GULP energy per Si atom -5579.710906 kJ/mol
# Density = 2.005641 g / cm^3
# Si number density = 20.102166 Si / 1000 Ang^3
#
#
#
# Elastic Constant Matrix: (Units=GPa)
#
#
# Indices 1 2 3 4 5 6 
#
# 1 63.8536 30.6782 56.0902 0.0000 0.0000 0.0000
# 2 30.6782 140.6366 58.1565 0.0000 0.0000 0.0000
# 3 56.0902 58.1565 117.8324 0.0000 0.0000 0.0000
# 4 0.0000 0.0000 0.0000 31.8420 0.0000 0.0000
# 5 0.0000 0.0000 0.0000 0.0000 51.9435 0.0000
# 6 0.0000 0.0000 0.0000 0.0000 0.0000 6.8502
#
#
#
# Elastic Compliance Matrix: (Units=1/GPa)
#
#
# Indices 1 2 3 4 5 6 
#
# 1 0.026973 -0.000722 -0.012484 0.000000 0.000000 0.000000
# 2 -0.000722 0.008953 -0.004075 0.000000 0.000000 0.000000
# 3 -0.012484 -0.004075 0.016440 0.000000 0.000000 0.000000
# 4 0.000000 0.000000 0.000000 0.031405 0.000000 0.000000
# 5 0.000000 0.000000 0.000000 0.000000 0.019252 0.000000
# 6 0.000000 0.000000 0.000000 0.000000 0.000000 0.145981
#
#
# Mechanical properties :
#
#
# Convention : Reuss Voigt Hill
#
# Bulk Modulus (GPa) = 56.16151 68.01915 62.09033
# Shear Modulus (GPa) = 17.27107 29.95364 23.61236
#
# Velocity S-wave (km/s) = 2.93433 3.86433 3.43099
# Velocity P-wave (km/s) = 6.28324 7.33627 6.83008
#
# Compressibility (1/GPa) = 0.01780579
#
# Stress axis : x y z
#
# Youngs Moduli (GPa) = 37.07352 111.69185 60.82550
#
# Poissons Ratio (x) = 0.08060 0.75932
# Poissons Ratio (y) = 0.02675 0.24789
# Poissons Ratio (z) = 0.46281 0.45519
#
# Static dielectric constant tensor:
#      x y z
#    x 1.756130 0.000000 0.000000 
#    y 0.000000 1.755180 0.000000 
#    z 0.000000 0.000000 1.757950 
# 
# From -- ./inp_files/23642.got.cif
#   From: 2010.05.17/outbox.cif.g08.bks.cpg/sg54_12_cif.got.tgz:23642.got - 2010.06.03 13:09:01.
