data_PCOD9421764
_publ_section_title
;
Structure prediction by ZEFSAII (Michael W. Deem and Ramdas Pophale) SiO2 
 PCOD9421764
Probable space group: P C C A
;
_chemical_formula_sum "Si O2"
_cell_formula_units_Z 44
_cell_length_a 15.574534
_cell_length_b 15.637518
_cell_length_c 8.919479
_cell_angle_alpha 90.000000
_cell_angle_beta 90.000000
_cell_angle_gamma 90.000000
_cell_volume 2172.312849
_symmetry_space_group_name_H-M "P C C A"
_symmetry_group_IT_number 54
_symmetry_cell_setting 'orthorhombic'
loop_
_space_group_symop_operation_xyz
x,y,z
1/2-x,-y,z
1/2+x,-y,1/2-z
-x,y,1/2-z
-x,-y,-z
1/2+x,y,-z
1/2-x,y,1/2+z
x,-y,1/2+z
loop_
_atom_site_type_symbol
_atom_site_label
_atom_site_fract_x
_atom_site_fract_y
_atom_site_fract_z
Si Si1 0.827207 0.105761 0.947392
Si Si2 0.530182 0.374372 0.922319
Si Si3 0.867995 0.540497 0.446012
Si Si4 0.499082 0.203229 0.074431
Si Si5 0.750000 0.500000 0.695334
Si Si6 0.653670 0.078895 0.093124
O O1 0.902399 0.175485 0.970069
O O2 0.827002 0.084876 0.770277
O O3 0.731391 0.126209 0.005215
O O4 0.848781 0.018512 0.036568
O O5 0.500000 0.382490 0.750000
O O6 0.608941 0.439246 0.943298
O O7 0.455827 0.410289 0.032610
O O8 0.538371 0.277126 0.971163
O O9 0.808808 0.556866 0.588585
O O10 0.812831 0.555411 0.298792
O O11 0.500000 0.230086 0.250000
O O12 0.562312 0.122483 0.065003
#
# Coordination Sequence:
#
# PCOD9421764 Si02
#       6
#     8   8   8   8   4   8
#     4  10  20  38  61  87 115 153 196 241 292 349
#     4  11  23  40  59  85 119 159 193 238 293 356
#     4  10  22  40  62  88 114 154 198 238 294 346
#     4  10  24  40  57  86 120 161 194 239 296 349
#     4  10  20  40  64  90 112 144 202 246 288 348
#     4  10  20  38  61  87 115 153 196 241 292 349
#
# _framework density 20.254909999999999
#
# number of rings (size 3 to 8) (size 9 to 14) (size 15 to 20)
#    0.000    1.818    1.818    2.727    2.545    2.909 
#    6.545    0.000    0.000    0.000    0.000    0.000 
#    0.000    0.000    0.000    0.000    0.000    0.000 
#
# Total GULP energy -245583.368418 kJ/mol
# GULP energy per Si atom -5581.440191 kJ/mol
# Density = 2.020881 g / cm^3
# Si number density = 20.254910 Si / 1000 Ang^3
#
#
#
# Elastic Constant Matrix: (Units=GPa)
#
#
# Indices 1 2 3 4 5 6 
#
# 1 63.4529 0.6727 15.7986 0.0000 0.0000 0.0000
# 2 0.6727 37.9997 12.3686 0.0000 0.0000 0.0000
# 3 15.7986 12.3686 79.3376 0.0000 0.0000 0.0000
# 4 0.0000 0.0000 0.0000 10.3687 0.0000 0.0000
# 5 0.0000 0.0000 0.0000 0.0000 27.2361 0.0000
# 6 0.0000 0.0000 0.0000 0.0000 0.0000 8.1574
#
#
#
# Elastic Compliance Matrix: (Units=1/GPa)
#
#
# Indices 1 2 3 4 5 6 
#
# 1 0.016606 0.000824 -0.003435 0.000000 0.000000 0.000000
# 2 0.000824 0.027764 -0.004492 0.000000 0.000000 0.000000
# 3 -0.003435 -0.004492 0.013989 0.000000 0.000000 0.000000
# 4 0.000000 0.000000 0.000000 0.096444 0.000000 0.000000
# 5 0.000000 0.000000 0.000000 0.000000 0.036716 0.000000
# 6 0.000000 0.000000 0.000000 0.000000 0.000000 0.122588
#
#
# Mechanical properties :
#
#
# Convention : Reuss Voigt Hill
#
# Bulk Modulus (GPa) = 22.64921 26.49667 24.57294
# Shear Modulus (GPa) = 14.57596 19.28247 16.92922
#
# Velocity S-wave (km/s) = 2.68550 3.08878 2.89417
# Velocity P-wave (km/s) = 4.56314 5.08240 4.82975
#
# Compressibility (1/GPa) = 0.04415165
#
# Stress axis : x y z
#
# Youngs Moduli (GPa) = 60.21807 36.01830 71.48574
#
# Poissons Ratio (x) = -0.02969 0.24558
# Poissons Ratio (y) = -0.04963 0.32114
# Poissons Ratio (z) = 0.20687 0.16181
#
# Static dielectric constant tensor:
#      x y z
#    x 1.737760 0.000000 0.000000 
#    y 0.000000 1.703380 0.000000 
#    z 0.000000 0.000000 1.725420 
# 
# From -- ./inp_files/3525.got.cif
#   From: 2010.05.17/outbox.cif.g08.bks.cpg/sg54_2_cif.got.tgz:3525.got - 2010.06.03 13:09:01.
