data_PCOD9421463
_publ_section_title
;
Structure prediction by ZEFSAII (Michael W. Deem and Ramdas Pophale) SiO2 
 PCOD9421463
Probable space group: P C C A
;
_chemical_formula_sum "Si O2"
_cell_formula_units_Z 64
_cell_length_a 16.795490
_cell_length_b 12.275087
_cell_length_c 15.667158
_cell_angle_alpha 90.000000
_cell_angle_beta 90.000000
_cell_angle_gamma 90.000000
_cell_volume 3230.036878
_symmetry_space_group_name_H-M "P C C A"
_symmetry_group_IT_number 54
_symmetry_cell_setting 'orthorhombic'
loop_
_space_group_symop_operation_xyz
x,y,z
1/2-x,-y,z
1/2+x,-y,1/2-z
-x,y,1/2-z
-x,-y,-z
1/2+x,y,-z
1/2-x,y,1/2+z
x,-y,1/2+z
loop_
_atom_site_type_symbol
_atom_site_label
_atom_site_fract_x
_atom_site_fract_y
_atom_site_fract_z
Si Si1 0.162339 0.358264 0.074141
Si Si2 0.341316 0.010036 0.946900
Si Si3 0.655765 0.009868 0.258849
Si Si4 0.943932 0.787202 0.330166
Si Si5 0.851363 0.611633 0.432460
Si Si6 0.593205 0.229035 0.767166
Si Si7 0.057715 0.187702 0.993737
Si Si8 0.903940 0.758699 0.578393
O O1 0.257442 0.362567 0.066154
O O2 0.134647 0.483329 0.075181
O O3 0.135301 0.300812 0.161577
O O4 0.121576 0.285398 0.000038
O O5 0.350329 0.982875 0.845225
O O6 0.363505 0.134750 0.961485
O O7 0.250000 0.000000 0.971205
O O8 0.396805 0.926322 0.996947
O O9 0.611211 0.898232 0.283529
O O10 0.750000 0.000000 0.279117
O O11 0.612744 0.111576 0.303914
O O12 0.891964 0.683774 0.358924
O O13 0.000000 0.763506 0.250000
O O14 0.002728 0.811932 0.409679
O O15 0.888389 0.655065 0.520631
O O16 0.500000 0.250117 0.750000
O O17 0.371329 0.253410 0.826879
O O18 0.996962 0.209551 0.071383
#
# Coordination Sequence:
#
# PCOD9421463 Si02
#       8
#     8   8   8   8   8   8   8   8
#     4  11  24  46  64  91 124 167 219 269 322 378
#     4  10  20  35  59  93 129 166 207 251 313 383
#     4  10  21  37  62  95 135 169 205 259 313 381
#     4  11  22  41  64  97 128 167 211 263 325 378
#     4  10  25  46  65  89 126 163 216 277 318 376
#     4  11  22  40  66  94 127 169 210 252 320 391
#     4  11  22  38  64  90 127 168 208 263 314 377
#     4  10  22  40  62  93 126 167 206 259 318 379
#
# _framework density 19.814015000000001
#
# number of rings (size 3 to 8) (size 9 to 14) (size 15 to 20)
#    0.000    1.500    2.500    2.250    1.750    4.500 
#    4.500    5.625    0.000    0.000    0.000    0.000 
#    0.000    0.000    0.000    0.000    0.000    0.000 
#
# Total GULP energy -357552.909889 kJ/mol
# GULP energy per Si atom -5586.764217 kJ/mol
# Density = 1.976892 g / cm^3
# Si number density = 19.814015 Si / 1000 Ang^3
#
#
#
# Elastic Constant Matrix: (Units=GPa)
#
#
# Indices 1 2 3 4 5 6 
#
# 1 57.3335 10.1741 0.6823 0.0000 0.0000 0.0000
# 2 10.1741 81.1868 12.9814 0.0000 0.0000 0.0000
# 3 0.6823 12.9814 76.9674 0.0000 0.0000 0.0000
# 4 0.0000 0.0000 0.0000 18.2806 0.0000 0.0000
# 5 0.0000 0.0000 0.0000 0.0000 11.3468 0.0000
# 6 0.0000 0.0000 0.0000 0.0000 0.0000 32.5093
#
#
#
# Elastic Compliance Matrix: (Units=1/GPa)
#
#
# Indices 1 2 3 4 5 6 
#
# 1 0.017842 -0.002272 0.000225 0.000000 0.000000 0.000000
# 2 -0.002272 0.012948 -0.002164 0.000000 0.000000 0.000000
# 3 0.000225 -0.002164 0.013355 0.000000 0.000000 0.000000
# 4 0.000000 0.000000 0.000000 0.054703 0.000000 0.000000
# 5 0.000000 0.000000 0.000000 0.000000 0.088130 0.000000
# 6 0.000000 0.000000 0.000000 0.000000 0.000000 0.030760
#
#
# Mechanical properties :
#
#
# Convention : Reuss Voigt Hill
#
# Bulk Modulus (GPa) = 27.99196 29.24035 28.61615
# Shear Modulus (GPa) = 21.00235 25.20400 23.10318
#
# Velocity S-wave (km/s) = 3.25926 3.57042 3.41838
# Velocity P-wave (km/s) = 5.32181 5.63796 5.48217
#
# Compressibility (1/GPa) = 0.03572455
#
# Stress axis : x y z
#
# Youngs Moduli (GPa) = 56.04660 77.23235 74.87579
#
# Poissons Ratio (x) = 0.17547 -0.01685
# Poissons Ratio (y) = 0.12733 0.16201
# Poissons Ratio (z) = -0.01261 0.16711
#
# Static dielectric constant tensor:
#      x y z
#    x 1.729840 0.000000 0.000000 
#    y 0.000000 1.650340 0.000000 
#    z 0.000000 0.000000 1.736120 
# 
# From -- ./inp_files/18253.got.cif
#   From: 2010.05.17/outbox.cif.g08.bks.cpg/sg54_10_cif.got.tgz:18253.got - 2010.06.03 13:09:01.
