data_PCOD9421002
_publ_section_title
;
Structure prediction by ZEFSAII (Michael W. Deem and Ramdas Pophale) SiO2 
 PCOD9421002
Probable space group: P C C A
;
_chemical_formula_sum "Si O2"
_cell_formula_units_Z 40
_cell_length_a 8.225762
_cell_length_b 8.962756
_cell_length_c 24.221203
_cell_angle_alpha 90.000000
_cell_angle_beta 90.000000
_cell_angle_gamma 90.000000
_cell_volume 1785.720247
_symmetry_space_group_name_H-M "P C C A"
_symmetry_group_IT_number 54
_symmetry_cell_setting 'orthorhombic'
loop_
_space_group_symop_operation_xyz
x,y,z
1/2-x,-y,z
1/2+x,-y,1/2-z
-x,y,1/2-z
-x,-y,-z
1/2+x,y,-z
1/2-x,y,1/2+z
x,-y,1/2+z
loop_
_atom_site_type_symbol
_atom_site_label
_atom_site_fract_x
_atom_site_fract_y
_atom_site_fract_z
Si Si1 0.207502 0.671765 0.822235
Si Si2 0.320223 0.163049 0.223748
Si Si3 0.479048 0.203590 0.911904
Si Si4 0.710125 0.177486 0.481874
Si Si5 0.495949 0.147609 0.383153
O O1 0.250000 0.500000 0.825385
O O2 0.211407 0.724059 0.758876
O O3 0.045821 0.701925 0.856948
O O4 0.342551 0.773008 0.854668
O O5 0.500000 0.173273 0.250000
O O6 0.353433 0.176737 0.158790
O O7 0.250000 0.000000 0.234536
O O8 0.639693 0.238839 0.946940
O O9 0.474424 0.030657 0.891420
O O10 0.335687 0.227879 0.956974
O O11 0.551714 0.200141 0.443383
O O12 0.750000 0.000000 0.485733
#
# Coordination Sequence:
#
# PCOD9421002 Si02
#       5
#     8   8   8   8   8
#     4  11  23  39  57  81 118 163 203 244 295 351
#     4  10  20  37  61  87 114 148 194 246 297 354
#     4  11  20  37  64  91 121 155 197 247 302 360
#     4  10  19  33  61  95 118 146 191 248 303 355
#     4  10  20  38  59  88 118 148 194 247 297 358
#
# _framework density 22.399925
#
# number of rings (size 3 to 8) (size 9 to 14) (size 15 to 20)
#    0.000    1.600    0.000    9.600    0.000    0.000 
#    0.000   20.000    0.000    0.000    0.000    0.000 
#    0.000    0.000    0.000    0.000    0.000    0.000 
#
# Total GULP energy -223432.721137 kJ/mol
# GULP energy per Si atom -5585.818028 kJ/mol
# Density = 2.234894 g / cm^3
# Si number density = 22.399925 Si / 1000 Ang^3
#
#
#
# Elastic Constant Matrix: (Units=GPa)
#
#
# Indices 1 2 3 4 5 6 
#
# 1 58.1199 -6.5060 20.4285 0.0000 0.0000 0.0000
# 2 -6.5060 42.8281 25.0759 0.0000 0.0000 0.0000
# 3 20.4285 25.0759 156.5620 0.0000 0.0000 0.0000
# 4 0.0000 0.0000 0.0000 -5.2458 0.0000 0.0000
# 5 0.0000 0.0000 0.0000 0.0000 29.7505 0.0000
# 6 0.0000 0.0000 0.0000 0.0000 0.0000 6.0195
#
#
#
# Elastic Compliance Matrix: (Units=1/GPa)
#
#
# Indices 1 2 3 4 5 6 
#
# 1 0.018871 0.004754 -0.003224 0.000000 0.000000 0.000000
# 2 0.004754 0.026963 -0.004939 0.000000 0.000000 0.000000
# 3 -0.003224 -0.004939 0.007599 0.000000 0.000000 0.000000
# 4 0.000000 0.000000 0.000000 -0.190628 0.000000 0.000000
# 5 0.000000 0.000000 0.000000 0.000000 0.033613 0.000000
# 6 0.000000 0.000000 0.000000 0.000000 0.000000 0.166127
#
#
# Mechanical properties :
#
#
# Convention : Reuss Voigt Hill
#
# Bulk Modulus (GPa) = 21.45173 37.27851 29.36512
# Shear Modulus (GPa) = 58.89240 20.67229 39.78234
#
# Velocity S-wave (km/s) = 5.13307 3.04118 4.21884
# Velocity P-wave (km/s) = 6.68795 5.38610 6.07202
#
# Compressibility (1/GPa) = 0.04661629
#
# Stress axis : x y z
#
# Youngs Moduli (GPa) = 52.99096 37.08769 131.59729
#
# Poissons Ratio (x) = -0.17632 0.42424
# Poissons Ratio (y) = -0.25193 0.64995
# Poissons Ratio (z) = 0.17083 0.18317
#
# Static dielectric constant tensor:
#      x y z
#    x 2.002780 0.000000 0.000000 
#    y 0.000000 1.750180 0.000000 
#    z 0.000000 0.000000 1.844970 
# 
# From -- ./inp_files/23238.got.cif
#   From: 2010.05.17/outbox.cif.g08.bks.cpg/sg54_12_cif.got.tgz:23238.got - 2010.06.03 13:09:01.
