data_PCOD9421901
_publ_section_title
;
Structure prediction by ZEFSAII (Michael W. Deem and Ramdas Pophale) SiO2 
 PCOD9421901
Probable space group: P C C A
;
_chemical_formula_sum "Si O2"
_cell_formula_units_Z 64
_cell_length_a 24.292256
_cell_length_b 8.252121
_cell_length_c 15.389521
_cell_angle_alpha 90.000000
_cell_angle_beta 90.000000
_cell_angle_gamma 90.000000
_cell_volume 3085.023945
_symmetry_space_group_name_H-M "P C C A"
_symmetry_group_IT_number 54
_symmetry_cell_setting 'orthorhombic'
loop_
_space_group_symop_operation_xyz
x,y,z
1/2-x,-y,z
1/2+x,-y,1/2-z
-x,y,1/2-z
-x,-y,-z
1/2+x,y,-z
1/2-x,y,1/2+z
x,-y,1/2+z
loop_
_atom_site_type_symbol
_atom_site_label
_atom_site_fract_x
_atom_site_fract_y
_atom_site_fract_z
Si Si1 0.377413 0.984092 0.390845
Si Si2 0.313966 0.039508 0.719407
Si Si3 0.782502 0.341496 0.369973
Si Si4 0.453879 0.754007 0.983847
Si Si5 0.482343 0.405449 0.160148
Si Si6 0.819492 0.843030 0.453325
Si Si7 0.115644 0.479853 0.562743
Si Si8 0.518774 0.229076 0.653169
O O1 0.350778 0.021248 0.297928
O O2 0.328312 0.935668 0.456794
O O3 0.422280 0.843385 0.371625
O O4 0.411802 0.126688 0.436736
O O5 0.311294 0.232000 0.703009
O O6 0.250000 0.000000 0.735620
O O7 0.332373 0.957653 0.628840
O O8 0.750000 0.500000 0.336166
O O9 0.739567 0.233741 0.426228
O O10 0.831206 0.408894 0.428174
O O11 0.503676 0.712271 0.919222
O O12 0.425437 0.580638 0.002726
O O13 0.476505 0.819328 0.075820
O O14 0.500000 0.326302 0.250000
O O15 0.418738 0.455709 0.151802
O O16 0.515928 0.574734 0.154211
O O17 0.862106 0.695145 0.461293
O O18 0.500000 0.176187 0.750000
#
# Coordination Sequence:
#
# PCOD9421901 Si02
#       8
#     8   8   8   8   8   8   8   8
#     4  12  25  38  67  92 130 175 212 262 337 397
#     4  10  24  42  62  94 130 164 212 267 328 397
#     4   9  20  41  67  93 121 169 215 271 325 384
#     4  11  23  40  59  97 128 170 216 267 318 400
#     4  10  22  37  61  91 131 172 213 265 316 391
#     4  10  22  42  64  92 126 166 212 272 324 389
#     4  10  20  39  68  85 123 164 218 264 331 379
#     4  10  23  41  61  92 127 169 219 272 325 393
#
# _framework density 20.745381999999999
#
# number of rings (size 3 to 8) (size 9 to 14) (size 15 to 20)
#    0.000    1.750    0.000    4.125    8.750    3.000 
#    0.000    1.875    0.000    0.000    0.000    0.000 
#    0.000    0.000    0.000    0.000    0.000    0.000 
#
# Total GULP energy -357103.440270 kJ/mol
# GULP energy per Si atom -5579.741254 kJ/mol
# Density = 2.069816 g / cm^3
# Si number density = 20.745382 Si / 1000 Ang^3
#
#
#
# Elastic Constant Matrix: (Units=GPa)
#
#
# Indices 1 2 3 4 5 6 
#
# 1 56.6908 10.8108 35.0752 0.0000 0.0000 0.0000
# 2 10.8108 49.5973 28.5566 0.0000 0.0000 0.0000
# 3 35.0752 28.5566 132.1667 0.0000 0.0000 0.0000
# 4 0.0000 0.0000 0.0000 10.4858 0.0000 0.0000
# 5 0.0000 0.0000 0.0000 0.0000 27.9037 0.0000
# 6 0.0000 0.0000 0.0000 0.0000 0.0000 7.8833
#
#
#
# Elastic Compliance Matrix: (Units=1/GPa)
#
#
# Indices 1 2 3 4 5 6 
#
# 1 0.021213 -0.001579 -0.005288 0.000000 0.000000 0.000000
# 2 -0.001579 0.023145 -0.004582 0.000000 0.000000 0.000000
# 3 -0.005288 -0.004582 0.009960 0.000000 0.000000 0.000000
# 4 0.000000 0.000000 0.000000 0.095367 0.000000 0.000000
# 5 0.000000 0.000000 0.000000 0.000000 0.035838 0.000000
# 6 0.000000 0.000000 0.000000 0.000000 0.000000 0.126851
#
#
# Mechanical properties :
#
#
# Convention : Reuss Voigt Hill
#
# Bulk Modulus (GPa) = 31.82802 43.03779 37.43291
# Shear Modulus (GPa) = 14.46159 20.18869 17.32514
#
# Velocity S-wave (km/s) = 2.64313 3.12294 2.89300
# Velocity P-wave (km/s) = 4.96894 5.81330 5.40763
#
# Compressibility (1/GPa) = 0.03141885
#
# Stress axis : x y z
#
# Youngs Moduli (GPa) = 47.14175 43.20672 100.40531
#
# Poissons Ratio (x) = 0.06822 0.53098
# Poissons Ratio (y) = 0.07443 0.46003
# Poissons Ratio (z) = 0.24931 0.19796
#
# Static dielectric constant tensor:
#      x y z
#    x 1.748620 0.000000 0.000000 
#    y 0.000000 1.792930 0.000000 
#    z 0.000000 0.000000 1.745330 
# 
# From -- ./inp_files/15013.got.cif
#   From: 2010.05.17/outbox.cif.g08.bks.cpg/sg54_8_cif.got.tgz:15013.got - 2010.06.03 13:09:01.
