data_PCOD9421938
_publ_section_title
;
Structure prediction by ZEFSAII (Michael W. Deem and Ramdas Pophale) SiO2 
 PCOD9421938
Probable space group: P C C A
;
_chemical_formula_sum "Si O2"
_cell_formula_units_Z 48
_cell_length_a 11.570964
_cell_length_b 11.311017
_cell_length_c 15.046882
_cell_angle_alpha 90.000000
_cell_angle_beta 90.000000
_cell_angle_gamma 90.000000
_cell_volume 1969.326444
_symmetry_space_group_name_H-M "P C C A"
_symmetry_group_IT_number 54
_symmetry_cell_setting 'orthorhombic'
loop_
_space_group_symop_operation_xyz
x,y,z
1/2-x,-y,z
1/2+x,-y,1/2-z
-x,y,1/2-z
-x,-y,-z
1/2+x,y,-z
1/2-x,y,1/2+z
x,-y,1/2+z
loop_
_atom_site_type_symbol
_atom_site_label
_atom_site_fract_x
_atom_site_fract_y
_atom_site_fract_z
Si Si1 0.163143 0.240887 0.130043
Si Si2 0.958367 0.059441 0.127750
Si Si3 0.476626 0.594590 0.357175
Si Si4 0.780747 0.771053 0.675640
Si Si5 0.460404 0.322438 0.353571
Si Si6 0.109609 0.139997 0.566472
O O1 0.227606 0.269335 0.222007
O O2 0.254053 0.161582 0.076408
O O3 0.053751 0.157868 0.149684
O O4 0.095579 0.358079 0.097801
O O5 0.841729 0.100319 0.177441
O O6 0.917057 0.080278 0.026857
O O7 0.033842 0.940305 0.135264
O O8 0.500000 0.602549 0.250000
O O9 0.368826 0.681657 0.373001
O O10 0.444751 0.460020 0.375188
O O11 0.655674 0.754621 0.634610
O O12 0.500000 0.314508 0.250000
O O13 0.555378 0.268145 0.418513
#
# Coordination Sequence:
#
# PCOD9421938 Si02
#       6
#     8   8   8   8   8   8
#     4  10  20  42  64  89 120 163 210 257 313 378
#     4  10  24  42  62  83 125 172 207 257 319 381
#     4   8  18  35  64  90 122 159 198 252 320 373
#     4  10  20  40  64  89 122 160 208 259 314 372
#     4  11  21  36  60  98 126 155 207 259 308 377
#     4  11  24  40  60  90 124 165 208 256 319 377
#
# _framework density 24.373816000000001
#
# number of rings (size 3 to 8) (size 9 to 14) (size 15 to 20)
#    0.000    2.000    1.667    2.500    2.333    2.667 
#    3.000    3.333    7.333    0.000    0.000    0.000 
#    0.000    0.000    0.000    0.000    0.000    0.000 
#
# Total GULP energy -267867.873526 kJ/mol
# GULP energy per Si atom -5580.580698 kJ/mol
# Density = 2.431834 g / cm^3
# Si number density = 24.373816 Si / 1000 Ang^3
#
#
#
# Elastic Constant Matrix: (Units=GPa)
#
#
# Indices 1 2 3 4 5 6 
#
# 1 139.0941 48.9843 17.0564 0.0000 0.0000 0.0000
# 2 48.9843 36.5724 1.1001 0.0000 0.0000 0.0000
# 3 17.0564 1.1001 41.0252 0.0000 0.0000 0.0000
# 4 0.0000 0.0000 0.0000 14.5841 0.0000 0.0000
# 5 0.0000 0.0000 0.0000 0.0000 17.0738 0.0000
# 6 0.0000 0.0000 0.0000 0.0000 0.0000 27.4698
#
#
#
# Elastic Compliance Matrix: (Units=1/GPa)
#
#
# Indices 1 2 3 4 5 6 
#
# 1 0.014801 -0.019655 -0.005627 0.000000 0.000000 0.000000
# 2 -0.019655 0.053466 0.006738 0.000000 0.000000 0.000000
# 3 -0.005627 0.006738 0.026534 0.000000 0.000000 0.000000
# 4 0.000000 0.000000 0.000000 0.068568 0.000000 0.000000
# 5 0.000000 0.000000 0.000000 0.000000 0.058569 0.000000
# 6 0.000000 0.000000 0.000000 0.000000 0.000000 0.036404
#
#
# Mechanical properties :
#
#
# Convention : Reuss Voigt Hill
#
# Bulk Modulus (GPa) = 17.32692 38.99705 28.16199
# Shear Modulus (GPa) = 15.88977 21.79559 18.84268
#
# Velocity S-wave (km/s) = 2.55604 2.99360 2.78343
# Velocity P-wave (km/s) = 3.97937 5.28991 4.68073
#
# Compressibility (1/GPa) = 0.05771365
#
# Stress axis : x y z
#
# Youngs Moduli (GPa) = 67.56172 18.70340 37.68767
#
# Poissons Ratio (x) = 0.36762 0.21205
# Poissons Ratio (y) = 1.32794 -0.25394
# Poissons Ratio (z) = 0.38015 -0.12602
#
# Static dielectric constant tensor:
#      x y z
#    x 1.916610 0.000000 0.000000 
#    y 0.000000 1.981540 0.000000 
#    z 0.000000 0.000000 2.035100 
# 
# From -- ./inp_files/17286.got.cif
#   From: 2010.05.17/outbox.cif.g08.bks.cpg/sg54_9_cif.got.tgz:17286.got - 2010.06.03 13:09:01.
