data_PCOD9421623
_publ_section_title
;
Structure prediction by ZEFSAII (Michael W. Deem and Ramdas Pophale) SiO2 
 PCOD9421623
Probable space group: P C C A
;
_chemical_formula_sum "Si O2"
_cell_formula_units_Z 56
_cell_length_a 14.367245
_cell_length_b 13.708692
_cell_length_c 14.504982
_cell_angle_alpha 90.000000
_cell_angle_beta 90.000000
_cell_angle_gamma 90.000000
_cell_volume 2856.845216
_symmetry_space_group_name_H-M "P C C A"
_symmetry_group_IT_number 54
_symmetry_cell_setting 'orthorhombic'
loop_
_space_group_symop_operation_xyz
x,y,z
1/2-x,-y,z
1/2+x,-y,1/2-z
-x,y,1/2-z
-x,-y,-z
1/2+x,y,-z
1/2-x,y,1/2+z
x,-y,1/2+z
loop_
_atom_site_type_symbol
_atom_site_label
_atom_site_fract_x
_atom_site_fract_y
_atom_site_fract_z
Si Si1 0.302350 0.229098 0.971904
Si Si2 0.484611 0.559264 0.138424
Si Si3 0.695694 0.903275 0.853687
Si Si4 0.993161 0.781203 0.641086
Si Si5 0.850290 0.453280 0.999250
Si Si6 0.992289 0.999891 0.390793
Si Si7 0.690564 0.907307 0.644956
O O1 0.392128 0.202435 0.907347
O O2 0.324532 0.339745 0.996524
O O3 0.213137 0.187875 0.915775
O O4 0.292143 0.177280 0.069837
O O5 0.500000 0.550709 0.250000
O O6 0.469639 0.674373 0.109437
O O7 0.578598 0.528240 0.084189
O O8 0.402649 0.494303 0.092442
O O9 0.587864 0.930252 0.855869
O O10 0.722490 0.881813 0.748697
O O11 0.750000 0.000000 0.882797
O O12 0.000000 0.767621 0.750000
O O13 0.036867 0.888512 0.630203
O O14 0.750000 0.500000 0.010732
O O15 0.088001 0.953617 0.354328
O O16 0.000000 0.000000 0.500000
O O17 0.750000 0.000000 0.609765
#
# Coordination Sequence:
#
# PCOD9421623 Si02
#       7
#     8   8   8   8   8   8   8
#     4  11  22  44  59  90 126 161 209 263 315 380
#     4   9  21  44  68  95 128 163 209 280 333 386
#     4  11  24  39  58  88 128 167 205 260 306 366
#     4  10  20  36  65  91 120 162 216 252 309 387
#     4  10  23  44  67  93 126 164 217 267 331 399
#     4  12  21  36  61  88 127 174 208 251 312 376
#     4  11  22  39  59  88 129 163 209 256 301 375
#
# _framework density 19.602039999999999
#
# number of rings (size 3 to 8) (size 9 to 14) (size 15 to 20)
#    0.000    1.429    2.857    2.571    2.000    2.857 
#   10.286    0.000    0.000    0.000    0.000    0.000 
#    0.000    0.000    0.000    0.000    0.000    0.000 
#
# Total GULP energy -311827.877970 kJ/mol
# GULP energy per Si atom -5568.354964 kJ/mol
# Density = 1.955743 g / cm^3
# Si number density = 19.602040 Si / 1000 Ang^3
#
#
#
# Elastic Constant Matrix: (Units=GPa)
#
#
# Indices 1 2 3 4 5 6 
#
# 1 53.7529 21.6196 9.8411 0.0000 0.0000 0.0000
# 2 21.6196 90.4527 52.1128 0.0000 0.0000 0.0000
# 3 9.8411 52.1128 121.5849 0.0000 0.0000 0.0000
# 4 0.0000 0.0000 0.0000 27.5430 0.0000 0.0000
# 5 0.0000 0.0000 0.0000 0.0000 14.4542 0.0000
# 6 0.0000 0.0000 0.0000 0.0000 0.0000 25.3027
#
#
#
# Elastic Compliance Matrix: (Units=1/GPa)
#
#
# Indices 1 2 3 4 5 6 
#
# 1 0.020614 -0.005266 0.000589 0.000000 0.000000 0.000000
# 2 -0.005266 0.016026 -0.006443 0.000000 0.000000 0.000000
# 3 0.000589 -0.006443 0.010938 0.000000 0.000000 0.000000
# 4 0.000000 0.000000 0.000000 0.036307 0.000000 0.000000
# 5 0.000000 0.000000 0.000000 0.000000 0.069184 0.000000
# 6 0.000000 0.000000 0.000000 0.000000 0.000000 0.039522
#
#
# Mechanical properties :
#
#
# Convention : Reuss Voigt Hill
#
# Bulk Modulus (GPa) = 39.46643 48.10416 43.78529
# Shear Modulus (GPa) = 22.39365 25.60777 24.00071
#
# Velocity S-wave (km/s) = 3.38363 3.61831 3.50294
# Velocity P-wave (km/s) = 5.95339 6.48459 6.22466
#
# Compressibility (1/GPa) = 0.02533799
#
# Stress axis : x y z
#
# Youngs Moduli (GPa) = 48.51084 62.39838 91.42036
#
# Poissons Ratio (x) = 0.32860 -0.05382
# Poissons Ratio (y) = 0.25547 0.58900
# Poissons Ratio (z) = -0.02856 0.40201
#
# Static dielectric constant tensor:
#      x y z
#    x 1.749990 0.000000 0.000000 
#    y 0.000000 1.625590 0.000000 
#    z 0.000000 0.000000 2.062390 
# 
# From -- ./inp_files/13489.got.cif
#   From: 2010.05.17/outbox.cif.g08.bks.cpg/sg54_7_cif.got.tgz:13489.got - 2010.06.03 13:09:01.
