data_PCOD9421151
_publ_section_title
;
Structure prediction by ZEFSAII (Michael W. Deem and Ramdas Pophale) SiO2 
 PCOD9421151
Probable space group: P C C A
;
_chemical_formula_sum "Si O2"
_cell_formula_units_Z 40
_cell_length_a 5.355620
_cell_length_b 23.024621
_cell_length_c 14.770182
_cell_angle_alpha 90.000000
_cell_angle_beta 90.000000
_cell_angle_gamma 90.000000
_cell_volume 1821.327696
_symmetry_space_group_name_H-M "P C C A"
_symmetry_group_IT_number 54
_symmetry_cell_setting 'orthorhombic'
loop_
_space_group_symop_operation_xyz
x,y,z
1/2-x,-y,z
1/2+x,-y,1/2-z
-x,y,1/2-z
-x,-y,-z
1/2+x,y,-z
1/2-x,y,1/2+z
x,-y,1/2+z
loop_
_atom_site_type_symbol
_atom_site_label
_atom_site_fract_x
_atom_site_fract_y
_atom_site_fract_z
Si Si1 0.250131 0.765578 0.694540
Si Si2 0.750000 0.000000 0.938680
Si Si3 0.918557 0.582386 0.548286
Si Si4 0.802528 0.873814 0.939225
Si Si5 0.500000 0.538327 0.250000
Si Si6 0.120089 0.712248 0.026299
O O1 0.500000 0.774871 0.750000
O O2 0.213059 0.821501 0.631153
O O3 0.303178 0.710258 0.630160
O O4 0.000000 0.755967 0.750000
O O5 0.768736 0.937222 0.891475
O O6 0.500000 0.000000 0.000000
O O7 0.652232 0.559977 0.511238
O O8 0.959173 0.572111 0.654802
O O9 0.911084 0.651172 0.523957
O O10 0.568500 0.871084 0.008983
O O11 0.250000 0.500000 0.237928
O O12 0.352489 0.742757 0.977833
#
# Coordination Sequence:
#
# PCOD9421151 Si02
#       6
#     8   4   8   8   4   8
#     4  12  24  38  58  93 127 166 218 273 330 395
#     4   8  16  30  54  84 106 156 214 266 320 402
#     4  10  23  45  68 101 139 177 219 271 328 386
#     4  10  19  36  60  82 119 161 216 269 332 399
#     4  12  26  44  74 110 138 178 226 270 328 396
#     4  10  21  43  64  89 125 171 213 260 327 379
#
# _framework density 21.962001999999998
#
# number of rings (size 3 to 8) (size 9 to 14) (size 15 to 20)
#    0.000    1.600    0.000    4.800    0.000    2.400 
#   21.600    1.000    0.000    0.000    0.000    0.000 
#    0.000    0.000    0.000    0.000    0.000    0.000 
#
# Total GULP energy -223233.071766 kJ/mol
# GULP energy per Si atom -5580.826794 kJ/mol
# Density = 2.191202 g / cm^3
# Si number density = 21.962002 Si / 1000 Ang^3
#
#
#
# Elastic Constant Matrix: (Units=GPa)
#
#
# Indices 1 2 3 4 5 6 
#
# 1 207.5115 21.7409 61.4328 0.0000 0.0000 0.0000
# 2 21.7409 94.8569 51.8845 0.0000 0.0000 0.0000
# 3 61.4328 51.8845 148.6649 0.0000 0.0000 0.0000
# 4 0.0000 0.0000 0.0000 33.4178 0.0000 0.0000
# 5 0.0000 0.0000 0.0000 0.0000 47.2999 0.0000
# 6 0.0000 0.0000 0.0000 0.0000 0.0000 19.4505
#
#
#
# Elastic Compliance Matrix: (Units=1/GPa)
#
#
# Indices 1 2 3 4 5 6 
#
# 1 0.005491 -0.000022 -0.002261 0.000000 0.000000 0.000000
# 2 -0.000022 0.013030 -0.004538 0.000000 0.000000 0.000000
# 3 -0.002261 -0.004538 0.009245 0.000000 0.000000 0.000000
# 4 0.000000 0.000000 0.000000 0.029924 0.000000 0.000000
# 5 0.000000 0.000000 0.000000 0.000000 0.021142 0.000000
# 6 0.000000 0.000000 0.000000 0.000000 0.000000 0.051412
#
#
# Mechanical properties :
#
#
# Convention : Reuss Voigt Hill
#
# Bulk Modulus (GPa) = 70.80924 80.12776 75.46850
# Shear Modulus (GPa) = 33.64875 41.09865 37.37370
#
# Velocity S-wave (km/s) = 3.91850 4.33061 4.12970
# Velocity P-wave (km/s) = 7.26530 7.84662 7.56155
#
# Compressibility (1/GPa) = 0.01412245
#
# Stress axis : x y z
#
# Youngs Moduli (GPa) = 182.12441 76.74856 108.16692
#
# Poissons Ratio (x) = 0.00165 0.24461
# Poissons Ratio (y) = 0.00392 0.49091
# Poissons Ratio (z) = 0.41186 0.34832
#
# Static dielectric constant tensor:
#      x y z
#    x 1.877680 0.000000 0.000000 
#    y 0.000000 1.945940 0.000000 
#    z 0.000000 0.000000 1.802880 
# 
# From -- ./inp_files/6446.got.cif
#   From: 2010.05.17/outbox.cif.g08.bks.cpg/sg54_4_cif.got.tgz:6446.got - 2010.06.03 13:09:01.
