data_PCOD9421062
_publ_section_title
;
Structure prediction by ZEFSAII (Michael W. Deem and Ramdas Pophale) SiO2 
 PCOD9421062
Probable space group: P C C A
;
_chemical_formula_sum "Si O2"
_cell_formula_units_Z 64
_cell_length_a 27.229418
_cell_length_b 20.402656
_cell_length_c 5.476805
_cell_angle_alpha 90.000000
_cell_angle_beta 90.000000
_cell_angle_gamma 90.000000
_cell_volume 3042.652428
_symmetry_space_group_name_H-M "P C C A"
_symmetry_group_IT_number 54
_symmetry_cell_setting 'orthorhombic'
loop_
_space_group_symop_operation_xyz
x,y,z
1/2-x,-y,z
1/2+x,-y,1/2-z
-x,y,1/2-z
-x,-y,-z
1/2+x,y,-z
1/2-x,y,1/2+z
x,-y,1/2+z
loop_
_atom_site_type_symbol
_atom_site_label
_atom_site_fract_x
_atom_site_fract_y
_atom_site_fract_z
Si Si1 0.944299 0.522943 0.828852
Si Si2 0.726507 0.754466 0.876887
Si Si3 0.869472 0.869892 0.914556
Si Si4 0.736008 0.904401 0.437494
Si Si5 0.554594 0.202003 0.241471
Si Si6 0.447793 0.326106 0.614252
Si Si7 0.873416 0.749376 0.605728
Si Si8 0.552564 0.959139 0.193529
O O1 0.921774 0.518809 0.553458
O O2 0.946985 0.596676 0.934660
O O3 0.000000 0.502454 0.750000
O O4 0.747873 0.728101 0.623416
O O5 0.738955 0.832540 0.888334
O O6 0.668431 0.741021 0.904337
O O7 0.820691 0.901662 0.017494
O O8 0.851215 0.801979 0.792679
O O9 0.909396 0.847771 0.109518
O O10 0.899208 0.915619 0.730414
O O11 0.764816 0.933586 0.665584
O O12 0.500000 0.176153 0.250000
O O13 0.578085 0.215739 0.501241
O O14 0.553789 0.272351 0.101415
O O15 0.500000 0.314441 0.750000
O O16 0.397897 0.312329 0.766352
O O17 0.500000 0.924139 0.250000
O O18 0.553225 0.011137 0.420608
#
# Coordination Sequence:
#
# PCOD9421062 Si02
#       8
#     8   8   8   8   8   8   8   8
#     4   9  19  33  54  74 101 155 212 241 272 323
#     4  10  19  35  53  78 113 147 184 228 274 343
#     4  11  24  36  62  86 110 152 197 233 293 361
#     4  10  19  35  57  86 111 145 180 233 281 343
#     4  11  23  33  53  82 122 156 187 233 288 359
#     4  10  21  35  48  80 123 159 190 241 287 334
#     4  11  22  34  55  85 117 156 185 226 297 356
#     4  10  25  45  63  83 112 150 195 247 287 330
#
# _framework density 21.034278
#
# number of rings (size 3 to 8) (size 9 to 14) (size 15 to 20)
#    0.000    1.750    3.750    1.500    7.000    1.000 
#    0.000    0.000    0.000    2.250    0.000    0.000 
#    0.000    3.000    0.000    0.000    0.000    0.000 
#
# Total GULP energy -356840.768315 kJ/mol
# GULP energy per Si atom -5575.637005 kJ/mol
# Density = 2.098640 g / cm^3
# Si number density = 21.034278 Si / 1000 Ang^3
#
#
#
# Elastic Constant Matrix: (Units=GPa)
#
#
# Indices 1 2 3 4 5 6 
#
# 1 96.5275 11.3151 -0.0306 0.0000 0.0000 0.0000
# 2 11.3151 42.7623 5.3741 0.0000 0.0000 0.0000
# 3 -0.0306 5.3741 95.4305 0.0000 0.0000 0.0000
# 4 0.0000 0.0000 0.0000 26.0721 0.0000 0.0000
# 5 0.0000 0.0000 0.0000 0.0000 33.8653 0.0000
# 6 0.0000 0.0000 0.0000 0.0000 0.0000 8.2368
#
#
#
# Elastic Compliance Matrix: (Units=1/GPa)
#
#
# Indices 1 2 3 4 5 6 
#
# 1 0.010694 -0.002850 0.000164 0.000000 0.000000 0.000000
# 2 -0.002850 0.024311 -0.001370 0.000000 0.000000 0.000000
# 3 0.000164 -0.001370 0.010556 0.000000 0.000000 0.000000
# 4 0.000000 0.000000 0.000000 0.038355 0.000000 0.000000
# 5 0.000000 0.000000 0.000000 0.000000 0.029529 0.000000
# 6 0.000000 0.000000 0.000000 0.000000 0.000000 0.121407
#
#
# Mechanical properties :
#
#
# Convention : Reuss Voigt Hill
#
# Bulk Modulus (GPa) = 26.70314 29.78193 28.24253
# Shear Modulus (GPa) = 19.57350 28.17229 23.87290
#
# Velocity S-wave (km/s) = 3.05381 3.66369 3.37256
# Velocity P-wave (km/s) = 5.01567 5.66448 5.34992
#
# Compressibility (1/GPa) = 0.03744878
#
# Stress axis : x y z
#
# Youngs Moduli (GPa) = 93.51119 41.13288 94.73256
#
# Poissons Ratio (x) = 0.11724 -0.01553
# Poissons Ratio (y) = 0.26653 0.12978
# Poissons Ratio (z) = -0.01533 0.05635
#
# Static dielectric constant tensor:
#      x y z
#    x 1.783160 0.000000 0.000000 
#    y 0.000000 1.796000 0.000000 
#    z 0.000000 0.000000 1.925780 
# 
# From -- ./inp_files/2018.got.cif
#   From: 2010.05.17/outbox.cif.g08.bks.cpg/sg54_2_cif.got.tgz:2018.got - 2010.06.03 13:09:01.
