data_PCOD9421404
_publ_section_title
;
Structure prediction by ZEFSAII (Michael W. Deem and Ramdas Pophale) SiO2 
 PCOD9421404
Probable space group: P C C A
;
_chemical_formula_sum "Si O2"
_cell_formula_units_Z 40
_cell_length_a 5.041051
_cell_length_b 16.591075
_cell_length_c 23.628033
_cell_angle_alpha 90.000000
_cell_angle_beta 90.000000
_cell_angle_gamma 90.000000
_cell_volume 1976.164924
_symmetry_space_group_name_H-M "P C C A"
_symmetry_group_IT_number 54
_symmetry_cell_setting 'orthorhombic'
loop_
_space_group_symop_operation_xyz
x,y,z
1/2-x,-y,z
1/2+x,-y,1/2-z
-x,y,1/2-z
-x,-y,-z
1/2+x,y,-z
1/2-x,y,1/2+z
x,-y,1/2+z
loop_
_atom_site_type_symbol
_atom_site_label
_atom_site_fract_x
_atom_site_fract_y
_atom_site_fract_z
Si Si1 0.824079 0.704063 0.967737
Si Si2 0.125521 0.768184 0.151807
Si Si3 0.007170 0.446396 0.091965
Si Si4 0.389313 0.319314 0.808685
Si Si5 0.499993 0.054988 0.317689
O O1 0.688197 0.737642 0.911321
O O2 0.865933 0.608265 0.957807
O O3 0.624566 0.728435 0.017873
O O4 0.408977 0.755840 0.182071
O O5 0.023105 0.858914 0.152898
O O6 0.908385 0.713244 0.184002
O O7 0.250000 0.500000 0.113495
O O8 0.750000 0.500000 0.077755
O O9 0.927261 0.383180 0.140857
O O10 0.500000 0.355197 0.750000
O O11 0.500000 0.071064 0.250000
O O12 0.750000 0.000000 0.331183
O O13 0.250000 0.000000 0.331840
#
# Coordination Sequence:
#
# PCOD9421404 Si02
#       5
#     8   8   8   8   8
#     4  11  23  40  61  83 109 152 202 248 297 338
#     4  11  22  39  60  85 118 151 194 240 279 343
#     4  11  23  38  56  84 117 147 191 246 296 348
#     4  11  22  37  59  84 115 157 193 227 283 352
#     4  10  20  34  57  89 120 149 180 222 283 345
#
# _framework density 20.241226999999999
#
# number of rings (size 3 to 8) (size 9 to 14) (size 15 to 20)
#    0.000    1.200    0.000    9.000    0.000    4.800 
#    0.000    0.000    0.000    3.600    0.000    0.000 
#    0.000    0.000    0.000    0.000    0.000    0.000 
#
# Total GULP energy -223269.511561 kJ/mol
# GULP energy per Si atom -5581.737789 kJ/mol
# Density = 2.019516 g / cm^3
# Si number density = 20.241227 Si / 1000 Ang^3
#
#
#
# Elastic Constant Matrix: (Units=GPa)
#
#
# Indices 1 2 3 4 5 6 
#
# 1 151.3547 54.0779 42.5477 0.0000 0.0000 0.0000
# 2 54.0779 80.5795 1.0977 0.0000 0.0000 0.0000
# 3 42.5477 1.0977 54.0722 0.0000 0.0000 0.0000
# 4 0.0000 0.0000 0.0000 13.5237 0.0000 0.0000
# 5 0.0000 0.0000 0.0000 0.0000 30.6370 0.0000
# 6 0.0000 0.0000 0.0000 0.0000 0.0000 32.5199
#
#
#
# Elastic Compliance Matrix: (Units=1/GPa)
#
#
# Indices 1 2 3 4 5 6 
#
# 1 0.012088 -0.007985 -0.009350 0.000000 0.000000 0.000000
# 2 -0.007985 0.017688 0.005924 0.000000 0.000000 0.000000
# 3 -0.009350 0.005924 0.025731 0.000000 0.000000 0.000000
# 4 0.000000 0.000000 0.000000 0.073944 0.000000 0.000000
# 5 0.000000 0.000000 0.000000 0.000000 0.032640 0.000000
# 6 0.000000 0.000000 0.000000 0.000000 0.000000 0.030750
#
#
# Mechanical properties :
#
#
# Convention : Reuss Voigt Hill
#
# Bulk Modulus (GPa) = 30.59440 53.49478 42.04459
# Shear Modulus (GPa) = 22.06925 27.88833 24.97879
#
# Velocity S-wave (km/s) = 3.30557 3.71590 3.51672
# Velocity P-wave (km/s) = 5.45131 6.70049 6.10792
#
# Compressibility (1/GPa) = 0.03268572
#
# Stress axis : x y z
#
# Youngs Moduli (GPa) = 82.72329 56.53403 38.86408
#
# Poissons Ratio (x) = 0.45144 0.36338
# Poissons Ratio (y) = 0.66058 -0.23024
# Poissons Ratio (z) = 0.77346 -0.33493
#
# Static dielectric constant tensor:
#      x y z
#    x 1.727810 0.000000 0.000000 
#    y 0.000000 1.689560 0.000000 
#    z 0.000000 0.000000 1.771660 
# 
# From -- ./inp_files/22825.got.cif
#   From: 2010.05.17/outbox.cif.g08.bks.cpg/sg54_12_cif.got.tgz:22825.got - 2010.06.03 13:09:01.
