data_PCOD9421934
_publ_section_title
;
Structure prediction by ZEFSAII (Michael W. Deem and Ramdas Pophale) SiO2 
 PCOD9421934
Probable space group: P C C A
;
_chemical_formula_sum "Si O2"
_cell_formula_units_Z 40
_cell_length_a 5.206005
_cell_length_b 14.656670
_cell_length_c 22.620305
_cell_angle_alpha 90.000000
_cell_angle_beta 90.000000
_cell_angle_gamma 90.000000
_cell_volume 1725.990285
_symmetry_space_group_name_H-M "P C C A"
_symmetry_group_IT_number 54
_symmetry_cell_setting 'orthorhombic'
loop_
_space_group_symop_operation_xyz
x,y,z
1/2-x,-y,z
1/2+x,-y,1/2-z
-x,y,1/2-z
-x,-y,-z
1/2+x,y,-z
1/2-x,y,1/2+z
x,-y,1/2+z
loop_
_atom_site_type_symbol
_atom_site_label
_atom_site_fract_x
_atom_site_fract_y
_atom_site_fract_z
Si Si1 0.436182 0.816732 0.535144
Si Si2 0.000298 0.438942 0.180289
Si Si3 0.064133 0.884133 0.690439
Si Si4 0.000000 0.758897 0.250000
Si Si5 0.769923 0.278089 0.641169
Si Si6 0.250000 0.000000 0.584743
O O1 0.640323 0.799393 0.482501
O O2 0.555676 0.756247 0.587604
O O3 0.422614 0.925360 0.550652
O O4 0.250000 0.500000 0.168343
O O5 0.750000 0.500000 0.170217
O O6 0.000000 0.410333 0.250000
O O7 0.955600 0.352158 0.136678
O O8 0.306659 0.825463 0.713199
O O9 0.000000 0.939658 0.750000
O O10 0.852381 0.810818 0.672141
O O11 0.089154 0.941291 0.631539
O O12 0.065043 0.689300 0.303146
#
# Coordination Sequence:
#
# PCOD9421934 Si02
#       6
#     8   8   8   4   8   4
#     4  12  28  48  70  97 135 192 253 305 349 412
#     4  10  23  39  67 108 144 175 211 276 357 445
#     4  10  23  37  61  98 140 183 227 282 358 440
#     4  10  20  40  64 100 128 188 226 280 356 450
#     4  11  24  43  69  95 143 184 234 283 364 428
#     4  12  24  44  66  96 140 184 246 310 364 404
#
# _framework density 23.175101000000002
#
# number of rings (size 3 to 8) (size 9 to 14) (size 15 to 20)
#    0.000    1.200    2.000    3.600    8.400    2.400 
#    0.000    0.000    0.000    3.600    0.000    0.000 
#    0.000    0.000    0.000    0.000    0.000    0.000 
#
# Total GULP energy -223020.822773 kJ/mol
# GULP energy per Si atom -5575.520569 kJ/mol
# Density = 2.312235 g / cm^3
# Si number density = 23.175101 Si / 1000 Ang^3
#
#
#
# Elastic Constant Matrix: (Units=GPa)
#
#
# Indices 1 2 3 4 5 6 
#
# 1 97.5846 24.5812 25.1294 0.0000 0.0000 0.0000
# 2 24.5812 84.0869 28.5188 0.0000 0.0000 0.0000
# 3 25.1294 28.5188 69.4635 0.0000 0.0000 0.0000
# 4 0.0000 0.0000 0.0000 11.5705 0.0000 0.0000
# 5 0.0000 0.0000 0.0000 0.0000 43.6233 0.0000
# 6 0.0000 0.0000 0.0000 0.0000 0.0000 32.8111
#
#
#
# Elastic Compliance Matrix: (Units=1/GPa)
#
#
# Indices 1 2 3 4 5 6 
#
# 1 0.011671 -0.002300 -0.003278 0.000000 0.000000 0.000000
# 2 -0.002300 0.014270 -0.005026 0.000000 0.000000 0.000000
# 3 -0.003278 -0.005026 0.017645 0.000000 0.000000 0.000000
# 4 0.000000 0.000000 0.000000 0.086427 0.000000 0.000000
# 5 0.000000 0.000000 0.000000 0.000000 0.022924 0.000000
# 6 0.000000 0.000000 0.000000 0.000000 0.000000 0.030478
#
#
# Mechanical properties :
#
#
# Convention : Reuss Voigt Hill
#
# Bulk Modulus (GPa) = 44.68787 45.28817 44.98802
# Shear Modulus (GPa) = 23.57583 29.12801 26.35192
#
# Velocity S-wave (km/s) = 3.19296 3.54908 3.37572
# Velocity P-wave (km/s) = 5.73741 6.03148 5.88628
#
# Compressibility (1/GPa) = 0.02237744
#
# Stress axis : x y z
#
# Youngs Moduli (GPa) = 85.68258 70.07904 56.67170
#
# Poissons Ratio (x) = 0.16119 0.18576
# Poissons Ratio (y) = 0.19708 0.28486
# Poissons Ratio (z) = 0.28085 0.35225
#
# Static dielectric constant tensor:
#      x y z
#    x 1.772710 0.000000 0.000000 
#    y 0.000000 4.438700 0.000000 
#    z 0.000000 0.000000 1.929940 
# 
# From -- ./inp_files/22834.got.cif
#   From: 2010.05.17/outbox.cif.g08.bks.cpg/sg54_12_cif.got.tgz:22834.got - 2010.06.03 13:09:01.
