data_PCOD9421255
_publ_section_title
;
Structure prediction by ZEFSAII (Michael W. Deem and Ramdas Pophale) SiO2 
 PCOD9421255
Probable space group: P C C A
;
_chemical_formula_sum "Si O2"
_cell_formula_units_Z 40
_cell_length_a 10.102499
_cell_length_b 8.740182
_cell_length_c 19.929603
_cell_angle_alpha 90.000000
_cell_angle_beta 90.000000
_cell_angle_gamma 90.000000
_cell_volume 1759.737707
_symmetry_space_group_name_H-M "P C C A"
_symmetry_group_IT_number 54
_symmetry_cell_setting 'orthorhombic'
loop_
_space_group_symop_operation_xyz
x,y,z
1/2-x,-y,z
1/2+x,-y,1/2-z
-x,y,1/2-z
-x,-y,-z
1/2+x,y,-z
1/2-x,y,1/2+z
x,-y,1/2+z
loop_
_atom_site_type_symbol
_atom_site_label
_atom_site_fract_x
_atom_site_fract_y
_atom_site_fract_z
Si Si1 0.005575 0.169090 0.852085
Si Si2 0.750000 0.000000 0.895449
Si Si3 0.608431 0.231408 0.999047
Si Si4 0.250000 0.000000 0.358840
Si Si5 0.850329 0.306490 0.071410
Si Si6 0.606735 0.502764 0.702403
O O1 0.044716 0.169214 0.931537
O O2 0.123629 0.067384 0.819838
O O3 0.037955 0.337587 0.822107
O O4 0.858124 0.098268 0.852628
O O5 0.832832 0.890084 0.946005
O O6 0.728765 0.336748 0.022349
O O7 0.489029 0.316235 0.964236
O O8 0.185206 0.134191 0.403843
O O9 0.861013 0.405670 0.137127
O O10 0.750000 0.500000 0.738506
O O11 0.500000 0.425332 0.750000
#
# Coordination Sequence:
#
# PCOD9421255 Si02
#       6
#     8   4   8   4   8   8
#     4  11  23  41  67 102 142 181 228 291 359 432
#     4  12  21  36  67 116 146 175 216 285 370 456
#     4  11  20  35  69 102 145 174 214 284 369 433
#     4  10  19  38  73  96 142 179 220 285 360 428
#     4  11  23  41  70 104 144 183 226 288 371 440
#     4  12  28  53  70  91 142 200 254 301 350 419
#
# _framework density 22.730658999999999
#
# number of rings (size 3 to 8) (size 9 to 14) (size 15 to 20)
#    0.000    0.800    8.000    3.000    0.000    2.400 
#    3.600    2.000    0.000    0.000    0.000    0.000 
#    0.000    0.000    0.000    0.000    0.000    0.000 
#
# Total GULP energy -223252.127261 kJ/mol
# GULP energy per Si atom -5581.303182 kJ/mol
# Density = 2.267892 g / cm^3
# Si number density = 22.730659 Si / 1000 Ang^3
#
#
#
# Elastic Constant Matrix: (Units=GPa)
#
#
# Indices 1 2 3 4 5 6 
#
# 1 111.9091 9.1376 19.9228 0.0000 0.0000 0.0000
# 2 9.1376 88.4102 11.7452 0.0000 0.0000 0.0000
# 3 19.9228 11.7452 50.5192 0.0000 0.0000 0.0000
# 4 0.0000 0.0000 0.0000 29.4994 0.0000 0.0000
# 5 0.0000 0.0000 0.0000 0.0000 21.4739 0.0000
# 6 0.0000 0.0000 0.0000 0.0000 0.0000 16.5425
#
#
#
# Elastic Compliance Matrix: (Units=1/GPa)
#
#
# Indices 1 2 3 4 5 6 
#
# 1 0.009632 -0.000507 -0.003681 0.000000 0.000000 0.000000
# 2 -0.000507 0.011698 -0.002520 0.000000 0.000000 0.000000
# 3 -0.003681 -0.002520 0.021832 0.000000 0.000000 0.000000
# 4 0.000000 0.000000 0.000000 0.033899 0.000000 0.000000
# 5 0.000000 0.000000 0.000000 0.000000 0.046568 0.000000
# 6 0.000000 0.000000 0.000000 0.000000 0.000000 0.060450
#
#
# Mechanical properties :
#
#
# Convention : Reuss Voigt Hill
#
# Bulk Modulus (GPa) = 33.61607 36.93886 35.27746
# Shear Modulus (GPa) = 24.10677 27.50534 25.80605
#
# Velocity S-wave (km/s) = 3.26013 3.48236 3.37307
# Velocity P-wave (km/s) = 5.38444 5.69693 5.54289
#
# Compressibility (1/GPa) = 0.02974768
#
# Stress axis : x y z
#
# Youngs Moduli (GPa) = 103.81533 85.48439 45.80451
#
# Poissons Ratio (x) = 0.04330 0.16860
# Poissons Ratio (y) = 0.05259 0.11542
# Poissons Ratio (z) = 0.38213 0.21541
#
# Static dielectric constant tensor:
#      x y z
#    x 1.860920 0.000000 0.000000 
#    y 0.000000 1.907180 0.000000 
#    z 0.000000 0.000000 1.831850 
# 
# From -- ./inp_files/23302.got.cif
#   From: 2010.05.17/outbox.cif.g08.bks.cpg/sg54_12_cif.got.tgz:23302.got - 2010.06.03 13:09:01.
