data_PCOD9421990
_publ_section_title
;
Structure prediction by ZEFSAII (Michael W. Deem and Ramdas Pophale) SiO2 
 PCOD9421990
Probable space group: P C C A
;
_chemical_formula_sum "Si O2"
_cell_formula_units_Z 44
_cell_length_a 28.316419
_cell_length_b 8.225215
_cell_length_c 9.099260
_cell_angle_alpha 90.000000
_cell_angle_beta 90.000000
_cell_angle_gamma 90.000000
_cell_volume 2119.296220
_symmetry_space_group_name_H-M "P C C A"
_symmetry_group_IT_number 54
_symmetry_cell_setting 'orthorhombic'
loop_
_space_group_symop_operation_xyz
x,y,z
1/2-x,-y,z
1/2+x,-y,1/2-z
-x,y,1/2-z
-x,-y,-z
1/2+x,y,-z
1/2-x,y,1/2+z
x,-y,1/2+z
loop_
_atom_site_type_symbol
_atom_site_label
_atom_site_fract_x
_atom_site_fract_y
_atom_site_fract_z
Si Si1 0.315485 0.107059 0.678319
Si Si2 0.958405 0.877851 0.940812
Si Si3 0.250000 0.000000 0.931024
Si Si4 0.448139 0.639674 0.805317
Si Si5 0.888266 0.141678 0.907930
Si Si6 0.098671 0.295291 0.287515
O O1 0.355997 0.242645 0.691644
O O2 0.284013 0.101642 0.824283
O O3 0.281822 0.111720 0.537299
O O4 0.341699 0.930535 0.666146
O O5 0.945502 0.816488 0.773841
O O6 0.912508 0.983368 0.978216
O O7 0.956830 0.712904 0.033547
O O8 0.000000 0.000000 0.000000
O O9 0.500000 0.599190 0.750000
O O10 0.424205 0.781594 0.708880
O O11 0.416634 0.481112 0.786672
O O12 0.885717 0.259132 0.045899
#
# Coordination Sequence:
#
# PCOD9421990 Si02
#       6
#     8   8   4   8   8   8
#     4  10  21  42  70 106 126 170 218 285 340 412
#     4  11  23  41  64  90 128 180 242 281 318 387
#     4  10  20  40  78 104 124 162 234 278 340 426
#     4  12  26  42  63  96 137 190 233 280 334 392
#     4  11  23  41  65  96 132 178 225 279 332 394
#     4  11  25  40  63  96 141 178 219 288 341 397
#
# _framework density 20.761609
#
# number of rings (size 3 to 8) (size 9 to 14) (size 15 to 20)
#    0.000    1.091    3.636    3.273    5.091    1.455 
#    0.000    0.000    0.000    6.545    0.000    0.000 
#    0.000    0.000    0.000    0.000    0.000    0.000 
#
# Total GULP energy -245343.263832 kJ/mol
# GULP energy per Si atom -5575.983269 kJ/mol
# Density = 2.071435 g / cm^3
# Si number density = 20.761609 Si / 1000 Ang^3
#
#
#
# Elastic Constant Matrix: (Units=GPa)
#
#
# Indices 1 2 3 4 5 6 
#
# 1 111.5325 33.9946 34.5588 0.0000 0.0000 0.0000
# 2 33.9946 92.2865 26.4787 0.0000 0.0000 0.0000
# 3 34.5588 26.4787 92.5627 0.0000 0.0000 0.0000
# 4 0.0000 0.0000 0.0000 17.5120 0.0000 0.0000
# 5 0.0000 0.0000 0.0000 0.0000 26.4653 0.0000
# 6 0.0000 0.0000 0.0000 0.0000 0.0000 28.0441
#
#
#
# Elastic Compliance Matrix: (Units=1/GPa)
#
#
# Indices 1 2 3 4 5 6 
#
# 1 0.010897 -0.003101 -0.003181 0.000000 0.000000 0.000000
# 2 -0.003101 0.012687 -0.002472 0.000000 0.000000 0.000000
# 3 -0.003181 -0.002472 0.012698 0.000000 0.000000 0.000000
# 4 0.000000 0.000000 0.000000 0.057104 0.000000 0.000000
# 5 0.000000 0.000000 0.000000 0.000000 0.037785 0.000000
# 6 0.000000 0.000000 0.000000 0.000000 0.000000 0.035658
#
#
# Mechanical properties :
#
#
# Convention : Reuss Voigt Hill
#
# Bulk Modulus (GPa) = 53.26383 54.04956 53.65669
# Shear Modulus (GPa) = 26.23351 27.82759 27.03055
#
# Velocity S-wave (km/s) = 3.55851 3.66504 3.61217
# Velocity P-wave (km/s) = 6.52646 6.63324 6.58007
#
# Compressibility (1/GPa) = 0.01877447
#
# Stress axis : x y z
#
# Youngs Moduli (GPa) = 91.76859 78.81892 78.75098
#
# Poissons Ratio (x) = 0.24444 0.25053
# Poissons Ratio (y) = 0.28460 0.19463
# Poissons Ratio (z) = 0.29194 0.19480
#
# Static dielectric constant tensor:
#      x y z
#    x 1.787280 0.000000 0.000000 
#    y 0.000000 1.740500 0.000000 
#    z 0.000000 0.000000 1.831860 
# 
# From -- ./inp_files/5768.got.cif
#   From: 2010.05.17/outbox.cif.g08.bks.cpg/sg54_3_cif.got.tgz:5768.got - 2010.06.03 13:09:01.
