data_PCOD9421239
_publ_section_title
;
Structure prediction by ZEFSAII (Michael W. Deem and Ramdas Pophale) SiO2 
 PCOD9421239
Probable space group: P C C A
;
_chemical_formula_sum "Si O2"
_cell_formula_units_Z 64
_cell_length_a 17.427794
_cell_length_b 6.478620
_cell_length_c 30.441881
_cell_angle_alpha 90.000000
_cell_angle_beta 90.000000
_cell_angle_gamma 90.000000
_cell_volume 3437.133567
_symmetry_space_group_name_H-M "P C C A"
_symmetry_group_IT_number 54
_symmetry_cell_setting 'orthorhombic'
loop_
_space_group_symop_operation_xyz
x,y,z
1/2-x,-y,z
1/2+x,-y,1/2-z
-x,y,1/2-z
-x,-y,-z
1/2+x,y,-z
1/2-x,y,1/2+z
x,-y,1/2+z
loop_
_atom_site_type_symbol
_atom_site_label
_atom_site_fract_x
_atom_site_fract_y
_atom_site_fract_z
Si Si1 0.525583 0.837322 0.798810
Si Si2 0.161879 0.059607 0.161260
Si Si3 0.919140 0.546170 0.857379
Si Si4 0.168974 0.900191 0.985539
Si Si5 0.559365 0.149500 0.639722
Si Si6 0.115633 0.790480 0.076985
Si Si7 0.162401 0.570594 0.908237
Si Si8 0.437594 0.179806 0.437172
O O1 0.500000 0.785441 0.750000
O O2 0.540178 0.630440 0.827572
O O3 0.607419 0.952027 0.802819
O O4 0.465294 0.004014 0.819452
O O5 0.144239 0.302975 0.163472
O O6 0.250000 0.000000 0.166159
O O7 0.133010 0.963989 0.114165
O O8 0.879968 0.424706 0.897201
O O9 0.986987 0.702716 0.870018
O O10 0.156851 0.717712 0.950882
O O11 0.250000 0.000000 0.974280
O O12 0.104288 0.076436 0.978672
O O13 0.168763 0.819891 0.035150
O O14 0.631517 0.303189 0.634356
O O15 0.570612 0.985918 0.601392
O O16 0.028447 0.792258 0.058693
O O17 0.250000 0.500000 0.902575
O O18 0.106769 0.380870 0.920221
#
# Coordination Sequence:
#
# PCOD9421239 Si02
#       8
#     8   8   8   8   8   8   8   8
#     4  10  21  38  66  98 123 154 202 247 302 375
#     4  10  22  41  64  92 128 164 195 245 314 368
#     4  10  19  38  63  91 118 158 202 244 303 370
#     4  11  24  37  53  83 124 160 207 268 316 353
#     4  10  19  38  64  88 119 155 204 246 302 370
#     4  11  21  37  58  90 117 159 211 255 302 375
#     4  11  22  38  60  85 119 168 212 262 311 357
#     4  11  20  39  58  82 116 157 209 255 302 364
#
# _framework density 18.620168
#
# number of rings (size 3 to 8) (size 9 to 14) (size 15 to 20)
#    0.000    1.500    6.250    0.750    0.000    5.500 
#    2.250    0.000    5.500    0.000    0.000    0.000 
#    0.000    0.000    0.000    0.000    0.000    0.000 
#
# Total GULP energy -356624.473219 kJ/mol
# GULP energy per Si atom -5572.257394 kJ/mol
# Density = 1.857779 g / cm^3
# Si number density = 18.620168 Si / 1000 Ang^3
#
#
#
# Elastic Constant Matrix: (Units=GPa)
#
#
# Indices 1 2 3 4 5 6 
#
# 1 57.7252 33.7994 20.1420 0.0000 0.0000 0.0000
# 2 33.7994 124.6781 31.5484 0.0000 0.0000 0.0000
# 3 20.1420 31.5484 60.0673 0.0000 0.0000 0.0000
# 4 0.0000 0.0000 0.0000 6.7484 0.0000 0.0000
# 5 0.0000 0.0000 0.0000 0.0000 16.9272 0.0000
# 6 0.0000 0.0000 0.0000 0.0000 0.0000 28.4295
#
#
#
# Elastic Compliance Matrix: (Units=1/GPa)
#
#
# Indices 1 2 3 4 5 6 
#
# 1 0.021747 -0.004671 -0.004839 0.000000 0.000000 0.000000
# 2 -0.004671 0.010253 -0.003819 0.000000 0.000000 0.000000
# 3 -0.004839 -0.003819 0.020276 0.000000 0.000000 0.000000
# 4 0.000000 0.000000 0.000000 0.148184 0.000000 0.000000
# 5 0.000000 0.000000 0.000000 0.000000 0.059076 0.000000
# 6 0.000000 0.000000 0.000000 0.000000 0.000000 0.035175
#
#
# Mechanical properties :
#
#
# Convention : Reuss Voigt Hill
#
# Bulk Modulus (GPa) = 39.03383 45.93891 42.48637
# Shear Modulus (GPa) = 15.15570 20.88641 18.02106
#
# Velocity S-wave (km/s) = 2.85606 3.35283 3.11436
# Velocity P-wave (km/s) = 5.64666 6.30188 5.98325
#
# Compressibility (1/GPa) = 0.02561881
#
# Stress axis : x y z
#
# Youngs Moduli (GPa) = 45.98355 97.52994 49.31850
#
# Poissons Ratio (x) = 0.45556 0.23865
# Poissons Ratio (y) = 0.21479 0.18834
# Poissons Ratio (z) = 0.22251 0.37246
#
# Static dielectric constant tensor:
#      x y z
#    x 1.673750 0.000000 0.000000 
#    y 0.000000 1.678440 0.000000 
#    z 0.000000 0.000000 1.636020 
# 
# From -- ./inp_files/28353.got.cif
#   From: 2010.05.17/outbox.cif.g08.bks.cpg/sg54_15_cif.got.tgz:28353.got - 2010.06.03 13:09:01.
