data_PCOD9421358
_publ_section_title
;
Structure prediction by ZEFSAII (Michael W. Deem and Ramdas Pophale) SiO2 
 PCOD9421358
Probable space group: P C C A
;
_chemical_formula_sum "Si O2"
_cell_formula_units_Z 44
_cell_length_a 7.859818
_cell_length_b 9.802222
_cell_length_c 27.794832
_cell_angle_alpha 90.000000
_cell_angle_beta 90.000000
_cell_angle_gamma 90.000000
_cell_volume 2141.416168
_symmetry_space_group_name_H-M "P C C A"
_symmetry_group_IT_number 54
_symmetry_cell_setting 'orthorhombic'
loop_
_space_group_symop_operation_xyz
x,y,z
1/2-x,-y,z
1/2+x,-y,1/2-z
-x,y,1/2-z
-x,-y,-z
1/2+x,y,-z
1/2-x,y,1/2+z
x,-y,1/2+z
loop_
_atom_site_type_symbol
_atom_site_label
_atom_site_fract_x
_atom_site_fract_y
_atom_site_fract_z
Si Si1 0.087780 0.167373 0.641551
Si Si2 0.330617 0.847519 0.281431
Si Si3 0.971796 0.632055 0.437014
Si Si4 0.426672 0.672768 0.040419
Si Si5 0.500000 0.209980 0.250000
Si Si6 0.515579 0.869887 0.378933
O O1 0.005313 0.296861 0.614587
O O2 0.293031 0.170638 0.638607
O O3 0.041269 0.147698 0.697276
O O4 0.023225 0.032139 0.614831
O O5 0.500000 0.838172 0.250000
O O6 0.189603 0.738549 0.263620
O O7 0.383195 0.834803 0.336942
O O8 0.250000 0.000000 0.273504
O O9 0.008273 0.471255 0.442630
O O10 0.771499 0.656227 0.447047
O O11 0.061360 0.695933 0.483551
O O12 0.510297 0.790840 0.071761
#
# Coordination Sequence:
#
# PCOD9421358 Si02
#       6
#     8   8   8   8   4   8
#     4  10  20  33  55  80 113 147 187 228 279 329
#     4  12  20  32  53  83 116 153 192 229 276 334
#     4   9  19  37  58  79 106 148 185 231 280 339
#     4   9  19  37  59  78 108 144 187 231 283 334
#     4  12  22  34  56  82 118 158 190 226 278 340
#     4  10  20  33  53  83 112 144 181 239 277 327
#
# _framework density 20.547152000000001
#
# number of rings (size 3 to 8) (size 9 to 14) (size 15 to 20)
#    0.000    1.818    4.545    0.000    0.000    2.182 
#    0.000    0.000    2.000    0.000    0.000    0.000 
#    0.000    0.000    0.000    0.000    0.000    0.000 
#
# Total GULP energy -244997.889385 kJ/mol
# GULP energy per Si atom -5568.133850 kJ/mol
# Density = 2.050039 g / cm^3
# Si number density = 20.547152 Si / 1000 Ang^3
#
#
#
# Elastic Constant Matrix: (Units=GPa)
#
#
# Indices 1 2 3 4 5 6 
#
# 1 72.2582 4.5035 17.0320 0.0000 0.0000 0.0000
# 2 4.5035 35.6171 37.9941 0.0000 0.0000 0.0000
# 3 17.0320 37.9941 91.7738 0.0000 0.0000 0.0000
# 4 0.0000 0.0000 0.0000 3.4237 0.0000 0.0000
# 5 0.0000 0.0000 0.0000 0.0000 34.5641 0.0000
# 6 0.0000 0.0000 0.0000 0.0000 0.0000 9.1598
#
#
#
# Elastic Compliance Matrix: (Units=1/GPa)
#
#
# Indices 1 2 3 4 5 6 
#
# 1 0.014541 0.001863 -0.003470 0.000000 0.000000 0.000000
# 2 0.001863 0.050521 -0.021261 0.000000 0.000000 0.000000
# 3 -0.003470 -0.021261 0.020342 0.000000 0.000000 0.000000
# 4 0.000000 0.000000 0.000000 0.292081 0.000000 0.000000
# 5 0.000000 0.000000 0.000000 0.000000 0.028932 0.000000
# 6 0.000000 0.000000 0.000000 0.000000 0.000000 0.109173
#
#
# Mechanical properties :
#
#
# Convention : Reuss Voigt Hill
#
# Bulk Modulus (GPa) = 25.20930 35.41202 30.31066
# Shear Modulus (GPa) = 8.70247 18.77081 13.73664
#
# Velocity S-wave (km/s) = 2.06023 3.02577 2.58842
# Velocity P-wave (km/s) = 4.23734 5.42946 4.87001
#
# Compressibility (1/GPa) = 0.03966790
#
# Stress axis : x y z
#
# Youngs Moduli (GPa) = 68.77089 19.79373 49.15838
#
# Poissons Ratio (x) = -0.03687 0.17057
# Poissons Ratio (y) = -0.12811 1.04517
# Poissons Ratio (z) = 0.23862 0.42084
#
# Static dielectric constant tensor:
#      x y z
#    x 1.827920 0.000000 0.000000 
#    y 0.000000 1.761370 0.000000 
#    z 0.000000 0.000000 1.708980 
# 
# From -- ./inp_files/23428.got.cif
#   From: 2010.05.17/outbox.cif.g08.bks.cpg/sg54_12_cif.got.tgz:23428.got - 2010.06.03 13:09:01.
