data_PCOD9421216
_publ_section_title
;
Structure prediction by ZEFSAII (Michael W. Deem and Ramdas Pophale) SiO2 
 PCOD9421216
Probable space group: P C C A
;
_chemical_formula_sum "Si O2"
_cell_formula_units_Z 60
_cell_length_a 13.990230
_cell_length_b 10.381875
_cell_length_c 18.480988
_cell_angle_alpha 90.000000
_cell_angle_beta 90.000000
_cell_angle_gamma 90.000000
_cell_volume 2684.267759
_symmetry_space_group_name_H-M "P C C A"
_symmetry_group_IT_number 54
_symmetry_cell_setting 'orthorhombic'
loop_
_space_group_symop_operation_xyz
x,y,z
1/2-x,-y,z
1/2+x,-y,1/2-z
-x,y,1/2-z
-x,-y,-z
1/2+x,y,-z
1/2-x,y,1/2+z
x,-y,1/2+z
loop_
_atom_site_type_symbol
_atom_site_label
_atom_site_fract_x
_atom_site_fract_y
_atom_site_fract_z
Si Si1 0.164262 0.825411 0.982946
Si Si2 0.379435 0.906348 0.034893
Si Si3 0.599465 0.358696 0.024369
Si Si4 0.750000 0.000000 0.696878
Si Si5 0.890866 0.289372 0.778863
Si Si6 0.897029 0.579138 0.425282
Si Si7 0.770161 0.250700 0.643307
Si Si8 0.592794 0.016231 0.799890
O O1 0.268916 0.864917 0.016629
O O2 0.134379 0.699869 0.026392
O O3 0.105811 0.956603 0.995619
O O4 0.171619 0.785117 0.897915
O O5 0.400923 0.927231 0.119747
O O6 0.432723 0.781104 0.004261
O O7 0.511868 0.425586 0.065176
O O8 0.679443 0.336510 0.083757
O O9 0.637291 0.445724 0.959126
O O10 0.691300 0.897640 0.650299
O O11 0.678495 0.072077 0.750601
O O12 0.872605 0.386101 0.844033
O O13 0.807941 0.305194 0.718862
O O14 0.890831 0.139318 0.805193
O O15 0.000000 0.309251 0.750000
O O16 0.500000 0.035598 0.750000
#
# Coordination Sequence:
#
# PCOD9421216 Si02
#       8
#     8   8   8   4   8   8   8   8
#     4  10  21  36  64  88 127 160 216 256 332 378
#     4  10  20  38  58  92 127 167 207 269 320 394
#     4  10  23  39  63  89 129 160 223 263 327 383
#     4  10  20  34  62  90 134 162 214 272 346 372
#     4  10  19  37  64  90 120 166 220 256 328 394
#     4  11  22  40  63  92 119 178 206 270 319 396
#     4  10  20  36  60  95 121 164 207 274 310 400
#     4  10  21  35  59  95 132 171 219 277 331 401
#
# _framework density 22.352464000000001
#
# number of rings (size 3 to 8) (size 9 to 14) (size 15 to 20)
#    0.000    1.867    2.667    2.400    1.867    3.733 
#    0.000    0.667    5.867    0.000    0.000    0.000 
#    0.000    0.000    0.000    0.000    0.000    0.000 
#
# Total GULP energy -334454.299257 kJ/mol
# GULP energy per Si atom -5574.238321 kJ/mol
# Density = 2.230159 g / cm^3
# Si number density = 22.352464 Si / 1000 Ang^3
#
#
#
# Elastic Constant Matrix: (Units=GPa)
#
#
# Indices 1 2 3 4 5 6 
#
# 1 51.7422 12.4841 19.6081 0.0000 0.0000 0.0000
# 2 12.4841 90.9515 43.6006 0.0000 0.0000 0.0000
# 3 19.6081 43.6006 153.6742 0.0000 0.0000 0.0000
# 4 0.0000 0.0000 0.0000 41.9110 0.0000 0.0000
# 5 0.0000 0.0000 0.0000 0.0000 23.5648 0.0000
# 6 0.0000 0.0000 0.0000 0.0000 0.0000 22.9186
#
#
#
# Elastic Compliance Matrix: (Units=1/GPa)
#
#
# Indices 1 2 3 4 5 6 
#
# 1 0.020563 -0.001811 -0.002110 0.000000 0.000000 0.000000
# 2 -0.001811 0.012885 -0.003425 0.000000 0.000000 0.000000
# 3 -0.002110 -0.003425 0.007748 0.000000 0.000000 0.000000
# 4 0.000000 0.000000 0.000000 0.023860 0.000000 0.000000
# 5 0.000000 0.000000 0.000000 0.000000 0.042436 0.000000
# 6 0.000000 0.000000 0.000000 0.000000 0.000000 0.043633
#
#
# Mechanical properties :
#
#
# Convention : Reuss Voigt Hill
#
# Bulk Modulus (GPa) = 37.72862 49.75040 43.73951
# Shear Modulus (GPa) = 28.62838 32.39055 30.50947
#
# Velocity S-wave (km/s) = 3.58267 3.81081 3.69850
# Velocity P-wave (km/s) = 5.83349 6.45512 6.15216
#
# Compressibility (1/GPa) = 0.02650508
#
# Stress axis : x y z
#
# Youngs Moduli (GPa) = 48.63081 77.60838 129.06299
#
# Poissons Ratio (x) = 0.14055 0.27231
# Poissons Ratio (y) = 0.08807 0.44201
# Poissons Ratio (z) = 0.10261 0.26579
#
# Static dielectric constant tensor:
#      x y z
#    x 1.967570 0.000000 0.000000 
#    y 0.000000 1.846370 0.000000 
#    z 0.000000 0.000000 1.852130 
# 
# From -- ./inp_files/18693.got.cif
#   From: 2010.05.17/outbox.cif.g08.bks.cpg/sg54_10_cif.got.tgz:18693.got - 2010.06.03 13:09:01.
