data_PCOD9421297
_publ_section_title
;
Structure prediction by ZEFSAII (Michael W. Deem and Ramdas Pophale) SiO2 
 PCOD9421297
Probable space group: P C C A
;
_chemical_formula_sum "Si O2"
_cell_formula_units_Z 64
_cell_length_a 15.518479
_cell_length_b 9.413974
_cell_length_c 22.995863
_cell_angle_alpha 90.000000
_cell_angle_beta 90.000000
_cell_angle_gamma 90.000000
_cell_volume 3359.478453
_symmetry_space_group_name_H-M "P C C A"
_symmetry_group_IT_number 54
_symmetry_cell_setting 'orthorhombic'
loop_
_space_group_symop_operation_xyz
x,y,z
1/2-x,-y,z
1/2+x,-y,1/2-z
-x,y,1/2-z
-x,-y,-z
1/2+x,y,-z
1/2-x,y,1/2+z
x,-y,1/2+z
loop_
_atom_site_type_symbol
_atom_site_label
_atom_site_fract_x
_atom_site_fract_y
_atom_site_fract_z
Si Si1 0.299785 0.135302 0.583108
Si Si2 0.007399 0.030053 0.069690
Si Si3 0.190476 0.635224 0.677858
Si Si4 0.233765 0.169942 0.949323
Si Si5 0.753559 0.840141 0.219118
Si Si6 0.377142 0.254277 0.877547
Si Si7 0.082159 0.219685 0.863537
Si Si8 0.998245 0.488754 0.180424
O O1 0.288009 0.269586 0.622879
O O2 0.269162 0.167472 0.518166
O O3 0.250000 0.000000 0.607219
O O4 0.397797 0.086526 0.580021
O O5 0.983371 0.902367 0.114243
O O6 0.943785 0.153994 0.089752
O O7 0.000000 0.000000 0.000000
O O8 0.250000 0.500000 0.680694
O O9 0.218338 0.728978 0.733736
O O10 0.091844 0.582538 0.670592
O O11 0.305782 0.279952 0.926906
O O12 0.146217 0.222076 0.919157
O O13 0.250000 0.000000 0.933372
O O14 0.681638 0.830523 0.168561
O O15 0.848007 0.808993 0.189476
O O16 0.750000 0.000000 0.242473
O O17 0.426007 0.379998 0.844434
O O18 0.027779 0.360313 0.848164
O O19 0.000000 0.507406 0.250000
#
# Coordination Sequence:
#
# PCOD9421297 Si02
#       8
#     8   8   8   8   8   8   8   8
#     4  11  24  43  67  99 138 180 227 283 357 412
#     4  12  21  42  72 104 139 174 226 296 350 405
#     4  12  27  46  63  93 145 186 217 280 355 417
#     4  10  19  42  71 102 131 169 227 291 344 400
#     4  11  22  43  74 102 132 173 239 291 338 401
#     4  11  21  42  72  98 134 175 225 286 339 414
#     4  11  23  41  71 104 130 174 235 279 337 419
#     4  12  26  46  64  99 142 185 227 278 350 416
#
# _framework density 19.050577000000001
#
# number of rings (size 3 to 8) (size 9 to 14) (size 15 to 20)
#    0.000    0.750    6.250    2.625    1.750    1.500 
#    4.500    1.875    0.000    0.000    0.000    0.000 
#    0.000    0.000    0.000    0.000    0.000    0.000 
#
# Total GULP energy -356720.159161 kJ/mol
# GULP energy per Si atom -5573.752487 kJ/mol
# Density = 1.900722 g / cm^3
# Si number density = 19.050577 Si / 1000 Ang^3
#
#
#
# Elastic Constant Matrix: (Units=GPa)
#
#
# Indices 1 2 3 4 5 6 
#
# 1 51.6108 19.6324 20.5933 0.0000 0.0000 0.0000
# 2 19.6324 84.9617 40.0591 0.0000 0.0000 0.0000
# 3 20.5933 40.0591 85.3595 0.0000 0.0000 0.0000
# 4 0.0000 0.0000 0.0000 19.0516 0.0000 0.0000
# 5 0.0000 0.0000 0.0000 0.0000 30.8931 0.0000
# 6 0.0000 0.0000 0.0000 0.0000 0.0000 33.8646
#
#
#
# Elastic Compliance Matrix: (Units=1/GPa)
#
#
# Indices 1 2 3 4 5 6 
#
# 1 0.022153 -0.003338 -0.003778 0.000000 0.000000 0.000000
# 2 -0.003338 0.015617 -0.006524 0.000000 0.000000 0.000000
# 3 -0.003778 -0.006524 0.015688 0.000000 0.000000 0.000000
# 4 0.000000 0.000000 0.000000 0.052489 0.000000 0.000000
# 5 0.000000 0.000000 0.000000 0.000000 0.032370 0.000000
# 6 0.000000 0.000000 0.000000 0.000000 0.000000 0.029529
#
#
# Mechanical properties :
#
#
# Convention : Reuss Voigt Hill
#
# Bulk Modulus (GPa) = 38.19838 42.50020 40.34929
# Shear Modulus (GPa) = 24.52755 26.20499 25.36627
#
# Velocity S-wave (km/s) = 3.59206 3.71286 3.65296
# Velocity P-wave (km/s) = 6.10725 6.38264 6.24646
#
# Compressibility (1/GPa) = 0.02617912
#
# Stress axis : x y z
#
# Youngs Moduli (GPa) = 45.14081 64.03173 63.74159
#
# Poissons Ratio (x) = 0.21371 0.24083
# Poissons Ratio (y) = 0.15066 0.41585
# Poissons Ratio (z) = 0.17055 0.41774
#
# Static dielectric constant tensor:
#      x y z
#    x 1.567780 0.000000 0.000000 
#    y 0.000000 1.650160 0.000000 
#    z 0.000000 0.000000 1.656250 
# 
# From -- ./inp_files/24532.got.cif
#   From: 2010.05.17/outbox.cif.g08.bks.cpg/sg54_13_cif.got.tgz:24532.got - 2010.06.03 13:09:01.
