data_PCOD9421183
_publ_section_title
;
Structure prediction by ZEFSAII (Michael W. Deem and Ramdas Pophale) SiO2 
 PCOD9421183
Probable space group: P C C A
;
_chemical_formula_sum "Si O2"
_cell_formula_units_Z 56
_cell_length_a 5.672952
_cell_length_b 14.917410
_cell_length_c 29.579087
_cell_angle_alpha 90.000000
_cell_angle_beta 90.000000
_cell_angle_gamma 90.000000
_cell_volume 2503.152448
_symmetry_space_group_name_H-M "P C C A"
_symmetry_group_IT_number 54
_symmetry_cell_setting 'orthorhombic'
loop_
_space_group_symop_operation_xyz
x,y,z
1/2-x,-y,z
1/2+x,-y,1/2-z
-x,y,1/2-z
-x,-y,-z
1/2+x,y,-z
1/2-x,y,1/2+z
x,-y,1/2+z
loop_
_atom_site_type_symbol
_atom_site_label
_atom_site_fract_x
_atom_site_fract_y
_atom_site_fract_z
Si Si1 0.250000 0.500000 0.528628
Si Si2 0.809113 0.849503 0.976070
Si Si3 0.498110 0.714299 0.318397
Si Si4 0.217095 0.905042 0.685987
Si Si5 0.000000 0.445468 0.250000
Si Si6 0.899794 0.789845 0.135351
Si Si7 0.771215 0.318373 0.416079
Si Si8 0.934767 0.928097 0.598917
O O1 0.500000 0.500000 0.500000
O O2 0.240614 0.585408 0.561705
O O3 0.843337 0.910821 0.932164
O O4 0.829299 0.749007 0.956964
O O5 0.050857 0.866142 0.003733
O O6 0.619333 0.806133 0.298733
O O7 0.538962 0.624423 0.291038
O O8 0.225365 0.740287 0.323142
O O9 0.574479 0.694261 0.370428
O O10 0.439762 0.867599 0.657395
O O11 0.025660 0.939177 0.649597
O O12 0.250000 0.000000 0.713368
O O13 0.750000 0.500000 0.244594
O O14 0.716208 0.838007 0.102665
O O15 0.028091 0.718205 0.104428
O O16 0.750000 0.000000 0.582347
#
# Coordination Sequence:
#
# PCOD9421183 Si02
#       8
#     4   8   8   8   4   8   8   8
#     4  12  30  46  66 100 138 182 242 318 368 434
#     4  12  25  39  60  88 135 188 243 304 365 415
#     4  10  25  44  78 112 142 194 242 301 365 463
#     4  10  19  36  71 105 141 192 246 301 363 440
#     4  12  32  56  84 120 158 192 236 308 380 440
#     4  10  19  39  70 101 135 186 240 295 353 444
#     4  11  24  44  70  97 135 185 239 298 368 440
#     4  11  21  35  58  94 137 189 250 304 357 425
#
# _framework density 22.371787999999999
#
# number of rings (size 3 to 8) (size 9 to 14) (size 15 to 20)
#    0.000    1.143    5.714    1.714    7.000    0.571 
#    0.000    0.000    3.143    0.000    0.000    0.000 
#    0.000    0.000    0.000    0.000    0.000    0.000 
#
# Total GULP energy -311983.360622 kJ/mol
# GULP energy per Si atom -5571.131440 kJ/mol
# Density = 2.232087 g / cm^3
# Si number density = 22.371788 Si / 1000 Ang^3
#
#
#
# Elastic Constant Matrix: (Units=GPa)
#
#
# Indices 1 2 3 4 5 6 
#
# 1 106.8662 44.4632 26.1326 0.0000 0.0000 0.0000
# 2 44.4632 184.1385 29.6793 0.0000 0.0000 0.0000
# 3 26.1326 29.6793 45.1859 0.0000 0.0000 0.0000
# 4 0.0000 0.0000 0.0000 0.3810 0.0000 0.0000
# 5 0.0000 0.0000 0.0000 0.0000 19.7187 0.0000
# 6 0.0000 0.0000 0.0000 0.0000 0.0000 19.7053
#
#
#
# Elastic Compliance Matrix: (Units=1/GPa)
#
#
# Indices 1 2 3 4 5 6 
#
# 1 0.011464 -0.001901 -0.005382 0.000000 0.000000 0.000000
# 2 -0.001901 0.006389 -0.003097 0.000000 0.000000 0.000000
# 3 -0.005382 -0.003097 0.027277 0.000000 0.000000 0.000000
# 4 0.000000 0.000000 0.000000 2.624614 0.000000 0.000000
# 5 0.000000 0.000000 0.000000 0.000000 0.050713 0.000000
# 6 0.000000 0.000000 0.000000 0.000000 0.000000 0.050748
#
#
# Mechanical properties :
#
#
# Convention : Reuss Voigt Hill
#
# Bulk Modulus (GPa) = 41.03159 59.63785 50.33472
# Shear Modulus (GPa) = 1.78566 23.68871 12.73718
#
# Velocity S-wave (km/s) = 0.89437 3.25755 2.38868
# Velocity P-wave (km/s) = 4.40989 6.39252 5.49142
#
# Compressibility (1/GPa) = 0.02437147
#
# Stress axis : x y z
#
# Youngs Moduli (GPa) = 87.22660 156.52236 36.66027
#
# Poissons Ratio (x) = 0.29752 0.19730
# Poissons Ratio (y) = 0.16580 0.11354
# Poissons Ratio (z) = 0.46943 0.48476
#
# Static dielectric constant tensor:
#      x y z
#    x 2.978800 0.000000 0.000000 
#    y 0.000000 1.853610 0.000000 
#    z 0.000000 0.000000 1.921230 
# 
# From -- ./inp_files/27245.got.cif
#   From: 2010.05.17/outbox.cif.g08.bks.cpg/sg54_14_cif.got.tgz:27245.got - 2010.06.03 13:09:01.
