data_PCOD9421334
_publ_section_title
;
Structure prediction by ZEFSAII (Michael W. Deem and Ramdas Pophale) SiO2 
 PCOD9421334
Probable space group: P C C A
;
_chemical_formula_sum "Si O2"
_cell_formula_units_Z 48
_cell_length_a 17.491076
_cell_length_b 11.958597
_cell_length_c 12.252699
_cell_angle_alpha 90.000000
_cell_angle_beta 90.000000
_cell_angle_gamma 90.000000
_cell_volume 2562.881476
_symmetry_space_group_name_H-M "P C C A"
_symmetry_group_IT_number 54
_symmetry_cell_setting 'orthorhombic'
loop_
_space_group_symop_operation_xyz
x,y,z
1/2-x,-y,z
1/2+x,-y,1/2-z
-x,y,1/2-z
-x,-y,-z
1/2+x,y,-z
1/2-x,y,1/2+z
x,-y,1/2+z
loop_
_atom_site_type_symbol
_atom_site_label
_atom_site_fract_x
_atom_site_fract_y
_atom_site_fract_z
Si Si1 0.325554 0.641080 0.053470
Si Si2 0.534192 0.211985 0.458919
Si Si3 0.565831 0.186437 0.834657
Si Si4 0.352197 0.383865 0.096459
Si Si5 0.885868 0.271172 0.672669
Si Si6 0.588893 0.053687 0.286511
O O1 0.374606 0.719294 0.132898
O O2 0.355584 0.515043 0.071139
O O3 0.236287 0.647306 0.080444
O O4 0.338808 0.681820 0.929309
O O5 0.483835 0.163427 0.556179
O O6 0.592165 0.312955 0.482636
O O7 0.472589 0.262000 0.372785
O O8 0.584031 0.115427 0.402753
O O9 0.500000 0.220723 0.750000
O O10 0.610245 0.075299 0.795488
O O11 0.375309 0.347298 0.219898
O O12 0.868648 0.142358 0.708655
O O13 0.500000 0.047520 0.250000
#
# Coordination Sequence:
#
# PCOD9421334 Si02
#       6
#     8   8   8   8   8   8
#     4  10  23  36  53  83 116 150 185 229 287 337
#     4   9  18  34  57  79 104 145 190 229 274 331
#     4  10  20  32  53  84 112 139 184 235 272 328
#     4  10  21  37  56  78 111 153 187 229 283 336
#     4   9  19  37  58  78 106 146 190 233 281 336
#     4   8  15  32  56  77 102 140 177 220 275 321
#
# _framework density 18.728919000000001
#
# number of rings (size 3 to 8) (size 9 to 14) (size 15 to 20)
#    0.000    2.667    0.000    2.000    0.000   10.667 
#    0.000    3.333    0.000   12.000    0.000    0.000 
#    0.000    0.000    0.000    0.000    0.000    0.000 
#
# Total GULP energy -267304.187852 kJ/mol
# GULP energy per Si atom -5568.837247 kJ/mol
# Density = 1.868629 g / cm^3
# Si number density = 18.728919 Si / 1000 Ang^3
#
#
#
# Elastic Constant Matrix: (Units=GPa)
#
#
# Indices 1 2 3 4 5 6 
#
# 1 36.0814 43.3007 12.5293 0.0000 0.0000 0.0000
# 2 43.3007 125.1767 37.1529 0.0000 0.0000 0.0000
# 3 12.5293 37.1529 78.0199 0.0000 0.0000 0.0000
# 4 0.0000 0.0000 0.0000 17.1725 0.0000 0.0000
# 5 0.0000 0.0000 0.0000 0.0000 18.3514 0.0000
# 6 0.0000 0.0000 0.0000 0.0000 0.0000 488.4996
#
#
#
# Elastic Compliance Matrix: (Units=1/GPa)
#
#
# Indices 1 2 3 4 5 6 
#
# 1 0.047390 -0.016461 0.000228 0.000000 0.000000 0.000000
# 2 -0.016461 0.015021 -0.004510 0.000000 0.000000 0.000000
# 3 0.000228 -0.004510 0.014928 0.000000 0.000000 0.000000
# 4 0.000000 0.000000 0.000000 0.058233 0.000000 0.000000
# 5 0.000000 0.000000 0.000000 0.000000 0.054492 0.000000
# 6 0.000000 0.000000 0.000000 0.000000 0.000000 0.002047
#
#
# Mechanical properties :
#
#
# Convention : Reuss Voigt Hill
#
# Bulk Modulus (GPa) = 27.89009 47.24931 37.56970
# Shear Modulus (GPa) = 20.36269 114.55772 67.46020
#
# Velocity S-wave (km/s) = 3.30090 7.82937 6.00812
# Velocity P-wave (km/s) = 5.42694 10.34479 8.26034
#
# Compressibility (1/GPa) = 0.03585503
#
# Stress axis : x y z
#
# Youngs Moduli (GPa) = 21.10139 66.57241 66.98787
#
# Poissons Ratio (x) = 1.09583 -0.01528
# Poissons Ratio (y) = 0.34735 0.30209
# Poissons Ratio (z) = -0.00481 0.30022
#
# Static dielectric constant tensor:
#      x y z
#    x 1.630670 0.000000 0.000000 
#    y 0.000000 1.677550 0.000000 
#    z 0.000000 0.000000 1.695640 
# 
# From -- ./inp_files/8930.got.cif
#   From: 2010.05.17/outbox.cif.g08.bks.cpg/sg54_5_cif.got.tgz:8930.got - 2010.06.03 13:09:01.
