data_PCOD9421088
_publ_section_title
;
Structure prediction by ZEFSAII (Michael W. Deem and Ramdas Pophale) SiO2 
 PCOD9421088
Probable space group: P C C A
;
_chemical_formula_sum "Si O2"
_cell_formula_units_Z 56
_cell_length_a 14.279198
_cell_length_b 14.807593
_cell_length_c 13.758807
_cell_angle_alpha 90.000000
_cell_angle_beta 90.000000
_cell_angle_gamma 90.000000
_cell_volume 2909.169752
_symmetry_space_group_name_H-M "P C C A"
_symmetry_group_IT_number 54
_symmetry_cell_setting 'orthorhombic'
loop_
_space_group_symop_operation_xyz
x,y,z
1/2-x,-y,z
1/2+x,-y,1/2-z
-x,y,1/2-z
-x,-y,-z
1/2+x,y,-z
1/2-x,y,1/2+z
x,-y,1/2+z
loop_
_atom_site_type_symbol
_atom_site_label
_atom_site_fract_x
_atom_site_fract_y
_atom_site_fract_z
Si Si1 0.244449 0.286602 0.175962
Si Si2 0.377543 0.920467 0.524028
Si Si3 0.792681 0.904750 0.265628
Si Si4 0.123402 0.723908 0.990991
Si Si5 0.904971 0.102708 0.578778
Si Si6 0.234074 0.606287 0.369279
Si Si7 0.900740 0.294968 0.489861
O O1 0.233906 0.187983 0.226454
O O2 0.330492 0.283412 0.098618
O O3 0.267486 0.357694 0.259530
O O4 0.152747 0.309885 0.112046
O O5 0.322089 0.921036 0.623787
O O6 0.359603 0.829174 0.463721
O O7 0.485198 0.910239 0.559010
O O8 0.361892 0.011955 0.465918
O O9 0.877113 0.886419 0.190771
O O10 0.750000 0.000000 0.232467
O O11 0.013129 0.702511 0.987484
O O12 0.180686 0.657881 0.922275
O O13 0.874157 0.192987 0.523004
O O14 0.250000 0.500000 0.373738
O O15 0.142977 0.637968 0.430174
#
# Coordination Sequence:
#
# PCOD9421088 Si02
#       7
#     8   8   8   8   8   8   8
#     4  10  22  39  59  89 124 155 203 250 306 359
#     4   9  20  36  54  86 120 154 201 236 288 348
#     4  11  21  31  55  84 116 158 199 238 288 356
#     4   9  22  41  65  90 120 164 200 248 306 362
#     4  10  19  35  58  82 119 161 192 243 285 352
#     4  11  24  42  63  90 120 152 201 258 314 365
#     4  10  21  42  65  88 124 159 203 250 303 367
#
# _framework density 19.249478
#
# number of rings (size 3 to 8) (size 9 to 14) (size 15 to 20)
#    0.000    2.000    1.429    1.286    2.000    5.714 
#    0.000    1.429    0.000    0.000    0.000    0.000 
#    0.000    0.000    0.000    0.000    0.000    0.000 
#
# Total GULP energy -312540.353014 kJ/mol
# GULP energy per Si atom -5581.077732 kJ/mol
# Density = 1.920567 g / cm^3
# Si number density = 19.249478 Si / 1000 Ang^3
#
#
#
# Elastic Constant Matrix: (Units=GPa)
#
#
# Indices 1 2 3 4 5 6 
#
# 1 53.1074 -19.0636 4.9603 0.0000 0.0000 0.0000
# 2 -19.0636 81.8720 20.7519 0.0000 0.0000 0.0000
# 3 4.9603 20.7519 69.6062 0.0000 0.0000 0.0000
# 4 0.0000 0.0000 0.0000 -4.0452 0.0000 0.0000
# 5 0.0000 0.0000 0.0000 0.0000 14.8691 0.0000
# 6 0.0000 0.0000 0.0000 0.0000 0.0000 20.4878
#
#
#
# Elastic Compliance Matrix: (Units=1/GPa)
#
#
# Indices 1 2 3 4 5 6 
#
# 1 0.021196 0.005753 -0.003226 0.000000 0.000000 0.000000
# 2 0.005753 0.014774 -0.004815 0.000000 0.000000 0.000000
# 3 -0.003226 -0.004815 0.016032 0.000000 0.000000 0.000000
# 4 0.000000 0.000000 0.000000 -0.247204 0.000000 0.000000
# 5 0.000000 0.000000 0.000000 0.000000 0.067254 0.000000
# 6 0.000000 0.000000 0.000000 0.000000 0.000000 0.048810
#
#
# Mechanical properties :
#
#
# Convention : Reuss Voigt Hill
#
# Bulk Modulus (GPa) = 21.08477 24.20922 22.64699
# Shear Modulus (GPa) = -85.09848 19.45813 -32.82017
#
# Velocity S-wave (km/s) = -6.65614 3.18282 -4.13363
# Velocity P-wave (km/s) = 6.93506 5.10989 3.31542
#
# Compressibility (1/GPa) = 0.04742759
#
# Stress axis : x y z
#
# Youngs Moduli (GPa) = 47.17831 67.68601 62.37600
#
# Poissons Ratio (x) = -0.38940 0.20120
# Poissons Ratio (y) = -0.27142 0.30032
# Poissons Ratio (z) = 0.15218 0.32588
#
# Static dielectric constant tensor:
#      x y z
#    x 1.693660 0.000000 0.000000 
#    y 0.000000 1.679100 0.000000 
#    z 0.000000 0.000000 1.644740 
# 
# From -- ./inp_files/8408.got.cif
#   From: 2010.05.17/outbox.cif.g08.bks.cpg/sg54_5_cif.got.tgz:8408.got - 2010.06.03 13:09:01.
