data_PCOD9421240
_publ_section_title
;
Structure prediction by ZEFSAII (Michael W. Deem and Ramdas Pophale) SiO2 
 PCOD9421240
Probable space group: P C C A
;
_chemical_formula_sum "Si O2"
_cell_formula_units_Z 48
_cell_length_a 12.275656
_cell_length_b 7.984110
_cell_length_c 23.160073
_cell_angle_alpha 90.000000
_cell_angle_beta 90.000000
_cell_angle_gamma 90.000000
_cell_volume 2269.923105
_symmetry_space_group_name_H-M "P C C A"
_symmetry_group_IT_number 54
_symmetry_cell_setting 'orthorhombic'
loop_
_space_group_symop_operation_xyz
x,y,z
1/2-x,-y,z
1/2+x,-y,1/2-z
-x,y,1/2-z
-x,-y,-z
1/2+x,y,-z
1/2-x,y,1/2+z
x,-y,1/2+z
loop_
_atom_site_type_symbol
_atom_site_label
_atom_site_fract_x
_atom_site_fract_y
_atom_site_fract_z
Si Si1 0.250000 0.500000 0.132449
Si Si2 0.064585 0.829238 0.895022
Si Si3 0.681414 0.664239 0.682265
Si Si4 0.757966 0.306736 0.547348
Si Si5 0.250000 0.000000 0.320488
Si Si6 0.675955 0.839242 0.434053
Si Si7 0.017472 0.461450 0.187776
O O1 0.228073 0.328891 0.095543
O O2 0.139842 0.505249 0.170400
O O3 0.138297 0.775247 0.949338
O O4 0.944187 0.883412 0.911453
O O5 0.040595 0.659686 0.858512
O O6 0.142359 0.952806 0.858374
O O7 0.750000 0.500000 0.698563
O O8 0.701466 0.693738 0.613620
O O9 0.722810 0.830839 0.713157
O O10 0.556096 0.626421 0.690762
O O11 0.750000 0.500000 0.530024
O O12 0.829127 0.206252 0.501970
O O13 0.750000 0.000000 0.424630
O O14 0.000000 0.377103 0.250000
#
# Coordination Sequence:
#
# PCOD9421240 Si02
#       7
#     4   8   8   8   4   8   8
#     4  10  26  42  62  94 132 170 200 268 330 368
#     4  10  23  42  61  96 129 166 214 273 306 377
#     4  10  20  39  65  94 122 161 211 267 298 371
#     4  10  19  38  63  93 124 169 214 249 310 378
#     4  10  20  38  68  88 126 164 214 252 322 356
#     4  11  25  41  60  95 136 171 207 258 318 386
#     4  11  23  43  73  91 123 169 215 264 327 379
#
# _framework density 21.146090999999998
#
# number of rings (size 3 to 8) (size 9 to 14) (size 15 to 20)
#    0.000    1.667    5.833    0.000    8.167    2.667 
#    0.000    0.833    9.167    0.000    0.000    0.000 
#    0.000    0.000    0.000    0.000    0.000    0.000 
#
# Total GULP energy -267798.258614 kJ/mol
# GULP energy per Si atom -5579.130388 kJ/mol
# Density = 2.109796 g / cm^3
# Si number density = 21.146091 Si / 1000 Ang^3
#
#
#
# Elastic Constant Matrix: (Units=GPa)
#
#
# Indices 1 2 3 4 5 6 
#
# 1 112.4848 31.6684 10.4054 0.0000 0.0000 0.0000
# 2 31.6684 115.4307 -5.7680 0.0000 0.0000 0.0000
# 3 10.4054 -5.7680 36.5364 0.0000 0.0000 0.0000
# 4 0.0000 0.0000 0.0000 -2.9435 0.0000 0.0000
# 5 0.0000 0.0000 0.0000 0.0000 14.1914 0.0000
# 6 0.0000 0.0000 0.0000 0.0000 0.0000 36.0389
#
#
#
# Elastic Compliance Matrix: (Units=1/GPa)
#
#
# Indices 1 2 3 4 5 6 
#
# 1 0.010017 -0.002914 -0.003313 0.000000 0.000000 0.000000
# 2 -0.002914 0.009580 0.002342 0.000000 0.000000 0.000000
# 3 -0.003313 0.002342 0.028683 0.000000 0.000000 0.000000
# 4 0.000000 0.000000 0.000000 -0.339736 0.000000 0.000000
# 5 0.000000 0.000000 0.000000 0.000000 0.070465 0.000000
# 6 0.000000 0.000000 0.000000 0.000000 0.000000 0.027748
#
#
# Mechanical properties :
#
#
# Convention : Reuss Voigt Hill
#
# Bulk Modulus (GPa) = 24.68460 37.45151 31.06806
# Shear Modulus (GPa) = -29.07459 24.66712 -2.20373
#
# Velocity S-wave (km/s) = -3.71204 3.41913 -1.02196
# Velocity P-wave (km/s) = 2.58333 5.77378 3.65123
#
# Compressibility (1/GPa) = 0.04051109
#
# Stress axis : x y z
#
# Youngs Moduli (GPa) = 99.83202 104.38852 34.86364
#
# Poissons Ratio (x) = 0.30415 0.11549
# Poissons Ratio (y) = 0.29088 -0.08165
# Poissons Ratio (z) = 0.33072 -0.24449
#
# Static dielectric constant tensor:
#      x y z
#    x 1.693970 0.000000 0.000000 
#    y 0.000000 1.815800 0.000000 
#    z 0.000000 0.000000 1.801610 
# 
# From -- ./inp_files/24114.got.cif
#   From: 2010.05.17/outbox.cif.g08.bks.cpg/sg54_13_cif.got.tgz:24114.got - 2010.06.03 13:09:01.
