data_PCOD9421842
_publ_section_title
;
Structure prediction by ZEFSAII (Michael W. Deem and Ramdas Pophale) SiO2 
 PCOD9421842
Probable space group: P C C A
;
_chemical_formula_sum "Si O2"
_cell_formula_units_Z 60
_cell_length_a 10.554890
_cell_length_b 16.868844
_cell_length_c 17.482699
_cell_angle_alpha 90.000000
_cell_angle_beta 90.000000
_cell_angle_gamma 90.000000
_cell_volume 3112.773453
_symmetry_space_group_name_H-M "P C C A"
_symmetry_group_IT_number 54
_symmetry_cell_setting 'orthorhombic'
loop_
_space_group_symop_operation_xyz
x,y,z
1/2-x,-y,z
1/2+x,-y,1/2-z
-x,y,1/2-z
-x,-y,-z
1/2+x,y,-z
1/2-x,y,1/2+z
x,-y,1/2+z
loop_
_atom_site_type_symbol
_atom_site_label
_atom_site_fract_x
_atom_site_fract_y
_atom_site_fract_z
Si Si1 0.495130 0.355560 0.497625
Si Si2 0.376009 0.725545 0.365115
Si Si3 0.749484 0.411304 0.923894
Si Si4 0.123045 0.949455 0.520404
Si Si5 0.766866 0.714973 0.791721
Si Si6 0.894383 0.202924 0.588899
Si Si7 0.069839 0.863409 0.674281
Si Si8 0.500000 0.772990 0.750000
O O1 0.557785 0.335254 0.578987
O O2 0.361093 0.399510 0.511923
O O3 0.607641 0.399156 0.453589
O O4 0.471454 0.272119 0.454205
O O5 0.349254 0.690329 0.281459
O O6 0.242698 0.758550 0.395380
O O7 0.467466 0.801150 0.358237
O O8 0.750000 0.500000 0.891719
O O9 0.719011 0.342608 0.862893
O O10 0.121321 0.871999 0.466304
O O11 0.110435 0.923273 0.608807
O O12 0.250000 0.000000 0.508264
O O13 0.000000 0.000000 0.500000
O O14 0.812388 0.805563 0.806391
O O15 0.620455 0.719535 0.769949
O O16 0.959269 0.182996 0.671131
O O17 0.000000 0.897189 0.750000
#
# Coordination Sequence:
#
# PCOD9421842 Si02
#       8
#     8   8   8   8   8   8   8   4
#     4  12  22  40  70  92 127 172 224 264 315 391
#     4  10  20  38  68  97 116 159 234 274 305 368
#     4  12  25  41  61  97 137 171 208 267 337 390
#     4  12  27  42  65  99 140 172 211 266 342 396
#     4  10  21  39  66  94 123 166 222 268 314 383
#     4  11  22  40  69  93 127 170 225 276 315 381
#     4  10  21  42  68  92 126 171 225 266 317 387
#     4  10  22  38  68  96 120 160 236 268 308 372
#
# _framework density 19.275414999999999
#
# number of rings (size 3 to 8) (size 9 to 14) (size 15 to 20)
#    0.000    1.067    5.333    1.200    1.867    0.000 
#    1.200    2.667    0.000    0.000    0.000    0.000 
#    0.000    0.000    0.000    0.000    0.000    0.000 
#
# Total GULP energy -334873.425669 kJ/mol
# GULP energy per Si atom -5581.223761 kJ/mol
# Density = 1.923154 g / cm^3
# Si number density = 19.275415 Si / 1000 Ang^3
#
#
#
# Elastic Constant Matrix: (Units=GPa)
#
#
# Indices 1 2 3 4 5 6 
#
# 1 124.2828 24.6914 19.5291 0.0000 0.0000 0.0000
# 2 24.6914 50.3526 19.7495 0.0000 0.0000 0.0000
# 3 19.5291 19.7495 79.9130 0.0000 0.0000 0.0000
# 4 0.0000 0.0000 0.0000 -5.9978 0.0000 0.0000
# 5 0.0000 0.0000 0.0000 0.0000 30.4134 0.0000
# 6 0.0000 0.0000 0.0000 0.0000 0.0000 18.1838
#
#
#
# Elastic Compliance Matrix: (Units=1/GPa)
#
#
# Indices 1 2 3 4 5 6 
#
# 1 0.009023 -0.003942 -0.001231 0.000000 0.000000 0.000000
# 2 -0.003942 0.023714 -0.004897 0.000000 0.000000 0.000000
# 3 -0.001231 -0.004897 0.014025 0.000000 0.000000 0.000000
# 4 0.000000 0.000000 0.000000 -0.166729 0.000000 0.000000
# 5 0.000000 0.000000 0.000000 0.000000 0.032880 0.000000
# 6 0.000000 0.000000 0.000000 0.000000 0.000000 0.054994
#
#
# Mechanical properties :
#
#
# Convention : Reuss Voigt Hill
#
# Bulk Modulus (GPa) = 37.56366 42.49871 40.03119
# Shear Modulus (GPa) = -1623.12928 21.22512 -800.95208
#
# Velocity S-wave (km/s) = -29.04996 3.32196 -20.40668
# Velocity P-wave (km/s) = 33.25162 6.06711 23.11775
#
# Compressibility (1/GPa) = 0.02662147
#
# Stress axis : x y z
#
# Youngs Moduli (GPa) = 110.83191 42.16980 71.30283
#
# Poissons Ratio (x) = 0.16622 0.08776
# Poissons Ratio (y) = 0.43687 0.34919
# Poissons Ratio (z) = 0.13641 0.20652
#
# Static dielectric constant tensor:
#      x y z
#    x 1.691550 0.000000 0.000000 
#    y 0.000000 1.627140 0.000000 
#    z 0.000000 0.000000 1.723370 
# 
# From -- ./inp_files/16815.got.cif
#   From: 2010.05.17/outbox.cif.g08.bks.cpg/sg54_9_cif.got.tgz:16815.got - 2010.06.03 13:09:01.
