data_PCOD9421710
_publ_section_title
;
Structure prediction by ZEFSAII (Michael W. Deem and Ramdas Pophale) SiO2 
 PCOD9421710
Probable space group: P C C A
;
_chemical_formula_sum "Si O2"
_cell_formula_units_Z 56
_cell_length_a 29.544777
_cell_length_b 5.905352
_cell_length_c 14.555818
_cell_angle_alpha 90.000000
_cell_angle_beta 90.000000
_cell_angle_gamma 90.000000
_cell_volume 2539.587161
_symmetry_space_group_name_H-M "P C C A"
_symmetry_group_IT_number 54
_symmetry_cell_setting 'orthorhombic'
loop_
_space_group_symop_operation_xyz
x,y,z
1/2-x,-y,z
1/2+x,-y,1/2-z
-x,y,1/2-z
-x,-y,-z
1/2+x,y,-z
1/2-x,y,1/2+z
x,-y,1/2+z
loop_
_atom_site_type_symbol
_atom_site_label
_atom_site_fract_x
_atom_site_fract_y
_atom_site_fract_z
Si Si1 0.294201 0.892685 0.476050
Si Si2 0.552676 0.050535 0.487319
Si Si3 0.337156 0.710958 0.102169
Si Si4 0.000000 0.529597 0.750000
Si Si5 0.750000 0.500000 0.398471
Si Si6 0.572750 0.256939 0.143796
Si Si7 0.375297 0.608364 0.440398
Si Si8 0.922833 0.114297 0.297180
O O1 0.271062 0.697348 0.537870
O O2 0.334923 0.782590 0.418711
O O3 0.250000 0.000000 0.427202
O O4 0.319012 0.075805 0.542030
O O5 0.577901 0.264099 0.532495
O O6 0.500000 0.000000 0.500000
O O7 0.572905 0.833288 0.539886
O O8 0.563556 0.050269 0.380651
O O9 0.293093 0.605591 0.151272
O O10 0.375465 0.782554 0.172496
O O11 0.357265 0.529793 0.029221
O O12 0.973848 0.374563 0.676080
O O13 0.961359 0.694103 0.790259
O O14 0.612139 0.442694 0.142991
O O15 0.579234 0.039131 0.207258
#
# Coordination Sequence:
#
# PCOD9421710 Si02
#       8
#     8   8   8   4   4   8   8   8
#     4   9  17  35  61 102 134 161 218 278 332 416
#     4  12  25  42  65  93 138 179 233 288 338 412
#     4  10  20  37  67  98 135 171 222 280 343 423
#     4  12  28  44  64  94 134 186 242 286 354 410
#     4   8  18  32  62 104 130 162 214 272 344 408
#     4  12  26  42  62  96 135 184 233 290 341 416
#     4  11  21  39  64  99 134 177 224 274 352 412
#     4  12  25  43  64  97 138 182 234 289 346 411
#
# _framework density 22.050829
#
# number of rings (size 3 to 8) (size 9 to 14) (size 15 to 20)
#    0.000    1.143    2.857    3.857    4.000    1.143 
#    0.000    0.000    0.000    0.000    0.000  176.000 
#    0.000    0.000    0.000    0.000    0.000    0.000 
#
# Total GULP energy -312751.678265 kJ/mol
# GULP energy per Si atom -5584.851398 kJ/mol
# Density = 2.200064 g / cm^3
# Si number density = 22.050829 Si / 1000 Ang^3
#
#
#
# Elastic Constant Matrix: (Units=GPa)
#
#
# Indices 1 2 3 4 5 6 
#
# 1 184.9954 59.4900 19.2469 0.0000 0.0000 0.0000
# 2 59.4900 94.7975 9.9572 0.0000 0.0000 0.0000
# 3 19.2469 9.9572 37.2398 0.0000 0.0000 0.0000
# 4 0.0000 0.0000 0.0000 14.2563 0.0000 0.0000
# 5 0.0000 0.0000 0.0000 0.0000 24.2607 0.0000
# 6 0.0000 0.0000 0.0000 0.0000 0.0000 59.5980
#
#
#
# Elastic Compliance Matrix: (Units=1/GPa)
#
#
# Indices 1 2 3 4 5 6 
#
# 1 0.006993 -0.004125 -0.002511 0.000000 0.000000 0.000000
# 2 -0.004125 0.013287 -0.001421 0.000000 0.000000 0.000000
# 3 -0.002511 -0.001421 0.028531 0.000000 0.000000 0.000000
# 4 0.000000 0.000000 0.000000 0.070144 0.000000 0.000000
# 5 0.000000 0.000000 0.000000 0.000000 0.041219 0.000000
# 6 0.000000 0.000000 0.000000 0.000000 0.000000 0.016779
#
#
# Mechanical properties :
#
#
# Convention : Reuss Voigt Hill
#
# Bulk Modulus (GPa) = 30.58415 54.93567 42.75991
# Shear Modulus (GPa) = 24.51390 34.84557 29.67973
#
# Velocity S-wave (km/s) = 3.33783 3.97953 3.67273
# Velocity P-wave (km/s) = 5.36235 6.78844 6.11709
#
# Compressibility (1/GPa) = 0.03269668
#
# Stress axis : x y z
#
# Youngs Moduli (GPa) = 142.99456 75.26406 35.04974
#
# Poissons Ratio (x) = 0.31045 0.08803
# Poissons Ratio (y) = 0.58983 0.04980
# Poissons Ratio (z) = 0.35913 0.10693
#
# Static dielectric constant tensor:
#      x y z
#    x 1.847270 0.000000 0.000000 
#    y 0.000000 1.873240 0.000000 
#    z 0.000000 0.000000 1.776930 
# 
# From -- ./inp_files/15396.got.cif
#   From: 2010.05.17/outbox.cif.g08.bks.cpg/sg54_8_cif.got.tgz:15396.got - 2010.06.03 13:09:01.
