data_PCOD9421001
_publ_section_title
;
Structure prediction by ZEFSAII (Michael W. Deem and Ramdas Pophale) SiO2 
 PCOD9421001
Probable space group: P C C A
;
_chemical_formula_sum "Si O2"
_cell_formula_units_Z 48
_cell_length_a 17.455940
_cell_length_b 8.744224
_cell_length_c 15.616101
_cell_angle_alpha 90.000000
_cell_angle_beta 90.000000
_cell_angle_gamma 90.000000
_cell_volume 2383.620567
_symmetry_space_group_name_H-M "P C C A"
_symmetry_group_IT_number 54
_symmetry_cell_setting 'orthorhombic'
loop_
_space_group_symop_operation_xyz
x,y,z
1/2-x,-y,z
1/2+x,-y,1/2-z
-x,y,1/2-z
-x,-y,-z
1/2+x,y,-z
1/2-x,y,1/2+z
x,-y,1/2+z
loop_
_atom_site_type_symbol
_atom_site_label
_atom_site_fract_x
_atom_site_fract_y
_atom_site_fract_z
Si Si1 0.084287 0.950515 0.033381
Si Si2 0.395186 0.411193 0.418170
Si Si3 0.093427 0.582150 0.750216
Si Si4 0.830091 0.083836 0.627075
Si Si5 0.919310 0.603785 0.415043
Si Si6 0.411302 0.075419 0.721864
O O1 0.099448 0.774301 0.056008
O O2 0.096617 0.037114 0.122487
O O3 0.136328 0.995332 0.954428
O O4 0.000000 0.000000 0.000000
O O5 0.377516 0.528466 0.342070
O O6 0.345206 0.260204 0.399833
O O7 0.487426 0.385268 0.409512
O O8 0.390649 0.486534 0.511795
O O9 0.111107 0.461035 0.675076
O O10 0.121127 0.754128 0.734554
O O11 0.000000 0.588893 0.750000
O O12 0.750000 0.000000 0.641726
O O13 0.875311 0.048988 0.714766
O O14 0.500000 0.079134 0.750000
#
# Coordination Sequence:
#
# PCOD9421001 Si02
#       6
#     8   8   8   8   8   8
#     4  12  22  38  66  94 127 168 223 274 325 399
#     4  10  19  35  58  87 127 162 209 266 329 392
#     4   9  19  32  57  92 121 154 208 270 322 376
#     4  12  26  42  62  95 134 174 216 277 346 407
#     4  10  19  33  60  93 121 159 212 272 320 382
#     4  11  21  39  66  93 125 167 222 272 325 400
#
# _framework density 20.137433999999999
#
# number of rings (size 3 to 8) (size 9 to 14) (size 15 to 20)
#    0.000    1.333    3.333    3.000    4.667    2.000 
#    0.000    3.333    0.000    2.000    0.000    0.000 
#    0.000    0.000    0.000    0.000    0.000    0.000 
#
# Total GULP energy -267725.406830 kJ/mol
# GULP energy per Si atom -5577.612642 kJ/mol
# Density = 2.009160 g / cm^3
# Si number density = 20.137434 Si / 1000 Ang^3
#
#
#
# Elastic Constant Matrix: (Units=GPa)
#
#
# Indices 1 2 3 4 5 6 
#
# 1 32.0065 13.1000 11.1304 0.0000 0.0000 0.0000
# 2 13.1000 99.8221 7.4243 0.0000 0.0000 0.0000
# 3 11.1304 7.4243 109.9295 0.0000 0.0000 0.0000
# 4 0.0000 0.0000 0.0000 30.8345 0.0000 0.0000
# 5 0.0000 0.0000 0.0000 0.0000 13.3974 0.0000
# 6 0.0000 0.0000 0.0000 0.0000 0.0000 9.6336
#
#
#
# Elastic Compliance Matrix: (Units=1/GPa)
#
#
# Indices 1 2 3 4 5 6 
#
# 1 0.034078 -0.004237 -0.003164 0.000000 0.000000 0.000000
# 2 -0.004237 0.010595 -0.000287 0.000000 0.000000 0.000000
# 3 -0.003164 -0.000287 0.009436 0.000000 0.000000 0.000000
# 4 0.000000 0.000000 0.000000 0.032431 0.000000 0.000000
# 5 0.000000 0.000000 0.000000 0.000000 0.074641 0.000000
# 6 0.000000 0.000000 0.000000 0.000000 0.000000 0.103803
#
#
# Mechanical properties :
#
#
# Convention : Reuss Voigt Hill
#
# Bulk Modulus (GPa) = 25.81685 33.89637 29.85661
# Shear Modulus (GPa) = 17.04901 24.78000 20.91451
#
# Velocity S-wave (km/s) = 2.91285 3.51172 3.22621
# Velocity P-wave (km/s) = 4.91539 5.77165 5.36065
#
# Compressibility (1/GPa) = 0.03873440
#
# Stress axis : x y z
#
# Youngs Moduli (GPa) = 29.34428 94.38280 105.97171
#
# Poissons Ratio (x) = 0.39989 0.33532
# Poissons Ratio (y) = 0.12433 0.03037
# Poissons Ratio (z) = 0.09285 0.02705
#
# Static dielectric constant tensor:
#      x y z
#    x -0.654180 0.000000 0.000000 
#    y 0.000000 1.730480 0.000000 
#    z 0.000000 0.000000 1.644490 
# 
# From -- ./inp_files/14070.got.cif
#   From: 2010.05.17/outbox.cif.g08.bks.cpg/sg54_8_cif.got.tgz:14070.got - 2010.06.03 13:09:01.
