data_PCOD9421493
_publ_section_title
;
Structure prediction by ZEFSAII (Michael W. Deem and Ramdas Pophale) SiO2 
 PCOD9421493
Probable space group: P C C A
;
_chemical_formula_sum "Si O2"
_cell_formula_units_Z 56
_cell_length_a 15.639095
_cell_length_b 7.794753
_cell_length_c 20.418241
_cell_angle_alpha 90.000000
_cell_angle_beta 90.000000
_cell_angle_gamma 90.000000
_cell_volume 2489.042437
_symmetry_space_group_name_H-M "P C C A"
_symmetry_group_IT_number 54
_symmetry_cell_setting 'orthorhombic'
loop_
_space_group_symop_operation_xyz
x,y,z
1/2-x,-y,z
1/2+x,-y,1/2-z
-x,y,1/2-z
-x,-y,-z
1/2+x,y,-z
1/2-x,y,1/2+z
x,-y,1/2+z
loop_
_atom_site_type_symbol
_atom_site_label
_atom_site_fract_x
_atom_site_fract_y
_atom_site_fract_z
Si Si1 0.516182 0.243392 0.084649
Si Si2 0.434283 0.208145 0.957406
Si Si3 0.177149 0.804820 0.839382
Si Si4 0.351030 0.492929 0.749361
Si Si5 0.128236 0.851176 0.303925
Si Si6 0.576171 0.396604 0.883671
Si Si7 0.342277 0.560921 0.988515
O O1 0.546151 0.148105 0.149228
O O2 0.470235 0.419254 0.105705
O O3 0.605556 0.292702 0.048755
O O4 0.461510 0.143021 0.029585
O O5 0.359682 0.139884 0.910165
O O6 0.514187 0.247599 0.909983
O O7 0.401391 0.396422 0.977549
O O8 0.142382 0.619564 0.816013
O O9 0.279786 0.801761 0.837497
O O10 0.146297 0.950287 0.787569
O O11 0.250000 0.500000 0.734206
O O12 0.382973 0.688491 0.756302
O O13 0.397750 0.394028 0.691275
O O14 0.655648 0.395951 0.934403
O O15 0.250000 0.500000 0.965183
#
# Coordination Sequence:
#
# PCOD9421493 Si02
#       7
#     8   8   8   8   8   8   8
#     4   9  18  31  49  76 106 133 166 212 260 306
#     4   9  18  31  49  76 106 133 166 212 260 306
#     4  10  21  36  55  78 102 134 176 213 249 302
#     4  10  20  36  56  75 102 140 175 212 254 295
#     4  10  21  36  55  78 102 134 176 213 249 302
#     4   9  18  31  49  78 109 134 170 213 254 307
#     4   9  15  27  51  78 103 136 174 209 253 307
#
# _framework density 22.498612999999999
#
# number of rings (size 3 to 8) (size 9 to 14) (size 15 to 20)
#    0.000    2.571    0.000    4.714    0.000    4.000 
#    0.000    2.857    0.000    1.714    0.000   16.000 
#    0.000    0.000    0.000    0.000    0.000    0.000 
#
# Total GULP energy -311966.366599 kJ/mol
# GULP energy per Si atom -5570.827975 kJ/mol
# Density = 2.244741 g / cm^3
# Si number density = 22.498613 Si / 1000 Ang^3
#
#
#
# Elastic Constant Matrix: (Units=GPa)
#
#
# Indices 1 2 3 4 5 6 
#
# 1 53.5276 -10.9223 21.6129 0.0000 0.0000 0.0000
# 2 -10.9223 58.1577 0.6113 0.0000 0.0000 0.0000
# 3 21.6129 0.6113 73.7595 0.0000 0.0000 0.0000
# 4 0.0000 0.0000 0.0000 11.2523 0.0000 0.0000
# 5 0.0000 0.0000 0.0000 0.0000 18.5485 0.0000
# 6 0.0000 0.0000 0.0000 0.0000 0.0000 17.2022
#
#
#
# Elastic Compliance Matrix: (Units=1/GPa)
#
#
# Indices 1 2 3 4 5 6 
#
# 1 0.022185 0.004235 -0.006536 0.000000 0.000000 0.000000
# 2 0.004235 0.018005 -0.001390 0.000000 0.000000 0.000000
# 3 -0.006536 -0.001390 0.015484 0.000000 0.000000 0.000000
# 4 0.000000 0.000000 0.000000 0.088871 0.000000 0.000000
# 5 0.000000 0.000000 0.000000 0.000000 0.053913 0.000000
# 6 0.000000 0.000000 0.000000 0.000000 0.000000 0.058132
#
#
# Mechanical properties :
#
#
# Convention : Reuss Voigt Hill
#
# Bulk Modulus (GPa) = 20.70721 23.11651 21.91186
# Shear Modulus (GPa) = 17.85278 21.01013 19.43145
#
# Velocity S-wave (km/s) = 2.81998 3.05920 2.94202
# Velocity P-wave (km/s) = 4.45273 4.77234 4.61530
#
# Compressibility (1/GPa) = 0.04829235
#
# Stress axis : x y z
#
# Youngs Moduli (GPa) = 45.07531 55.54128 64.58197
#
# Poissons Ratio (x) = -0.23523 0.42209
# Poissons Ratio (y) = -0.19090 0.08978
# Poissons Ratio (z) = 0.29460 0.07721
#
# Static dielectric constant tensor:
#      x y z
#    x 1.872960 0.000000 0.000000 
#    y 0.000000 1.898620 0.000000 
#    z 0.000000 0.000000 1.894770 
# 
# From -- ./inp_files/21887.got.cif
#   From: 2010.05.17/outbox.cif.g08.bks.cpg/sg54_11_cif.got.tgz:21887.got - 2010.06.03 13:09:01.
