data_PCOD9421967
_publ_section_title
;
Structure prediction by ZEFSAII (Michael W. Deem and Ramdas Pophale) SiO2 
 PCOD9421967
Probable space group: P C C A
;
_chemical_formula_sum "Si O2"
_cell_formula_units_Z 56
_cell_length_a 14.711021
_cell_length_b 7.546506
_cell_length_c 22.515127
_cell_angle_alpha 90.000000
_cell_angle_beta 90.000000
_cell_angle_gamma 90.000000
_cell_volume 2499.557537
_symmetry_space_group_name_H-M "P C C A"
_symmetry_group_IT_number 54
_symmetry_cell_setting 'orthorhombic'
loop_
_space_group_symop_operation_xyz
x,y,z
1/2-x,-y,z
1/2+x,-y,1/2-z
-x,y,1/2-z
-x,-y,-z
1/2+x,y,-z
1/2-x,y,1/2+z
x,-y,1/2+z
loop_
_atom_site_type_symbol
_atom_site_label
_atom_site_fract_x
_atom_site_fract_y
_atom_site_fract_z
Si Si1 0.105730 0.112457 0.858399
Si Si2 0.871967 0.651347 0.517565
Si Si3 0.500000 0.954086 0.250000
Si Si4 0.599840 0.600269 0.254178
Si Si5 0.796523 0.267827 0.141552
Si Si6 0.727866 0.812802 0.426841
Si Si7 0.250000 0.500000 0.162549
Si Si8 0.433778 0.755377 0.990113
O O1 0.036763 0.073047 0.804318
O O2 0.190700 0.241185 0.844030
O O3 0.155399 0.923256 0.865334
O O4 0.066479 0.178522 0.921798
O O5 0.816062 0.650120 0.577980
O O6 0.807560 0.736510 0.468485
O O7 0.900982 0.449408 0.505923
O O8 0.965986 0.761059 0.518067
O O9 0.576033 0.807959 0.272365
O O10 0.500000 0.518712 0.250000
O O11 0.650599 0.627895 0.192266
O O12 0.662570 0.481763 0.295701
O O13 0.719992 0.663218 0.377776
O O14 0.641150 0.848104 0.468976
O O15 0.750000 0.000000 0.398147
#
# Coordination Sequence:
#
# PCOD9421967 Si02
#       8
#     8   8   4   8   8   8   4   8
#     4  10  20  40  69 105 144 182 246 299 359 435
#     4  11  24  43  69 105 148 189 242 293 367 437
#     4   8  20  44  70 106 142 190 248 310 366 442
#     4   9  23  45  72 101 140 196 241 306 375 433
#     4  10  21  40  71 100 135 191 240 299 361 434
#     4  12  26  47  73 108 146 191 242 297 370 439
#     4  12  26  50  74 104 152 190 244 314 368 442
#     4  11  24  41  70 107 146 194 235 302 362 439
#
# _framework density 22.403963999999998
#
# number of rings (size 3 to 8) (size 9 to 14) (size 15 to 20)
#    0.429    1.143    2.857    0.857    2.000    4.571 
#    7.714    0.000    1.571    2.571    0.000    0.000 
#    0.000    0.000    0.000    0.000    0.000    0.000 
#
# Total GULP energy -312816.222340 kJ/mol
# GULP energy per Si atom -5586.003970 kJ/mol
# Density = 2.235297 g / cm^3
# Si number density = 22.403964 Si / 1000 Ang^3
#
#
#
# Elastic Constant Matrix: (Units=GPa)
#
#
# Indices 1 2 3 4 5 6 
#
# 1 76.3935 18.7343 21.3379 0.0000 0.0000 0.0000
# 2 18.7343 61.4699 27.1764 0.0000 0.0000 0.0000
# 3 21.3379 27.1764 67.7190 0.0000 0.0000 0.0000
# 4 0.0000 0.0000 0.0000 68.2037 0.0000 0.0000
# 5 0.0000 0.0000 0.0000 0.0000 35.5954 0.0000
# 6 0.0000 0.0000 0.0000 0.0000 0.0000 3.0045
#
#
#
# Elastic Compliance Matrix: (Units=1/GPa)
#
#
# Indices 1 2 3 4 5 6 
#
# 1 0.014788 -0.002975 -0.003466 0.000000 0.000000 0.000000
# 2 -0.002975 0.020375 -0.007240 0.000000 0.000000 0.000000
# 3 -0.003466 -0.007240 0.018764 0.000000 0.000000 0.000000
# 4 0.000000 0.000000 0.000000 0.014662 0.000000 0.000000
# 5 0.000000 0.000000 0.000000 0.000000 0.028094 0.000000
# 6 0.000000 0.000000 0.000000 0.000000 0.000000 0.332839
#
#
# Mechanical properties :
#
#
# Convention : Reuss Voigt Hill
#
# Bulk Modulus (GPa) = 37.64016 37.78664 37.71340
# Shear Modulus (GPa) = 10.73567 30.58297 20.65932
#
# Velocity S-wave (km/s) = 2.19141 3.69869 3.03995
# Velocity P-wave (km/s) = 4.82080 5.92816 5.40293
#
# Compressibility (1/GPa) = 0.02656737
#
# Stress axis : x y z
#
# Youngs Moduli (GPa) = 67.62408 49.07879 53.29271
#
# Poissons Ratio (x) = 0.14599 0.18470
# Poissons Ratio (y) = 0.20115 0.38582
# Poissons Ratio (z) = 0.23437 0.35531
#
# Static dielectric constant tensor:
#      x y z
#    x 1.820790 0.000000 0.000000 
#    y 0.000000 1.856780 0.000000 
#    z 0.000000 0.000000 1.778120 
# 
# From -- ./inp_files/21650.got.cif
#   From: 2010.05.17/outbox.cif.g08.bks.cpg/sg54_11_cif.got.tgz:21650.got - 2010.06.03 13:09:01.
