data_PCOD9421625
_publ_section_title
;
Structure prediction by ZEFSAII (Michael W. Deem and Ramdas Pophale) SiO2 
 PCOD9421625
Probable space group: P C C A
;
_chemical_formula_sum "Si O2"
_cell_formula_units_Z 32
_cell_length_a 7.625283
_cell_length_b 8.511090
_cell_length_c 20.386510
_cell_angle_alpha 90.000000
_cell_angle_beta 90.000000
_cell_angle_gamma 90.000000
_cell_volume 1323.073692
_symmetry_space_group_name_H-M "P C C A"
_symmetry_group_IT_number 54
_symmetry_cell_setting 'orthorhombic'
loop_
_space_group_symop_operation_xyz
x,y,z
1/2-x,-y,z
1/2+x,-y,1/2-z
-x,y,1/2-z
-x,-y,-z
1/2+x,y,-z
1/2-x,y,1/2+z
x,-y,1/2+z
loop_
_atom_site_type_symbol
_atom_site_label
_atom_site_fract_x
_atom_site_fract_y
_atom_site_fract_z
Si Si1 0.715723 0.182735 0.132272
Si Si2 0.681119 0.820790 0.910484
Si Si3 0.370432 0.623766 0.466343
Si Si4 0.297555 0.185153 0.730008
O O1 0.530591 0.188689 0.094992
O O2 0.880946 0.244245 0.089420
O O3 0.698995 0.250819 0.205778
O O4 0.750000 0.000000 0.142869
O O5 0.751938 0.751561 0.841785
O O6 0.750000 0.000000 0.919906
O O7 0.722929 0.715128 0.973501
O O8 0.250000 0.500000 0.427495
O O9 0.500000 0.500000 0.500000
O O10 0.500000 0.197163 0.750000
O O11 0.250000 0.000000 0.722375
#
# Coordination Sequence:
#
# PCOD9421625 Si02
#       4
#     8   8   8   8
#     4  11  23  41  68  97 129 169 222 274 331 392
#     4  11  23  41  68  97 129 170 220 276 329 391
#     4  12  27  44  65  92 135 177 218 268 330 396
#     4  10  20  36  65  96 127 161 215 276 325 379
#
# _framework density 24.186102999999999
#
# number of rings (size 3 to 8) (size 9 to 14) (size 15 to 20)
#    0.000    1.000    2.500    7.500    7.000    2.000 
#    0.000    1.250    0.000    0.000    0.000    0.000 
#    0.000    0.000    0.000    0.000    0.000    0.000 
#
# Total GULP energy -178382.822741 kJ/mol
# GULP energy per Si atom -5574.463211 kJ/mol
# Density = 2.413105 g / cm^3
# Si number density = 24.186103 Si / 1000 Ang^3
#
#
#
# Elastic Constant Matrix: (Units=GPa)
#
#
# Indices 1 2 3 4 5 6 
#
# 1 81.6265 16.6639 20.0472 0.0000 0.0000 0.0000
# 2 16.6639 68.7692 55.0914 0.0000 0.0000 0.0000
# 3 20.0472 55.0914 185.5761 0.0000 0.0000 0.0000
# 4 0.0000 0.0000 0.0000 -21.9527 0.0000 0.0000
# 5 0.0000 0.0000 0.0000 0.0000 32.5073 0.0000
# 6 0.0000 0.0000 0.0000 0.0000 0.0000 42.8795
#
#
#
# Elastic Compliance Matrix: (Units=1/GPa)
#
#
# Indices 1 2 3 4 5 6 
#
# 1 0.012941 -0.002645 -0.000613 0.000000 0.000000 0.000000
# 2 -0.002645 0.019619 -0.005539 0.000000 0.000000 0.000000
# 3 -0.000613 -0.005539 0.007099 0.000000 0.000000 0.000000
# 4 0.000000 0.000000 0.000000 -0.045552 0.000000 0.000000
# 5 0.000000 0.000000 0.000000 0.000000 0.030762 0.000000
# 6 0.000000 0.000000 0.000000 0.000000 0.000000 0.023321
#
#
# Mechanical properties :
#
#
# Convention : Reuss Voigt Hill
#
# Bulk Modulus (GPa) = 45.31659 57.73074 51.52367
# Shear Modulus (GPa) = 68.36278 26.96477 47.66377
#
# Velocity S-wave (km/s) = 5.32228 3.34261 4.44408
# Velocity P-wave (km/s) = 7.51972 6.23046 6.90525
#
# Compressibility (1/GPa) = 0.02206697
#
# Stress axis : x y z
#
# Youngs Moduli (GPa) = 77.27136 50.97023 140.86398
#
# Poissons Ratio (x) = 0.13482 0.08632
# Poissons Ratio (y) = 0.20438 0.78019
# Poissons Ratio (z) = 0.04735 0.28230
#
# Static dielectric constant tensor:
#      x y z
#    x 2.197170 0.000000 0.000000 
#    y 0.000000 1.768510 0.000000 
#    z 0.000000 0.000000 1.893980 
# 
# From -- ./inp_files/20044.got.cif
#   From: 2010.05.17/outbox.cif.g08.bks.cpg/sg54_11_cif.got.tgz:20044.got - 2010.06.03 13:09:01.
