data_PCOD9421415
_publ_section_title
;
Structure prediction by ZEFSAII (Michael W. Deem and Ramdas Pophale) SiO2 
 PCOD9421415
Probable space group: P C C A
;
_chemical_formula_sum "Si O2"
_cell_formula_units_Z 60
_cell_length_a 9.264530
_cell_length_b 26.324471
_cell_length_c 12.392397
_cell_angle_alpha 90.000000
_cell_angle_beta 90.000000
_cell_angle_gamma 90.000000
_cell_volume 3022.305507
_symmetry_space_group_name_H-M "P C C A"
_symmetry_group_IT_number 54
_symmetry_cell_setting 'orthorhombic'
loop_
_space_group_symop_operation_xyz
x,y,z
1/2-x,-y,z
1/2+x,-y,1/2-z
-x,y,1/2-z
-x,-y,-z
1/2+x,y,-z
1/2-x,y,1/2+z
x,-y,1/2+z
loop_
_atom_site_type_symbol
_atom_site_label
_atom_site_fract_x
_atom_site_fract_y
_atom_site_fract_z
Si Si1 0.966133 0.821330 0.625651
Si Si2 0.750000 0.000000 0.993513
Si Si3 0.998540 0.942032 0.623848
Si Si4 0.886554 0.634599 0.658730
Si Si5 0.709392 0.764215 0.507338
Si Si6 0.868782 0.463316 0.020660
Si Si7 0.055439 0.303716 0.554336
Si Si8 0.631585 0.401953 0.311483
O O1 0.968988 0.882041 0.612595
O O2 0.816697 0.795298 0.585982
O O3 0.000000 0.809055 0.750000
O O4 0.096495 0.799958 0.553505
O O5 0.632498 0.970553 0.064998
O O6 0.848492 0.960888 0.924735
O O7 0.000000 0.954692 0.750000
O O8 0.918967 0.582626 0.595240
O O9 0.902600 0.677476 0.566998
O O10 0.742652 0.620040 0.724322
O O11 0.000000 0.647532 0.750000
O O12 0.601055 0.722173 0.558530
O O13 0.817444 0.736431 0.423261
O O14 0.750000 0.500000 0.071875
O O15 0.811840 0.437849 0.908372
O O16 0.000000 0.500000 0.000000
O O17 0.066521 0.352719 0.628369
O O18 0.500000 0.428921 0.250000
#
# Coordination Sequence:
#
# PCOD9421415 Si02
#       8
#     8   4   8   8   8   8   8   8
#     4  10  22  39  59  85 121 160 197 245 298 350
#     4  10  20  34  60  88 118 162 204 250 302 346
#     4  10  20  36  57  86 121 157 203 250 296 351
#     4  11  23  39  60  83 110 145 181 228 287 336
#     4  10  21  38  59  84 114 151 195 237 292 352
#     4  11  24  40  57  82 112 140 180 224 270 343
#     4  10  22  38  57  84 112 141 188 240 279 343
#     4  11  23  38  58  82 109 142 179 226 283 336
#
# _framework density 19.852395000000001
#
# number of rings (size 3 to 8) (size 9 to 14) (size 15 to 20)
#    0.000    1.600    0.000    4.400    0.000   12.800 
#    0.000    2.000    0.000   11.200    0.000    0.000 
#    0.000    0.000    0.000    0.000    0.000    0.000 
#
# Total GULP energy -334902.733331 kJ/mol
# GULP energy per Si atom -5581.712222 kJ/mol
# Density = 1.980721 g / cm^3
# Si number density = 19.852395 Si / 1000 Ang^3
#
#
#
# Elastic Constant Matrix: (Units=GPa)
#
#
# Indices 1 2 3 4 5 6 
#
# 1 132.5430 38.5549 37.3708 0.0000 0.0000 0.0000
# 2 38.5549 79.0593 42.8019 0.0000 0.0000 0.0000
# 3 37.3708 42.8019 100.1222 0.0000 0.0000 0.0000
# 4 0.0000 0.0000 0.0000 -3.3781 0.0000 0.0000
# 5 0.0000 0.0000 0.0000 0.0000 24.5372 0.0000
# 6 0.0000 0.0000 0.0000 0.0000 0.0000 29.4948
#
#
#
# Elastic Compliance Matrix: (Units=1/GPa)
#
#
# Indices 1 2 3 4 5 6 
#
# 1 0.009074 -0.003372 -0.001945 0.000000 0.000000 0.000000
# 2 -0.003372 0.017711 -0.006313 0.000000 0.000000 0.000000
# 3 -0.001945 -0.006313 0.013413 0.000000 0.000000 0.000000
# 4 0.000000 0.000000 0.000000 -0.296024 0.000000 0.000000
# 5 0.000000 0.000000 0.000000 0.000000 0.040754 0.000000
# 6 0.000000 0.000000 0.000000 0.000000 0.000000 0.033904
#
#
# Mechanical properties :
#
#
# Convention : Reuss Voigt Hill
#
# Bulk Modulus (GPa) = 59.04128 61.01995 60.03062
# Shear Modulus (GPa) = -32.83814 22.99725 -4.92045
#
# Velocity S-wave (km/s) = -4.07149 3.40724 -1.57604
# Velocity P-wave (km/s) = 2.77524 6.80313 5.19541
#
# Compressibility (1/GPa) = 0.01693730
#
# Stress axis : x y z
#
# Youngs Moduli (GPa) = 110.20401 56.46289 74.55687
#
# Poissons Ratio (x) = 0.19039 0.14504
# Poissons Ratio (y) = 0.37160 0.47066
# Poissons Ratio (z) = 0.21439 0.35643
#
# Static dielectric constant tensor:
#      x y z
#    x 2.079150 0.000000 0.000000 
#    y 0.000000 1.679670 0.000000 
#    z 0.000000 0.000000 1.688010 
# 
# From -- ./inp_files/7002.got.cif
#   From: 2010.05.17/outbox.cif.g08.bks.cpg/sg54_4_cif.got.tgz:7002.got - 2010.06.03 13:09:01.
