data_PCOD9421931
_publ_section_title
;
Structure prediction by ZEFSAII (Michael W. Deem and Ramdas Pophale) SiO2 
 PCOD9421931
Probable space group: P C C A
;
_chemical_formula_sum "Si O2"
_cell_formula_units_Z 56
_cell_length_a 9.066556
_cell_length_b 13.849424
_cell_length_c 20.682421
_cell_angle_alpha 90.000000
_cell_angle_beta 90.000000
_cell_angle_gamma 90.000000
_cell_volume 2597.020835
_symmetry_space_group_name_H-M "P C C A"
_symmetry_group_IT_number 54
_symmetry_cell_setting 'orthorhombic'
loop_
_space_group_symop_operation_xyz
x,y,z
1/2-x,-y,z
1/2+x,-y,1/2-z
-x,y,1/2-z
-x,-y,-z
1/2+x,y,-z
1/2-x,y,1/2+z
x,-y,1/2+z
loop_
_atom_site_type_symbol
_atom_site_label
_atom_site_fract_x
_atom_site_fract_y
_atom_site_fract_z
Si Si1 0.099545 0.332757 0.081967
Si Si2 0.310498 0.391750 0.979511
Si Si3 0.950377 0.752308 0.321319
Si Si4 0.894238 0.116154 0.439278
Si Si5 0.144571 0.693452 0.717529
Si Si6 0.955581 0.909973 0.423311
Si Si7 0.806321 0.389933 0.656328
O O1 0.054442 0.220470 0.085003
O O2 0.095682 0.371936 0.155592
O O3 0.983601 0.385857 0.035075
O O4 0.255061 0.339949 0.044442
O O5 0.250000 0.500000 0.985869
O O6 0.243086 0.347736 0.913211
O O7 0.773601 0.752727 0.317341
O O8 0.003724 0.831949 0.371130
O O9 0.000000 0.779819 0.250000
O O10 0.025108 0.647514 0.335690
O O11 0.717223 0.109222 0.438200
O O12 0.949845 0.104865 0.512503
O O13 0.959984 0.022550 0.402956
O O14 0.226220 0.645887 0.778508
O O15 0.000000 0.739232 0.750000
O O16 0.750000 0.500000 0.651805
#
# Coordination Sequence:
#
# PCOD9421931 Si02
#       7
#     8   8   8   8   8   8   8
#     4  12  23  41  66  93 131 175 219 279 341 399
#     4  11  25  42  63  94 134 172 223 281 337 408
#     4  10  22  42  67  91 133 180 221 273 339 400
#     4  10  21  36  68  94 134 167 219 283 332 405
#     4  11  23  42  63  97 128 179 221 274 339 400
#     4  10  20  40  63 102 129 170 225 272 345 396
#     4  10  23  44  65  94 132 172 227 275 331 410
#
# _framework density 21.56317
#
# number of rings (size 3 to 8) (size 9 to 14) (size 15 to 20)
#    0.000    1.429    2.857    2.143    2.000    2.286 
#    0.000    0.714    0.000    0.000    0.000    0.000 
#    0.000    0.000    0.000    0.000    0.000    0.000 
#
# Total GULP energy -312170.469354 kJ/mol
# GULP energy per Si atom -5574.472667 kJ/mol
# Density = 2.151409 g / cm^3
# Si number density = 21.563170 Si / 1000 Ang^3
#
#
#
# Elastic Constant Matrix: (Units=GPa)
#
#
# Indices 1 2 3 4 5 6 
#
# 1 84.4687 21.9788 23.0359 0.0000 0.0000 0.0000
# 2 21.9788 101.0580 22.6311 0.0000 0.0000 0.0000
# 3 23.0359 22.6311 115.8302 0.0000 0.0000 0.0000
# 4 0.0000 0.0000 0.0000 23.0693 0.0000 0.0000
# 5 0.0000 0.0000 0.0000 0.0000 39.1401 0.0000
# 6 0.0000 0.0000 0.0000 0.0000 0.0000 16.2708
#
#
#
# Elastic Compliance Matrix: (Units=1/GPa)
#
#
# Indices 1 2 3 4 5 6 
#
# 1 0.013033 -0.002357 -0.002131 0.000000 0.000000 0.000000
# 2 -0.002357 0.010774 -0.001636 0.000000 0.000000 0.000000
# 3 -0.002131 -0.001636 0.009377 0.000000 0.000000 0.000000
# 4 0.000000 0.000000 0.000000 0.043348 0.000000 0.000000
# 5 0.000000 0.000000 0.000000 0.000000 0.025549 0.000000
# 6 0.000000 0.000000 0.000000 0.000000 0.000000 0.061460
#
#
# Mechanical properties :
#
#
# Convention : Reuss Voigt Hill
#
# Bulk Modulus (GPa) = 47.76778 48.51651 48.14214
# Shear Modulus (GPa) = 27.35683 31.27678 29.31681
#
# Velocity S-wave (km/s) = 3.56572 3.81264 3.69125
# Velocity P-wave (km/s) = 6.25724 6.47535 6.36723
#
# Compressibility (1/GPa) = 0.02093461
#
# Stress axis : x y z
#
# Youngs Moduli (GPa) = 76.72625 92.81246 106.64469
#
# Poissons Ratio (x) = 0.21878 0.22731
# Poissons Ratio (y) = 0.18086 0.17451
# Poissons Ratio (z) = 0.16354 0.15187
#
# Static dielectric constant tensor:
#      x y z
#    x 1.882250 0.000000 0.000000 
#    y 0.000000 1.837900 0.000000 
#    z 0.000000 0.000000 1.802410 
# 
# From -- ./inp_files/20546.got.cif
#   From: 2010.05.17/outbox.cif.g08.bks.cpg/sg54_11_cif.got.tgz:20546.got - 2010.06.03 13:09:01.
