data_PCOD9421603
_publ_section_title
;
Structure prediction by ZEFSAII (Michael W. Deem and Ramdas Pophale) SiO2 
 PCOD9421603
Probable space group: P C C A
;
_chemical_formula_sum "Si O2"
_cell_formula_units_Z 56
_cell_length_a 9.141134
_cell_length_b 20.066344
_cell_length_c 11.820565
_cell_angle_alpha 90.000000
_cell_angle_beta 90.000000
_cell_angle_gamma 90.000000
_cell_volume 2168.236065
_symmetry_space_group_name_H-M "P C C A"
_symmetry_group_IT_number 54
_symmetry_cell_setting 'orthorhombic'
loop_
_space_group_symop_operation_xyz
x,y,z
1/2-x,-y,z
1/2+x,-y,1/2-z
-x,y,1/2-z
-x,-y,-z
1/2+x,y,-z
1/2-x,y,1/2+z
x,-y,1/2+z
loop_
_atom_site_type_symbol
_atom_site_label
_atom_site_fract_x
_atom_site_fract_y
_atom_site_fract_z
Si Si1 0.750000 0.500000 0.089928
Si Si2 0.462050 0.712738 0.931288
Si Si3 0.000000 0.502740 0.250000
Si Si4 0.260626 0.286382 0.233913
Si Si5 0.544831 0.858193 0.998285
Si Si6 0.631489 0.950520 0.675189
Si Si7 0.357901 0.400594 0.583828
Si Si8 0.681249 0.141811 0.842663
O O1 0.636079 0.466783 0.181959
O O2 0.742066 0.562053 0.999589
O O3 0.592845 0.712027 0.842160
O O4 0.309381 0.713639 0.863425
O O5 0.488484 0.782138 0.993049
O O6 0.456123 0.648380 0.008540
O O7 0.058950 0.459455 0.145882
O O8 0.184866 0.352000 0.187199
O O9 0.183554 0.216582 0.207078
O O10 0.456666 0.903665 0.909846
O O11 0.711003 0.858503 0.954758
O O12 0.480347 0.880091 0.118818
O O13 0.500000 0.981768 0.750000
O O14 0.731288 0.905342 0.757345
O O15 0.750000 0.000000 0.619877
#
# Coordination Sequence:
#
# PCOD9421603 Si02
#       8
#     4   8   4   8   8   8   8   8
#     4  12  28  50  74 100 142 186 234 294 350 414
#     4  10  20  36  63  92 127 172 212 261 340 401
#     4  12  28  48  72 106 140 184 240 288 346 424
#     4  10  20  37  62  93 127 168 216 265 332 408
#     4  10  20  38  61  91 122 167 210 266 325 397
#     4  10  22  40  63  87 127 171 220 267 325 397
#     4  12  24  43  68 100 137 175 222 283 345 406
#     4  10  20  38  62  91 126 166 213 267 329 396
#
# _framework density 25.827448
#
# number of rings (size 3 to 8) (size 9 to 14) (size 15 to 20)
#    0.000    1.429    2.857    2.571    0.000    4.000 
#    0.000    2.857    1.571    0.000    0.000    0.000 
#    0.000    0.000    0.000    0.000    0.000    0.000 
#
# Total GULP energy -312821.921640 kJ/mol
# GULP energy per Si atom -5586.105744 kJ/mol
# Density = 2.576866 g / cm^3
# Si number density = 25.827448 Si / 1000 Ang^3
#
#
#
# Elastic Constant Matrix: (Units=GPa)
#
#
# Indices 1 2 3 4 5 6 
#
# 1 64.1047 19.7352 11.6816 0.0000 0.0000 0.0000
# 2 19.7352 84.5945 11.7284 0.0000 0.0000 0.0000
# 3 11.6816 11.7284 70.7449 0.0000 0.0000 0.0000
# 4 0.0000 0.0000 0.0000 -22.6068 0.0000 0.0000
# 5 0.0000 0.0000 0.0000 0.0000 33.8940 0.0000
# 6 0.0000 0.0000 0.0000 0.0000 0.0000 -12.1723
#
#
#
# Elastic Compliance Matrix: (Units=1/GPa)
#
#
# Indices 1 2 3 4 5 6 
#
# 1 0.017140 -0.003691 -0.002218 0.000000 0.000000 0.000000
# 2 -0.003691 0.012894 -0.001528 0.000000 0.000000 0.000000
# 3 -0.002218 -0.001528 0.014755 0.000000 0.000000 0.000000
# 4 0.000000 0.000000 0.000000 -0.044235 0.000000 0.000000
# 5 0.000000 0.000000 0.000000 0.000000 0.029504 0.000000
# 6 0.000000 0.000000 0.000000 0.000000 0.000000 -0.082154
#
#
# Mechanical properties :
#
#
# Convention : Reuss Voigt Hill
#
# Bulk Modulus (GPa) = 33.42918 33.97050 33.69984
# Shear Modulus (GPa) = -183.49048 11.57626 -85.95711
#
# Velocity S-wave (km/s) = -8.43795 2.11941 -5.77525
# Velocity P-wave (km/s) = 9.05321 4.37842 5.60312
#
# Compressibility (1/GPa) = 0.02991399
#
# Stress axis : x y z
#
# Youngs Moduli (GPa) = 58.34293 77.55502 67.77395
#
# Poissons Ratio (x) = 0.28626 0.15034
# Poissons Ratio (y) = 0.21535 0.10357
# Poissons Ratio (z) = 0.12942 0.11852
#
# Static dielectric constant tensor:
#      x y z
#    x 1.895850 0.000000 0.000000 
#    y 0.000000 2.141360 0.000000 
#    z 0.000000 0.000000 2.069370 
# 
# From -- ./inp_files/11902.got.cif
#   From: 2010.05.17/outbox.cif.g08.bks.cpg/sg54_6_cif.got.tgz:11902.got - 2010.06.03 13:09:01.
