data_PCOD9421571
_publ_section_title
;
Structure prediction by ZEFSAII (Michael W. Deem and Ramdas Pophale) SiO2 
 PCOD9421571
Probable space group: P C C A
;
_chemical_formula_sum "Si O2"
_cell_formula_units_Z 28
_cell_length_a 9.861573
_cell_length_b 14.658049
_cell_length_c 8.840027
_cell_angle_alpha 90.000000
_cell_angle_beta 90.000000
_cell_angle_gamma 90.000000
_cell_volume 1277.838458
_symmetry_space_group_name_H-M "P C C A"
_symmetry_group_IT_number 54
_symmetry_cell_setting 'orthorhombic'
loop_
_space_group_symop_operation_xyz
x,y,z
1/2-x,-y,z
1/2+x,-y,1/2-z
-x,y,1/2-z
-x,-y,-z
1/2+x,y,-z
1/2-x,y,1/2+z
x,-y,1/2+z
loop_
_atom_site_type_symbol
_atom_site_label
_atom_site_fract_x
_atom_site_fract_y
_atom_site_fract_z
Si Si1 0.373758 0.894689 0.141216
Si Si2 0.353657 0.414985 0.324055
Si Si3 0.250000 0.000000 0.382292
Si Si4 0.129734 0.316587 0.140797
O O1 0.500000 0.913373 0.250000
O O2 0.258372 0.916445 0.264466
O O3 0.372421 0.789668 0.094631
O O4 0.360009 0.962550 0.001479
O O5 0.250000 0.500000 0.326821
O O6 0.500000 0.435066 0.250000
O O7 0.268694 0.340340 0.228316
O O8 0.378007 0.379200 0.493184
O O9 0.000000 0.331248 0.250000
#
# Coordination Sequence:
#
# PCOD9421571 Si02
#       4
#     8   8   4   8
#     4  10  21  38  60  89 125 164 208 256 307 365
#     4  12  26  45  69  96 128 166 210 263 322 384
#     4  10  20  36  60  90 124 164 208 254 308 362
#     4  11  24  43  66  96 131 170 215 263 317 377
#
# _framework density 21.912002999999999
#
# number of rings (size 3 to 8) (size 9 to 14) (size 15 to 20)
#    0.000    1.143    0.000    6.000    0.000    5.714 
#    0.000    8.571    0.000    0.000    0.000    0.000 
#    0.000    0.000    0.000    0.000    0.000    0.000 
#
# Total GULP energy -156234.451067 kJ/mol
# GULP energy per Si atom -5579.801824 kJ/mol
# Density = 2.186213 g / cm^3
# Si number density = 21.912003 Si / 1000 Ang^3
#
#
#
# Elastic Constant Matrix: (Units=GPa)
#
#
# Indices 1 2 3 4 5 6 
#
# 1 121.8891 42.2501 52.5672 0.0000 0.0000 0.0000
# 2 42.2501 63.0856 36.1211 0.0000 0.0000 0.0000
# 3 52.5672 36.1211 122.8126 0.0000 0.0000 0.0000
# 4 0.0000 0.0000 0.0000 10.8701 0.0000 0.0000
# 5 0.0000 0.0000 0.0000 0.0000 29.0522 0.0000
# 6 0.0000 0.0000 0.0000 0.0000 0.0000 24.4792
#
#
#
# Elastic Compliance Matrix: (Units=1/GPa)
#
#
# Indices 1 2 3 4 5 6 
#
# 1 0.011667 -0.005958 -0.003242 0.000000 0.000000 0.000000
# 2 -0.005958 0.022104 -0.003951 0.000000 0.000000 0.000000
# 3 -0.003242 -0.003951 0.010692 0.000000 0.000000 0.000000
# 4 0.000000 0.000000 0.000000 0.091995 0.000000 0.000000
# 5 0.000000 0.000000 0.000000 0.000000 0.034421 0.000000
# 6 0.000000 0.000000 0.000000 0.000000 0.000000 0.040851
#
#
# Mechanical properties :
#
#
# Convention : Reuss Voigt Hill
#
# Bulk Modulus (GPa) = 55.05912 63.29601 59.17756
# Shear Modulus (GPa) = 20.48465 24.67023 22.57744
#
# Velocity S-wave (km/s) = 3.06086 3.35905 3.21342
# Velocity P-wave (km/s) = 6.13790 6.63276 6.39012
#
# Compressibility (1/GPa) = 0.01816230
#
# Stress axis : x y z
#
# Youngs Moduli (GPa) = 85.70920 45.24104 93.52750
#
# Poissons Ratio (x) = 0.26954 0.30318
# Poissons Ratio (y) = 0.51064 0.36952
# Poissons Ratio (z) = 0.27784 0.17875
#
# Static dielectric constant tensor:
#      x y z
#    x 2.032430 0.000000 0.000000 
#    y 0.000000 1.789490 0.000000 
#    z 0.000000 0.000000 2.346080 
# 
# From -- ./inp_files/2456.got.cif
#   From: 2010.05.17/outbox.cif.g08.bks.cpg/sg54_2_cif.got.tgz:2456.got - 2010.06.03 13:09:01.
