data_PCOD9421387
_publ_section_title
;
Structure prediction by ZEFSAII (Michael W. Deem and Ramdas Pophale) SiO2 
 PCOD9421387
Probable space group: P C C A
;
_chemical_formula_sum "Si O2"
_cell_formula_units_Z 40
_cell_length_a 18.920298
_cell_length_b 8.586846
_cell_length_c 11.385679
_cell_angle_alpha 90.000000
_cell_angle_beta 90.000000
_cell_angle_gamma 90.000000
_cell_volume 1849.782140
_symmetry_space_group_name_H-M "P C C A"
_symmetry_group_IT_number 54
_symmetry_cell_setting 'orthorhombic'
loop_
_space_group_symop_operation_xyz
x,y,z
1/2-x,-y,z
1/2+x,-y,1/2-z
-x,y,1/2-z
-x,-y,-z
1/2+x,y,-z
1/2-x,y,1/2+z
x,-y,1/2+z
loop_
_atom_site_type_symbol
_atom_site_label
_atom_site_fract_x
_atom_site_fract_y
_atom_site_fract_z
Si Si1 0.923235 0.529780 0.063866
Si Si2 0.348578 0.260098 0.045013
Si Si3 0.750000 0.000000 0.057281
Si Si4 0.029877 0.097054 0.395321
Si Si5 0.500000 0.353950 0.750000
Si Si6 0.878347 0.163154 0.689960
O O1 0.939000 0.454237 0.192592
O O2 0.904485 0.705856 0.097884
O O3 0.860136 0.441842 0.993131
O O4 0.000000 0.500000 0.000000
O O5 0.367297 0.235654 0.181335
O O6 0.282608 0.145122 0.017426
O O7 0.407088 0.190705 0.956967
O O8 0.808751 0.918938 0.138782
O O9 0.064782 0.975615 0.305626
O O10 0.000000 0.000000 0.500000
O O11 0.976674 0.227593 0.346941
#
# Coordination Sequence:
#
# PCOD9421387 Si02
#       6
#     8   8   4   8   4   8
#     4  11  23  38  60  95 128 157 196 249 317 380
#     4  10  22  40  61  87 121 160 206 255 305 367
#     4  10  24  44  64  90 116 162 222 258 300 366
#     4  10  20  34  58  89 120 158 201 246 303 369
#     4  10  20  34  52  84 124 152 188 236 294 362
#     4  11  22  40  64  87 123 166 206 259 309 360
#
# _framework density 21.624168000000001
#
# number of rings (size 3 to 8) (size 9 to 14) (size 15 to 20)
#    0.000    1.600    0.000    5.400    0.000    4.800 
#    0.000    8.000    0.000    0.000    0.000    0.000 
#    0.000    0.000    0.000    0.000    0.000    0.000 
#
# Total GULP energy -222733.658516 kJ/mol
# GULP energy per Si atom -5568.341463 kJ/mol
# Density = 2.157495 g / cm^3
# Si number density = 21.624168 Si / 1000 Ang^3
#
#
#
# Elastic Constant Matrix: (Units=GPa)
#
#
# Indices 1 2 3 4 5 6 
#
# 1 76.2565 42.2559 30.1815 0.0000 0.0000 0.0000
# 2 42.2559 132.0959 41.4319 0.0000 0.0000 0.0000
# 3 30.1815 41.4319 103.3603 0.0000 0.0000 0.0000
# 4 0.0000 0.0000 0.0000 44.8135 0.0000 0.0000
# 5 0.0000 0.0000 0.0000 0.0000 31.6231 0.0000
# 6 0.0000 0.0000 0.0000 0.0000 0.0000 38.9985
#
#
#
# Elastic Compliance Matrix: (Units=1/GPa)
#
#
# Indices 1 2 3 4 5 6 
#
# 1 0.016787 -0.004384 -0.003145 0.000000 0.000000 0.000000
# 2 -0.004384 0.009804 -0.002650 0.000000 0.000000 0.000000
# 3 -0.003145 -0.002650 0.011655 0.000000 0.000000 0.000000
# 4 0.000000 0.000000 0.000000 0.022315 0.000000 0.000000
# 5 0.000000 0.000000 0.000000 0.000000 0.031622 0.000000
# 6 0.000000 0.000000 0.000000 0.000000 0.000000 0.025642
#
#
# Mechanical properties :
#
#
# Convention : Reuss Voigt Hill
#
# Bulk Modulus (GPa) = 55.89726 59.93902 57.91814
# Shear Modulus (GPa) = 34.68722 36.27660 35.48191
#
# Velocity S-wave (km/s) = 4.00946 4.10029 4.05513
# Velocity P-wave (km/s) = 6.88040 7.08486 6.98338
#
# Compressibility (1/GPa) = 0.01788997
#
# Stress axis : x y z
#
# Youngs Moduli (GPa) = 59.56831 102.00282 85.79776
#
# Poissons Ratio (x) = 0.44715 0.26981
# Poissons Ratio (y) = 0.26113 0.22734
# Poissons Ratio (z) = 0.18733 0.27028
#
# Static dielectric constant tensor:
#      x y z
#    x 1.789960 0.000000 0.000000 
#    y 0.000000 1.791480 0.000000 
#    z 0.000000 0.000000 1.892370 
# 
# From -- ./inp_files/9437.got.cif
#   From: 2010.05.17/outbox.cif.g08.bks.cpg/sg54_5_cif.got.tgz:9437.got - 2010.06.03 13:09:01.
