data_PCOD9421227
_publ_section_title
;
Structure prediction by ZEFSAII (Michael W. Deem and Ramdas Pophale) SiO2 
 PCOD9421227
Probable space group: P C C A
;
_chemical_formula_sum "Si O2"
_cell_formula_units_Z 56
_cell_length_a 21.842698
_cell_length_b 5.543979
_cell_length_c 19.636679
_cell_angle_alpha 90.000000
_cell_angle_beta 90.000000
_cell_angle_gamma 90.000000
_cell_volume 2377.912657
_symmetry_space_group_name_H-M "P C C A"
_symmetry_group_IT_number 54
_symmetry_cell_setting 'orthorhombic'
loop_
_space_group_symop_operation_xyz
x,y,z
1/2-x,-y,z
1/2+x,-y,1/2-z
-x,y,1/2-z
-x,-y,-z
1/2+x,y,-z
1/2-x,y,1/2+z
x,-y,1/2+z
loop_
_atom_site_type_symbol
_atom_site_label
_atom_site_fract_x
_atom_site_fract_y
_atom_site_fract_z
Si Si1 0.981062 0.262493 0.440650
Si Si2 0.730745 0.744635 0.061776
Si Si3 0.102217 0.656284 0.006755
Si Si4 0.929584 0.990153 0.222552
Si Si5 0.221411 0.747831 0.593287
Si Si6 0.610635 0.027955 0.369209
Si Si7 0.457967 0.500716 0.318250
O O1 0.043178 0.198029 0.479619
O O2 0.000439 0.461858 0.384261
O O3 0.928863 0.391705 0.486351
O O4 0.956330 0.050451 0.393873
O O5 0.750000 0.500000 0.099236
O O6 0.750000 0.000000 0.093549
O O7 0.659663 0.707895 0.041728
O O8 0.768116 0.745060 0.988713
O O9 0.125931 0.754474 0.079788
O O10 0.923937 0.753780 0.176336
O O11 0.000000 0.004766 0.250000
O O12 0.889630 0.934858 0.289489
O O13 0.918559 0.254031 0.190812
O O14 0.250000 0.500000 0.619632
O O15 0.151948 0.796267 0.613172
O O16 0.250000 0.000000 0.618688
O O17 0.500000 0.486437 0.250000
#
# Coordination Sequence:
#
# PCOD9421227 Si02
#       7
#     8   8   8   8   8   8   8
#     4  11  23  36  56  88 130 159 198 243 317 380
#     4  10  19  38  56  77 116 154 203 234 286 369
#     4  11  23  36  56  90 125 162 189 257 316 372
#     4  10  20  34  58  79 114 155 198 235 286 353
#     4  10  20  34  55  81 116 156 198 246 298 363
#     4  12  21  36  60  86 127 160 201 257 312 380
#     4  10  19  38  53  79 116 156 199 231 279 368
#
# _framework density 23.550066999999999
#
# number of rings (size 3 to 8) (size 9 to 14) (size 15 to 20)
#    0.000    1.429    5.714    3.857    0.000    0.000 
#    0.000    0.000    0.000    0.000    0.000    4.000 
#    0.000    0.000    0.000    0.000    0.000    0.000 
#
# Total GULP energy -312456.938971 kJ/mol
# GULP energy per Si atom -5579.588196 kJ/mol
# Density = 2.349647 g / cm^3
# Si number density = 23.550067 Si / 1000 Ang^3
#
#
#
# Elastic Constant Matrix: (Units=GPa)
#
#
# Indices 1 2 3 4 5 6 
#
# 1 72.1067 23.8381 9.5704 0.0000 0.0000 0.0000
# 2 23.8381 172.4088 1.9604 0.0000 0.0000 0.0000
# 3 9.5704 1.9604 38.7345 0.0000 0.0000 0.0000
# 4 0.0000 0.0000 0.0000 15.9821 0.0000 0.0000
# 5 0.0000 0.0000 0.0000 0.0000 8.2611 0.0000
# 6 0.0000 0.0000 0.0000 0.0000 0.0000 29.6204
#
#
#
# Elastic Compliance Matrix: (Units=1/GPa)
#
#
# Indices 1 2 3 4 5 6 
#
# 1 0.015020 -0.002036 -0.003608 0.000000 0.000000 0.000000
# 2 -0.002036 0.006079 0.000195 0.000000 0.000000 0.000000
# 3 -0.003608 0.000195 0.026698 0.000000 0.000000 0.000000
# 4 0.000000 0.000000 0.000000 0.062570 0.000000 0.000000
# 5 0.000000 0.000000 0.000000 0.000000 0.121049 0.000000
# 6 0.000000 0.000000 0.000000 0.000000 0.000000 0.033760
#
#
# Mechanical properties :
#
#
# Convention : Reuss Voigt Hill
#
# Bulk Modulus (GPa) = 27.09961 39.33196 33.21579
# Shear Modulus (GPa) = 17.33854 27.29813 22.31834
#
# Velocity S-wave (km/s) = 2.71632 3.40833 3.08181
# Velocity P-wave (km/s) = 4.62278 5.67685 5.17671
#
# Compressibility (1/GPa) = 0.03690090
#
# Stress axis : x y z
#
# Youngs Moduli (GPa) = 66.57682 164.48941 37.45545
#
# Poissons Ratio (x) = 0.33486 0.13514
# Poissons Ratio (y) = 0.13553 -0.00732
# Poissons Ratio (z) = 0.24022 -0.03212
#
# Static dielectric constant tensor:
#      x y z
#    x 2.151350 0.000000 0.000000 
#    y 0.000000 2.020470 0.000000 
#    z 0.000000 0.000000 1.877090 
# 
# From -- ./inp_files/24736.got.cif
#   From: 2010.05.17/outbox.cif.g08.bks.cpg/sg54_13_cif.got.tgz:24736.got - 2010.06.03 13:09:01.
