data_PCOD9421689
_publ_section_title
;
Structure prediction by ZEFSAII (Michael W. Deem and Ramdas Pophale) SiO2 
 PCOD9421689
Probable space group: P C C A
;
_chemical_formula_sum "Si O2"
_cell_formula_units_Z 44
_cell_length_a 9.304056
_cell_length_b 13.584284
_cell_length_c 16.887651
_cell_angle_alpha 90.000000
_cell_angle_beta 90.000000
_cell_angle_gamma 90.000000
_cell_volume 2134.412293
_symmetry_space_group_name_H-M "P C C A"
_symmetry_group_IT_number 54
_symmetry_cell_setting 'orthorhombic'
loop_
_space_group_symop_operation_xyz
x,y,z
1/2-x,-y,z
1/2+x,-y,1/2-z
-x,y,1/2-z
-x,-y,-z
1/2+x,y,-z
1/2-x,y,1/2+z
x,-y,1/2+z
loop_
_atom_site_type_symbol
_atom_site_label
_atom_site_fract_x
_atom_site_fract_y
_atom_site_fract_z
Si Si1 0.312513 0.824691 0.061423
Si Si2 0.305852 0.603111 0.877484
Si Si3 0.000038 0.679497 0.663085
Si Si4 0.000000 0.125097 0.750000
Si Si5 0.517520 0.223252 0.081535
Si Si6 0.000000 0.488997 0.750000
Si Si7 0.750000 0.000000 0.324983
O O1 0.402330 0.738293 0.103526
O O2 0.146823 0.792139 0.056959
O O3 0.321938 0.919928 0.117032
O O4 0.381921 0.840444 0.975866
O O5 0.250000 0.500000 0.912987
O O6 0.163858 0.668215 0.865015
O O7 0.423956 0.665330 0.923899
O O8 0.378388 0.574051 0.793041
O O9 0.052741 0.567708 0.683426
O O10 0.000000 0.729250 0.750000
O O11 0.969130 0.190645 0.672733
O O12 0.134454 0.057252 0.727314
#
# Coordination Sequence:
#
# PCOD9421689 Si02
#       7
#     8   8   8   4   8   4   4
#     4  11  25  45  64  98 128 176 210 278 333 385
#     4  10  20  37  62  93 128 175 218 265 308 387
#     4   9  21  35  63  93 130 173 211 262 324 374
#     4  10  25  41  70 100 124 176 210 273 315 402
#     4  11  25  43  67  93 137 170 219 267 336 377
#     4   8  19  33  62  96 132 170 220 259 315 380
#     4  10  26  42  68 100 126 166 228 256 332 390
#
# _framework density 20.614574000000001
#
# number of rings (size 3 to 8) (size 9 to 14) (size 15 to 20)
#    0.545    1.455    0.000    1.636    8.909    5.091 
#    0.000    8.182    0.000    0.000    0.000    0.000 
#    0.000    0.000    0.000    0.000    0.000    0.000 
#
# Total GULP energy -245552.405636 kJ/mol
# GULP energy per Si atom -5580.736492 kJ/mol
# Density = 2.056765 g / cm^3
# Si number density = 20.614574 Si / 1000 Ang^3
#
#
#
# Elastic Constant Matrix: (Units=GPa)
#
#
# Indices 1 2 3 4 5 6 
#
# 1 98.3121 47.6429 50.2605 0.0000 0.0000 0.0000
# 2 47.6429 72.1133 24.2841 0.0000 0.0000 0.0000
# 3 50.2605 24.2841 104.6718 0.0000 0.0000 0.0000
# 4 0.0000 0.0000 0.0000 14.0831 0.0000 0.0000
# 5 0.0000 0.0000 0.0000 0.0000 29.0386 0.0000
# 6 0.0000 0.0000 0.0000 0.0000 0.0000 22.1096
#
#
#
# Elastic Compliance Matrix: (Units=1/GPa)
#
#
# Indices 1 2 3 4 5 6 
#
# 1 0.018281 -0.009895 -0.006482 0.000000 0.000000 0.000000
# 2 -0.009895 0.020398 0.000019 0.000000 0.000000 0.000000
# 3 -0.006482 0.000019 0.012662 0.000000 0.000000 0.000000
# 4 0.000000 0.000000 0.000000 0.071007 0.000000 0.000000
# 5 0.000000 0.000000 0.000000 0.000000 0.034437 0.000000
# 6 0.000000 0.000000 0.000000 0.000000 0.000000 0.045229
#
#
# Mechanical properties :
#
#
# Convention : Reuss Voigt Hill
#
# Bulk Modulus (GPa) = 53.69363 57.71913 55.70638
# Shear Modulus (GPa) = 20.75226 23.24024 21.99625
#
# Velocity S-wave (km/s) = 3.17626 3.36127 3.27008
# Velocity P-wave (km/s) = 6.28924 6.56690 6.42957
#
# Compressibility (1/GPa) = 0.01862418
#
# Stress axis : x y z
#
# Youngs Moduli (GPa) = 54.70273 49.02506 78.97678
#
# Poissons Ratio (x) = 0.48508 0.51195
# Poissons Ratio (y) = 0.54126 -0.00148
# Poissons Ratio (z) = 0.35460 -0.00092
#
# Static dielectric constant tensor:
#      x y z
#    x 1.711920 0.000000 0.000000 
#    y 0.000000 1.760630 0.000000 
#    z 0.000000 0.000000 1.755780 
# 
# From -- ./inp_files/16555.got.cif
#   From: 2010.05.17/outbox.cif.g08.bks.cpg/sg54_9_cif.got.tgz:16555.got - 2010.06.03 13:09:01.
