data_PCOD9421706
_publ_section_title
;
Structure prediction by ZEFSAII (Michael W. Deem and Ramdas Pophale) SiO2 
 PCOD9421706
Probable space group: P C C A
;
_chemical_formula_sum "Si O2"
_cell_formula_units_Z 36
_cell_length_a 13.939135
_cell_length_b 10.073562
_cell_length_c 11.157925
_cell_angle_alpha 90.000000
_cell_angle_beta 90.000000
_cell_angle_gamma 90.000000
_cell_volume 1566.759461
_symmetry_space_group_name_H-M "P C C A"
_symmetry_group_IT_number 54
_symmetry_cell_setting 'orthorhombic'
loop_
_space_group_symop_operation_xyz
x,y,z
1/2-x,-y,z
1/2+x,-y,1/2-z
-x,y,1/2-z
-x,-y,-z
1/2+x,y,-z
1/2-x,y,1/2+z
x,-y,1/2+z
loop_
_atom_site_type_symbol
_atom_site_label
_atom_site_fract_x
_atom_site_fract_y
_atom_site_fract_z
Si Si1 0.538191 0.299744 0.413471
Si Si2 0.062641 0.420737 0.341052
Si Si3 0.778808 0.154332 0.798039
Si Si4 0.750000 0.500000 0.635492
Si Si5 0.826898 0.756023 0.036627
O O1 0.499028 0.444386 0.366725
O O2 0.584167 0.340569 0.539376
O O3 0.615521 0.217661 0.335523
O O4 0.440287 0.220337 0.442833
O O5 0.165189 0.447375 0.282675
O O6 0.000000 0.336987 0.250000
O O7 0.773197 0.188735 0.655955
O O8 0.750000 0.000000 0.802220
O O9 0.711865 0.206110 0.906958
O O10 0.692919 0.600181 0.552100
#
# Coordination Sequence:
#
# PCOD9421706 Si02
#       5
#     8   8   8   4   8
#     4  10  22  42  66  99 140 183 232 299 367 429
#     4  10  20  37  65 107 145 181 229 297 376 448
#     4  12  26  47  68  97 142 194 247 290 356 440
#     4  10  20  40  70 106 146 178 230 310 364 450
#     4  11  25  43  72 104 138 187 236 306 368 433
#
# _framework density 22.977364000000001
#
# number of rings (size 3 to 8) (size 9 to 14) (size 15 to 20)
#    0.000    1.333    2.222    4.000    3.111    1.778 
#    0.000    2.222    0.000    0.000    0.000    0.000 
#    0.000    0.000    0.000    0.000    0.000    0.000 
#
# Total GULP energy -200433.443319 kJ/mol
# GULP energy per Si atom -5567.595648 kJ/mol
# Density = 2.292507 g / cm^3
# Si number density = 22.977364 Si / 1000 Ang^3
#
#
#
# Elastic Constant Matrix: (Units=GPa)
#
#
# Indices 1 2 3 4 5 6 
#
# 1 121.4320 15.9216 42.2593 0.0000 0.0000 0.0000
# 2 15.9216 84.4788 25.9616 0.0000 0.0000 0.0000
# 3 42.2593 25.9616 115.2996 0.0000 0.0000 0.0000
# 4 0.0000 0.0000 0.0000 21.3826 0.0000 0.0000
# 5 0.0000 0.0000 0.0000 0.0000 33.6149 0.0000
# 6 0.0000 0.0000 0.0000 0.0000 0.0000 16.8765
#
#
#
# Elastic Compliance Matrix: (Units=1/GPa)
#
#
# Indices 1 2 3 4 5 6 
#
# 1 0.009486 -0.000773 -0.003303 0.000000 0.000000 0.000000
# 2 -0.000773 0.012780 -0.002594 0.000000 0.000000 0.000000
# 3 -0.003303 -0.002594 0.010468 0.000000 0.000000 0.000000
# 4 0.000000 0.000000 0.000000 0.046767 0.000000 0.000000
# 5 0.000000 0.000000 0.000000 0.000000 0.029749 0.000000
# 6 0.000000 0.000000 0.000000 0.000000 0.000000 0.059254
#
#
# Mechanical properties :
#
#
# Convention : Reuss Voigt Hill
#
# Bulk Modulus (GPa) = 51.56265 54.38837 52.97551
# Shear Modulus (GPa) = 26.55226 30.17933 28.36579
#
# Velocity S-wave (km/s) = 3.40307 3.62807 3.51737
# Velocity P-wave (km/s) = 6.15878 6.42435 6.29297
#
# Compressibility (1/GPa) = 0.01939388
#
# Stress axis : x y z
#
# Youngs Moduli (GPa) = 105.42127 78.24577 95.53173
#
# Poissons Ratio (x) = 0.06047 0.31551
# Poissons Ratio (y) = 0.08147 0.24785
# Poissons Ratio (z) = 0.34817 0.20300
#
# Static dielectric constant tensor:
#      x y z
#    x 1.928700 0.000000 0.000000 
#    y 0.000000 1.952530 0.000000 
#    z 0.000000 0.000000 1.903600 
# 
# From -- ./inp_files/8150.got.cif
#   From: 2010.05.17/outbox.cif.g08.bks.cpg/sg54_5_cif.got.tgz:8150.got - 2010.06.03 13:09:01.
