data_PCOD9421810
_publ_section_title
;
Structure prediction by ZEFSAII (Michael W. Deem and Ramdas Pophale) SiO2 
 PCOD9421810
Probable space group: P C C A
;
_chemical_formula_sum "Si O2"
_cell_formula_units_Z 64
_cell_length_a 9.520072
_cell_length_b 23.313758
_cell_length_c 14.414070
_cell_angle_alpha 90.000000
_cell_angle_beta 90.000000
_cell_angle_gamma 90.000000
_cell_volume 3199.183446
_symmetry_space_group_name_H-M "P C C A"
_symmetry_group_IT_number 54
_symmetry_cell_setting 'orthorhombic'
loop_
_space_group_symop_operation_xyz
x,y,z
1/2-x,-y,z
1/2+x,-y,1/2-z
-x,y,1/2-z
-x,-y,-z
1/2+x,y,-z
1/2-x,y,1/2+z
x,-y,1/2+z
loop_
_atom_site_type_symbol
_atom_site_label
_atom_site_fract_x
_atom_site_fract_y
_atom_site_fract_z
Si Si1 0.239962 0.632105 0.364657
Si Si2 0.454659 0.562899 0.605601
Si Si3 0.168905 0.944136 0.097182
Si Si4 0.162256 0.152207 0.751155
Si Si5 0.832103 0.732918 0.766594
Si Si6 0.270003 0.651016 0.079758
Si Si7 0.486134 0.439054 0.890367
Si Si8 0.667516 0.944205 0.595288
O O1 0.253271 0.687172 0.299856
O O2 0.264205 0.654557 0.470666
O O3 0.360664 0.587917 0.332707
O O4 0.102055 0.593004 0.372621
O O5 0.345848 0.612107 0.630975
O O6 0.451267 0.498722 0.644904
O O7 0.427159 0.551095 0.495382
O O8 0.181747 0.889631 0.163419
O O9 0.000853 0.955306 0.084726
O O10 0.250000 0.000000 0.136714
O O11 0.251647 0.933356 0.001288
O O12 0.269024 0.204641 0.750204
O O13 0.181135 0.110568 0.839007
O O14 0.000000 0.173133 0.750000
O O15 0.796146 0.710792 0.870074
O O16 0.000000 0.730328 0.750000
O O17 0.405877 0.611809 0.093288
O O18 0.750000 0.000000 0.634091
#
# Coordination Sequence:
#
# PCOD9421810 Si02
#       8
#     8   8   8   8   8   8   8   8
#     4  10  21  38  59  85 115 152 194 244 304 362
#     4   9  18  31  61  87 112 151 183 240 308 372
#     4  10  20  38  65  99 132 163 198 244 296 348
#     4  10  25  43  61  87 123 165 210 251 289 343
#     4  12  26  43  60  82 118 161 207 250 293 353
#     4  10  21  38  59  85 115 152 194 244 304 362
#     4   9  16  35  57  87 118 143 189 238 306 374
#     4  10  20  38  65  99 132 163 198 244 296 348
#
# _framework density 20.005105
#
# number of rings (size 3 to 8) (size 9 to 14) (size 15 to 20)
#    0.000    2.000    1.250    2.625    1.750    6.000 
#    0.000    6.250    0.000    0.000    0.000    0.000 
#    0.000    0.000    0.000    0.000    0.000    0.000 
#
# Total GULP energy -357015.209308 kJ/mol
# GULP energy per Si atom -5578.362645 kJ/mol
# Density = 1.995957 g / cm^3
# Si number density = 20.005105 Si / 1000 Ang^3
#
#
#
# Elastic Constant Matrix: (Units=GPa)
#
#
# Indices 1 2 3 4 5 6 
#
# 1 72.0951 28.4363 7.7153 0.0000 0.0000 0.0000
# 2 28.4363 105.4794 23.6352 0.0000 0.0000 0.0000
# 3 7.7153 23.6352 62.0319 0.0000 0.0000 0.0000
# 4 0.0000 0.0000 0.0000 -34.2694 0.0000 0.0000
# 5 0.0000 0.0000 0.0000 0.0000 12.8263 0.0000
# 6 0.0000 0.0000 0.0000 0.0000 0.0000 34.5896
#
#
#
# Elastic Compliance Matrix: (Units=1/GPa)
#
#
# Indices 1 2 3 4 5 6 
#
# 1 0.015529 -0.004104 -0.000368 0.000000 0.000000 0.000000
# 2 -0.004104 0.011450 -0.003852 0.000000 0.000000 0.000000
# 3 -0.000368 -0.003852 0.017634 0.000000 0.000000 0.000000
# 4 0.000000 0.000000 0.000000 -0.029181 0.000000 0.000000
# 5 0.000000 0.000000 0.000000 0.000000 0.077965 0.000000
# 6 0.000000 0.000000 0.000000 0.000000 0.000000 0.028910
#
#
# Mechanical properties :
#
#
# Convention : Reuss Voigt Hill
#
# Bulk Modulus (GPa) = 35.75883 39.90889 37.83386
# Shear Modulus (GPa) = 33.72065 14.61728 24.16896
#
# Velocity S-wave (km/s) = 4.11006 2.70604 3.47960
# Velocity P-wave (km/s) = 6.35902 5.45492 5.92424
#
# Compressibility (1/GPa) = 0.02796512
#
# Stress axis : x y z
#
# Youngs Moduli (GPa) = 64.39716 87.33542 56.70779
#
# Poissons Ratio (x) = 0.35842 0.02085
# Poissons Ratio (y) = 0.26428 0.21845
# Poissons Ratio (z) = 0.02368 0.33644
#
# Static dielectric constant tensor:
#      x y z
#    x 1.645630 0.000000 0.000000 
#    y 0.000000 1.690140 0.000000 
#    z 0.000000 0.000000 1.776490 
# 
# From -- ./inp_files/16858.got.cif
#   From: 2010.05.17/outbox.cif.g08.bks.cpg/sg54_9_cif.got.tgz:16858.got - 2010.06.03 13:09:01.
