data_PCOD9421698
_publ_section_title
;
Structure prediction by ZEFSAII (Michael W. Deem and Ramdas Pophale) SiO2 
 PCOD9421698
Probable space group: P C C A
;
_chemical_formula_sum "Si O2"
_cell_formula_units_Z 48
_cell_length_a 8.487860
_cell_length_b 9.851728
_cell_length_c 27.923897
_cell_angle_alpha 90.000000
_cell_angle_beta 90.000000
_cell_angle_gamma 90.000000
_cell_volume 2334.998725
_symmetry_space_group_name_H-M "P C C A"
_symmetry_group_IT_number 54
_symmetry_cell_setting 'orthorhombic'
loop_
_space_group_symop_operation_xyz
x,y,z
1/2-x,-y,z
1/2+x,-y,1/2-z
-x,y,1/2-z
-x,-y,-z
1/2+x,y,-z
1/2-x,y,1/2+z
x,-y,1/2+z
loop_
_atom_site_type_symbol
_atom_site_label
_atom_site_fract_x
_atom_site_fract_y
_atom_site_fract_z
Si Si1 0.554272 0.267770 0.696206
Si Si2 0.370916 0.219495 0.357956
Si Si3 0.408533 0.582603 0.460421
Si Si4 0.438466 0.498331 0.136242
Si Si5 0.663678 0.129212 0.549798
Si Si6 0.429422 0.039707 0.627666
O O1 0.500000 0.242611 0.750000
O O2 0.737379 0.242911 0.682361
O O3 0.510873 0.419889 0.680604
O O4 0.455584 0.167959 0.661792
O O5 0.482682 0.349549 0.364881
O O6 0.274943 0.185902 0.406931
O O7 0.473970 0.085723 0.349584
O O8 0.250000 0.500000 0.450145
O O9 0.500000 0.500000 0.500000
O O10 0.506701 0.579259 0.411365
O O11 0.375909 0.735079 0.478745
O O12 0.250000 0.500000 0.138562
O O13 0.509590 0.073933 0.576813
O O14 0.750000 0.000000 0.526714
O O15 0.250000 0.000000 0.622342
#
# Coordination Sequence:
#
# PCOD9421698 Si02
#       6
#     8   8   8   8   8   8
#     4  11  23  40  61  91 129 173 221 269 323 386
#     4  10  20  39  66  85 125 175 211 257 329 374
#     4  12  23  43  67  97 130 167 217 272 334 400
#     4  12  23  40  64  93 127 170 219 271 328 394
#     4   9  19  39  66  89 125 173 213 257 329 395
#     4  10  20  37  63  96 125 172 216 261 320 389
#
# _framework density 20.556756
#
# number of rings (size 3 to 8) (size 9 to 14) (size 15 to 20)
#    0.000    1.333    5.000    3.500    0.000    2.667 
#    0.000    3.333    0.000    0.000    0.000    0.000 
#    0.000    0.000    0.000    0.000    0.000    0.000 
#
# Total GULP energy -268282.366544 kJ/mol
# GULP energy per Si atom -5589.215970 kJ/mol
# Density = 2.050997 g / cm^3
# Si number density = 20.556756 Si / 1000 Ang^3
#
#
#
# Elastic Constant Matrix: (Units=GPa)
#
#
# Indices 1 2 3 4 5 6 
#
# 1 142.7912 39.9143 16.2311 0.0000 0.0000 0.0000
# 2 39.9143 138.3161 12.9671 0.0000 0.0000 0.0000
# 3 16.2311 12.9671 33.1060 0.0000 0.0000 0.0000
# 4 0.0000 0.0000 0.0000 -53.0711 0.0000 0.0000
# 5 0.0000 0.0000 0.0000 0.0000 -12.4637 0.0000
# 6 0.0000 0.0000 0.0000 0.0000 0.0000 34.0284
#
#
#
# Elastic Compliance Matrix: (Units=1/GPa)
#
#
# Indices 1 2 3 4 5 6 
#
# 1 0.007913 -0.001993 -0.003099 0.000000 0.000000 0.000000
# 2 -0.001993 0.008007 -0.002159 0.000000 0.000000 0.000000
# 3 -0.003099 -0.002159 0.032571 0.000000 0.000000 0.000000
# 4 0.000000 0.000000 0.000000 -0.018843 0.000000 0.000000
# 5 0.000000 0.000000 0.000000 0.000000 -0.080233 0.000000
# 6 0.000000 0.000000 0.000000 0.000000 0.000000 0.029387
#
#
# Mechanical properties :
#
#
# Convention : Reuss Voigt Hill
#
# Bulk Modulus (GPa) = 29.42126 50.27094 39.84610
# Shear Modulus (GPa) = 1078.97261 10.03876 544.50568
#
# Velocity S-wave (km/s) = 22.93500 2.21225 16.29277
# Velocity P-wave (km/s) = 26.75249 5.57074 19.32264
#
# Compressibility (1/GPa) = 0.03398903
#
# Stress axis : x y z
#
# Youngs Moduli (GPa) = 126.38197 124.88558 30.70217
#
# Poissons Ratio (x) = 0.24888 0.09514
# Poissons Ratio (y) = 0.25186 0.06630
# Poissons Ratio (z) = 0.39163 0.26967
#
# Static dielectric constant tensor:
#      x y z
#    x 1.720080 0.000000 0.000000 
#    y 0.000000 1.766720 0.000000 
#    z 0.000000 0.000000 1.709600 
# 
# From -- ./inp_files/27701.got.cif
#   From: 2010.05.17/outbox.cif.g08.bks.cpg/sg54_14_cif.got.tgz:27701.got - 2010.06.03 13:09:01.
