data_PCOD9421886
_publ_section_title
;
Structure prediction by ZEFSAII (Michael W. Deem and Ramdas Pophale) SiO2 
 PCOD9421886
Probable space group: P C C A
;
_chemical_formula_sum "Si O2"
_cell_formula_units_Z 40
_cell_length_a 9.621960
_cell_length_b 8.641210
_cell_length_c 22.432795
_cell_angle_alpha 90.000000
_cell_angle_beta 90.000000
_cell_angle_gamma 90.000000
_cell_volume 1865.183197
_symmetry_space_group_name_H-M "P C C A"
_symmetry_group_IT_number 54
_symmetry_cell_setting 'orthorhombic'
loop_
_space_group_symop_operation_xyz
x,y,z
1/2-x,-y,z
1/2+x,-y,1/2-z
-x,y,1/2-z
-x,-y,-z
1/2+x,y,-z
1/2-x,y,1/2+z
x,-y,1/2+z
loop_
_atom_site_type_symbol
_atom_site_label
_atom_site_fract_x
_atom_site_fract_y
_atom_site_fract_z
Si Si1 0.750000 0.500000 0.353151
Si Si2 0.323016 0.834886 0.502817
Si Si3 0.348533 0.223253 0.227451
Si Si4 0.421241 0.300689 0.567720
Si Si5 0.250000 0.000000 0.324997
Si Si6 0.949808 0.018453 0.878382
O O1 0.780075 0.641751 0.309931
O O2 0.618799 0.546490 0.395442
O O3 0.196897 0.720675 0.517854
O O4 0.429817 0.743987 0.460069
O O5 0.410032 0.883355 0.562643
O O6 0.250000 0.000000 0.485406
O O7 0.500000 0.278335 0.250000
O O8 0.385648 0.089346 0.180654
O O9 0.260827 0.149432 0.281433
O O10 0.394313 0.152906 0.610176
O O11 0.112644 0.994291 0.364626
#
# Coordination Sequence:
#
# PCOD9421886 Si02
#       6
#     4   8   8   8   4   8
#     4  12  24  42  62  88 134 184 208 256 334 394
#     4  10  21  40  66  97 124 165 213 273 321 380
#     4  10  22  41  62  88 127 164 215 265 315 383
#     4  11  24  38  68  92 134 167 212 262 325 392
#     4  10  22  36  68  98 116 158 218 282 314 370
#     4  10  20  39  65  93 123 158 214 274 321 366
#
# _framework density 21.445613000000002
#
# number of rings (size 3 to 8) (size 9 to 14) (size 15 to 20)
#    0.000    1.600    2.000    3.600    5.600    2.400 
#    0.000    0.000    0.000    0.000    0.000    0.000 
#    0.000    0.000    0.000    0.000    0.000    0.000 
#
# Total GULP energy -223287.934456 kJ/mol
# GULP energy per Si atom -5582.198361 kJ/mol
# Density = 2.139680 g / cm^3
# Si number density = 21.445613 Si / 1000 Ang^3
#
#
#
# Elastic Constant Matrix: (Units=GPa)
#
#
# Indices 1 2 3 4 5 6 
#
# 1 138.7147 21.2986 48.1467 0.0000 0.0000 0.0000
# 2 21.2986 33.1743 14.5663 0.0000 0.0000 0.0000
# 3 48.1467 14.5663 83.5571 0.0000 0.0000 0.0000
# 4 0.0000 0.0000 0.0000 3.7242 0.0000 0.0000
# 5 0.0000 0.0000 0.0000 0.0000 34.0838 0.0000
# 6 0.0000 0.0000 0.0000 0.0000 0.0000 19.9710
#
#
#
# Elastic Compliance Matrix: (Units=1/GPa)
#
#
# Indices 1 2 3 4 5 6 
#
# 1 0.009475 -0.003992 -0.004764 0.000000 0.000000 0.000000
# 2 -0.003992 0.034324 -0.003684 0.000000 0.000000 0.000000
# 3 -0.004764 -0.003684 0.015355 0.000000 0.000000 0.000000
# 4 0.000000 0.000000 0.000000 0.268517 0.000000 0.000000
# 5 0.000000 0.000000 0.000000 0.000000 0.029339 0.000000
# 6 0.000000 0.000000 0.000000 0.000000 0.000000 0.050073
#
#
# Mechanical properties :
#
#
# Convention : Reuss Voigt Hill
#
# Bulk Modulus (GPa) = 29.17492 47.05216 38.11354
# Shear Modulus (GPa) = 11.27682 22.98476 17.13079
#
# Velocity S-wave (km/s) = 2.29559 3.27734 2.82937
# Velocity P-wave (km/s) = 4.54533 6.02571 5.33709
#
# Compressibility (1/GPa) = 0.03427602
#
# Stress axis : x y z
#
# Youngs Moduli (GPa) = 105.53538 29.13418 65.12486
#
# Poissons Ratio (x) = 0.11629 0.31026
# Poissons Ratio (y) = 0.42126 0.23989
# Poissons Ratio (z) = 0.50278 0.10732
#
# Static dielectric constant tensor:
#      x y z
#    x 1.866070 0.000000 0.000000 
#    y 0.000000 1.768470 0.000000 
#    z 0.000000 0.000000 1.818940 
# 
# From -- ./inp_files/23293.got.cif
#   From: 2010.05.17/outbox.cif.g08.bks.cpg/sg54_12_cif.got.tgz:23293.got - 2010.06.03 13:09:01.
