data_PCOD9421480
_publ_section_title
;
Structure prediction by ZEFSAII (Michael W. Deem and Ramdas Pophale) SiO2 
 PCOD9421480
Probable space group: P C C A
;
_chemical_formula_sum "Si O2"
_cell_formula_units_Z 56
_cell_length_a 16.462108
_cell_length_b 8.534045
_cell_length_c 17.707878
_cell_angle_alpha 90.000000
_cell_angle_beta 90.000000
_cell_angle_gamma 90.000000
_cell_volume 2487.750925
_symmetry_space_group_name_H-M "P C C A"
_symmetry_group_IT_number 54
_symmetry_cell_setting 'orthorhombic'
loop_
_space_group_symop_operation_xyz
x,y,z
1/2-x,-y,z
1/2+x,-y,1/2-z
-x,y,1/2-z
-x,-y,-z
1/2+x,y,-z
1/2-x,y,1/2+z
x,-y,1/2+z
loop_
_atom_site_type_symbol
_atom_site_label
_atom_site_fract_x
_atom_site_fract_y
_atom_site_fract_z
Si Si1 0.552213 0.649062 0.325650
Si Si2 0.517199 0.298920 0.378127
Si Si3 0.221256 0.329025 0.259512
Si Si4 0.479429 0.824147 0.469305
Si Si5 0.077910 0.059473 0.792787
Si Si6 0.679120 0.888435 0.841238
Si Si7 0.179586 0.120504 0.404938
O O1 0.500000 0.660901 0.250000
O O2 0.541661 0.473428 0.357674
O O3 0.640534 0.669035 0.290518
O O4 0.524262 0.769024 0.391902
O O5 0.487054 0.285929 0.463485
O O6 0.449891 0.233014 0.318875
O O7 0.593634 0.174811 0.374647
O O8 0.250000 0.500000 0.283124
O O9 0.283449 0.263433 0.197770
O O10 0.213138 0.228884 0.337148
O O11 0.380722 0.792599 0.463019
O O12 0.500000 0.000000 0.500000
O O13 0.149620 0.024502 0.734628
O O14 0.000000 0.995066 0.750000
O O15 0.107862 0.983164 0.868498
O O16 0.750000 0.000000 0.876931
O O17 0.250000 0.000000 0.430977
#
# Coordination Sequence:
#
# PCOD9421480 Si02
#       7
#     8   8   8   8   8   8   8
#     4  12  26  46  76 105 142 192 251 304 364 456
#     4  11  25  45  67 101 146 192 238 297 384 443
#     4  12  24  42  70 107 141 177 250 306 367 428
#     4  12  28  48  71 106 148 194 244 304 374 451
#     4  10  20  35  69  97 133 178 241 291 357 424
#     4  11  21  38  68 101 135 185 238 304 358 433
#     4  12  24  44  69 103 142 189 244 307 370 433
#
# _framework density 22.510293000000001
#
# number of rings (size 3 to 8) (size 9 to 14) (size 15 to 20)
#    0.000    0.571    7.143    1.714    4.000    0.571 
#    0.000    0.000    0.000    0.000    0.000    0.000 
#    0.000    0.000    0.000    0.000    0.000    0.000 
#
# Total GULP energy -312061.848886 kJ/mol
# GULP energy per Si atom -5572.533016 kJ/mol
# Density = 2.245906 g / cm^3
# Si number density = 22.510293 Si / 1000 Ang^3
#
#
#
# Elastic Constant Matrix: (Units=GPa)
#
#
# Indices 1 2 3 4 5 6 
#
# 1 83.6894 16.3514 12.2788 0.0000 0.0000 0.0000
# 2 16.3514 105.6209 31.3267 0.0000 0.0000 0.0000
# 3 12.2788 31.3267 120.1117 0.0000 0.0000 0.0000
# 4 0.0000 0.0000 0.0000 30.3287 0.0000 0.0000
# 5 0.0000 0.0000 0.0000 0.0000 20.6286 0.0000
# 6 0.0000 0.0000 0.0000 0.0000 0.0000 35.1292
#
#
#
# Elastic Compliance Matrix: (Units=1/GPa)
#
#
# Indices 1 2 3 4 5 6 
#
# 1 0.012398 -0.001673 -0.000831 0.000000 0.000000 0.000000
# 2 -0.001673 0.010487 -0.002564 0.000000 0.000000 0.000000
# 3 -0.000831 -0.002564 0.009079 0.000000 0.000000 0.000000
# 4 0.000000 0.000000 0.000000 0.032972 0.000000 0.000000
# 5 0.000000 0.000000 0.000000 0.000000 0.048476 0.000000
# 6 0.000000 0.000000 0.000000 0.000000 0.000000 0.028466
#
#
# Mechanical properties :
#
#
# Convention : Reuss Voigt Hill
#
# Bulk Modulus (GPa) = 45.81250 47.70396 46.75823
# Shear Modulus (GPa) = 31.38901 33.84831 32.61866
#
# Velocity S-wave (km/s) = 3.73826 3.88194 3.81078
# Velocity P-wave (km/s) = 6.24730 6.42889 6.33875
#
# Compressibility (1/GPa) = 0.02182810
#
# Stress axis : x y z
#
# Youngs Moduli (GPa) = 80.65995 95.35311 110.14034
#
# Poissons Ratio (x) = 0.15951 0.09154
# Poissons Ratio (y) = 0.13493 0.28242
# Poissons Ratio (z) = 0.06704 0.24451
#
# Static dielectric constant tensor:
#      x y z
#    x 1.698310 0.000000 0.000000 
#    y 0.000000 1.992500 0.000000 
#    z 0.000000 0.000000 1.889380 
# 
# From -- ./inp_files/21604.got.cif
#   From: 2010.05.17/outbox.cif.g08.bks.cpg/sg54_11_cif.got.tgz:21604.got - 2010.06.03 13:09:01.
