data_PCOD9421061
_publ_section_title
;
Structure prediction by ZEFSAII (Michael W. Deem and Ramdas Pophale) SiO2 
 PCOD9421061
Probable space group: P C C A
;
_chemical_formula_sum "Si O2"
_cell_formula_units_Z 64
_cell_length_a 9.356743
_cell_length_b 10.712197
_cell_length_c 30.911719
_cell_angle_alpha 90.000000
_cell_angle_beta 90.000000
_cell_angle_gamma 90.000000
_cell_volume 3098.320986
_symmetry_space_group_name_H-M "P C C A"
_symmetry_group_IT_number 54
_symmetry_cell_setting 'orthorhombic'
loop_
_space_group_symop_operation_xyz
x,y,z
1/2-x,-y,z
1/2+x,-y,1/2-z
-x,y,1/2-z
-x,-y,-z
1/2+x,y,-z
1/2-x,y,1/2+z
x,-y,1/2+z
loop_
_atom_site_type_symbol
_atom_site_label
_atom_site_fract_x
_atom_site_fract_y
_atom_site_fract_z
Si Si1 0.100057 0.544607 0.351982
Si Si2 0.020195 0.339996 0.418629
Si Si3 0.444150 0.052008 0.115831
Si Si4 0.897043 0.255609 0.498920
Si Si5 0.681471 0.204640 0.854499
Si Si6 0.113743 0.581077 0.712497
Si Si7 0.356195 0.095430 0.017912
Si Si8 0.819102 0.776824 0.096227
O O1 0.250000 0.500000 0.331953
O O2 0.075668 0.463857 0.395588
O O3 0.127368 0.684232 0.366494
O O4 0.970265 0.508267 0.321413
O O5 0.150035 0.241123 0.410973
O O6 0.973746 0.354550 0.468201
O O7 0.882525 0.288753 0.393158
O O8 0.343238 0.158341 0.137703
O O9 0.387960 0.049282 0.066214
O O10 0.607692 0.093618 0.109670
O O11 0.410120 0.924149 0.140968
O O12 0.741435 0.220184 0.481114
O O13 0.884944 0.269568 0.550261
O O14 0.000926 0.134847 0.493901
O O15 0.658519 0.291322 0.812455
O O16 0.250000 0.500000 0.726966
O O17 0.000000 0.609270 0.750000
O O18 0.250000 0.000000 0.994120
#
# Coordination Sequence:
#
# PCOD9421061 Si02
#       8
#     8   8   8   8   8   8   8   8
#     4   9  20  39  61  83 116 152 195 245 298 353
#     4  10  19  35  52  76 113 154 207 254 295 341
#     4  10  19  35  58  81 118 156 196 242 287 345
#     4  11  20  31  47  73 111 158 207 256 296 328
#     4  10  20  37  61  86 115 153 187 236 292 347
#     4  11  23  41  70  99 118 143 182 231 289 361
#     4  11  19  31  46  71 109 156 206 251 287 334
#     4  10  21  34  52  81 114 161 206 248 299 344
#
# _framework density 20.656348000000001
#
# number of rings (size 3 to 8) (size 9 to 14) (size 15 to 20)
#    0.000    1.750    3.750    1.500    0.000    2.000 
#    0.000    0.000    0.000   15.750    0.000    0.000 
#    0.000    0.000    0.000    0.000    0.000    0.000 
#
# Total GULP energy -356798.720871 kJ/mol
# GULP energy per Si atom -5574.980014 kJ/mol
# Density = 2.060933 g / cm^3
# Si number density = 20.656348 Si / 1000 Ang^3
#
#
#
# Elastic Constant Matrix: (Units=GPa)
#
#
# Indices 1 2 3 4 5 6 
#
# 1 91.4828 22.1156 26.0774 0.0000 0.0000 0.0000
# 2 22.1156 42.2744 26.7186 0.0000 0.0000 0.0000
# 3 26.0774 26.7186 86.4737 0.0000 0.0000 0.0000
# 4 0.0000 0.0000 0.0000 9.3400 0.0000 0.0000
# 5 0.0000 0.0000 0.0000 0.0000 21.4924 0.0000
# 6 0.0000 0.0000 0.0000 0.0000 0.0000 28.1299
#
#
#
# Elastic Compliance Matrix: (Units=1/GPa)
#
#
# Indices 1 2 3 4 5 6 
#
# 1 0.012852 -0.005311 -0.002235 0.000000 0.000000 0.000000
# 2 -0.005311 0.031590 -0.008159 0.000000 0.000000 0.000000
# 3 -0.002235 -0.008159 0.014759 0.000000 0.000000 0.000000
# 4 0.000000 0.000000 0.000000 0.107067 0.000000 0.000000
# 5 0.000000 0.000000 0.000000 0.000000 0.046528 0.000000
# 6 0.000000 0.000000 0.000000 0.000000 0.000000 0.035549
#
#
# Mechanical properties :
#
#
# Convention : Reuss Voigt Hill
#
# Bulk Modulus (GPa) = 35.98208 41.11710 38.54959
# Shear Modulus (GPa) = 17.29992 21.48043 19.39017
#
# Velocity S-wave (km/s) = 2.89712 3.22824 3.06715
# Velocity P-wave (km/s) = 5.35241 5.81755 5.58982
#
# Compressibility (1/GPa) = 0.02779161
#
# Stress axis : x y z
#
# Youngs Moduli (GPa) = 77.80929 31.65541 67.75481
#
# Poissons Ratio (x) = 0.16812 0.15141
# Poissons Ratio (y) = 0.41325 0.55282
# Poissons Ratio (z) = 0.17388 0.25828
#
# Static dielectric constant tensor:
#      x y z
#    x 1.792760 0.000000 0.000000 
#    y 0.000000 1.814530 0.000000 
#    z 0.000000 0.000000 1.715390 
# 
# From -- ./inp_files/27944.got.cif
#   From: 2010.05.17/outbox.cif.g08.bks.cpg/sg54_14_cif.got.tgz:27944.got - 2010.06.03 13:09:01.
