data_PCOD9421629
_publ_section_title
;
Structure prediction by ZEFSAII (Michael W. Deem and Ramdas Pophale) SiO2 
 PCOD9421629
Probable space group: P C C A
;
_chemical_formula_sum "Si O2"
_cell_formula_units_Z 32
_cell_length_a 19.438319
_cell_length_b 7.880619
_cell_length_c 8.183907
_cell_angle_alpha 90.000000
_cell_angle_beta 90.000000
_cell_angle_gamma 90.000000
_cell_volume 1253.659863
_symmetry_space_group_name_H-M "P C C A"
_symmetry_group_IT_number 54
_symmetry_cell_setting 'orthorhombic'
loop_
_space_group_symop_operation_xyz
x,y,z
1/2-x,-y,z
1/2+x,-y,1/2-z
-x,y,1/2-z
-x,-y,-z
1/2+x,y,-z
1/2-x,y,1/2+z
x,-y,1/2+z
loop_
_atom_site_type_symbol
_atom_site_label
_atom_site_fract_x
_atom_site_fract_y
_atom_site_fract_z
Si Si1 0.518547 0.194672 0.499707
Si Si2 0.604930 0.674841 0.310471
Si Si3 0.141035 0.277844 0.696376
Si Si4 0.733702 0.294807 0.996072
O O1 0.448504 0.299299 0.537885
O O2 0.566719 0.252208 0.652573
O O3 0.566016 0.208426 0.339709
O O4 0.500000 0.000000 0.500000
O O5 0.623713 0.477891 0.293864
O O6 0.679669 0.748837 0.351734
O O7 0.191565 0.226275 0.547109
O O8 0.189249 0.239839 0.849502
O O9 0.750000 0.500000 0.007064
#
# Coordination Sequence:
#
# PCOD9421629 Si02
#       4
#     8   8   8   8
#     4  11  25  43  64  98 143 185 228 283 343 412
#     4  10  22  41  65  97 133 178 229 283 344 410
#     4  11  21  40  70 103 135 175 225 282 342 412
#     4  10  20  36  67 104 134 168 224 288 341 400
#
# _framework density 25.525265999999998
#
# number of rings (size 3 to 8) (size 9 to 14) (size 15 to 20)
#    0.000    1.500    0.000    7.500    0.000    7.000 
#    0.000    1.250    0.000   21.000    0.000    0.000 
#    0.000    0.000    0.000    0.000    0.000    0.000 
#
# Total GULP energy -178804.043948 kJ/mol
# GULP energy per Si atom -5587.626373 kJ/mol
# Density = 2.546717 g / cm^3
# Si number density = 25.525266 Si / 1000 Ang^3
#
#
#
# Elastic Constant Matrix: (Units=GPa)
#
#
# Indices 1 2 3 4 5 6 
#
# 1 215.4089 24.4875 63.7079 0.0000 0.0000 0.0000
# 2 24.4875 41.2070 28.5960 0.0000 0.0000 0.0000
# 3 63.7079 28.5960 90.7930 0.0000 0.0000 0.0000
# 4 0.0000 0.0000 0.0000 17.7745 0.0000 0.0000
# 5 0.0000 0.0000 0.0000 0.0000 46.9072 0.0000
# 6 0.0000 0.0000 0.0000 0.0000 0.0000 -50.0127
#
#
#
# Elastic Compliance Matrix: (Units=1/GPa)
#
#
# Indices 1 2 3 4 5 6 
#
# 1 0.005879 -0.000807 -0.003871 0.000000 0.000000 0.000000
# 2 -0.000807 0.031166 -0.009250 0.000000 0.000000 0.000000
# 3 -0.003871 -0.009250 0.016643 0.000000 0.000000 0.000000
# 4 0.000000 0.000000 0.000000 0.056260 0.000000 0.000000
# 5 0.000000 0.000000 0.000000 0.000000 0.021319 0.000000
# 6 0.000000 0.000000 0.000000 0.000000 0.000000 -0.019995
#
#
# Mechanical properties :
#
#
# Convention : Reuss Voigt Hill
#
# Bulk Modulus (GPa) = 38.71010 64.55467 51.63239
# Shear Modulus (GPa) = 33.84338 18.30831 26.07585
#
# Velocity S-wave (km/s) = 3.64521 2.68108 3.19967
# Velocity P-wave (km/s) = 5.73717 5.91013 5.82429
#
# Compressibility (1/GPa) = 0.02583305
#
# Stress axis : x y z
#
# Youngs Moduli (GPa) = 170.09878 32.08591 60.08382
#
# Poissons Ratio (x) = 0.02591 0.23258
# Poissons Ratio (y) = 0.13733 0.55575
# Poissons Ratio (z) = 0.65843 0.29678
#
# Static dielectric constant tensor:
#      x y z
#    x 1.950310 0.000000 0.000000 
#    y 0.000000 1.949850 0.000000 
#    z 0.000000 0.000000 2.307700 
# 
# From -- ./inp_files/3324.got.cif
#   From: 2010.05.17/outbox.cif.g08.bks.cpg/sg54_2_cif.got.tgz:3324.got - 2010.06.03 13:09:01.
