data_PCOD9421454
_publ_section_title
;
Structure prediction by ZEFSAII (Michael W. Deem and Ramdas Pophale) SiO2 
 PCOD9421454
Probable space group: P C C A
;
_chemical_formula_sum "Si O2"
_cell_formula_units_Z 48
_cell_length_a 9.831199
_cell_length_b 14.977391
_cell_length_c 15.765428
_cell_angle_alpha 90.000000
_cell_angle_beta 90.000000
_cell_angle_gamma 90.000000
_cell_volume 2321.391662
_symmetry_space_group_name_H-M "P C C A"
_symmetry_group_IT_number 54
_symmetry_cell_setting 'orthorhombic'
loop_
_space_group_symop_operation_xyz
x,y,z
1/2-x,-y,z
1/2+x,-y,1/2-z
-x,y,1/2-z
-x,-y,-z
1/2+x,y,-z
1/2-x,y,1/2+z
x,-y,1/2+z
loop_
_atom_site_type_symbol
_atom_site_label
_atom_site_fract_x
_atom_site_fract_y
_atom_site_fract_z
Si Si1 0.632144 0.060892 0.507521
Si Si2 0.774390 0.819461 0.359577
Si Si3 0.300129 0.727734 0.801579
Si Si4 0.530125 0.233579 0.608688
Si Si5 0.519204 0.317248 0.436155
Si Si6 0.113289 0.552660 0.192123
O O1 0.684667 0.095704 0.415618
O O2 0.597989 0.147540 0.563070
O O3 0.750000 0.000000 0.546283
O O4 0.500000 0.000000 0.500000
O O5 0.825226 0.809679 0.262982
O O6 0.613740 0.800806 0.357043
O O7 0.847333 0.739073 0.410524
O O8 0.142952 0.728158 0.828191
O O9 0.393945 0.727740 0.885027
O O10 0.344229 0.639859 0.748555
O O11 0.499923 0.306439 0.535539
O O12 0.544411 0.413173 0.394498
O O13 0.250000 0.500000 0.175936
O O14 0.000000 0.504401 0.250000
#
# Coordination Sequence:
#
# PCOD9421454 Si02
#       6
#     8   8   8   8   8   8
#     4  11  22  39  59  83 118 157 191 241 301 349
#     4  10  20  35  58  84 114 149 197 235 288 352
#     4  10  21  38  60  87 117 153 200 244 293 355
#     4  11  21  36  63  85 114 152 199 242 294 358
#     4   9  19  36  58  85 111 152 197 234 290 350
#     4   9  19  36  58  86 121 157 194 244 302 352
#
# _framework density 20.677250999999998
#
# number of rings (size 3 to 8) (size 9 to 14) (size 15 to 20)
#    0.000    2.000    1.667    4.000    2.333    2.667 
#    0.000    1.667    3.667    8.000    0.000    0.000 
#    0.000    0.000    0.000    0.000    0.000    0.000 
#
# Total GULP energy -267780.439765 kJ/mol
# GULP energy per Si atom -5578.759162 kJ/mol
# Density = 2.063019 g / cm^3
# Si number density = 20.677251 Si / 1000 Ang^3
#
#
#
# Elastic Constant Matrix: (Units=GPa)
#
#
# Indices 1 2 3 4 5 6 
#
# 1 136.2895 12.0839 16.9187 0.0000 0.0000 0.0000
# 2 12.0839 21.4583 7.5779 0.0000 0.0000 0.0000
# 3 16.9187 7.5779 77.4889 0.0000 0.0000 0.0000
# 4 0.0000 0.0000 0.0000 4.1322 0.0000 0.0000
# 5 0.0000 0.0000 0.0000 0.0000 30.5334 0.0000
# 6 0.0000 0.0000 0.0000 0.0000 0.0000 38.5950
#
#
#
# Elastic Compliance Matrix: (Units=1/GPa)
#
#
# Indices 1 2 3 4 5 6 
#
# 1 0.007853 -0.003953 -0.001328 0.000000 0.000000 0.000000
# 2 -0.003953 0.050259 -0.004052 0.000000 0.000000 0.000000
# 3 -0.001328 -0.004052 0.013591 0.000000 0.000000 0.000000
# 4 0.000000 0.000000 0.000000 0.242003 0.000000 0.000000
# 5 0.000000 0.000000 0.000000 0.000000 0.032751 0.000000
# 6 0.000000 0.000000 0.000000 0.000000 0.000000 0.025910
#
#
# Mechanical properties :
#
#
# Convention : Reuss Voigt Hill
#
# Bulk Modulus (GPa) = 18.85476 34.26643 26.56059
# Shear Modulus (GPa) = 12.23354 27.89585 20.06470
#
# Velocity S-wave (km/s) = 2.43501 3.67701 3.11846
# Velocity P-wave (km/s) = 4.12845 5.88517 5.08327
#
# Compressibility (1/GPa) = 0.05303702
#
# Stress axis : x y z
#
# Youngs Moduli (GPa) = 127.34513 19.89691 73.57669
#
# Poissons Ratio (x) = 0.07866 0.09771
# Poissons Ratio (y) = 0.50342 0.29812
# Poissons Ratio (z) = 0.16911 0.08062
#
# Static dielectric constant tensor:
#      x y z
#    x 1.735260 0.000000 0.000000 
#    y 0.000000 1.742780 0.000000 
#    z 0.000000 0.000000 1.773630 
# 
# From -- ./inp_files/11699.got.cif
#   From: 2010.05.17/outbox.cif.g08.bks.cpg/sg54_6_cif.got.tgz:11699.got - 2010.06.03 13:09:01.
