data_PCOD9421947
_publ_section_title
;
Structure prediction by ZEFSAII (Michael W. Deem and Ramdas Pophale) SiO2 
 PCOD9421947
Probable space group: P C C A
;
_chemical_formula_sum "Si O2"
_cell_formula_units_Z 40
_cell_length_a 12.181895
_cell_length_b 7.755938
_cell_length_c 17.813710
_cell_angle_alpha 90.000000
_cell_angle_beta 90.000000
_cell_angle_gamma 90.000000
_cell_volume 1683.075346
_symmetry_space_group_name_H-M "P C C A"
_symmetry_group_IT_number 54
_symmetry_cell_setting 'orthorhombic'
loop_
_space_group_symop_operation_xyz
x,y,z
1/2-x,-y,z
1/2+x,-y,1/2-z
-x,y,1/2-z
-x,-y,-z
1/2+x,y,-z
1/2-x,y,1/2+z
x,-y,1/2+z
loop_
_atom_site_type_symbol
_atom_site_label
_atom_site_fract_x
_atom_site_fract_y
_atom_site_fract_z
Si Si1 0.702780 0.812940 0.124682
Si Si2 0.250000 0.500000 0.765628
Si Si3 0.518907 0.717558 0.426515
Si Si4 0.483491 0.682272 0.590636
Si Si5 0.750698 0.793914 0.952354
Si Si6 0.000000 0.372766 0.750000
O O1 0.733797 0.670621 0.184595
O O2 0.570969 0.824655 0.116848
O O3 0.750000 0.000000 0.140219
O O4 0.743267 0.751745 0.041420
O O5 0.380549 0.528651 0.735998
O O6 0.521645 0.773933 0.514322
O O7 0.483293 0.518325 0.418999
O O8 0.644495 0.732523 0.406271
O O9 0.353981 0.706783 0.584111
O O10 0.518714 0.733196 0.673438
O O11 0.750000 0.000000 0.948189
#
# Coordination Sequence:
#
# PCOD9421947 Si02
#       6
#     8   4   8   8   8   4
#     4  10  23  42  68  99 135 177 223 288 348 413
#     4  12  26  46  68  98 138 188 232 278 350 416
#     4  10  20  40  65  98 127 170 226 286 347 401
#     4  10  22  38  65  94 128 177 221 282 335 411
#     4  10  22  36  65 102 133 168 224 289 347 405
#     4  12  26  42  68  98 134 186 236 276 336 436
#
# _framework density 23.766017999999999
#
# number of rings (size 3 to 8) (size 9 to 14) (size 15 to 20)
#    0.000    1.600    2.000    1.800    8.400    8.800 
#    0.000    2.000    0.000    1.200    0.000    0.000 
#    0.000    0.000    0.000    0.000    0.000    0.000 
#
# Total GULP energy -223141.595734 kJ/mol
# GULP energy per Si atom -5578.539893 kJ/mol
# Density = 2.371193 g / cm^3
# Si number density = 23.766018 Si / 1000 Ang^3
#
#
#
# Elastic Constant Matrix: (Units=GPa)
#
#
# Indices 1 2 3 4 5 6 
#
# 1 162.2873 -2.5757 -8.8173 0.0000 0.0000 0.0000
# 2 -2.5757 70.1048 18.5834 0.0000 0.0000 0.0000
# 3 -8.8173 18.5834 72.1091 0.0000 0.0000 0.0000
# 4 0.0000 0.0000 0.0000 21.6749 0.0000 0.0000
# 5 0.0000 0.0000 0.0000 0.0000 -60.2920 0.0000
# 6 0.0000 0.0000 0.0000 0.0000 0.0000 33.2656
#
#
#
# Elastic Compliance Matrix: (Units=1/GPa)
#
#
# Indices 1 2 3 4 5 6 
#
# 1 0.006203 0.000029 0.000751 0.000000 0.000000 0.000000
# 2 0.000029 0.015310 -0.003942 0.000000 0.000000 0.000000
# 3 0.000751 -0.003942 0.014976 0.000000 0.000000 0.000000
# 4 0.000000 0.000000 0.000000 0.046136 0.000000 0.000000
# 5 0.000000 0.000000 0.000000 0.000000 -0.016586 0.000000
# 6 0.000000 0.000000 0.000000 0.000000 0.000000 0.030061
#
#
# Mechanical properties :
#
#
# Convention : Reuss Voigt Hill
#
# Bulk Modulus (GPa) = 33.15132 35.43134 34.29133
# Shear Modulus (GPa) = 44.45233 18.75043 31.60138
#
# Velocity S-wave (km/s) = 4.32952 2.81189 3.65044
# Velocity P-wave (km/s) = 6.24278 5.04808 5.67695
#
# Compressibility (1/GPa) = 0.03016471
#
# Stress axis : x y z
#
# Youngs Moduli (GPa) = 161.20776 65.31509 66.77505
#
# Poissons Ratio (x) = -0.00188 -0.05015
# Poissons Ratio (y) = -0.00464 0.26324
# Poissons Ratio (z) = -0.12108 0.25748
#
# Static dielectric constant tensor:
#      x y z
#    x 3.470770 0.000000 0.000000 
#    y 0.000000 1.901360 0.000000 
#    z 0.000000 0.000000 1.949260 
# 
# From -- ./inp_files/17137.got.cif
#   From: 2010.05.17/outbox.cif.g08.bks.cpg/sg54_9_cif.got.tgz:17137.got - 2010.06.03 13:09:01.
