data_PCOD9421862
_publ_section_title
;
Structure prediction by ZEFSAII (Michael W. Deem and Ramdas Pophale) SiO2 
 PCOD9421862
Probable space group: P C C A
;
_chemical_formula_sum "Si O2"
_cell_formula_units_Z 40
_cell_length_a 28.011723
_cell_length_b 4.763955
_cell_length_c 11.313696
_cell_angle_alpha 90.000000
_cell_angle_beta 90.000000
_cell_angle_gamma 90.000000
_cell_volume 1509.774127
_symmetry_space_group_name_H-M "P C C A"
_symmetry_group_IT_number 54
_symmetry_cell_setting 'orthorhombic'
loop_
_space_group_symop_operation_xyz
x,y,z
1/2-x,-y,z
1/2+x,-y,1/2-z
-x,y,1/2-z
-x,-y,-z
1/2+x,y,-z
1/2-x,y,1/2+z
x,-y,1/2+z
loop_
_atom_site_type_symbol
_atom_site_label
_atom_site_fract_x
_atom_site_fract_y
_atom_site_fract_z
Si Si1 0.357711 0.529324 0.340455
Si Si2 0.141582 0.028921 0.000332
Si Si3 0.040658 0.796845 0.047568
Si Si4 0.281990 0.748686 0.669973
Si Si5 0.535874 0.493092 0.698873
O O1 0.356603 0.853797 0.377391
O O2 0.314233 0.419126 0.263141
O O3 0.407433 0.479578 0.272083
O O4 0.355790 0.350439 0.462110
O O5 0.090498 0.958372 0.058717
O O6 0.183982 0.913599 0.079554
O O7 0.020036 0.653332 0.165445
O O8 0.046305 0.574959 0.941165
O O9 0.000000 0.000000 0.000000
O O10 0.250000 0.500000 0.613315
O O11 0.250000 0.000000 0.723961
O O12 0.500000 0.240353 0.750000
#
# Coordination Sequence:
#
# PCOD9421862 Si02
#       5
#     8   8   8   8   8
#     4  11  24  44  67  98 132 172 218 274 328 397
#     4  11  24  44  69  96 135 175 216 272 339 387
#     4  10  20  39  61  94 132 167 214 259 313 405
#     4  12  27  46  68  99 127 172 231 282 334 394
#     4  10  21  38  61  94 132 174 209 257 324 385
#
# _framework density 26.494026999999999
#
# number of rings (size 3 to 8) (size 9 to 14) (size 15 to 20)
#    0.000    1.200    2.000    3.600    0.000    5.600 
#   10.800    0.000    0.000    0.000    0.000    0.000 
#    0.000    0.000    0.000    0.000    0.000    0.000 
#
# Total GULP energy -223511.726549 kJ/mol
# GULP energy per Si atom -5587.793164 kJ/mol
# Density = 2.643373 g / cm^3
# Si number density = 26.494027 Si / 1000 Ang^3
#
#
#
# Elastic Constant Matrix: (Units=GPa)
#
#
# Indices 1 2 3 4 5 6 
#
# 1 172.9594 24.5417 26.8045 0.0000 0.0000 0.0000
# 2 24.5417 93.2304 5.4835 0.0000 0.0000 0.0000
# 3 26.8045 5.4835 106.3981 0.0000 0.0000 0.0000
# 4 0.0000 0.0000 0.0000 37.7721 0.0000 0.0000
# 5 0.0000 0.0000 0.0000 0.0000 42.7612 0.0000
# 6 0.0000 0.0000 0.0000 0.0000 0.0000 35.9068
#
#
#
# Elastic Compliance Matrix: (Units=1/GPa)
#
#
# Indices 1 2 3 4 5 6 
#
# 1 0.006233 -0.001553 -0.001490 0.000000 0.000000 0.000000
# 2 -0.001553 0.011146 -0.000183 0.000000 0.000000 0.000000
# 3 -0.001490 -0.000183 0.009784 0.000000 0.000000 0.000000
# 4 0.000000 0.000000 0.000000 0.026475 0.000000 0.000000
# 5 0.000000 0.000000 0.000000 0.000000 0.023386 0.000000
# 6 0.000000 0.000000 0.000000 0.000000 0.000000 0.027850
#
#
# Mechanical properties :
#
#
# Convention : Reuss Voigt Hill
#
# Bulk Modulus (GPa) = 48.28747 54.02747 51.15747
# Shear Modulus (GPa) = 42.29099 44.33857 43.31478
#
# Velocity S-wave (km/s) = 3.99964 4.09532 4.04776
# Velocity P-wave (km/s) = 6.29244 6.54208 6.41847
#
# Compressibility (1/GPa) = 0.02070931
#
# Stress axis : x y z
#
# Youngs Moduli (GPa) = 160.43565 89.72055 102.21258
#
# Poissons Ratio (x) = 0.13935 0.15232
# Poissons Ratio (y) = 0.24917 0.01872
# Poissons Ratio (z) = 0.23908 0.01643
#
# Static dielectric constant tensor:
#      x y z
#    x 2.119980 0.000000 0.000000 
#    y 0.000000 2.021340 0.000000 
#    z 0.000000 0.000000 2.096120 
# 
# From -- ./inp_files/10121.got.cif
#   From: 2010.05.17/outbox.cif.g08.bks.cpg/sg54_6_cif.got.tgz:10121.got - 2010.06.03 13:09:01.
