data_PCOD9421274
_publ_section_title
;
Structure prediction by ZEFSAII (Michael W. Deem and Ramdas Pophale) SiO2 
 PCOD9421274
Probable space group: P C C A
;
_chemical_formula_sum "Si O2"
_cell_formula_units_Z 64
_cell_length_a 14.367739
_cell_length_b 10.108392
_cell_length_c 20.594766
_cell_angle_alpha 90.000000
_cell_angle_beta 90.000000
_cell_angle_gamma 90.000000
_cell_volume 2991.075443
_symmetry_space_group_name_H-M "P C C A"
_symmetry_group_IT_number 54
_symmetry_cell_setting 'orthorhombic'
loop_
_space_group_symop_operation_xyz
x,y,z
1/2-x,-y,z
1/2+x,-y,1/2-z
-x,y,1/2-z
-x,-y,-z
1/2+x,y,-z
1/2-x,y,1/2+z
x,-y,1/2+z
loop_
_atom_site_type_symbol
_atom_site_label
_atom_site_fract_x
_atom_site_fract_y
_atom_site_fract_z
Si Si1 0.443666 0.392196 0.079680
Si Si2 0.137398 0.338203 0.109596
Si Si3 0.190657 0.831375 0.123096
Si Si4 0.887769 0.356868 0.243494
Si Si5 0.645341 0.000713 0.498905
Si Si6 0.919609 0.363930 0.694196
Si Si7 0.265384 0.849947 0.776005
Si Si8 0.998160 0.789412 0.533367
O O1 0.380790 0.522984 0.074752
O O2 0.386676 0.280359 0.118088
O O3 0.533304 0.401304 0.125544
O O4 0.469384 0.334452 0.010092
O O5 0.220621 0.241257 0.089968
O O6 0.151493 0.370714 0.183914
O O7 0.041459 0.258832 0.100116
O O8 0.154861 0.949794 0.076849
O O9 0.212797 0.861981 0.197826
O O10 0.869417 0.499030 0.212267
O O11 0.828999 0.235597 0.214726
O O12 0.000000 0.337883 0.250000
O O13 0.587339 0.112246 0.536096
O O14 0.750000 0.000000 0.523692
O O15 0.581966 0.870502 0.501590
O O16 0.850461 0.238137 0.695151
O O17 0.000000 0.345088 0.750000
O O18 0.250000 0.000000 0.799940
#
# Coordination Sequence:
#
# PCOD9421274 Si02
#       8
#     8   8   8   8   8   8   8   8
#     4  11  21  38  62  91 122 158 204 253 315 372
#     4  11  19  36  63  92 120 148 205 262 301 353
#     4  10  20  34  64  93 116 153 202 264 310 356
#     4  10  21  40  64  90 124 166 205 255 318 373
#     4  10  19  40  59  81 125 163 198 241 312 374
#     4  11  20  41  64  88 126 169 200 255 322 381
#     4  11  23  36  61  97 122 158 214 263 306 367
#     4  10  23  35  60  94 118 160 202 253 307 370
#
# _framework density 21.396985999999998
#
# number of rings (size 3 to 8) (size 9 to 14) (size 15 to 20)
#    0.000    1.500    5.000    1.500    1.750    2.500 
#    0.000    1.875    0.000    0.000    0.000    0.000 
#    0.000    0.000    0.000    0.000    0.000    0.000 
#
# Total GULP energy -357071.904699 kJ/mol
# GULP energy per Si atom -5579.248511 kJ/mol
# Density = 2.134829 g / cm^3
# Si number density = 21.396986 Si / 1000 Ang^3
#
#
#
# Elastic Constant Matrix: (Units=GPa)
#
#
# Indices 1 2 3 4 5 6 
#
# 1 83.8107 30.8775 -4.2328 0.0000 0.0000 0.0000
# 2 30.8775 120.1214 -1.9107 0.0000 0.0000 0.0000
# 3 -4.2328 -1.9107 17.2308 0.0000 0.0000 0.0000
# 4 0.0000 0.0000 0.0000 4.9057 0.0000 0.0000
# 5 0.0000 0.0000 0.0000 0.0000 18.2886 0.0000
# 6 0.0000 0.0000 0.0000 0.0000 0.0000 31.4340
#
#
#
# Elastic Compliance Matrix: (Units=1/GPa)
#
#
# Indices 1 2 3 4 5 6 
#
# 1 0.013323 -0.003379 0.002898 0.000000 0.000000 0.000000
# 2 -0.003379 0.009196 0.000190 0.000000 0.000000 0.000000
# 3 0.002898 0.000190 0.058769 0.000000 0.000000 0.000000
# 4 0.000000 0.000000 0.000000 0.203844 0.000000 0.000000
# 5 0.000000 0.000000 0.000000 0.000000 0.054679 0.000000
# 6 0.000000 0.000000 0.000000 0.000000 0.000000 0.031813
#
#
# Mechanical properties :
#
#
# Convention : Reuss Voigt Hill
#
# Bulk Modulus (GPa) = 12.39054 30.07009 21.23031
# Shear Modulus (GPa) = 12.52797 24.02091 18.27444
#
# Velocity S-wave (km/s) = 2.42234 3.35420 2.92561
# Velocity P-wave (km/s) = 3.69148 5.39304 4.62125
#
# Compressibility (1/GPa) = 0.08070675
#
# Stress axis : x y z
#
# Youngs Moduli (GPa) = 75.05965 108.73823 17.01584
#
# Poissons Ratio (x) = 0.36738 -0.04931
# Poissons Ratio (y) = 0.25359 -0.00323
# Poissons Ratio (z) = -0.21753 -0.02064
#
# Static dielectric constant tensor:
#      x y z
#    x 1.810840 0.000000 0.000000 
#    y 0.000000 1.816330 0.000000 
#    z 0.000000 0.000000 1.787520 
# 
# From -- ./inp_files/24537.got.cif
#   From: 2010.05.17/outbox.cif.g08.bks.cpg/sg54_13_cif.got.tgz:24537.got - 2010.06.03 13:09:01.
