data_PCOD9421828
_publ_section_title
;
Structure prediction by ZEFSAII (Michael W. Deem and Ramdas Pophale) SiO2 
 PCOD9421828
Probable space group: P C C A
;
_chemical_formula_sum "Si O2"
_cell_formula_units_Z 40
_cell_length_a 15.140005
_cell_length_b 7.405165
_cell_length_c 15.473004
_cell_angle_alpha 90.000000
_cell_angle_beta 90.000000
_cell_angle_gamma 90.000000
_cell_volume 1734.744009
_symmetry_space_group_name_H-M "P C C A"
_symmetry_group_IT_number 54
_symmetry_cell_setting 'orthorhombic'
loop_
_space_group_symop_operation_xyz
x,y,z
1/2-x,-y,z
1/2+x,-y,1/2-z
-x,y,1/2-z
-x,-y,-z
1/2+x,y,-z
1/2-x,y,1/2+z
x,-y,1/2+z
loop_
_atom_site_type_symbol
_atom_site_label
_atom_site_fract_x
_atom_site_fract_y
_atom_site_fract_z
Si Si1 0.979619 0.784175 0.000535
Si Si2 0.243587 0.219518 0.740296
Si Si3 0.568056 0.170466 0.177949
Si Si4 0.222966 0.701803 0.540982
Si Si5 0.143241 0.799560 0.898646
O O1 0.056606 0.706701 0.939826
O O2 0.982819 0.728869 0.101038
O O3 0.880340 0.744298 0.970784
O O4 0.000000 0.000000 0.000000
O O5 0.147350 0.273018 0.775564
O O6 0.256436 0.275922 0.642001
O O7 0.313042 0.284369 0.812850
O O8 0.250000 0.000000 0.738262
O O9 0.500000 0.106843 0.250000
O O10 0.613765 0.997747 0.133452
O O11 0.250000 0.500000 0.515437
O O12 0.285328 0.813272 0.475596
#
# Coordination Sequence:
#
# PCOD9421828 Si02
#       5
#     8   8   8   8   8
#     4  10  23  39  72  99 134 177 241 294 357 425
#     4  10  23  38  70  99 135 177 241 300 360 427
#     4  10  20  38  67 110 130 171 236 303 354 420
#     4  12  27  45  67 101 146 194 234 295 376 446
#     4  10  23  41  67  97 139 180 233 297 364 425
#
# _framework density 23.058157999999999
#
# number of rings (size 3 to 8) (size 9 to 14) (size 15 to 20)
#    0.000    1.600    2.000    1.200   19.600    1.600 
#    0.000    0.000    4.400    0.000    0.000    0.000 
#    0.000    0.000    0.000    0.000    0.000    0.000 
#
# Total GULP energy -223440.451082 kJ/mol
# GULP energy per Si atom -5586.011277 kJ/mol
# Density = 2.300568 g / cm^3
# Si number density = 23.058158 Si / 1000 Ang^3
#
#
#
# Elastic Constant Matrix: (Units=GPa)
#
#
# Indices 1 2 3 4 5 6 
#
# 1 187.8464 39.1940 95.9716 0.0000 0.0000 0.0000
# 2 39.1940 69.0753 20.7892 0.0000 0.0000 0.0000
# 3 95.9716 20.7892 211.9858 0.0000 0.0000 0.0000
# 4 0.0000 0.0000 0.0000 44.2148 0.0000 0.0000
# 5 0.0000 0.0000 0.0000 0.0000 54.7654 0.0000
# 6 0.0000 0.0000 0.0000 0.0000 0.0000 7.7394
#
#
#
# Elastic Compliance Matrix: (Units=1/GPa)
#
#
# Indices 1 2 3 4 5 6 
#
# 1 0.007624 -0.003387 -0.003119 0.000000 0.000000 0.000000
# 2 -0.003387 0.016422 -0.000077 0.000000 0.000000 0.000000
# 3 -0.003119 -0.000077 0.006137 0.000000 0.000000 0.000000
# 4 0.000000 0.000000 0.000000 0.022617 0.000000 0.000000
# 5 0.000000 0.000000 0.000000 0.000000 0.018260 0.000000
# 6 0.000000 0.000000 0.000000 0.000000 0.000000 0.129209
#
#
# Mechanical properties :
#
#
# Convention : Reuss Voigt Hill
#
# Bulk Modulus (GPa) = 58.76838 86.75747 72.76293
# Shear Modulus (GPa) = 22.81982 42.20742 32.51362
#
# Velocity S-wave (km/s) = 3.14930 4.28305 3.75916
# Velocity P-wave (km/s) = 6.22628 7.88457 7.10398
#
# Compressibility (1/GPa) = 0.01701595
#
# Stress axis : x y z
#
# Youngs Moduli (GPa) = 131.16629 60.89395 162.94391
#
# Poissons Ratio (x) = 0.20625 0.50828
# Poissons Ratio (y) = 0.44427 0.01256
# Poissons Ratio (z) = 0.40916 0.00469
#
# Static dielectric constant tensor:
#      x y z
#    x 1.897070 0.000000 0.000000 
#    y 0.000000 1.952220 0.000000 
#    z 0.000000 0.000000 1.808530 
# 
# From -- ./inp_files/13247.got.cif
#   From: 2010.05.17/outbox.cif.g08.bks.cpg/sg54_7_cif.got.tgz:13247.got - 2010.06.03 13:09:01.
