data_PCOD9421322
_publ_section_title
;
Structure prediction by ZEFSAII (Michael W. Deem and Ramdas Pophale) SiO2 
 PCOD9421322
Probable space group: P C C A
;
_chemical_formula_sum "Si O2"
_cell_formula_units_Z 44
_cell_length_a 5.124728
_cell_length_b 13.604161
_cell_length_c 34.663329
_cell_angle_alpha 90.000000
_cell_angle_beta 90.000000
_cell_angle_gamma 90.000000
_cell_volume 2416.644965
_symmetry_space_group_name_H-M "P C C A"
_symmetry_group_IT_number 54
_symmetry_cell_setting 'orthorhombic'
loop_
_space_group_symop_operation_xyz
x,y,z
1/2-x,-y,z
1/2+x,-y,1/2-z
-x,y,1/2-z
-x,-y,-z
1/2+x,y,-z
1/2-x,y,1/2+z
x,-y,1/2+z
loop_
_atom_site_type_symbol
_atom_site_label
_atom_site_fract_x
_atom_site_fract_y
_atom_site_fract_z
Si Si1 0.002166 0.430085 0.205996
Si Si2 0.739841 0.117109 0.524978
Si Si3 0.750000 0.000000 0.151133
Si Si4 0.330615 0.188695 0.391185
Si Si5 0.309804 0.744627 0.152187
Si Si6 0.122476 0.102323 0.211831
O O1 0.750000 0.500000 0.199737
O O2 0.250000 0.500000 0.204683
O O3 0.000000 0.389373 0.250000
O O4 0.060135 0.347183 0.174271
O O5 0.453808 0.136622 0.508052
O O6 0.809169 0.178113 0.563039
O O7 0.750000 0.000000 0.534121
O O8 0.899636 0.921358 0.124749
O O9 0.578928 0.935959 0.180067
O O10 0.552075 0.261226 0.374379
O O11 0.044842 0.214479 0.374430
O O12 0.220941 0.817556 0.187418
O O13 0.000000 0.147785 0.250000
O O14 0.250000 0.000000 0.225027
#
# Coordination Sequence:
#
# PCOD9421322 Si02
#       6
#     8   8   4   8   8   8
#     4  10  21  40  61  83 111 146 190 246 298 339
#     4  10  20  34  53  77 107 152 194 226 265 325
#     4  10  20  32  44  68 102 152 182 226 258 306
#     4  11  21  35  53  78 114 142 189 224 276 324
#     4  11  23  35  56  82 108 148 187 234 283 335
#     4  11  20  32  46  68 105 148 193 221 257 310
#
# _framework density 18.207059999999998
#
# number of rings (size 3 to 8) (size 9 to 14) (size 15 to 20)
#    0.000    1.455    3.636    2.727    0.000    0.000 
#    0.000    2.727    0.000    0.000    0.000    0.000 
#    0.000   50.909    0.000    0.000    0.000    0.000 
#
# Total GULP energy -245157.172124 kJ/mol
# GULP energy per Si atom -5571.753912 kJ/mol
# Density = 1.816562 g / cm^3
# Si number density = 18.207060 Si / 1000 Ang^3
#
#
#
# Elastic Constant Matrix: (Units=GPa)
#
#
# Indices 1 2 3 4 5 6 
#
# 1 82.8432 6.7156 16.6938 0.0000 0.0000 0.0000
# 2 6.7156 45.2969 26.3747 0.0000 0.0000 0.0000
# 3 16.6938 26.3747 100.1481 0.0000 0.0000 0.0000
# 4 0.0000 0.0000 0.0000 24.4171 0.0000 0.0000
# 5 0.0000 0.0000 0.0000 0.0000 21.4214 0.0000
# 6 0.0000 0.0000 0.0000 0.0000 0.0000 -2.5523
#
#
#
# Elastic Compliance Matrix: (Units=1/GPa)
#
#
# Indices 1 2 3 4 5 6 
#
# 1 0.012512 -0.000757 -0.001886 0.000000 0.000000 0.000000
# 2 -0.000757 0.026121 -0.006753 0.000000 0.000000 0.000000
# 3 -0.001886 -0.006753 0.012078 0.000000 0.000000 0.000000
# 4 0.000000 0.000000 0.000000 0.040955 0.000000 0.000000
# 5 0.000000 0.000000 0.000000 0.000000 0.046682 0.000000
# 6 0.000000 0.000000 0.000000 0.000000 0.000000 -0.391797
#
#
# Mechanical properties :
#
#
# Convention : Reuss Voigt Hill
#
# Bulk Modulus (GPa) = 31.32911 36.42849 33.87880
# Shear Modulus (GPa) = -22.31979 20.55750 -0.88114
#
# Velocity S-wave (km/s) = -3.50506 3.36385 -0.69643
# Velocity P-wave (km/s) = 0.92943 5.92778 4.24278
#
# Compressibility (1/GPa) = 0.03191920
#
# Stress axis : x y z
#
# Youngs Moduli (GPa) = 79.92022 38.28383 82.79454
#
# Poissons Ratio (x) = 0.02897 0.15619
# Poissons Ratio (y) = 0.06047 0.55911
# Poissons Ratio (z) = 0.15077 0.25853
#
# Static dielectric constant tensor:
#      x y z
#    x 1.666660 0.000000 0.000000 
#    y 0.000000 1.647200 0.000000 
#    z 0.000000 0.000000 1.670630 
# 
# From -- ./inp_files/27143.got.cif
#   From: 2010.05.17/outbox.cif.g08.bks.cpg/sg54_14_cif.got.tgz:27143.got - 2010.06.03 13:09:01.
