data_PCOD9421634
_publ_section_title
;
Structure prediction by ZEFSAII (Michael W. Deem and Ramdas Pophale) SiO2 
 PCOD9421634
Probable space group: P C C A
;
_chemical_formula_sum "Si O2"
_cell_formula_units_Z 48
_cell_length_a 14.496070
_cell_length_b 14.335349
_cell_length_c 10.323489
_cell_angle_alpha 90.000000
_cell_angle_beta 90.000000
_cell_angle_gamma 90.000000
_cell_volume 2145.285253
_symmetry_space_group_name_H-M "P C C A"
_symmetry_group_IT_number 54
_symmetry_cell_setting 'orthorhombic'
loop_
_space_group_symop_operation_xyz
x,y,z
1/2-x,-y,z
1/2+x,-y,1/2-z
-x,y,1/2-z
-x,-y,-z
1/2+x,y,-z
1/2-x,y,1/2+z
x,-y,1/2+z
loop_
_atom_site_type_symbol
_atom_site_label
_atom_site_fract_x
_atom_site_fract_y
_atom_site_fract_z
Si Si1 0.500000 0.226919 0.750000
Si Si2 0.396239 0.866766 0.724707
Si Si3 0.651956 0.177766 0.563119
Si Si4 0.250000 0.000000 0.331996
Si Si5 0.809899 0.308557 0.655920
Si Si6 0.933687 0.618894 0.934427
Si Si7 0.080194 0.410805 0.647420
O O1 0.564271 0.169242 0.655730
O O2 0.562274 0.294599 0.838431
O O3 0.500000 0.895420 0.750000
O O4 0.379882 0.820728 0.584708
O O5 0.370328 0.785223 0.825443
O O6 0.328687 0.953214 0.744916
O O7 0.711615 0.266874 0.612160
O O8 0.711192 0.084491 0.583210
O O9 0.854733 0.368397 0.541480
O O10 0.827575 0.366059 0.789875
O O11 0.915879 0.522609 0.860306
O O12 0.033344 0.616175 0.009563
O O13 0.000000 0.384263 0.750000
#
# Coordination Sequence:
#
# PCOD9421634 Si02
#       7
#     4   8   8   4   8   8   8
#     4  12  24  40  66  98 134 180 228 278 342 412
#     4  11  23  46  73 100 142 183 230 282 361 432
#     4  11  26  45  70 100 138 177 234 291 349 424
#     4  10  26  46  72 112 138 172 228 296 350 434
#     4  10  22  40  68  97 136 185 229 285 344 410
#     4  10  20  36  68  97 137 181 230 278 340 414
#     4   9  17  37  66  97 135 182 229 279 339 405
#
# _framework density 22.374645999999998
#
# number of rings (size 3 to 8) (size 9 to 14) (size 15 to 20)
#    0.000    1.667    0.833    4.000    5.833    0.667 
#    0.000    0.833    3.667    0.000    0.000    0.000 
#    0.000    0.000    0.000    0.000    0.000    0.000 
#
# Total GULP energy -268215.945771 kJ/mol
# GULP energy per Si atom -5587.832204 kJ/mol
# Density = 2.232372 g / cm^3
# Si number density = 22.374646 Si / 1000 Ang^3
#
#
#
# Elastic Constant Matrix: (Units=GPa)
#
#
# Indices 1 2 3 4 5 6 
#
# 1 106.8928 31.3148 32.3779 0.0000 0.0000 0.0000
# 2 31.3148 73.0097 13.5366 0.0000 0.0000 0.0000
# 3 32.3779 13.5366 75.5653 0.0000 0.0000 0.0000
# 4 0.0000 0.0000 0.0000 19.4965 0.0000 0.0000
# 5 0.0000 0.0000 0.0000 0.0000 27.0697 0.0000
# 6 0.0000 0.0000 0.0000 0.0000 0.0000 24.2354
#
#
#
# Elastic Compliance Matrix: (Units=1/GPa)
#
#
# Indices 1 2 3 4 5 6 
#
# 1 0.011934 -0.004314 -0.004341 0.000000 0.000000 0.000000
# 2 -0.004314 0.015727 -0.000969 0.000000 0.000000 0.000000
# 3 -0.004341 -0.000969 0.015267 0.000000 0.000000 0.000000
# 4 0.000000 0.000000 0.000000 0.051291 0.000000 0.000000
# 5 0.000000 0.000000 0.000000 0.000000 0.036942 0.000000
# 6 0.000000 0.000000 0.000000 0.000000 0.000000 0.041262
#
#
# Mechanical properties :
#
#
# Convention : Reuss Voigt Hill
#
# Bulk Modulus (GPa) = 42.22805 45.54739 43.88772
# Shear Modulus (GPa) = 25.05484 26.04287 25.54886
#
# Velocity S-wave (km/s) = 3.34995 3.41537 3.38282
# Velocity P-wave (km/s) = 5.82040 5.99615 5.90893
#
# Compressibility (1/GPa) = 0.02368094
#
# Stress axis : x y z
#
# Youngs Moduli (GPa) = 83.79668 63.58627 65.50083
#
# Poissons Ratio (x) = 0.27429 0.28431
# Poissons Ratio (y) = 0.36148 0.06347
# Poissons Ratio (z) = 0.36372 0.06161
#
# Static dielectric constant tensor:
#      x y z
#    x 1.901930 0.000000 0.000000 
#    y 0.000000 1.811960 0.000000 
#    z 0.000000 0.000000 1.826570 
# 
# From -- ./inp_files/8376.got.cif
#   From: 2010.05.17/outbox.cif.g08.bks.cpg/sg54_5_cif.got.tgz:8376.got - 2010.06.03 13:09:01.
