data_PCOD9421656
_publ_section_title
;
Structure prediction by ZEFSAII (Michael W. Deem and Ramdas Pophale) SiO2 
 PCOD9421656
Probable space group: P C C A
;
_chemical_formula_sum "Si O2"
_cell_formula_units_Z 40
_cell_length_a 13.294406
_cell_length_b 12.632907
_cell_length_c 9.423915
_cell_angle_alpha 90.000000
_cell_angle_beta 90.000000
_cell_angle_gamma 90.000000
_cell_volume 1582.718202
_symmetry_space_group_name_H-M "P C C A"
_symmetry_group_IT_number 54
_symmetry_cell_setting 'orthorhombic'
loop_
_space_group_symop_operation_xyz
x,y,z
1/2-x,-y,z
1/2+x,-y,1/2-z
-x,y,1/2-z
-x,-y,-z
1/2+x,y,-z
1/2-x,y,1/2+z
x,-y,1/2+z
loop_
_atom_site_type_symbol
_atom_site_label
_atom_site_fract_x
_atom_site_fract_y
_atom_site_fract_z
Si Si1 0.576722 0.092093 0.547964
Si Si2 0.563650 0.320344 0.621011
Si Si3 0.189214 0.606919 0.121451
Si Si4 0.286572 0.271109 0.381183
Si Si5 0.117958 0.078654 0.751255
O O1 0.622221 0.041074 0.690958
O O2 0.500000 0.000000 0.500000
O O3 0.523705 0.205474 0.568787
O O4 0.650222 0.098822 0.411504
O O5 0.500000 0.365440 0.750000
O O6 0.595668 0.394569 0.489431
O O7 0.672511 0.281914 0.675730
O O8 0.250000 0.500000 0.145687
O O9 0.154214 0.655174 0.270273
O O10 0.269428 0.680812 0.035426
O O11 0.326690 0.154691 0.360199
O O12 0.000000 0.110670 0.750000
#
# Coordination Sequence:
#
# PCOD9421656 Si02
#       5
#     8   8   8   8   8
#     4  10  20  37  61  91 135 172 216 257 315 392
#     4  10  22  41  64  93 129 172 211 266 334 389
#     4  10  22  43  68  89 126 166 218 278 333 376
#     4  10  22  40  65  91 128 164 220 275 322 395
#     4  10  20  37  59  92 131 172 214 263 319 385
#
# _framework density 25.272977000000001
#
# number of rings (size 3 to 8) (size 9 to 14) (size 15 to 20)
#    1.200    0.800    2.000    2.400    0.000    5.600 
#    0.000    6.000    0.000    0.000    0.000    0.000 
#    0.000    0.000    0.000    0.000    0.000    0.000 
#
# Total GULP energy -223049.760377 kJ/mol
# GULP energy per Si atom -5576.244009 kJ/mol
# Density = 2.521545 g / cm^3
# Si number density = 25.272977 Si / 1000 Ang^3
#
#
#
# Elastic Constant Matrix: (Units=GPa)
#
#
# Indices 1 2 3 4 5 6 
#
# 1 44.3908 -4.7167 -6.8381 0.0000 0.0000 0.0000
# 2 -4.7167 56.4519 -14.5017 0.0000 0.0000 0.0000
# 3 -6.8381 -14.5017 78.0476 0.0000 0.0000 0.0000
# 4 0.0000 0.0000 0.0000 15.5988 0.0000 0.0000
# 5 0.0000 0.0000 0.0000 0.0000 11.1045 0.0000
# 6 0.0000 0.0000 0.0000 0.0000 0.0000 16.2345
#
#
#
# Elastic Compliance Matrix: (Units=1/GPa)
#
#
# Indices 1 2 3 4 5 6 
#
# 1 0.023188 0.002583 0.002512 0.000000 0.000000 0.000000
# 2 0.002583 0.018890 0.003736 0.000000 0.000000 0.000000
# 3 0.002512 0.003736 0.013727 0.000000 0.000000 0.000000
# 4 0.000000 0.000000 0.000000 0.064107 0.000000 0.000000
# 5 0.000000 0.000000 0.000000 0.000000 0.090053 0.000000
# 6 0.000000 0.000000 0.000000 0.000000 0.000000 0.061597
#
#
# Mechanical properties :
#
#
# Convention : Reuss Voigt Hill
#
# Bulk Modulus (GPa) = 13.61181 14.08637 13.84909
# Shear Modulus (GPa) = 17.96035 22.25070 20.10552
#
# Velocity S-wave (km/s) = 2.66870 2.97040 2.82358
# Velocity P-wave (km/s) = 3.85922 4.16535 4.01520
#
# Compressibility (1/GPa) = 0.07346562
#
# Stress axis : x y z
#
# Youngs Moduli (GPa) = 43.12487 52.93885 72.84951
#
# Poissons Ratio (x) = -0.13672 -0.18296
# Poissons Ratio (y) = -0.11138 -0.27217
# Poissons Ratio (z) = -0.10831 -0.19778
#
# Static dielectric constant tensor:
#      x y z
#    x 2.104650 0.000000 0.000000 
#    y 0.000000 2.054550 0.000000 
#    z 0.000000 0.000000 2.266250 
# 
# From -- ./inp_files/8230.got.cif
#   From: 2010.05.17/outbox.cif.g08.bks.cpg/sg54_5_cif.got.tgz:8230.got - 2010.06.03 13:09:01.
