data_PCOD9421364
_publ_section_title
;
Structure prediction by ZEFSAII (Michael W. Deem and Ramdas Pophale) SiO2 
 PCOD9421364
Probable space group: P C C A
;
_chemical_formula_sum "Si O2"
_cell_formula_units_Z 52
_cell_length_a 21.777049
_cell_length_b 6.304412
_cell_length_c 19.228965
_cell_angle_alpha 90.000000
_cell_angle_beta 90.000000
_cell_angle_gamma 90.000000
_cell_volume 2639.973238
_symmetry_space_group_name_H-M "P C C A"
_symmetry_group_IT_number 54
_symmetry_cell_setting 'orthorhombic'
loop_
_space_group_symop_operation_xyz
x,y,z
1/2-x,-y,z
1/2+x,-y,1/2-z
-x,y,1/2-z
-x,-y,-z
1/2+x,y,-z
1/2-x,y,1/2+z
x,-y,1/2+z
loop_
_atom_site_type_symbol
_atom_site_label
_atom_site_fract_x
_atom_site_fract_y
_atom_site_fract_z
Si Si1 0.581439 0.413352 0.147398
Si Si2 0.030715 0.207213 0.441588
Si Si3 0.809262 0.631131 0.903082
Si Si4 0.750000 0.000000 0.312751
Si Si5 0.977654 0.912308 0.321969
Si Si6 0.853762 0.305930 0.785514
Si Si7 0.592532 0.190212 0.011423
O O1 0.566029 0.624019 0.105031
O O2 0.517908 0.301211 0.170138
O O3 0.622554 0.422476 0.216111
O O4 0.609703 0.257524 0.089452
O O5 0.975117 0.281998 0.491157
O O6 0.078521 0.061852 0.484766
O O7 0.994658 0.058350 0.386374
O O8 0.750000 0.500000 0.931679
O O9 0.786550 0.838561 0.862227
O O10 0.838115 0.473262 0.845678
O O11 0.858202 0.712387 0.959247
O O12 0.796051 0.847387 0.271057
O O13 0.907786 0.845944 0.313597
O O14 0.000000 0.018103 0.250000
#
# Coordination Sequence:
#
# PCOD9421364 Si02
#       7
#     8   8   8   4   8   8   8
#     4  10  21  36  56  87 120 149 183 231 294 351
#     4  10  20  33  55  86 120 152 181 230 296 351
#     4  10  22  39  60  82 109 152 201 247 288 338
#     4  10  22  40  60  84 110 148 206 248 286 334
#     4   9  19  33  54  87 116 146 188 229 283 348
#     4  10  21  38  60  84 116 155 196 243 289 345
#     4  10  21  36  55  84 117 150 189 233 287 357
#
# _framework density 19.697168000000001
#
# number of rings (size 3 to 8) (size 9 to 14) (size 15 to 20)
#    0.000    2.154    0.000    2.308    0.000   11.692 
#    0.000    3.077    0.000    0.000    0.000    0.000 
#    0.000    0.000    0.000    0.000    0.000    0.000 
#
# Total GULP energy -290089.655147 kJ/mol
# GULP energy per Si atom -5578.647214 kJ/mol
# Density = 1.965234 g / cm^3
# Si number density = 19.697168 Si / 1000 Ang^3
#
#
#
# Elastic Constant Matrix: (Units=GPa)
#
#
# Indices 1 2 3 4 5 6 
#
# 1 89.7287 22.8880 40.1445 0.0000 0.0000 0.0000
# 2 22.8880 39.4927 15.9552 0.0000 0.0000 0.0000
# 3 40.1445 15.9552 85.3986 0.0000 0.0000 0.0000
# 4 0.0000 0.0000 0.0000 28.2474 0.0000 0.0000
# 5 0.0000 0.0000 0.0000 0.0000 31.0355 0.0000
# 6 0.0000 0.0000 0.0000 0.0000 0.0000 15.5091
#
#
#
# Elastic Compliance Matrix: (Units=1/GPa)
#
#
# Indices 1 2 3 4 5 6 
#
# 1 0.015535 -0.006547 -0.006079 0.000000 0.000000 0.000000
# 2 -0.006547 0.030148 -0.002555 0.000000 0.000000 0.000000
# 3 -0.006079 -0.002555 0.015045 0.000000 0.000000 0.000000
# 4 0.000000 0.000000 0.000000 0.035401 0.000000 0.000000
# 5 0.000000 0.000000 0.000000 0.000000 0.032221 0.000000
# 6 0.000000 0.000000 0.000000 0.000000 0.000000 0.064478
#
#
# Mechanical properties :
#
#
# Convention : Reuss Voigt Hill
#
# Bulk Modulus (GPa) = 32.93305 41.39948 37.16626
# Shear Modulus (GPa) = 21.43049 24.00055 22.71552
#
# Velocity S-wave (km/s) = 3.30206 3.49446 3.39962
# Velocity P-wave (km/s) = 5.59411 6.11108 5.85830
#
# Compressibility (1/GPa) = 0.03036464
#
# Stress axis : x y z
#
# Youngs Moduli (GPa) = 64.37236 33.17004 66.46747
#
# Poissons Ratio (x) = 0.21716 0.40408
# Poissons Ratio (y) = 0.42145 0.16982
# Poissons Ratio (z) = 0.39134 0.08475
#
# Static dielectric constant tensor:
#      x y z
#    x 1.694760 0.000000 0.000000 
#    y 0.000000 1.728140 0.000000 
#    z 0.000000 0.000000 1.693320 
# 
# From -- ./inp_files/22147.got.cif
#   From: 2010.05.17/outbox.cif.g08.bks.cpg/sg54_12_cif.got.tgz:22147.got - 2010.06.03 13:09:01.
