data_PCOD9421758
_publ_section_title
;
Structure prediction by ZEFSAII (Michael W. Deem and Ramdas Pophale) SiO2 
 PCOD9421758
Probable space group: P C C A
;
_chemical_formula_sum "Si O2"
_cell_formula_units_Z 32
_cell_length_a 9.972955
_cell_length_b 11.554468
_cell_length_c 11.314320
_cell_angle_alpha 90.000000
_cell_angle_beta 90.000000
_cell_angle_gamma 90.000000
_cell_volume 1303.773865
_symmetry_space_group_name_H-M "P C C A"
_symmetry_group_IT_number 54
_symmetry_cell_setting 'orthorhombic'
loop_
_space_group_symop_operation_xyz
x,y,z
1/2-x,-y,z
1/2+x,-y,1/2-z
-x,y,1/2-z
-x,-y,-z
1/2+x,y,-z
1/2-x,y,1/2+z
x,-y,1/2+z
loop_
_atom_site_type_symbol
_atom_site_label
_atom_site_fract_x
_atom_site_fract_y
_atom_site_fract_z
Si Si1 0.505228 0.625121 0.117317
Si Si2 0.277479 0.138170 0.387524
Si Si3 0.852256 0.154462 0.356887
Si Si4 0.250000 0.500000 0.496016
Si Si5 0.500000 0.938104 0.750000
O O1 0.500000 0.580457 0.250000
O O2 0.476809 0.761835 0.116096
O O3 0.651713 0.590162 0.070585
O O4 0.370047 0.571181 0.059415
O O5 0.214209 0.191344 0.267530
O O6 0.262944 0.166354 0.525392
O O7 0.432634 0.141495 0.348641
O O8 0.250000 0.000000 0.383176
O O9 0.906710 0.026145 0.326596
#
# Coordination Sequence:
#
# PCOD9421758 Si02
#       5
#     8   8   8   4   4
#     4  11  24  46  71 102 136 174 235 290 365 433
#     4  10  22  38  60  96 139 186 229 276 337 398
#     4  11  23  39  67  96 138 184 233 290 340 420
#     4  10  26  46  74  98 134 176 222 304 370 428
#     4  10  20  38  60  94 138 190 236 282 332 400
#
# _framework density 24.544132000000001
#
# number of rings (size 3 to 8) (size 9 to 14) (size 15 to 20)
#    0.000    1.500    1.250    3.750    3.500    4.000 
#    0.000    0.000    0.000    0.000    0.000    0.000 
#    0.000    0.000    0.000    0.000    0.000    0.000 
#
# Total GULP energy -178192.848824 kJ/mol
# GULP energy per Si atom -5568.526526 kJ/mol
# Density = 2.448827 g / cm^3
# Si number density = 24.544132 Si / 1000 Ang^3
#
#
#
# Elastic Constant Matrix: (Units=GPa)
#
#
# Indices 1 2 3 4 5 6 
#
# 1 157.1203 21.0788 92.8765 0.0000 0.0000 0.0000
# 2 21.0788 37.2884 42.6509 0.0000 0.0000 0.0000
# 3 92.8765 42.6509 225.2124 0.0000 0.0000 0.0000
# 4 0.0000 0.0000 0.0000 26.6185 0.0000 0.0000
# 5 0.0000 0.0000 0.0000 0.0000 46.8961 0.0000
# 6 0.0000 0.0000 0.0000 0.0000 0.0000 19.2859
#
#
#
# Elastic Compliance Matrix: (Units=1/GPa)
#
#
# Indices 1 2 3 4 5 6 
#
# 1 0.008446 -0.001009 -0.003292 0.000000 0.000000 0.000000
# 2 -0.001009 0.034354 -0.006090 0.000000 0.000000 0.000000
# 3 -0.003292 -0.006090 0.006951 0.000000 0.000000 0.000000
# 4 0.000000 0.000000 0.000000 0.037568 0.000000 0.000000
# 5 0.000000 0.000000 0.000000 0.000000 0.021324 0.000000
# 6 0.000000 0.000000 0.000000 0.000000 0.000000 0.051851
#
#
# Mechanical properties :
#
#
# Convention : Reuss Voigt Hill
#
# Bulk Modulus (GPa) = 34.51920 81.42596 57.97258
# Shear Modulus (GPa) = 26.18733 36.09444 31.14089
#
# Velocity S-wave (km/s) = 3.26996 3.83899 3.56585
# Velocity P-wave (km/s) = 5.32462 7.27309 6.37375
#
# Compressibility (1/GPa) = 0.02896939
#
# Stress axis : x y z
#
# Youngs Moduli (GPa) = 118.40159 29.10863 143.86126
#
# Poissons Ratio (x) = 0.02937 0.47358
# Poissons Ratio (y) = 0.11947 0.87610
# Poissons Ratio (z) = 0.38977 0.17727
#
# Static dielectric constant tensor:
#      x y z
#    x 2.213140 0.000000 0.000000 
#    y 0.000000 2.038590 0.000000 
#    z 0.000000 0.000000 1.947300 
# 
# From -- ./inp_files/7306.got.cif
#   From: 2010.05.17/outbox.cif.g08.bks.cpg/sg54_4_cif.got.tgz:7306.got - 2010.06.03 13:09:01.
