data_PCOD9421903
_publ_section_title
;
Structure prediction by ZEFSAII (Michael W. Deem and Ramdas Pophale) SiO2 
 PCOD9421903
Probable space group: P C C A
;
_chemical_formula_sum "Si O2"
_cell_formula_units_Z 40
_cell_length_a 19.739108
_cell_length_b 7.694713
_cell_length_c 10.486522
_cell_angle_alpha 90.000000
_cell_angle_beta 90.000000
_cell_angle_gamma 90.000000
_cell_volume 1592.763965
_symmetry_space_group_name_H-M "P C C A"
_symmetry_group_IT_number 54
_symmetry_cell_setting 'orthorhombic'
loop_
_space_group_symop_operation_xyz
x,y,z
1/2-x,-y,z
1/2+x,-y,1/2-z
-x,y,1/2-z
-x,-y,-z
1/2+x,y,-z
1/2-x,y,1/2+z
x,-y,1/2+z
loop_
_atom_site_type_symbol
_atom_site_label
_atom_site_fract_x
_atom_site_fract_y
_atom_site_fract_z
Si Si1 0.441665 0.435875 0.842664
Si Si2 0.024588 0.224144 0.956423
Si Si3 0.105395 0.935587 0.096937
Si Si4 0.319366 0.749797 0.215119
Si Si5 0.733186 0.795422 0.018913
O O1 0.500000 0.497917 0.750000
O O2 0.431072 0.606261 0.926726
O O3 0.379268 0.373705 0.759960
O O4 0.478109 0.283393 0.922684
O O5 0.076795 0.073415 0.993117
O O6 0.964324 0.156535 0.864283
O O7 0.146488 0.057388 0.196622
O O8 0.157013 0.795597 0.037845
O O9 0.267518 0.743538 0.333867
O O10 0.282833 0.707432 0.082371
O O11 0.750000 0.000000 0.015807
#
# Coordination Sequence:
#
# PCOD9421903 Si02
#       5
#     8   8   8   8   8
#     4  11  22  42  67 103 148 187 237 311 394 456
#     4  10  22  39  70 108 144 185 237 316 390 447
#     4  10  20  39  70 108 142 183 251 306 375 446
#     4  11  22  41  71 103 149 193 248 305 368 455
#     4  10  21  38  67 104 139 190 250 306 359 438
#
# _framework density 25.113578
#
# number of rings (size 3 to 8) (size 9 to 14) (size 15 to 20)
#    0.000    1.600    4.000    1.800    0.000    1.600 
#    0.000    0.000    0.000   25.200    0.000    0.000 
#    0.000    0.000    0.000    0.000    0.000    0.000 
#
# Total GULP energy -223550.769639 kJ/mol
# GULP energy per Si atom -5588.769241 kJ/mol
# Density = 2.505642 g / cm^3
# Si number density = 25.113578 Si / 1000 Ang^3
#
#
#
# Elastic Constant Matrix: (Units=GPa)
#
#
# Indices 1 2 3 4 5 6 
#
# 1 105.4523 11.2726 60.3815 0.0000 0.0000 0.0000
# 2 11.2726 61.4520 9.6341 0.0000 0.0000 0.0000
# 3 60.3815 9.6341 103.2544 0.0000 0.0000 0.0000
# 4 0.0000 0.0000 0.0000 25.5096 0.0000 0.0000
# 5 0.0000 0.0000 0.0000 0.0000 49.0714 0.0000
# 6 0.0000 0.0000 0.0000 0.0000 0.0000 75.7095
#
#
#
# Elastic Compliance Matrix: (Units=1/GPa)
#
#
# Indices 1 2 3 4 5 6 
#
# 1 0.014364 -0.001338 -0.008275 0.000000 0.000000 0.000000
# 2 -0.001338 0.016639 -0.000770 0.000000 0.000000 0.000000
# 3 -0.008275 -0.000770 0.014596 0.000000 0.000000 0.000000
# 4 0.000000 0.000000 0.000000 0.039201 0.000000 0.000000
# 5 0.000000 0.000000 0.000000 0.000000 0.020378 0.000000
# 6 0.000000 0.000000 0.000000 0.000000 0.000000 0.013208
#
#
# Mechanical properties :
#
#
# Convention : Reuss Voigt Hill
#
# Bulk Modulus (GPa) = 40.26900 48.08168 44.17534
# Shear Modulus (GPa) = 33.91424 42.64949 38.28186
#
# Velocity S-wave (km/s) = 3.67881 4.12547 3.90853
# Velocity P-wave (km/s) = 5.84076 6.47147 6.16419
#
# Compressibility (1/GPa) = 0.02483300
#
# Stress axis : x y z
#
# Youngs Moduli (GPa) = 69.61712 60.09978 68.51247
#
# Poissons Ratio (x) = 0.08039 0.56695
# Poissons Ratio (y) = 0.09312 0.05277
# Poissons Ratio (z) = 0.57609 0.04629
#
# Static dielectric constant tensor:
#      x y z
#    x 2.008410 0.000000 0.000000 
#    y 0.000000 2.084860 0.000000 
#    z 0.000000 0.000000 2.107850 
# 
# From -- ./inp_files/9393.got.cif
#   From: 2010.05.17/outbox.cif.g08.bks.cpg/sg54_5_cif.got.tgz:9393.got - 2010.06.03 13:09:01.
