data_PCOD9421818
_publ_section_title
;
Structure prediction by ZEFSAII (Michael W. Deem and Ramdas Pophale) SiO2 
 PCOD9421818
Probable space group: P C C A
;
_chemical_formula_sum "Si O2"
_cell_formula_units_Z 48
_cell_length_a 25.601573
_cell_length_b 6.013370
_cell_length_c 14.310292
_cell_angle_alpha 90.000000
_cell_angle_beta 90.000000
_cell_angle_gamma 90.000000
_cell_volume 2203.094225
_symmetry_space_group_name_H-M "P C C A"
_symmetry_group_IT_number 54
_symmetry_cell_setting 'orthorhombic'
loop_
_space_group_symop_operation_xyz
x,y,z
1/2-x,-y,z
1/2+x,-y,1/2-z
-x,y,1/2-z
-x,-y,-z
1/2+x,y,-z
1/2-x,y,1/2+z
x,-y,1/2+z
loop_
_atom_site_type_symbol
_atom_site_label
_atom_site_fract_x
_atom_site_fract_y
_atom_site_fract_z
Si Si1 0.698610 0.854356 0.281208
Si Si2 0.544653 0.053387 0.639558
Si Si3 0.888993 0.773933 0.257330
Si Si4 0.643019 0.538399 0.420498
Si Si5 0.145844 0.379118 0.378641
Si Si6 0.466627 0.715094 0.032047
O O1 0.685651 0.678851 0.363208
O O2 0.692567 0.720094 0.184119
O O3 0.750000 0.000000 0.293304
O O4 0.652650 0.033183 0.274083
O O5 0.558628 0.899481 0.727229
O O6 0.534024 0.885993 0.553999
O O7 0.596010 0.209909 0.622430
O O8 0.494542 0.209861 0.628338
O O9 0.885613 0.632476 0.350849
O O10 0.872630 0.605032 0.173877
O O11 0.662266 0.424505 0.515283
O O12 0.594404 0.687877 0.450170
O O13 0.500000 0.500000 0.000000
#
# Coordination Sequence:
#
# PCOD9421818 Si02
#       6
#     8   8   8   8   8   8
#     4  10  25  46  69  97 134 170 226 298 352 415
#     4  10  20  38  66  93 136 184 221 277 341 411
#     4  10  22  42  65  94 136 170 224 291 340 411
#     4  11  23  40  70  97 134 183 230 287 343 422
#     4  10  21  43  68  93 135 183 221 279 354 408
#     4  11  21  37  66  96 137 181 234 278 335 426
#
# _framework density 21.787537
#
# number of rings (size 3 to 8) (size 9 to 14) (size 15 to 20)
#    0.000    1.667    3.333    0.000    2.333    2.667 
#    0.000   25.000    0.000    0.000    0.000    0.000 
#    0.000    0.000    0.000    0.000    0.000    0.000 
#
# Total GULP energy -267891.662902 kJ/mol
# GULP energy per Si atom -5581.076310 kJ/mol
# Density = 2.173795 g / cm^3
# Si number density = 21.787537 Si / 1000 Ang^3
#
#
#
# Elastic Constant Matrix: (Units=GPa)
#
#
# Indices 1 2 3 4 5 6 
#
# 1 63.7483 4.8735 23.7189 0.0000 0.0000 0.0000
# 2 4.8735 74.9948 38.3044 0.0000 0.0000 0.0000
# 3 23.7189 38.3044 119.7460 0.0000 0.0000 0.0000
# 4 0.0000 0.0000 0.0000 18.0060 0.0000 0.0000
# 5 0.0000 0.0000 0.0000 0.0000 15.1087 0.0000
# 6 0.0000 0.0000 0.0000 0.0000 0.0000 40.0604
#
#
#
# Elastic Compliance Matrix: (Units=1/GPa)
#
#
# Indices 1 2 3 4 5 6 
#
# 1 0.016968 0.000734 -0.003596 0.000000 0.000000 0.000000
# 2 0.000734 0.015970 -0.005254 0.000000 0.000000 0.000000
# 3 -0.003596 -0.005254 0.010744 0.000000 0.000000 0.000000
# 4 0.000000 0.000000 0.000000 0.055537 0.000000 0.000000
# 5 0.000000 0.000000 0.000000 0.000000 0.066187 0.000000
# 6 0.000000 0.000000 0.000000 0.000000 0.000000 0.024962
#
#
# Mechanical properties :
#
#
# Convention : Reuss Voigt Hill
#
# Bulk Modulus (GPa) = 36.42878 43.58697 40.00787
# Shear Modulus (GPa) = 23.17490 27.40783 25.29136
#
# Velocity S-wave (km/s) = 3.26494 3.55062 3.41077
# Velocity P-wave (km/s) = 5.56502 6.07109 5.82355
#
# Compressibility (1/GPa) = 0.02745083
#
# Stress axis : x y z
#
# Youngs Moduli (GPa) = 58.93274 62.61724 93.07630
#
# Poissons Ratio (x) = -0.04596 0.33469
# Poissons Ratio (y) = -0.04325 0.48901
# Poissons Ratio (z) = 0.21191 0.32898
#
# Static dielectric constant tensor:
#      x y z
#    x 1.800240 0.000000 0.000000 
#    y 0.000000 1.877090 0.000000 
#    z 0.000000 0.000000 1.839470 
# 
# From -- ./inp_files/15152.got.cif
#   From: 2010.05.17/outbox.cif.g08.bks.cpg/sg54_8_cif.got.tgz:15152.got - 2010.06.03 13:09:01.
