data_PCOD9421544
_publ_section_title
;
Structure prediction by ZEFSAII (Michael W. Deem and Ramdas Pophale) SiO2 
 PCOD9421544
Probable space group: P C C A
;
_chemical_formula_sum "Si O2"
_cell_formula_units_Z 40
_cell_length_a 10.516016
_cell_length_b 13.225746
_cell_length_c 11.226409
_cell_angle_alpha 90.000000
_cell_angle_beta 90.000000
_cell_angle_gamma 90.000000
_cell_volume 1561.393174
_symmetry_space_group_name_H-M "P C C A"
_symmetry_group_IT_number 54
_symmetry_cell_setting 'orthorhombic'
loop_
_space_group_symop_operation_xyz
x,y,z
1/2-x,-y,z
1/2+x,-y,1/2-z
-x,y,1/2-z
-x,-y,-z
1/2+x,y,-z
1/2-x,y,1/2+z
x,-y,1/2+z
loop_
_atom_site_type_symbol
_atom_site_label
_atom_site_fract_x
_atom_site_fract_y
_atom_site_fract_z
Si Si1 0.000000 0.897077 0.750000
Si Si2 0.012732 0.407673 0.115333
Si Si3 0.750000 0.000000 0.762876
Si Si4 0.605769 0.783253 0.019576
Si Si5 0.347187 0.412068 0.397195
Si Si6 0.855076 0.187508 0.612288
O O1 0.117328 0.956412 0.686472
O O2 0.062654 0.834371 0.856534
O O3 0.914522 0.335863 0.043213
O O4 0.977884 0.525692 0.120368
O O5 0.000000 0.371699 0.250000
O O6 0.142286 0.394827 0.040962
O O7 0.810833 0.093421 0.688851
O O8 0.752219 0.811912 0.003286
O O9 0.501874 0.817527 0.924319
O O10 0.250000 0.500000 0.360708
O O11 0.337979 0.302553 0.337325
#
# Coordination Sequence:
#
# PCOD9421544 Si02
#       6
#     4   8   4   8   8   8
#     4  10  22  40  62  88 122 156 210 254 310 370
#     4  10  20  36  59  88 121 160 203 249 313 363
#     4  10  24  42  60  90 122 162 204 262 308 364
#     4  10  20  38  64  89 117 163 200 253 308 375
#     4  10  20  37  59  87 122 158 205 253 300 377
#     4  10  22  39  62  86 122 159 204 249 311 363
#
# _framework density 25.618147
#
# number of rings (size 3 to 8) (size 9 to 14) (size 15 to 20)
#    0.000    2.000    3.000    0.000    0.000    6.400 
#    1.800    0.000    0.000    0.000    0.000    0.000 
#    0.000    0.000    0.000    0.000    0.000    0.000 
#
# Total GULP energy -222886.353808 kJ/mol
# GULP energy per Si atom -5572.158845 kJ/mol
# Density = 2.555984 g / cm^3
# Si number density = 25.618147 Si / 1000 Ang^3
#
#
#
# Elastic Constant Matrix: (Units=GPa)
#
#
# Indices 1 2 3 4 5 6 
#
# 1 93.2481 41.0479 -1.6390 0.0000 0.0000 0.0000
# 2 41.0479 166.8736 30.7254 0.0000 0.0000 0.0000
# 3 -1.6390 30.7254 37.4016 0.0000 0.0000 0.0000
# 4 0.0000 0.0000 0.0000 26.3704 0.0000 0.0000
# 5 0.0000 0.0000 0.0000 0.0000 23.0991 0.0000
# 6 0.0000 0.0000 0.0000 0.0000 0.0000 46.9723
#
#
#
# Elastic Compliance Matrix: (Units=1/GPa)
#
#
# Indices 1 2 3 4 5 6 
#
# 1 0.012424 -0.003719 0.003600 0.000000 0.000000 0.000000
# 2 -0.003719 0.008174 -0.006878 0.000000 0.000000 0.000000
# 3 0.003600 -0.006878 0.032545 0.000000 0.000000 0.000000
# 4 0.000000 0.000000 0.000000 0.037921 0.000000 0.000000
# 5 0.000000 0.000000 0.000000 0.000000 0.043292 0.000000
# 6 0.000000 0.000000 0.000000 0.000000 0.000000 0.021289
#
#
# Mechanical properties :
#
#
# Convention : Reuss Voigt Hill
#
# Bulk Modulus (GPa) = 25.54366 48.64354 37.09360
# Shear Modulus (GPa) = 27.36899 34.44763 30.90831
#
# Velocity S-wave (km/s) = 3.27210 3.67094 3.47724
# Velocity P-wave (km/s) = 4.92626 6.08250 5.53466
#
# Compressibility (1/GPa) = 0.03914865
#
# Stress axis : x y z
#
# Youngs Moduli (GPa) = 80.48648 122.34357 30.72708
#
# Poissons Ratio (x) = 0.45499 -0.11060
# Poissons Ratio (y) = 0.29933 0.21133
# Poissons Ratio (z) = -0.28972 0.84144
#
# Static dielectric constant tensor:
#      x y z
#    x 2.190660 0.000000 0.000000 
#    y 0.000000 2.029060 0.000000 
#    z 0.000000 0.000000 2.124990 
# 
# From -- ./inp_files/7522.got.cif
#   From: 2010.05.17/outbox.cif.g08.bks.cpg/sg54_4_cif.got.tgz:7522.got - 2010.06.03 13:09:01.
