data_PCOD9421271
_publ_section_title
;
Structure prediction by ZEFSAII (Michael W. Deem and Ramdas Pophale) SiO2 
 PCOD9421271
Probable space group: P C C A
;
_chemical_formula_sum "Si O2"
_cell_formula_units_Z 48
_cell_length_a 11.858536
_cell_length_b 13.753829
_cell_length_c 13.438801
_cell_angle_alpha 90.000000
_cell_angle_beta 90.000000
_cell_angle_gamma 90.000000
_cell_volume 2191.872157
_symmetry_space_group_name_H-M "P C C A"
_symmetry_group_IT_number 54
_symmetry_cell_setting 'orthorhombic'
loop_
_space_group_symop_operation_xyz
x,y,z
1/2-x,-y,z
1/2+x,-y,1/2-z
-x,y,1/2-z
-x,-y,-z
1/2+x,y,-z
1/2-x,y,1/2+z
x,-y,1/2+z
loop_
_atom_site_type_symbol
_atom_site_label
_atom_site_fract_x
_atom_site_fract_y
_atom_site_fract_z
Si Si1 0.671842 0.616575 0.901267
Si Si2 0.250674 0.743521 0.429781
Si Si3 0.200970 0.103511 0.098940
Si Si4 0.004339 0.215497 0.366270
Si Si5 0.622951 0.211494 0.266551
Si Si6 0.581691 0.582610 0.346297
O O1 0.607666 0.706457 0.851467
O O2 0.784365 0.605930 0.830913
O O3 0.595744 0.520782 0.900769
O O4 0.719136 0.645070 0.010108
O O5 0.207669 0.818587 0.511230
O O6 0.368666 0.790880 0.398062
O O7 0.169579 0.741311 0.335130
O O8 0.069276 0.118274 0.122019
O O9 0.280237 0.141399 0.189183
O O10 0.250000 0.000000 0.070074
O O11 0.959831 0.321285 0.405713
O O12 0.000000 0.234980 0.250000
O O13 0.500000 0.165144 0.250000
O O14 0.500000 0.568083 0.250000
#
# Coordination Sequence:
#
# PCOD9421271 Si02
#       6
#     8   8   8   8   8   8
#     4  10  22  39  63 103 134 171 229 265 320 403
#     4  11  24  43  69  98 133 177 221 280 340 398
#     4  11  26  45  67  99 128 169 227 277 345 409
#     4  11  21  45  71  89 138 180 218 273 337 402
#     4  11  23  44  67  95 135 175 219 281 337 397
#     4  10  19  39  67  93 135 179 217 263 321 388
#
# _framework density 21.899086
#
# number of rings (size 3 to 8) (size 9 to 14) (size 15 to 20)
#    0.000    1.333    5.000    1.500    4.667    2.667 
#    0.000   11.667    0.000    0.000    0.000    0.000 
#    0.000    0.000    0.000    0.000    0.000    0.000 
#
# Total GULP energy -267401.878507 kJ/mol
# GULP energy per Si atom -5570.872469 kJ/mol
# Density = 2.184924 g / cm^3
# Si number density = 21.899086 Si / 1000 Ang^3
#
#
#
# Elastic Constant Matrix: (Units=GPa)
#
#
# Indices 1 2 3 4 5 6 
#
# 1 91.6371 -22.0309 3.4591 0.0000 0.0000 0.0000
# 2 -22.0309 48.3526 -12.8826 0.0000 0.0000 0.0000
# 3 3.4591 -12.8826 73.2003 0.0000 0.0000 0.0000
# 4 0.0000 0.0000 0.0000 7.1315 0.0000 0.0000
# 5 0.0000 0.0000 0.0000 0.0000 23.9135 0.0000
# 6 0.0000 0.0000 0.0000 0.0000 0.0000 8.0050
#
#
#
# Elastic Compliance Matrix: (Units=1/GPa)
#
#
# Indices 1 2 3 4 5 6 
#
# 1 0.012268 0.005702 0.000424 0.000000 0.000000 0.000000
# 2 0.005702 0.024350 0.004016 0.000000 0.000000 0.000000
# 3 0.000424 0.004016 0.014348 0.000000 0.000000 0.000000
# 4 0.000000 0.000000 0.000000 0.140222 0.000000 0.000000
# 5 0.000000 0.000000 0.000000 0.000000 0.041817 0.000000
# 6 0.000000 0.000000 0.000000 0.000000 0.000000 0.124922
#
#
# Mechanical properties :
#
#
# Convention : Reuss Voigt Hill
#
# Bulk Modulus (GPa) = 14.03525 16.69790 15.36657
# Shear Modulus (GPa) = 13.83539 24.11963 18.97751
#
# Velocity S-wave (km/s) = 2.51625 3.32233 2.94698
# Velocity P-wave (km/s) = 3.85551 4.72850 4.31414
#
# Compressibility (1/GPa) = 0.07124920
#
# Stress axis : x y z
#
# Youngs Moduli (GPa) = 81.51586 41.06851 69.69680
#
# Poissons Ratio (x) = -0.23419 -0.02954
# Poissons Ratio (y) = -0.46484 -0.27989
# Poissons Ratio (z) = -0.03455 -0.16492
#
# Static dielectric constant tensor:
#      x y z
#    x 1.863470 0.000000 0.000000 
#    y 0.000000 1.823460 0.000000 
#    z 0.000000 0.000000 1.804100 
# 
# From -- ./inp_files/12619.got.cif
#   From: 2010.05.17/outbox.cif.g08.bks.cpg/sg54_7_cif.got.tgz:12619.got - 2010.06.03 13:09:01.
