data_PCOD9421543
_publ_section_title
;
Structure prediction by ZEFSAII (Michael W. Deem and Ramdas Pophale) SiO2 
 PCOD9421543
Probable space group: P C C A
;
_chemical_formula_sum "Si O2"
_cell_formula_units_Z 56
_cell_length_a 8.208003
_cell_length_b 22.202467
_cell_length_c 14.471842
_cell_angle_alpha 90.000000
_cell_angle_beta 90.000000
_cell_angle_gamma 90.000000
_cell_volume 2637.318323
_symmetry_space_group_name_H-M "P C C A"
_symmetry_group_IT_number 54
_symmetry_cell_setting 'orthorhombic'
loop_
_space_group_symop_operation_xyz
x,y,z
1/2-x,-y,z
1/2+x,-y,1/2-z
-x,y,1/2-z
-x,-y,-z
1/2+x,y,-z
1/2-x,y,1/2+z
x,-y,1/2+z
loop_
_atom_site_type_symbol
_atom_site_label
_atom_site_fract_x
_atom_site_fract_y
_atom_site_fract_z
Si Si1 0.000000 0.025511 0.250000
Si Si2 0.349815 0.561048 0.428210
Si Si3 0.343810 0.866653 0.143934
Si Si4 0.183390 0.132301 0.459263
Si Si5 0.773553 0.435537 0.369006
Si Si6 0.750000 0.000000 0.107319
Si Si7 0.824510 0.793184 0.202884
Si Si8 0.190540 0.660806 0.780746
O O1 0.124756 0.069223 0.194381
O O2 0.096543 0.988867 0.325943
O O3 0.250000 0.500000 0.405662
O O4 0.539013 0.559783 0.401326
O O5 0.331169 0.568633 0.538005
O O6 0.289940 0.618256 0.370121
O O7 0.506504 0.855943 0.084187
O O8 0.306637 0.822537 0.227455
O O9 0.203426 0.858659 0.067968
O O10 0.219420 0.061131 0.446692
O O11 0.301227 0.172879 0.394962
O O12 0.750000 0.500000 0.319973
O O13 0.741790 0.379382 0.303516
O O14 0.779745 0.723050 0.199636
O O15 0.000000 0.802143 0.250000
O O16 0.000000 0.670638 0.750000
#
# Coordination Sequence:
#
# PCOD9421543 Si02
#       8
#     4   8   8   8   8   4   8   8
#     4  10  22  40  66  94 134 168 200 264 328 370
#     4  10  20  36  59  88 121 157 198 251 306 366
#     4  11  22  45  65  93 132 167 210 264 320 379
#     4  11  24  41  66  96 125 169 211 259 323 386
#     4  10  20  36  59  88 121 159 198 249 309 364
#     4  10  22  38  64  98 126 170 206 258 324 380
#     4  12  25  43  64  91 124 168 215 267 319 378
#     4  10  23  40  61  84 121 165 205 254 311 368
#
# _framework density 21.233688999999998
#
# number of rings (size 3 to 8) (size 9 to 14) (size 15 to 20)
#    0.000    1.429    2.857    3.857    1.000    7.429 
#    0.000    2.857    0.000    0.000    0.000    0.000 
#    0.000    0.000    0.000    0.000    0.000    0.000 
#
# Total GULP energy -312847.321602 kJ/mol
# GULP energy per Si atom -5586.559314 kJ/mol
# Density = 2.118536 g / cm^3
# Si number density = 21.233689 Si / 1000 Ang^3
#
#
#
# Elastic Constant Matrix: (Units=GPa)
#
#
# Indices 1 2 3 4 5 6 
#
# 1 33.7156 22.8291 -7.2586 0.0000 0.0000 0.0000
# 2 22.8291 77.1518 28.4763 0.0000 0.0000 0.0000
# 3 -7.2586 28.4763 94.6582 0.0000 0.0000 0.0000
# 4 0.0000 0.0000 0.0000 -12.9023 0.0000 0.0000
# 5 0.0000 0.0000 0.0000 0.0000 23.6508 0.0000
# 6 0.0000 0.0000 0.0000 0.0000 0.0000 10.6682
#
#
#
# Elastic Compliance Matrix: (Units=1/GPa)
#
#
# Indices 1 2 3 4 5 6 
#
# 1 0.041602 -0.015172 0.007754 0.000000 0.000000 0.000000
# 2 -0.015172 0.020114 -0.007214 0.000000 0.000000 0.000000
# 3 0.007754 -0.007214 0.013329 0.000000 0.000000 0.000000
# 4 0.000000 0.000000 0.000000 -0.077505 0.000000 0.000000
# 5 0.000000 0.000000 0.000000 0.000000 0.042282 0.000000
# 6 0.000000 0.000000 0.000000 0.000000 0.000000 0.093736
#
#
# Mechanical properties :
#
#
# Convention : Reuss Voigt Hill
#
# Bulk Modulus (GPa) = 21.84297 32.62435 27.23366
# Shear Modulus (GPa) = 28.07683 15.04860 21.56272
#
# Velocity S-wave (km/s) = 3.64026 2.66505 3.19014
# Velocity P-wave (km/s) = 5.28942 4.98676 5.14032
#
# Compressibility (1/GPa) = 0.04578132
#
# Stress axis : x y z
#
# Youngs Moduli (GPa) = 24.03702 49.71755 75.02300
#
# Poissons Ratio (x) = 0.75433 -0.58176
# Poissons Ratio (y) = 0.36469 0.54124
# Poissons Ratio (z) = -0.18639 0.35868
#
# Static dielectric constant tensor:
#      x y z
#    x 1.851840 0.000000 0.000000 
#    y 0.000000 1.743220 0.000000 
#    z 0.000000 0.000000 1.738590 
# 
# From -- ./inp_files/11910.got.cif
#   From: 2010.05.17/outbox.cif.g08.bks.cpg/sg54_6_cif.got.tgz:11910.got - 2010.06.03 13:09:01.
