data_PCOD9421588
_publ_section_title
;
Structure prediction by ZEFSAII (Michael W. Deem and Ramdas Pophale) SiO2 
 PCOD9421588
Probable space group: P C C A
;
_chemical_formula_sum "Si O2"
_cell_formula_units_Z 52
_cell_length_a 14.658607
_cell_length_b 7.625117
_cell_length_c 20.828783
_cell_angle_alpha 90.000000
_cell_angle_beta 90.000000
_cell_angle_gamma 90.000000
_cell_volume 2328.107923
_symmetry_space_group_name_H-M "P C C A"
_symmetry_group_IT_number 54
_symmetry_cell_setting 'orthorhombic'
loop_
_space_group_symop_operation_xyz
x,y,z
1/2-x,-y,z
1/2+x,-y,1/2-z
-x,y,1/2-z
-x,-y,-z
1/2+x,y,-z
1/2-x,y,1/2+z
x,-y,1/2+z
loop_
_atom_site_type_symbol
_atom_site_label
_atom_site_fract_x
_atom_site_fract_y
_atom_site_fract_z
Si Si1 0.062857 0.389456 0.196870
Si Si2 0.099075 0.312699 0.942311
Si Si3 0.996745 0.205927 0.823098
Si Si4 0.013200 0.295237 0.432946
Si Si5 0.181829 0.161675 0.606209
Si Si6 0.250000 0.500000 0.682854
Si Si7 0.704029 0.187535 0.542021
O O1 0.026031 0.586767 0.185286
O O2 0.165242 0.420396 0.221028
O O3 0.000000 0.302742 0.250000
O O4 0.053331 0.298128 0.128268
O O5 0.053710 0.506283 0.940677
O O6 0.208395 0.314541 0.949801
O O7 0.077229 0.213069 0.875528
O O8 0.046631 0.235376 0.005338
O O9 0.913000 0.118809 0.860069
O O10 0.000000 0.138207 0.750000
O O11 0.109035 0.198291 0.419892
O O12 0.216372 0.339754 0.639297
O O13 0.170827 0.202968 0.531473
O O14 0.250000 0.000000 0.613407
O O15 0.750000 0.000000 0.551274
#
# Coordination Sequence:
#
# PCOD9421588 Si02
#       7
#     8   8   8   8   8   4   8
#     4   9  19  37  59  91 119 158 210 257 315 379
#     4  10  20  36  62  87 115 156 207 256 310 373
#     4   9  18  38  61  83 120 161 205 258 314 368
#     4  10  20  37  60  89 117 154 206 261 305 372
#     4  10  21  38  59  91 120 158 211 252 310 381
#     4  10  20  38  66  84 122 168 206 256 308 380
#     4  11  23  37  56  89 125 158 198 256 317 375
#
# _framework density 22.335733000000001
#
# number of rings (size 3 to 8) (size 9 to 14) (size 15 to 20)
#    0.000    2.154    1.538    1.385    4.308    0.615 
#   13.846    1.538    0.000    0.000    0.000    0.000 
#    0.000    0.000    0.000    0.000    0.000    0.000 
#
# Total GULP energy -290041.585858 kJ/mol
# GULP energy per Si atom -5577.722805 kJ/mol
# Density = 2.228490 g / cm^3
# Si number density = 22.335733 Si / 1000 Ang^3
#
#
#
# Elastic Constant Matrix: (Units=GPa)
#
#
# Indices 1 2 3 4 5 6 
#
# 1 129.1321 -0.7736 54.1022 0.0000 0.0000 0.0000
# 2 -0.7736 45.3289 4.1601 0.0000 0.0000 0.0000
# 3 54.1022 4.1601 108.5892 0.0000 0.0000 0.0000
# 4 0.0000 0.0000 0.0000 -6.6041 0.0000 0.0000
# 5 0.0000 0.0000 0.0000 0.0000 -138.2229 0.0000
# 6 0.0000 0.0000 0.0000 0.0000 0.0000 10.1352
#
#
#
# Elastic Compliance Matrix: (Units=1/GPa)
#
#
# Indices 1 2 3 4 5 6 
#
# 1 0.009804 0.000618 -0.004908 0.000000 0.000000 0.000000
# 2 0.000618 0.022178 -0.001157 0.000000 0.000000 0.000000
# 3 -0.004908 -0.001157 0.011699 0.000000 0.000000 0.000000
# 4 0.000000 0.000000 0.000000 -0.151420 0.000000 0.000000
# 5 0.000000 0.000000 0.000000 0.000000 -0.007235 0.000000
# 6 0.000000 0.000000 0.000000 0.000000 0.000000 0.098666
#
#
# Mechanical properties :
#
#
# Convention : Reuss Voigt Hill
#
# Bulk Modulus (GPa) = 30.50203 44.22531 37.36367
# Shear Modulus (GPa) = 906.37145 -11.90094 447.23525
#
# Velocity S-wave (km/s) = 20.16619 -2.31080 14.16572
# Velocity P-wave (km/s) = 23.57795 3.56701 16.86184
#
# Compressibility (1/GPa) = 0.03278470
#
# Stress axis : x y z
#
# Youngs Moduli (GPa) = 101.99748 45.09025 85.47844
#
# Poissons Ratio (x) = -0.02786 0.41956
# Poissons Ratio (y) = -0.06301 0.09894
# Poissons Ratio (z) = 0.50064 0.05219
#
# Static dielectric constant tensor:
#      x y z
#    x 1.879490 0.000000 0.000000 
#    y 0.000000 1.880910 0.000000 
#    z 0.000000 0.000000 1.835650 
# 
# From -- ./inp_files/21548.got.cif
#   From: 2010.05.17/outbox.cif.g08.bks.cpg/sg54_11_cif.got.tgz:21548.got - 2010.06.03 13:09:01.
