data_PCOD9421579
_publ_section_title
;
Structure prediction by ZEFSAII (Michael W. Deem and Ramdas Pophale) SiO2 
 PCOD9421579
Probable space group: P C C A
;
_chemical_formula_sum "Si O2"
_cell_formula_units_Z 36
_cell_length_a 8.109856
_cell_length_b 13.560920
_cell_length_c 13.073456
_cell_angle_alpha 90.000000
_cell_angle_beta 90.000000
_cell_angle_gamma 90.000000
_cell_volume 1437.780888
_symmetry_space_group_name_H-M "P C C A"
_symmetry_group_IT_number 54
_symmetry_cell_setting 'orthorhombic'
loop_
_space_group_symop_operation_xyz
x,y,z
1/2-x,-y,z
1/2+x,-y,1/2-z
-x,y,1/2-z
-x,-y,-z
1/2+x,y,-z
1/2-x,y,1/2+z
x,-y,1/2+z
loop_
_atom_site_type_symbol
_atom_site_label
_atom_site_fract_x
_atom_site_fract_y
_atom_site_fract_z
Si Si1 0.000000 0.071954 0.750000
Si Si2 0.548869 0.365009 0.086938
Si Si3 0.250000 0.000000 0.586609
Si Si4 0.920625 0.197936 0.425617
Si Si5 0.750000 0.500000 0.430588
Si Si6 0.763558 0.230935 0.214498
O O1 0.136763 0.142668 0.794723
O O2 0.906611 0.015538 0.838985
O O3 0.392081 0.431255 0.120120
O O4 0.675650 0.328765 0.173108
O O5 0.521109 0.265508 0.019822
O O6 0.648461 0.428925 0.004840
O O7 0.182886 0.898740 0.535934
O O8 0.803380 0.241763 0.335195
O O9 0.084528 0.195216 0.354933
#
# Coordination Sequence:
#
# PCOD9421579 Si02
#       6
#     4   8   4   8   4   8
#     4  10  20  36  62  92 130 178 222 270 330 402
#     4  11  22  45  68  98 133 181 218 290 345 402
#     4  10  20  36  60  98 134 178 224 274 330 410
#     4  10  22  41  65  96 140 177 224 276 340 412
#     4  10  24  40  74  90 128 170 230 280 352 396
#     4  10  22  39  68  92 133 180 219 279 341 405
#
# _framework density 25.038584
#
# number of rings (size 3 to 8) (size 9 to 14) (size 15 to 20)
#    0.000    1.778    2.222    2.667    6.222    0.000 
#    0.000   10.000    0.000    0.000    0.000    0.000 
#    0.000    0.000    0.000    0.000    0.000    0.000 
#
# Total GULP energy -200872.675784 kJ/mol
# GULP energy per Si atom -5579.796550 kJ/mol
# Density = 2.498160 g / cm^3
# Si number density = 25.038584 Si / 1000 Ang^3
#
#
#
# Elastic Constant Matrix: (Units=GPa)
#
#
# Indices 1 2 3 4 5 6 
#
# 1 132.7111 55.4813 37.0093 0.0000 0.0000 0.0000
# 2 55.4813 111.2962 32.6424 0.0000 0.0000 0.0000
# 3 37.0093 32.6424 95.3181 0.0000 0.0000 0.0000
# 4 0.0000 0.0000 0.0000 -5.7412 0.0000 0.0000
# 5 0.0000 0.0000 0.0000 0.0000 22.9935 0.0000
# 6 0.0000 0.0000 0.0000 0.0000 0.0000 3.1746
#
#
#
# Elastic Compliance Matrix: (Units=1/GPa)
#
#
# Indices 1 2 3 4 5 6 
#
# 1 0.009996 -0.004274 -0.002418 0.000000 0.000000 0.000000
# 2 -0.004274 0.011816 -0.002387 0.000000 0.000000 0.000000
# 3 -0.002418 -0.002387 0.012247 0.000000 0.000000 0.000000
# 4 0.000000 0.000000 0.000000 -0.174179 0.000000 0.000000
# 5 0.000000 0.000000 0.000000 0.000000 0.043491 0.000000
# 6 0.000000 0.000000 0.000000 0.000000 0.000000 0.315000
#
#
# Mechanical properties :
#
#
# Convention : Reuss Voigt Hill
#
# Bulk Modulus (GPa) = 62.88453 65.51016 64.19734
# Shear Modulus (GPa) = 20.67584 18.36487 19.52036
#
# Velocity S-wave (km/s) = 2.87672 2.71119 2.79518
# Velocity P-wave (km/s) = 6.01694 6.00177 6.00936
#
# Compressibility (1/GPa) = 0.01590216
#
# Stress axis : x y z
#
# Youngs Moduli (GPa) = 100.03841 84.63313 81.65095
#
# Poissons Ratio (x) = 0.36173 0.19739
# Poissons Ratio (y) = 0.42757 0.19489
# Poissons Ratio (z) = 0.24185 0.20201
#
# Static dielectric constant tensor:
#      x y z
#    x 4.235280 0.000000 0.000000 
#    y 0.000000 2.170390 0.000000 
#    z 0.000000 0.000000 2.005200 
# 
# From -- ./inp_files/11429.got.cif
#   From: 2010.05.17/outbox.cif.g08.bks.cpg/sg54_6_cif.got.tgz:11429.got - 2010.06.03 13:09:01.
