data_PCOD9421044
_publ_section_title
;
Structure prediction by ZEFSAII (Michael W. Deem and Ramdas Pophale) SiO2 
 PCOD9421044
Probable space group: P C C A
;
_chemical_formula_sum "Si O2"
_cell_formula_units_Z 48
_cell_length_a 5.052016
_cell_length_b 19.896703
_cell_length_c 24.341372
_cell_angle_alpha 90.000000
_cell_angle_beta 90.000000
_cell_angle_gamma 90.000000
_cell_volume 2446.757274
_symmetry_space_group_name_H-M "P C C A"
_symmetry_group_IT_number 54
_symmetry_cell_setting 'orthorhombic'
loop_
_space_group_symop_operation_xyz
x,y,z
1/2-x,-y,z
1/2+x,-y,1/2-z
-x,y,1/2-z
-x,-y,-z
1/2+x,y,-z
1/2-x,y,1/2+z
x,-y,1/2+z
loop_
_atom_site_type_symbol
_atom_site_label
_atom_site_fract_x
_atom_site_fract_y
_atom_site_fract_z
Si Si1 0.754934 0.147025 0.538686
Si Si2 0.420686 0.436316 0.187477
Si Si3 0.573330 0.732861 0.116696
Si Si4 0.056573 0.391748 0.036531
Si Si5 0.750000 0.500000 0.101192
Si Si6 0.592207 0.285763 0.311682
Si Si7 0.250000 0.000000 0.959990
O O1 0.545233 0.151887 0.488278
O O2 0.673223 0.205762 0.579378
O O3 0.739889 0.073300 0.567431
O O4 0.250000 0.500000 0.171194
O O5 0.500000 0.449422 0.250000
O O6 0.648474 0.441909 0.142324
O O7 0.298910 0.362651 0.189087
O O8 0.492820 0.671000 0.077021
O O9 0.324739 0.752225 0.155874
O O10 0.823728 0.713851 0.153768
O O11 0.967330 0.461734 0.064545
O O12 0.856327 0.387277 0.984696
O O13 0.500000 0.266647 0.250000
O O14 0.500000 0.000000 0.000000
#
# Coordination Sequence:
#
# PCOD9421044 Si02
#       7
#     8   8   8   8   4   8   4
#     4  10  19  34  58  90 126 161 195 231 279 338
#     4  11  23  38  60  82 103 136 187 253 312 365
#     4  12  22  41  61  84 114 156 191 239 286 350
#     4  12  26  41  55  78 109 148 191 230 276 346
#     4  12  24  40  56  76 104 146 182 238 302 348
#     4  11  25  41  61  85 113 142 191 249 306 350
#     4   8  16  30  52  86 126 158 190 234 272 318
#
# _framework density 19.617801
#
# number of rings (size 3 to 8) (size 9 to 14) (size 15 to 20)
#    0.000    1.000    2.500    5.000    2.333    0.000 
#    0.000    0.000    0.000    0.000    0.000    2.333 
#    0.000    0.000    0.000    0.000    0.000    0.000 
#
# Total GULP energy -268032.531210 kJ/mol
# GULP energy per Si atom -5584.011067 kJ/mol
# Density = 1.957315 g / cm^3
# Si number density = 19.617801 Si / 1000 Ang^3
#
#
#
# Elastic Constant Matrix: (Units=GPa)
#
#
# Indices 1 2 3 4 5 6 
#
# 1 60.8815 -8.5624 6.5803 0.0000 0.0000 0.0000
# 2 -8.5624 77.0111 36.1017 0.0000 0.0000 0.0000
# 3 6.5803 36.1017 84.6660 0.0000 0.0000 0.0000
# 4 0.0000 0.0000 0.0000 -5.8051 0.0000 0.0000
# 5 0.0000 0.0000 0.0000 0.0000 41.2085 0.0000
# 6 0.0000 0.0000 0.0000 0.0000 0.0000 21.0188
#
#
#
# Elastic Compliance Matrix: (Units=1/GPa)
#
#
# Indices 1 2 3 4 5 6 
#
# 1 0.017161 0.003166 -0.002684 0.000000 0.000000 0.000000
# 2 0.003166 0.016813 -0.007415 0.000000 0.000000 0.000000
# 3 -0.002684 -0.007415 0.015182 0.000000 0.000000 0.000000
# 4 0.000000 0.000000 0.000000 -0.172263 0.000000 0.000000
# 5 0.000000 0.000000 0.000000 0.000000 0.024267 0.000000
# 6 0.000000 0.000000 0.000000 0.000000 0.000000 0.047576
#
#
# Mechanical properties :
#
#
# Convention : Reuss Voigt Hill
#
# Bulk Modulus (GPa) = 28.33688 32.31087 30.32387
# Shear Modulus (GPa) = -195.04567 23.84705 -85.59931
#
# Velocity S-wave (km/s) = -9.98192 3.49030 -6.61273
# Velocity P-wave (km/s) = 10.88006 5.72266 6.54320
#
# Compressibility (1/GPa) = 0.03528970
#
# Stress axis : x y z
#
# Youngs Moduli (GPa) = 58.27270 59.47660 65.86922
#
# Poissons Ratio (x) = -0.18831 0.17678
# Poissons Ratio (y) = -0.18450 0.48844
# Poissons Ratio (z) = 0.15639 0.44104
#
# Static dielectric constant tensor:
#      x y z
#    x 1.791830 0.000000 0.000000 
#    y 0.000000 1.822410 0.000000 
#    z 0.000000 0.000000 1.695850 
# 
# From -- ./inp_files/22937.got.cif
#   From: 2010.05.17/outbox.cif.g08.bks.cpg/sg54_12_cif.got.tgz:22937.got - 2010.06.03 13:09:01.
