data_PCOD9421105
_publ_section_title
;
Structure prediction by ZEFSAII (Michael W. Deem and Ramdas Pophale) SiO2 
 PCOD9421105
Probable space group: P C C A
;
_chemical_formula_sum "Si O2"
_cell_formula_units_Z 48
_cell_length_a 23.847416
_cell_length_b 6.119626
_cell_length_c 16.348500
_cell_angle_alpha 90.000000
_cell_angle_beta 90.000000
_cell_angle_gamma 90.000000
_cell_volume 2385.855409
_symmetry_space_group_name_H-M "P C C A"
_symmetry_group_IT_number 54
_symmetry_cell_setting 'orthorhombic'
loop_
_space_group_symop_operation_xyz
x,y,z
1/2-x,-y,z
1/2+x,-y,1/2-z
-x,y,1/2-z
-x,-y,-z
1/2+x,y,-z
1/2-x,y,1/2+z
x,-y,1/2+z
loop_
_atom_site_type_symbol
_atom_site_label
_atom_site_fract_x
_atom_site_fract_y
_atom_site_fract_z
Si Si1 0.956559 0.186900 0.970568
Si Si2 0.250000 0.000000 0.812212
Si Si3 0.303783 0.619631 0.202499
Si Si4 0.000000 0.276137 0.250000
Si Si5 0.101381 0.938419 0.664580
Si Si6 0.948987 0.526535 0.109173
Si Si7 0.146115 0.234940 0.814291
O O1 0.907658 0.082569 0.916054
O O2 0.993854 0.354280 0.916802
O O3 0.936024 0.332378 0.046390
O O4 0.000000 0.000000 0.000000
O O5 0.224613 0.812612 0.754543
O O6 0.302143 0.889725 0.856471
O O7 0.250000 0.500000 0.160175
O O8 0.330913 0.447280 0.265918
O O9 0.354441 0.739225 0.154260
O O10 0.041615 0.422668 0.302409
O O11 0.038936 0.142343 0.188254
O O12 0.121064 0.081295 0.742582
O O13 0.899914 0.699791 0.119854
#
# Coordination Sequence:
#
# PCOD9421105 Si02
#       7
#     8   4   8   4   8   8   8
#     4  11  24  39  52  84 131 169 197 241 304 382
#     4   8  18  32  56  92 118 138 200 264 308 342
#     4   9  18  34  57  90 119 146 200 261 305 348
#     4  12  20  36  58  90 124 150 208 258 298 368
#     4  11  21  34  58  86 127 162 200 256 306 365
#     4  11  23  36  56  84 127 165 205 247 308 370
#     4  10  19  35  59  89 117 158 201 261 299 356
#
# _framework density 20.118570999999999
#
# number of rings (size 3 to 8) (size 9 to 14) (size 15 to 20)
#    0.000    1.667    3.333    2.000    0.000    0.000 
#    0.000    0.000    0.000    0.000    0.000   92.167 
#    0.000    0.000    0.000    0.000    0.000    0.000 
#
# Total GULP energy -267813.734300 kJ/mol
# GULP energy per Si atom -5579.452798 kJ/mol
# Density = 2.007278 g / cm^3
# Si number density = 20.118571 Si / 1000 Ang^3
#
#
#
# Elastic Constant Matrix: (Units=GPa)
#
#
# Indices 1 2 3 4 5 6 
#
# 1 109.0553 29.9183 20.1975 0.0000 0.0000 0.0000
# 2 29.9183 73.4401 11.3352 0.0000 0.0000 0.0000
# 3 20.1975 11.3352 52.1354 0.0000 0.0000 0.0000
# 4 0.0000 0.0000 0.0000 18.2466 0.0000 0.0000
# 5 0.0000 0.0000 0.0000 0.0000 14.2902 0.0000
# 6 0.0000 0.0000 0.0000 0.0000 0.0000 -24.7601
#
#
#
# Elastic Compliance Matrix: (Units=1/GPa)
#
#
# Indices 1 2 3 4 5 6 
#
# 1 0.010864 -0.003907 -0.003359 0.000000 0.000000 0.000000
# 2 -0.003907 0.015495 -0.001855 0.000000 0.000000 0.000000
# 3 -0.003359 -0.001855 0.020886 0.000000 0.000000 0.000000
# 4 0.000000 0.000000 0.000000 0.054805 0.000000 0.000000
# 5 0.000000 0.000000 0.000000 0.000000 0.069978 0.000000
# 6 0.000000 0.000000 0.000000 0.000000 0.000000 -0.040387
#
#
# Mechanical properties :
#
#
# Convention : Reuss Voigt Hill
#
# Bulk Modulus (GPa) = 34.48181 39.72588 37.10385
# Shear Modulus (GPa) = 31.33828 13.10064 22.21946
#
# Velocity S-wave (km/s) = 3.95103 2.55457 3.32689
# Velocity P-wave (km/s) = 6.16366 5.33759 5.76544
#
# Compressibility (1/GPa) = 0.02900080
#
# Stress axis : x y z
#
# Youngs Moduli (GPa) = 92.04970 64.53860 47.88011
#
# Poissons Ratio (x) = 0.25217 0.16084
# Poissons Ratio (y) = 0.35966 0.08882
# Poissons Ratio (z) = 0.30921 0.11973
#
# Static dielectric constant tensor:
#      x y z
#    x 2.193990 0.000000 0.000000 
#    y 0.000000 1.753350 0.000000 
#    z 0.000000 0.000000 1.697980 
# 
# From -- ./inp_files/19087.got.cif
#   From: 2010.05.17/outbox.cif.g08.bks.cpg/sg54_10_cif.got.tgz:19087.got - 2010.06.03 13:09:01.
