data_PCOD9421696
_publ_section_title
;
Structure prediction by ZEFSAII (Michael W. Deem and Ramdas Pophale) SiO2 
 PCOD9421696
Probable space group: P C C A
;
_chemical_formula_sum "Si O2"
_cell_formula_units_Z 56
_cell_length_a 14.032319
_cell_length_b 11.681670
_cell_length_c 14.915576
_cell_angle_alpha 90.000000
_cell_angle_beta 90.000000
_cell_angle_gamma 90.000000
_cell_volume 2444.974939
_symmetry_space_group_name_H-M "P C C A"
_symmetry_group_IT_number 54
_symmetry_cell_setting 'orthorhombic'
loop_
_space_group_symop_operation_xyz
x,y,z
1/2-x,-y,z
1/2+x,-y,1/2-z
-x,y,1/2-z
-x,-y,-z
1/2+x,y,-z
1/2-x,y,1/2+z
x,-y,1/2+z
loop_
_atom_site_type_symbol
_atom_site_label
_atom_site_fract_x
_atom_site_fract_y
_atom_site_fract_z
Si Si1 0.298629 0.360235 0.040494
Si Si2 0.751978 0.127184 0.364797
Si Si3 0.098992 0.911955 0.792727
Si Si4 0.472545 0.711213 0.417659
Si Si5 0.395408 0.156253 0.289524
Si Si6 0.542028 0.522588 0.848455
Si Si7 0.886031 0.671628 0.055986
O O1 0.259510 0.235429 0.071961
O O2 0.353776 0.426677 0.122589
O O3 0.382270 0.341654 0.969089
O O4 0.200778 0.396055 0.990118
O O5 0.835940 0.128025 0.290322
O O6 0.661251 0.140895 0.301584
O O7 0.750000 0.000000 0.406965
O O8 0.072859 0.809805 0.858069
O O9 0.000000 0.948768 0.750000
O O10 0.127186 0.033124 0.836696
O O11 0.530237 0.613345 0.363555
O O12 0.552117 0.752350 0.489029
O O13 0.500000 0.184806 0.250000
O O14 0.359739 0.254206 0.356922
O O15 0.500000 0.547523 0.750000
O O16 0.465445 0.580931 0.913919
#
# Coordination Sequence:
#
# PCOD9421696 Si02
#       7
#     8   8   8   8   8   8   8
#     4  11  23  39  63  92 123 160 205 260 319 369
#     4  10  21  38  61  91 127 166 209 254 307 381
#     4  10  21  38  59  89 126 165 207 250 306 372
#     4  11  24  40  60  89 125 159 206 266 315 365
#     4  10  20  37  63  90 124 167 207 250 306 380
#     4  11  25  45  66  87 121 168 214 259 313 378
#     4  11  22  39  63  92 124 158 207 263 317 374
#
# _framework density 22.904119999999999
#
# number of rings (size 3 to 8) (size 9 to 14) (size 15 to 20)
#    0.000    1.429    0.000    6.857    0.000    4.000 
#    0.000    1.429    0.000    0.000    0.000    0.000 
#    0.000    0.000    0.000    0.000    0.000    0.000 
#
# Total GULP energy -312240.671104 kJ/mol
# GULP energy per Si atom -5575.726270 kJ/mol
# Density = 2.285199 g / cm^3
# Si number density = 22.904120 Si / 1000 Ang^3
#
#
#
# Elastic Constant Matrix: (Units=GPa)
#
#
# Indices 1 2 3 4 5 6 
#
# 1 119.9918 -8.3609 14.0461 0.0000 0.0000 0.0000
# 2 -8.3609 91.5846 20.3008 0.0000 0.0000 0.0000
# 3 14.0461 20.3008 54.7894 0.0000 0.0000 0.0000
# 4 0.0000 0.0000 0.0000 34.7812 0.0000 0.0000
# 5 0.0000 0.0000 0.0000 0.0000 20.1146 0.0000
# 6 0.0000 0.0000 0.0000 0.0000 0.0000 23.4770
#
#
#
# Elastic Compliance Matrix: (Units=1/GPa)
#
#
# Indices 1 2 3 4 5 6 
#
# 1 0.008756 0.001413 -0.002768 0.000000 0.000000 0.000000
# 2 0.001413 0.012124 -0.004854 0.000000 0.000000 0.000000
# 3 -0.002768 -0.004854 0.020760 0.000000 0.000000 0.000000
# 4 0.000000 0.000000 0.000000 0.028751 0.000000 0.000000
# 5 0.000000 0.000000 0.000000 0.000000 0.049715 0.000000
# 6 0.000000 0.000000 0.000000 0.000000 0.000000 0.042595
#
#
# Mechanical properties :
#
#
# Convention : Reuss Voigt Hill
#
# Bulk Modulus (GPa) = 34.22218 35.37086 34.79652
# Shear Modulus (GPa) = 27.04727 31.69988 29.37358
#
# Velocity S-wave (km/s) = 3.44014 3.72428 3.58503
# Velocity P-wave (km/s) = 5.54557 5.82840 5.68874
#
# Compressibility (1/GPa) = 0.02922082
#
# Stress axis : x y z
#
# Youngs Moduli (GPa) = 114.20173 82.48168 48.16924
#
# Poissons Ratio (x) = -0.11655 0.13335
# Poissons Ratio (y) = -0.16137 0.23384
# Poissons Ratio (z) = 0.31616 0.40040
#
# Static dielectric constant tensor:
#      x y z
#    x 1.859630 0.000000 0.000000 
#    y 0.000000 2.083400 0.000000 
#    z 0.000000 0.000000 1.897610 
# 
# From -- ./inp_files/13514.got.cif
#   From: 2010.05.17/outbox.cif.g08.bks.cpg/sg54_7_cif.got.tgz:13514.got - 2010.06.03 13:09:01.
