data_PCOD9421309
_publ_section_title
;
Structure prediction by ZEFSAII (Michael W. Deem and Ramdas Pophale) SiO2 
 PCOD9421309
Probable space group: P C C A
;
_chemical_formula_sum "Si O2"
_cell_formula_units_Z 36
_cell_length_a 5.077298
_cell_length_b 13.298248
_cell_length_c 27.903297
_cell_angle_alpha 90.000000
_cell_angle_beta 90.000000
_cell_angle_gamma 90.000000
_cell_volume 1884.007397
_symmetry_space_group_name_H-M "P C C A"
_symmetry_group_IT_number 54
_symmetry_cell_setting 'orthorhombic'
loop_
_space_group_symop_operation_xyz
x,y,z
1/2-x,-y,z
1/2+x,-y,1/2-z
-x,y,1/2-z
-x,-y,-z
1/2+x,y,-z
1/2-x,y,1/2+z
x,-y,1/2+z
loop_
_atom_site_type_symbol
_atom_site_label
_atom_site_fract_x
_atom_site_fract_y
_atom_site_fract_z
Si Si1 0.878580 0.228823 0.863272
Si Si2 0.142134 0.780835 0.028342
Si Si3 0.997836 0.431591 0.807160
Si Si4 0.750000 0.000000 0.941637
Si Si5 0.607700 0.906471 0.140617
O O1 0.793365 0.253431 0.917777
O O2 0.956146 0.326504 0.833633
O O3 0.641583 0.160171 0.840890
O O4 0.147688 0.165974 0.869175
O O5 0.148761 0.903212 0.030219
O O6 0.360271 0.747991 0.990474
O O7 0.750000 0.500000 0.818666
O O8 0.250000 0.500000 0.819369
O O9 0.000000 0.412607 0.750000
O O10 0.977653 0.957302 0.906468
O O11 0.750000 0.000000 0.168146
#
# Coordination Sequence:
#
# PCOD9421309 Si02
#       5
#     8   8   8   4   8
#     4  11  22  35  58  84 118 155 186 241 297 332
#     4  11  21  30  47  77 117 157 200 232 268 325
#     4  10  22  43  70  95 108 129 185 257 315 356
#     4  10  20  30  48  74 118 156 212 242 272 284
#     4  11  18  33  52  83 118 165 192 224 271 341
#
# _framework density 19.108204000000001
#
# number of rings (size 3 to 8) (size 9 to 14) (size 15 to 20)
#    0.000    1.333    4.444    4.667    0.000    0.000 
#    0.000    0.000    0.000    6.667    2.889    0.000 
#    0.000    0.000    0.000    0.000    0.000    0.000 
#
# Total GULP energy -200696.404894 kJ/mol
# GULP energy per Si atom -5574.900136 kJ/mol
# Density = 1.906471 g / cm^3
# Si number density = 19.108204 Si / 1000 Ang^3
#
#
#
# Elastic Constant Matrix: (Units=GPa)
#
#
# Indices 1 2 3 4 5 6 
#
# 1 144.8353 60.7051 25.5818 0.0000 0.0000 0.0000
# 2 60.7051 98.2038 47.0478 0.0000 0.0000 0.0000
# 3 25.5818 47.0478 27.6477 0.0000 0.0000 0.0000
# 4 0.0000 0.0000 0.0000 34.8687 0.0000 0.0000
# 5 0.0000 0.0000 0.0000 0.0000 27.1005 0.0000
# 6 0.0000 0.0000 0.0000 0.0000 0.0000 74.6977
#
#
#
# Elastic Compliance Matrix: (Units=1/GPa)
#
#
# Indices 1 2 3 4 5 6 
#
# 1 0.009532 -0.009022 0.006533 0.000000 0.000000 0.000000
# 2 -0.009022 0.063657 -0.099976 0.000000 0.000000 0.000000
# 3 0.006533 -0.099976 0.200252 0.000000 0.000000 0.000000
# 4 0.000000 0.000000 0.000000 0.028679 0.000000 0.000000
# 5 0.000000 0.000000 0.000000 0.000000 0.036900 0.000000
# 6 0.000000 0.000000 0.000000 0.000000 0.000000 0.013387
#
#
# Mechanical properties :
#
#
# Convention : Reuss Voigt Hill
#
# Bulk Modulus (GPa) = 14.59619 59.70625 37.15122
# Shear Modulus (GPa) = 8.61811 36.49017 22.55414
#
# Velocity S-wave (km/s) = 2.12602 4.37471 3.43933
# Velocity P-wave (km/s) = 3.69890 7.53868 5.93774
#
# Compressibility (1/GPa) = 0.06851104
#
# Stress axis : x y z
#
# Youngs Moduli (GPa) = 104.91063 15.70926 4.99370
#
# Poissons Ratio (x) = 0.14173 -0.03262
# Poissons Ratio (y) = 0.94652 0.49925
# Poissons Ratio (z) = -0.68540 1.57055
#
# Static dielectric constant tensor:
#      x y z
#    x 1.701580 0.000000 0.000000 
#    y 0.000000 1.666160 0.000000 
#    z 0.000000 0.000000 1.617880 
# 
# From -- ./inp_files/27028.got.cif
#   From: 2010.05.17/outbox.cif.g08.bks.cpg/sg54_14_cif.got.tgz:27028.got - 2010.06.03 13:09:01.
