data_PCOD9421549
_publ_section_title
;
Structure prediction by ZEFSAII (Michael W. Deem and Ramdas Pophale) SiO2 
 PCOD9421549
Probable space group: P C C A
;
_chemical_formula_sum "Si O2"
_cell_formula_units_Z 36
_cell_length_a 12.045511
_cell_length_b 8.744512
_cell_length_c 18.626101
_cell_angle_alpha 90.000000
_cell_angle_beta 90.000000
_cell_angle_gamma 90.000000
_cell_volume 1961.926622
_symmetry_space_group_name_H-M "P C C A"
_symmetry_group_IT_number 54
_symmetry_cell_setting 'orthorhombic'
loop_
_space_group_symop_operation_xyz
x,y,z
1/2-x,-y,z
1/2+x,-y,1/2-z
-x,y,1/2-z
-x,-y,-z
1/2+x,y,-z
1/2-x,y,1/2+z
x,-y,1/2+z
loop_
_atom_site_type_symbol
_atom_site_label
_atom_site_fract_x
_atom_site_fract_y
_atom_site_fract_z
Si Si1 0.206021 0.243314 0.954684
Si Si2 0.250000 0.500000 0.353144
Si Si3 0.835227 0.139600 0.395918
Si Si4 0.905311 0.063348 0.102901
Si Si5 0.628833 0.756087 0.239129
O O1 0.181357 0.391421 0.907227
O O2 0.333708 0.188996 0.941251
O O3 0.134251 0.100637 0.924878
O O4 0.185032 0.256530 0.039002
O O5 0.185088 0.383059 0.302447
O O6 0.820295 0.206744 0.316361
O O7 0.963041 0.084284 0.402387
O O8 0.750000 0.000000 0.406764
O O9 0.870699 0.098316 0.185289
O O10 0.500000 0.717801 0.250000
#
# Coordination Sequence:
#
# PCOD9421549 Si02
#       5
#     8   4   8   8   8
#     4  10  20  36  60  82 113 153 188 228 288 348
#     4  10  22  40  56  78 120 160 184 212 304 366
#     4  11  21  34  62  91 109 140 201 252 274 323
#     4   9  19  39  59  81 117 148 187 238 290 330
#     4   9  21  40  56  80 117 150 185 241 286 331
#
# _framework density 18.349311
#
# number of rings (size 3 to 8) (size 9 to 14) (size 15 to 20)
#    0.000    2.222    2.222    0.667    6.222    0.889 
#    4.000   10.000    0.000    0.000    0.000    0.000 
#    0.000    0.000    0.000    0.000    0.000    0.000 
#
# Total GULP energy -200699.564060 kJ/mol
# GULP energy per Si atom -5574.987891 kJ/mol
# Density = 1.830755 g / cm^3
# Si number density = 18.349311 Si / 1000 Ang^3
#
#
#
# Elastic Constant Matrix: (Units=GPa)
#
#
# Indices 1 2 3 4 5 6 
#
# 1 74.6515 6.9582 27.3913 0.0000 0.0000 0.0000
# 2 6.9582 47.5165 31.6058 0.0000 0.0000 0.0000
# 3 27.3913 31.6058 161.0231 0.0000 0.0000 0.0000
# 4 0.0000 0.0000 0.0000 17.9118 0.0000 0.0000
# 5 0.0000 0.0000 0.0000 0.0000 21.1020 0.0000
# 6 0.0000 0.0000 0.0000 0.0000 0.0000 10.5133
#
#
#
# Elastic Compliance Matrix: (Units=1/GPa)
#
#
# Indices 1 2 3 4 5 6 
#
# 1 0.014300 -0.000547 -0.002325 0.000000 0.000000 0.000000
# 2 -0.000547 0.024226 -0.004662 0.000000 0.000000 0.000000
# 3 -0.002325 -0.004662 0.007521 0.000000 0.000000 0.000000
# 4 0.000000 0.000000 0.000000 0.055829 0.000000 0.000000
# 5 0.000000 0.000000 0.000000 0.000000 0.047389 0.000000
# 6 0.000000 0.000000 0.000000 0.000000 0.000000 0.095117
#
#
# Mechanical properties :
#
#
# Convention : Reuss Voigt Hill
#
# Bulk Modulus (GPa) = 32.28111 46.12242 39.20177
# Shear Modulus (GPa) = 18.53379 24.38781 21.46080
#
# Velocity S-wave (km/s) = 3.18158 3.64962 3.42361
# Velocity P-wave (km/s) = 5.57919 6.55362 6.08594
#
# Compressibility (1/GPa) = 0.03097787
#
# Stress axis : x y z
#
# Youngs Moduli (GPa) = 69.93147 41.27715 132.96332
#
# Poissons Ratio (x) = 0.02260 0.30914
# Poissons Ratio (y) = 0.03829 0.61988
# Poissons Ratio (z) = 0.16259 0.19244
#
# Static dielectric constant tensor:
#      x y z
#    x 1.635410 0.000000 0.000000 
#    y 0.000000 1.621930 0.000000 
#    z 0.000000 0.000000 1.677010 
# 
# From -- ./inp_files/20948.got.cif
#   From: 2010.05.17/outbox.cif.g08.bks.cpg/sg54_11_cif.got.tgz:20948.got - 2010.06.03 13:09:01.
