data_PCOD9421574
_publ_section_title
;
Structure prediction by ZEFSAII (Michael W. Deem and Ramdas Pophale) SiO2 
 PCOD9421574
Probable space group: P C C A
;
_chemical_formula_sum "Si O2"
_cell_formula_units_Z 56
_cell_length_a 20.870476
_cell_length_b 8.910993
_cell_length_c 14.317445
_cell_angle_alpha 90.000000
_cell_angle_beta 90.000000
_cell_angle_gamma 90.000000
_cell_volume 2662.710680
_symmetry_space_group_name_H-M "P C C A"
_symmetry_group_IT_number 54
_symmetry_cell_setting 'orthorhombic'
loop_
_space_group_symop_operation_xyz
x,y,z
1/2-x,-y,z
1/2+x,-y,1/2-z
-x,y,1/2-z
-x,-y,-z
1/2+x,y,-z
1/2-x,y,1/2+z
x,-y,1/2+z
loop_
_atom_site_type_symbol
_atom_site_label
_atom_site_fract_x
_atom_site_fract_y
_atom_site_fract_z
Si Si1 0.264614 0.332237 0.678116
Si Si2 0.873201 0.758322 0.961430
Si Si3 0.676327 0.987631 0.068263
Si Si4 0.369815 0.287278 0.820830
Si Si5 0.440005 0.097270 0.687662
Si Si6 0.572678 0.438506 0.496879
Si Si7 0.138036 0.819338 0.121860
O O1 0.250000 0.500000 0.642282
O O2 0.311999 0.238837 0.609316
O O3 0.303722 0.345112 0.775473
O O4 0.196237 0.251629 0.679967
O O5 0.935816 0.844387 0.919555
O O6 0.886483 0.585449 0.974443
O O7 0.853546 0.849383 0.053059
O O8 0.641891 0.879829 0.140306
O O9 0.750000 0.000000 0.093777
O O10 0.668589 0.902014 0.968827
O O11 0.416716 0.252526 0.735868
O O12 0.402678 0.379755 0.902616
O O13 0.500000 0.054772 0.750000
O O14 0.396990 0.948406 0.680050
O O15 0.500000 0.500000 0.500000
O O16 0.590578 0.308254 0.421434
#
# Coordination Sequence:
#
# PCOD9421574 Si02
#       7
#     8   8   8   8   8   8   8
#     4  11  21  41  63  93 128 158 212 258 334 376
#     4  10  21  38  69  86 123 177 196 262 319 374
#     4  10  20  36  60  93 120 155 206 251 313 371
#     4  10  25  38  62  96 123 161 210 276 302 373
#     4  10  22  42  61  90 128 169 213 252 313 378
#     4  11  23  44  64  93 127 168 221 255 313 378
#     4  10  22  40  65  88 124 171 204 256 321 387
#
# _framework density 21.031199999999998
#
# number of rings (size 3 to 8) (size 9 to 14) (size 15 to 20)
#    0.000    1.714    2.857    0.857    2.000    2.286 
#    2.571    5.000    0.000    0.000    0.000    0.000 
#    0.000    0.000    0.000    0.000    0.000    0.000 
#
# Total GULP energy -312120.750994 kJ/mol
# GULP energy per Si atom -5573.584839 kJ/mol
# Density = 2.098333 g / cm^3
# Si number density = 21.031200 Si / 1000 Ang^3
#
#
#
# Elastic Constant Matrix: (Units=GPa)
#
#
# Indices 1 2 3 4 5 6 
#
# 1 75.5886 27.9614 24.7019 0.0000 0.0000 0.0000
# 2 27.9614 102.9200 1.9578 0.0000 0.0000 0.0000
# 3 24.7019 1.9578 29.4598 0.0000 0.0000 0.0000
# 4 0.0000 0.0000 0.0000 31.3475 0.0000 0.0000
# 5 0.0000 0.0000 0.0000 0.0000 17.0843 0.0000
# 6 0.0000 0.0000 0.0000 0.0000 0.0000 36.2380
#
#
#
# Elastic Compliance Matrix: (Units=1/GPa)
#
#
# Indices 1 2 3 4 5 6 
#
# 1 0.020774 -0.005319 -0.017066 0.000000 0.000000 0.000000
# 2 -0.005319 0.011091 0.003723 0.000000 0.000000 0.000000
# 3 -0.017066 0.003723 0.048007 0.000000 0.000000 0.000000
# 4 0.000000 0.000000 0.000000 0.031900 0.000000 0.000000
# 5 0.000000 0.000000 0.000000 0.000000 0.058533 0.000000
# 6 0.000000 0.000000 0.000000 0.000000 0.000000 0.027595
#
#
# Mechanical properties :
#
#
# Convention : Reuss Voigt Hill
#
# Bulk Modulus (GPa) = 23.50289 35.24563 29.37426
# Shear Modulus (GPa) = 20.04763 27.15713 23.60238
#
# Velocity S-wave (km/s) = 3.09080 3.59733 3.35364
# Velocity P-wave (km/s) = 4.89253 5.83520 5.38453
#
# Compressibility (1/GPa) = 0.04254795
#
# Stress axis : x y z
#
# Youngs Moduli (GPa) = 48.13682 90.16635 20.83050
#
# Poissons Ratio (x) = 0.47962 0.35548
# Poissons Ratio (y) = 0.25605 -0.07756
# Poissons Ratio (z) = 0.82148 -0.33570
#
# Static dielectric constant tensor:
#      x y z
#    x 1.886200 0.000000 0.000000 
#    y 0.000000 1.746290 0.000000 
#    z 0.000000 0.000000 1.803460 
# 
# From -- ./inp_files/14666.got.cif
#   From: 2010.05.17/outbox.cif.g08.bks.cpg/sg54_8_cif.got.tgz:14666.got - 2010.06.03 13:09:01.
