data_PCOD9421015
_publ_section_title
;
Structure prediction by ZEFSAII (Michael W. Deem and Ramdas Pophale) SiO2 
 PCOD9421015
Probable space group: P C C A
;
_chemical_formula_sum "Si O2"
_cell_formula_units_Z 48
_cell_length_a 8.511421
_cell_length_b 9.988954
_cell_length_c 27.815390
_cell_angle_alpha 90.000000
_cell_angle_beta 90.000000
_cell_angle_gamma 90.000000
_cell_volume 2364.869822
_symmetry_space_group_name_H-M "P C C A"
_symmetry_group_IT_number 54
_symmetry_cell_setting 'orthorhombic'
loop_
_space_group_symop_operation_xyz
x,y,z
1/2-x,-y,z
1/2+x,-y,1/2-z
-x,y,1/2-z
-x,-y,-z
1/2+x,y,-z
1/2-x,y,1/2+z
x,-y,1/2+z
loop_
_atom_site_type_symbol
_atom_site_label
_atom_site_fract_x
_atom_site_fract_y
_atom_site_fract_z
Si Si1 0.169236 0.320671 0.512420
Si Si2 0.567076 0.956298 0.399217
Si Si3 0.466760 0.348487 0.570295
Si Si4 0.129227 0.203391 0.935310
Si Si5 0.096740 0.095203 0.298873
Si Si6 0.817952 0.641836 0.650484
O O1 0.301906 0.376990 0.546617
O O2 0.254473 0.202846 0.481253
O O3 0.095537 0.401259 0.467745
O O4 0.023313 0.280826 0.545069
O O5 0.539006 0.813290 0.424096
O O6 0.517271 0.940749 0.343536
O O7 0.750000 0.000000 0.404264
O O8 0.442028 0.061931 0.419994
O O9 0.520378 0.394351 0.622378
O O10 0.211646 0.280962 0.890529
O O11 0.152177 0.247594 0.309115
O O12 0.000000 0.082572 0.250000
O O13 0.250000 0.000000 0.299366
O O14 0.750000 0.500000 0.666279
#
# Coordination Sequence:
#
# PCOD9421015 Si02
#       6
#     8   8   8   8   8   8
#     4   9  18  31  50  83 123 167 213 254 294 343
#     4  11  20  33  58  88 123 162 206 251 315 376
#     4   9  19  31  51  81 120 159 211 250 299 346
#     4  10  19  34  54  86 126 168 212 253 299 351
#     4  11  23  43  70  97 121 148 192 254 318 384
#     4  10  22  42  65  86 122 168 202 248 307 363
#
# _framework density 20.2971
#
# number of rings (size 3 to 8) (size 9 to 14) (size 15 to 20)
#    0.000    2.000    3.333    0.500    0.000    4.000 
#    0.000   15.000    0.000    0.000    0.000    0.000 
#    0.000    0.000    0.000    0.000    0.000    0.000 
#
# Total GULP energy -267734.146773 kJ/mol
# GULP energy per Si atom -5577.794724 kJ/mol
# Density = 2.025090 g / cm^3
# Si number density = 20.297100 Si / 1000 Ang^3
#
#
#
# Elastic Constant Matrix: (Units=GPa)
#
#
# Indices 1 2 3 4 5 6 
#
# 1 118.8810 26.0827 41.8126 0.0000 0.0000 0.0000
# 2 26.0827 104.1148 31.8718 0.0000 0.0000 0.0000
# 3 41.8126 31.8718 78.3411 0.0000 0.0000 0.0000
# 4 0.0000 0.0000 0.0000 11.7876 0.0000 0.0000
# 5 0.0000 0.0000 0.0000 0.0000 35.7384 0.0000
# 6 0.0000 0.0000 0.0000 0.0000 0.0000 22.0698
#
#
#
# Elastic Compliance Matrix: (Units=1/GPa)
#
#
# Indices 1 2 3 4 5 6 
#
# 1 0.010454 -0.001040 -0.005156 0.000000 0.000000 0.000000
# 2 -0.001040 0.011075 -0.003950 0.000000 0.000000 0.000000
# 3 -0.005156 -0.003950 0.017124 0.000000 0.000000 0.000000
# 4 0.000000 0.000000 0.000000 0.084835 0.000000 0.000000
# 5 0.000000 0.000000 0.000000 0.000000 0.027981 0.000000
# 6 0.000000 0.000000 0.000000 0.000000 0.000000 0.045311
#
#
# Mechanical properties :
#
#
# Convention : Reuss Voigt Hill
#
# Bulk Modulus (GPa) = 54.47074 55.65235 55.06155
# Shear Modulus (GPa) = 22.40227 27.35714 24.87970
#
# Velocity S-wave (km/s) = 3.32583 3.67527 3.50491
# Velocity P-wave (km/s) = 6.45315 6.74452 6.60044
#
# Compressibility (1/GPa) = 0.01835848
#
# Stress axis : x y z
#
# Youngs Moduli (GPa) = 95.66161 90.29595 58.39864
#
# Poissons Ratio (x) = 0.09395 0.30110
# Poissons Ratio (y) = 0.09953 0.23069
# Poissons Ratio (z) = 0.49323 0.35669
#
# Static dielectric constant tensor:
#      x y z
#    x 1.772580 0.000000 0.000000 
#    y 0.000000 1.782820 0.000000 
#    z 0.000000 0.000000 1.690100 
# 
# From -- ./inp_files/27711.got.cif
#   From: 2010.05.17/outbox.cif.g08.bks.cpg/sg54_14_cif.got.tgz:27711.got - 2010.06.03 13:09:01.
