data_PCOD9421175
_publ_section_title
;
Structure prediction by ZEFSAII (Michael W. Deem and Ramdas Pophale) SiO2 
 PCOD9421175
Probable space group: P C C A
;
_chemical_formula_sum "Si O2"
_cell_formula_units_Z 64
_cell_length_a 15.283064
_cell_length_b 12.441671
_cell_length_c 15.734256
_cell_angle_alpha 90.000000
_cell_angle_beta 90.000000
_cell_angle_gamma 90.000000
_cell_volume 2991.819281
_symmetry_space_group_name_H-M "P C C A"
_symmetry_group_IT_number 54
_symmetry_cell_setting 'orthorhombic'
loop_
_space_group_symop_operation_xyz
x,y,z
1/2-x,-y,z
1/2+x,-y,1/2-z
-x,y,1/2-z
-x,-y,-z
1/2+x,y,-z
1/2-x,y,1/2+z
x,-y,1/2+z
loop_
_atom_site_type_symbol
_atom_site_label
_atom_site_fract_x
_atom_site_fract_y
_atom_site_fract_z
Si Si1 0.897575 0.732926 0.230248
Si Si2 0.897575 0.732926 0.730248
Si Si3 0.646576 0.879540 0.887250
Si Si4 0.398605 0.500000 0.222388
Si Si5 0.146576 0.879540 0.612750
Si Si6 0.856417 0.500000 0.475704
Si Si7 0.855985 0.730975 0.540092
Si Si8 0.644015 0.269025 0.040092
O O1 0.861696 0.815697 0.299235
O O2 0.859759 0.612313 0.243685
O O3 0.883295 0.766705 0.133560
O O4 0.000000 0.726359 0.250000
O O5 0.859759 0.612313 0.743685
O O6 0.861696 0.815697 0.799235
O O7 0.883295 0.766705 0.633560
O O8 0.000000 0.726359 0.750000
O O9 0.750000 0.889238 0.903902
O O10 0.609089 1.000000 0.883309
O O11 0.610760 0.806910 0.964233
O O12 0.500000 0.500000 0.250000
O O13 0.389729 0.500000 0.120820
O O14 0.110760 0.806910 0.535767
O O15 0.750000 0.500000 0.471981
O O16 0.885277 0.608620 0.522345
O O17 0.885277 0.391380 0.522345
O O18 0.750000 0.730090 0.537534
#
# Coordination Sequence:
#
# PCOD9421175 Si02
#       8
#     8   8   8   8   8   8   8   8
#     4  11  23  39  59  90 124 161 197 239 299 365
#     4  11  23  39  59  90 124 161 197 239 299 365
#     4  10  22  41  63  86 115 155 203 254 303 349
#     4  10  21  38  56  90 127 160 192 233 300 364
#     4  10  22  41  63  86 115 155 203 254 303 349
#     4  10  19  36  64  90 117 156 204 252 296 348
#     4  10  21  38  61  88 116 151 198 250 298 352
#     4  10  21  38  61  88 116 151 198 250 298 352
#
# _framework density 21.391666000000001
#
# number of rings (size 3 to 8) (size 9 to 14) (size 15 to 20)
#    0.000    1.750    2.500    1.500    0.000    3.500 
#    0.000    6.250    0.000    0.000    0.000    0.000 
#    0.000    0.000    0.000    0.000    0.000    0.000 
#
# Total GULP energy -357709.825031 kJ/mol
# GULP energy per Si atom -5589.216016 kJ/mol
# Density = 2.134298 g / cm^3
# Si number density = 21.391666 Si / 1000 Ang^3
#
#
#
# Elastic Constant Matrix: (Units=GPa)
#
#
# Indices 1 2 3 4 5 6 
#
# 1 29.5694 9.1123 -2.9900 0.0000 0.0000 0.0000
# 2 9.1123 180.7395 88.1536 0.0000 0.0000 0.0000
# 3 -2.9900 88.1536 199.3584 0.0000 0.0000 0.0000
# 4 0.0000 0.0000 0.0000 -12.6036 0.0000 0.0000
# 5 0.0000 0.0000 0.0000 0.0000 -27.4285 0.0000
# 6 0.0000 0.0000 0.0000 0.0000 0.0000 7.8406
#
#
#
# Elastic Compliance Matrix: (Units=1/GPa)
#
#
# Indices 1 2 3 4 5 6 
#
# 1 0.034775 -0.002560 0.001653 0.000000 0.000000 0.000000
# 2 -0.002560 0.007243 -0.003241 0.000000 0.000000 0.000000
# 3 0.001653 -0.003241 0.006474 0.000000 0.000000 0.000000
# 4 0.000000 0.000000 0.000000 -0.079342 0.000000 0.000000
# 5 0.000000 0.000000 0.000000 0.000000 -0.036458 0.000000
# 6 0.000000 0.000000 0.000000 0.000000 0.000000 0.127541
#
#
# Mechanical properties :
#
#
# Convention : Reuss Voigt Hill
#
# Bulk Modulus (GPa) = 24.87752 66.46878 45.67315
# Shear Modulus (GPa) = 61.03155 14.58780 37.80967
#
# Velocity S-wave (km/s) = 5.34719 2.61423 4.20872
# Velocity P-wave (km/s) = 7.05536 6.34444 6.70932
#
# Compressibility (1/GPa) = 0.04019693
#
# Stress axis : x y z
#
# Youngs Moduli (GPa) = 28.75649 138.07148 154.46380
#
# Poissons Ratio (x) = 0.35342 -0.25539
# Poissons Ratio (y) = 0.07361 0.50061
# Poissons Ratio (z) = -0.04755 0.44749
#
# Static dielectric constant tensor:
#      x y z
#    x 1.794470 0.000000 0.000000 
#    y 0.000000 1.804450 0.000000 
#    z 0.000000 0.000000 1.733890 
# 
# From -- ./inp_files/14349.got.cif
#   From: 2010.05.17/outbox.cif.g08.bks.cpg/sg54_8_cif.got.tgz:14349.got - 2010.06.03 13:09:01.
