data_PCOD9421428
_publ_section_title
;
Structure prediction by ZEFSAII (Michael W. Deem and Ramdas Pophale) SiO2 
 PCOD9421428
Probable space group: P C C A
;
_chemical_formula_sum "Si O2"
_cell_formula_units_Z 52
_cell_length_a 9.222931
_cell_length_b 17.010458
_cell_length_c 17.204832
_cell_angle_alpha 90.000000
_cell_angle_beta 90.000000
_cell_angle_gamma 90.000000
_cell_volume 2699.202098
_symmetry_space_group_name_H-M "P C C A"
_symmetry_group_IT_number 54
_symmetry_cell_setting 'orthorhombic'
loop_
_space_group_symop_operation_xyz
x,y,z
1/2-x,-y,z
1/2+x,-y,1/2-z
-x,y,1/2-z
-x,-y,-z
1/2+x,y,-z
1/2-x,y,1/2+z
x,-y,1/2+z
loop_
_atom_site_type_symbol
_atom_site_label
_atom_site_fract_x
_atom_site_fract_y
_atom_site_fract_z
Si Si1 0.130895 0.944081 0.029463
Si Si2 0.393303 0.290510 0.321600
Si Si3 0.130257 0.154913 0.941247
Si Si4 0.250000 0.500000 0.603553
Si Si5 0.859654 0.714881 0.935152
Si Si6 0.434814 0.372583 0.040465
Si Si7 0.347427 0.359509 0.715717
O O1 0.233082 0.901615 0.963622
O O2 0.250000 0.000000 0.071110
O O3 0.029444 0.882387 0.074957
O O4 0.000000 0.000000 0.000000
O O5 0.500000 0.269543 0.250000
O O6 0.340594 0.215632 0.371518
O O7 0.475971 0.346293 0.383208
O O8 0.262756 0.337899 0.283136
O O9 0.107103 0.205268 0.020293
O O10 0.127192 0.459719 0.550670
O O11 0.293425 0.429230 0.660462
O O12 0.701802 0.686337 0.962145
O O13 0.862966 0.714737 0.842622
O O14 0.969227 0.648355 0.966509
O O15 0.500000 0.382072 0.750000
#
# Coordination Sequence:
#
# PCOD9421428 Si02
#       7
#     8   8   8   4   8   8   8
#     4   9  19  36  59  97 119 145 192 230 279 363
#     4  11  21  40  57  87 121 157 203 249 299 361
#     4  10  20  34  67  86 118 159 186 244 299 335
#     4  10  22  42  56  80 118 168 204 250 334 350
#     4  10  21  38  58  89 118 150 212 254 297 351
#     4  10  22  37  60  81 119 159 209 263 300 367
#     4  11  26  37  58  87 120 155 211 257 301 376
#
# _framework density 19.264952999999998
#
# number of rings (size 3 to 8) (size 9 to 14) (size 15 to 20)
#    0.000    1.846    3.077    1.846    8.615    2.462 
#    0.000    0.769    0.000    2.769    0.000    0.000 
#    0.000    0.000    0.000    0.000    0.000    0.000 
#
# Total GULP energy -289740.401153 kJ/mol
# GULP energy per Si atom -5571.930791 kJ/mol
# Density = 1.922111 g / cm^3
# Si number density = 19.264953 Si / 1000 Ang^3
#
#
#
# Elastic Constant Matrix: (Units=GPa)
#
#
# Indices 1 2 3 4 5 6 
#
# 1 124.6917 30.2978 19.8849 0.0000 0.0000 0.0000
# 2 30.2978 72.4915 6.7023 0.0000 0.0000 0.0000
# 3 19.8849 6.7023 18.0757 0.0000 0.0000 0.0000
# 4 0.0000 0.0000 0.0000 5.5374 0.0000 0.0000
# 5 0.0000 0.0000 0.0000 0.0000 36.7231 0.0000
# 6 0.0000 0.0000 0.0000 0.0000 0.0000 15.0616
#
#
#
# Elastic Compliance Matrix: (Units=1/GPa)
#
#
# Indices 1 2 3 4 5 6 
#
# 1 0.010492 -0.003436 -0.010268 0.000000 0.000000 0.000000
# 2 -0.003436 0.015410 -0.001934 0.000000 0.000000 0.000000
# 3 -0.010268 -0.001934 0.067336 0.000000 0.000000 0.000000
# 4 0.000000 0.000000 0.000000 0.180592 0.000000 0.000000
# 5 0.000000 0.000000 0.000000 0.000000 0.027231 0.000000
# 6 0.000000 0.000000 0.000000 0.000000 0.000000 0.066394
#
#
# Mechanical properties :
#
#
# Convention : Reuss Voigt Hill
#
# Bulk Modulus (GPa) = 16.13908 36.55876 26.34892
# Shear Modulus (GPa) = 11.92224 22.02268 16.97246
#
# Velocity S-wave (km/s) = 2.49038 3.38471 2.97139
# Velocity P-wave (km/s) = 4.08227 5.85603 5.04767
#
# Compressibility (1/GPa) = 0.06196141
#
# Stress axis : x y z
#
# Youngs Moduli (GPa) = 95.30951 64.89495 14.85091
#
# Poissons Ratio (x) = 0.22297 0.15249
# Poissons Ratio (y) = 0.32747 0.02872
# Poissons Ratio (z) = 0.97867 0.12550
#
# Static dielectric constant tensor:
#      x y z
#    x 2.048400 0.000000 0.000000 
#    y 0.000000 1.761020 0.000000 
#    z 0.000000 0.000000 1.639540 
# 
# From -- ./inp_files/16767.got.cif
#   From: 2010.05.17/outbox.cif.g08.bks.cpg/sg54_9_cif.got.tgz:16767.got - 2010.06.03 13:09:01.
