data_PCOD9421393
_publ_section_title
;
Structure prediction by ZEFSAII (Michael W. Deem and Ramdas Pophale) SiO2 
 PCOD9421393
Probable space group: P C C A
;
_chemical_formula_sum "Si O2"
_cell_formula_units_Z 56
_cell_length_a 5.038565
_cell_length_b 22.541578
_cell_length_c 26.995531
_cell_angle_alpha 90.000000
_cell_angle_beta 90.000000
_cell_angle_gamma 90.000000
_cell_volume 3066.076984
_symmetry_space_group_name_H-M "P C C A"
_symmetry_group_IT_number 54
_symmetry_cell_setting 'orthorhombic'
loop_
_space_group_symop_operation_xyz
x,y,z
1/2-x,-y,z
1/2+x,-y,1/2-z
-x,y,1/2-z
-x,-y,-z
1/2+x,y,-z
1/2-x,y,1/2+z
x,-y,1/2+z
loop_
_atom_site_type_symbol
_atom_site_label
_atom_site_fract_x
_atom_site_fract_y
_atom_site_fract_z
Si Si1 0.325832 0.378683 0.833453
Si Si2 0.815157 0.213579 0.337008
Si Si3 0.500000 0.283606 0.750000
Si Si4 0.222232 0.070313 0.466645
Si Si5 0.345498 0.167510 0.388999
Si Si6 0.681908 0.661604 0.886564
Si Si7 0.102505 0.271941 0.967848
Si Si8 0.250000 0.500000 0.781760
O O1 0.379449 0.328162 0.791468
O O2 0.533212 0.368762 0.878594
O O3 0.358307 0.444096 0.812057
O O4 0.025565 0.370568 0.850832
O O5 0.597714 0.165494 0.352725
O O6 0.736175 0.272425 0.367073
O O7 0.817003 0.238398 0.281190
O O8 0.101443 0.193119 0.356855
O O9 0.439815 0.084746 0.508861
O O10 0.272202 0.107483 0.417253
O O11 0.250000 0.000000 0.457318
O O12 0.413669 0.213379 0.433752
O O13 0.518908 0.672985 0.936873
O O14 0.408029 0.271611 0.984836
O O15 0.500000 0.522366 0.750000
#
# Coordination Sequence:
#
# PCOD9421393 Si02
#       8
#     8   8   4   8   8   8   8   4
#     4  11  22  36  56  74 113 138 168 218 257 317
#     4  10  21  32  51  73 106 141 179 211 260 324
#     4  10  20  36  52  78 104 144 170 212 264 308
#     4  10  20  34  54  79 108 145 183 216 262 320
#     4  11  20  34  48  77 111 141 172 219 265 313
#     4  10  21  36  50  77 105 143 173 210 267 315
#     4  11  19  30  51  76 104 135 173 213 258 313
#     4  12  24  38  54  88 104 138 184 206 262 330
#
# _framework density 18.264381
#
# number of rings (size 3 to 8) (size 9 to 14) (size 15 to 20)
#    0.000    1.429    0.714    8.571    2.000    2.857 
#    0.000    0.000    0.000    0.000    0.000   12.000 
#    0.000    0.000    0.000    0.000    0.000    0.000 
#
# Total GULP energy -312160.368648 kJ/mol
# GULP energy per Si atom -5574.292297 kJ/mol
# Density = 1.822281 g / cm^3
# Si number density = 18.264381 Si / 1000 Ang^3
#
#
#
# Elastic Constant Matrix: (Units=GPa)
#
#
# Indices 1 2 3 4 5 6 
#
# 1 69.9229 11.6668 8.9032 0.0000 0.0000 0.0000
# 2 11.6668 57.7441 25.1501 0.0000 0.0000 0.0000
# 3 8.9032 25.1501 47.9609 0.0000 0.0000 0.0000
# 4 0.0000 0.0000 0.0000 23.6473 0.0000 0.0000
# 5 0.0000 0.0000 0.0000 0.0000 27.8271 0.0000
# 6 0.0000 0.0000 0.0000 0.0000 0.0000 792.5597
#
#
#
# Elastic Compliance Matrix: (Units=1/GPa)
#
#
# Indices 1 2 3 4 5 6 
#
# 1 0.014887 -0.002338 -0.001537 0.000000 0.000000 0.000000
# 2 -0.002338 0.022811 -0.011528 0.000000 0.000000 0.000000
# 3 -0.001537 -0.011528 0.027181 0.000000 0.000000 0.000000
# 4 0.000000 0.000000 0.000000 0.042288 0.000000 0.000000
# 5 0.000000 0.000000 0.000000 0.000000 0.035936 0.000000
# 6 0.000000 0.000000 0.000000 0.000000 0.000000 0.001262
#
#
# Mechanical properties :
#
#
# Convention : Reuss Voigt Hill
#
# Bulk Modulus (GPa) = 29.34944 29.67424 29.51184
# Shear Modulus (GPa) = 26.80538 177.46734 102.13636
#
# Velocity S-wave (km/s) = 3.83512 9.86797 7.48615
# Velocity P-wave (km/s) = 5.97620 12.08793 9.53501
#
# Compressibility (1/GPa) = 0.03407220
#
# Stress axis : x y z
#
# Youngs Moduli (GPa) = 67.17100 43.83836 36.79071
#
# Poissons Ratio (x) = 0.10251 0.05656
# Poissons Ratio (y) = 0.15706 0.42412
# Poissons Ratio (z) = 0.10327 0.50536
#
# Static dielectric constant tensor:
#      x y z
#    x 1.669210 0.000000 0.000000 
#    y 0.000000 1.633300 0.000000 
#    z 0.000000 0.000000 1.705560 
# 
# From -- ./inp_files/23011.got.cif
#   From: 2010.05.17/outbox.cif.g08.bks.cpg/sg54_12_cif.got.tgz:23011.got - 2010.06.03 13:09:01.
