data_PCOD9421642
_publ_section_title
;
Structure prediction by ZEFSAII (Michael W. Deem and Ramdas Pophale) SiO2 
 PCOD9421642
Probable space group: P C C A
;
_chemical_formula_sum "Si O2"
_cell_formula_units_Z 56
_cell_length_a 11.449266
_cell_length_b 11.736031
_cell_length_c 22.548065
_cell_angle_alpha 90.000000
_cell_angle_beta 90.000000
_cell_angle_gamma 90.000000
_cell_volume 3029.759609
_symmetry_space_group_name_H-M "P C C A"
_symmetry_group_IT_number 54
_symmetry_cell_setting 'orthorhombic'
loop_
_space_group_symop_operation_xyz
x,y,z
1/2-x,-y,z
1/2+x,-y,1/2-z
-x,y,1/2-z
-x,-y,-z
1/2+x,y,-z
1/2-x,y,1/2+z
x,-y,1/2+z
loop_
_atom_site_type_symbol
_atom_site_label
_atom_site_fract_x
_atom_site_fract_y
_atom_site_fract_z
Si Si1 0.444255 1.000000 0.315700
Si Si2 0.619057 0.751580 0.210946
Si Si3 0.117612 0.000000 0.572756
Si Si4 0.113156 0.627395 0.911273
Si Si5 0.113156 0.627395 0.411273
Si Si6 0.380943 0.751580 0.789054
Si Si7 0.000000 0.194642 0.000000
O O1 0.500000 1.000000 0.250000
O O2 0.379486 0.120924 0.316999
O O3 0.379486 0.879076 0.316999
O O4 0.534718 0.000000 0.369890
O O5 0.500000 0.743979 0.250000
O O6 0.605795 0.662605 0.157508
O O7 0.750000 0.735142 0.238831
O O8 0.090370 0.890120 0.532299
O O9 0.250000 0.000000 0.593083
O O10 0.090370 0.109880 0.532299
O O11 0.250000 0.626405 0.926725
O O12 0.065393 0.500000 0.920866
O O13 0.053185 0.723370 0.950485
O O14 0.105795 0.662605 0.342492
O O15 0.053185 0.723370 0.450485
O O16 0.500000 0.743979 0.750000
#
# Coordination Sequence:
#
# PCOD9421642 Si02
#       7
#     8   8   8   8   8   8   8
#     4  10  20  37  56  86 116 151 187 242 301 356
#     4  10  21  38  60  88 120 157 198 248 304 361
#     4  11  23  37  61  90 121 155 196 248 301 358
#     4  10  21  38  60  85 118 159 202 247 295 350
#     4  10  21  38  60  85 118 159 202 247 295 350
#     4  10  21  38  60  88 120 157 198 248 304 361
#     4  11  21  40  58  86 119 157 202 242 298 353
#
# _framework density 18.483315000000001
#
# number of rings (size 3 to 8) (size 9 to 14) (size 15 to 20)
#    0.000    1.714    2.857    1.714    0.000    5.143 
#    0.000    0.000    0.000    3.429    0.000    0.000 
#    0.000    0.000    0.000    0.000    0.000    0.000 
#
# Total GULP energy -312050.885286 kJ/mol
# GULP energy per Si atom -5572.337237 kJ/mol
# Density = 1.844125 g / cm^3
# Si number density = 18.483315 Si / 1000 Ang^3
#
#
#
# Elastic Constant Matrix: (Units=GPa)
#
#
# Indices 1 2 3 4 5 6 
#
# 1 122.0143 31.0506 41.6062 0.0000 0.0000 0.0000
# 2 31.0506 128.1118 28.5301 0.0000 0.0000 0.0000
# 3 41.6062 28.5301 51.6663 0.0000 0.0000 0.0000
# 4 0.0000 0.0000 0.0000 11.7179 0.0000 0.0000
# 5 0.0000 0.0000 0.0000 0.0000 22.4477 0.0000
# 6 0.0000 0.0000 0.0000 0.0000 0.0000 6.1229
#
#
#
# Elastic Compliance Matrix: (Units=1/GPa)
#
#
# Indices 1 2 3 4 5 6 
#
# 1 0.011373 -0.000817 -0.008707 0.000000 0.000000 0.000000
# 2 -0.000817 0.008959 -0.004289 0.000000 0.000000 0.000000
# 3 -0.008707 -0.004289 0.028735 0.000000 0.000000 0.000000
# 4 0.000000 0.000000 0.000000 0.085340 0.000000 0.000000
# 5 0.000000 0.000000 0.000000 0.000000 0.044548 0.000000
# 6 0.000000 0.000000 0.000000 0.000000 0.000000 0.163322
#
#
# Mechanical properties :
#
#
# Convention : Reuss Voigt Hill
#
# Bulk Modulus (GPa) = 46.64158 56.01847 51.33003
# Shear Modulus (GPa) = 13.26086 21.43139 17.34612
#
# Velocity S-wave (km/s) = 2.68143 3.40884 3.06678
# Velocity P-wave (km/s) = 5.90559 6.77251 6.35385
#
# Compressibility (1/GPa) = 0.02144009
#
# Stress axis : x y z
#
# Youngs Moduli (GPa) = 87.92886 111.62068 34.80086
#
# Poissons Ratio (x) = 0.09124 0.30301
# Poissons Ratio (y) = 0.07187 0.14926
# Poissons Ratio (z) = 0.76560 0.47872
#
# Static dielectric constant tensor:
#      x y z
#    x 1.672000 0.000000 0.000000 
#    y 0.000000 1.649180 0.000000 
#    z 0.000000 0.000000 1.620800 
# 
# From -- ./inp_files/21171.got.cif
#   From: 2010.05.17/outbox.cif.g08.bks.cpg/sg54_11_cif.got.tgz:21171.got - 2010.06.03 13:09:01.
