data_PCOD9421785
_publ_section_title
;
Structure prediction by ZEFSAII (Michael W. Deem and Ramdas Pophale) SiO2 
 PCOD9421785
Probable space group: P C C A
;
_chemical_formula_sum "Si O2"
_cell_formula_units_Z 48
_cell_length_a 8.746562
_cell_length_b 14.834591
_cell_length_c 18.247821
_cell_angle_alpha 90.000000
_cell_angle_beta 90.000000
_cell_angle_gamma 90.000000
_cell_volume 2367.685247
_symmetry_space_group_name_H-M "P C C A"
_symmetry_group_IT_number 54
_symmetry_cell_setting 'orthorhombic'
loop_
_space_group_symop_operation_xyz
x,y,z
1/2-x,-y,z
1/2+x,-y,1/2-z
-x,y,1/2-z
-x,-y,-z
1/2+x,y,-z
1/2-x,y,1/2+z
x,-y,1/2+z
loop_
_atom_site_type_symbol
_atom_site_label
_atom_site_fract_x
_atom_site_fract_y
_atom_site_fract_z
Si Si1 0.750000 0.500000 0.456384
Si Si2 0.572406 0.282314 0.179430
Si Si3 0.750000 0.000000 0.289459
Si Si4 0.129719 0.136811 0.596870
Si Si5 0.528156 0.816387 0.457280
Si Si6 0.020411 0.626375 0.457422
Si Si7 0.369867 0.166342 0.801430
O O1 0.863908 0.579860 0.427218
O O2 0.626358 0.557513 0.500078
O O3 0.500000 0.328022 0.250000
O O4 0.445162 0.217552 0.142978
O O5 0.616912 0.346222 0.113642
O O6 0.284838 0.222255 0.298595
O O7 0.856754 0.944915 0.346020
O O8 0.666889 0.928825 0.237107
O O9 0.023816 0.121910 0.525789
O O10 0.296883 0.165220 0.566407
O O11 0.500486 0.714893 0.490143
O O12 0.428783 0.835749 0.384795
O O13 0.500000 0.209354 0.750000
#
# Coordination Sequence:
#
# PCOD9421785 Si02
#       7
#     4   8   4   8   8   8   8
#     4  10  20  38  64 100 124 158 198 272 326 368
#     4  11  21  40  64  90 125 175 214 263 323 399
#     4  12  26  42  60  94 134 166 226 284 334 370
#     4  11  24  40  64  90 128 172 225 273 329 376
#     4  11  22  43  63  95 123 174 225 258 320 409
#     4  10  21  38  67  93 128 161 211 259 318 394
#     4  12  25  41  64  92 130 176 225 272 335 381
#
# _framework density 20.272964999999999
#
# number of rings (size 3 to 8) (size 9 to 14) (size 15 to 20)
#    0.000    1.000    3.333    5.000    2.333    1.333 
#    0.000    0.833    0.000    4.000    0.000    0.000 
#    0.000    0.000    0.000    0.000    0.000    0.000 
#
# Total GULP energy -267642.142703 kJ/mol
# GULP energy per Si atom -5575.877973 kJ/mol
# Density = 2.022682 g / cm^3
# Si number density = 20.272965 Si / 1000 Ang^3
#
#
#
# Elastic Constant Matrix: (Units=GPa)
#
#
# Indices 1 2 3 4 5 6 
#
# 1 97.5102 18.8515 23.1600 0.0000 0.0000 0.0000
# 2 18.8515 72.8988 32.4925 0.0000 0.0000 0.0000
# 3 23.1600 32.4925 133.0068 0.0000 0.0000 0.0000
# 4 0.0000 0.0000 0.0000 14.5119 0.0000 0.0000
# 5 0.0000 0.0000 0.0000 0.0000 35.2283 0.0000
# 6 0.0000 0.0000 0.0000 0.0000 0.0000 11.8203
#
#
#
# Elastic Compliance Matrix: (Units=1/GPa)
#
#
# Indices 1 2 3 4 5 6 
#
# 1 0.011013 -0.002237 -0.001371 0.000000 0.000000 0.000000
# 2 -0.002237 0.015848 -0.003482 0.000000 0.000000 0.000000
# 3 -0.001371 -0.003482 0.008608 0.000000 0.000000 0.000000
# 4 0.000000 0.000000 0.000000 0.068909 0.000000 0.000000
# 5 0.000000 0.000000 0.000000 0.000000 0.028386 0.000000
# 6 0.000000 0.000000 0.000000 0.000000 0.000000 0.084600
#
#
# Mechanical properties :
#
#
# Convention : Reuss Voigt Hill
#
# Bulk Modulus (GPa) = 46.97261 50.26931 48.62096
# Shear Modulus (GPa) = 20.95191 27.57289 24.26240
#
# Velocity S-wave (km/s) = 3.21828 3.69193 3.46321
# Velocity P-wave (km/s) = 6.08524 6.55926 6.32669
#
# Compressibility (1/GPa) = 0.02128900
#
# Stress axis : x y z
#
# Youngs Moduli (GPa) = 90.79774 63.09896 116.17326
#
# Poissons Ratio (x) = 0.14114 0.15931
# Poissons Ratio (y) = 0.20310 0.40452
# Poissons Ratio (z) = 0.12451 0.21972
#
# Static dielectric constant tensor:
#      x y z
#    x 1.762420 0.000000 0.000000 
#    y 0.000000 1.811850 0.000000 
#    z 0.000000 0.000000 1.722720 
# 
# From -- ./inp_files/16702.got.cif
#   From: 2010.05.17/outbox.cif.g08.bks.cpg/sg54_9_cif.got.tgz:16702.got - 2010.06.03 13:09:01.
