data_PCOD9421449
_publ_section_title
;
Structure prediction by ZEFSAII (Michael W. Deem and Ramdas Pophale) SiO2 
 PCOD9421449
Probable space group: P C C A
;
_chemical_formula_sum "Si O2"
_cell_formula_units_Z 48
_cell_length_a 18.703477
_cell_length_b 6.122047
_cell_length_c 21.419690
_cell_angle_alpha 90.000000
_cell_angle_beta 90.000000
_cell_angle_gamma 90.000000
_cell_volume 2452.630872
_symmetry_space_group_name_H-M "P C C A"
_symmetry_group_IT_number 54
_symmetry_cell_setting 'orthorhombic'
loop_
_space_group_symop_operation_xyz
x,y,z
1/2-x,-y,z
1/2+x,-y,1/2-z
-x,y,1/2-z
-x,-y,-z
1/2+x,y,-z
1/2-x,y,1/2+z
x,-y,1/2+z
loop_
_atom_site_type_symbol
_atom_site_label
_atom_site_fract_x
_atom_site_fract_y
_atom_site_fract_z
Si Si1 0.560419 0.144174 0.863502
Si Si2 0.543244 0.190253 0.464387
Si Si3 0.750000 0.000000 0.225797
Si Si4 0.000000 0.906261 0.250000
Si Si5 0.368886 0.671865 0.808821
Si Si6 0.681300 0.379899 0.807386
Si Si7 0.934946 0.565418 0.581351
O O1 0.622750 0.320442 0.858429
O O2 0.487283 0.261090 0.884619
O O3 0.579608 0.941351 0.908167
O O4 0.548208 0.053234 0.794456
O O5 0.588651 0.318425 0.516836
O O6 0.485647 0.362491 0.438038
O O7 0.500000 0.000000 0.500000
O O8 0.691792 0.140971 0.187178
O O9 0.791831 0.165436 0.271024
O O10 0.052778 0.769546 0.294144
O O11 0.349710 0.532874 0.747393
O O12 0.376479 0.522508 0.870161
O O13 0.750000 0.500000 0.834940
#
# Coordination Sequence:
#
# PCOD9421449 Si02
#       7
#     8   8   4   4   8   8   8
#     4  11  20  34  55  87 125 154 194 258 302 362
#     4   9  20  35  54  86 117 150 196 249 301 344
#     4  10  22  38  52  82 126 162 196 232 302 366
#     4  12  20  32  58  92 126 144 194 248 320 362
#     4  11  21  35  55  87 125 159 195 250 301 369
#     4  10  22  36  54  84 124 163 196 235 303 367
#     4  10  20  35  57  86 119 154 196 251 304 347
#
# _framework density 19.570820000000001
#
# number of rings (size 3 to 8) (size 9 to 14) (size 15 to 20)
#    0.000    1.667    3.333    2.000    0.000    0.000 
#    0.000    0.000    0.000    0.000    0.000   87.500 
#    0.000    0.000    0.000    0.000    0.000    0.000 
#
# Total GULP energy -267867.273403 kJ/mol
# GULP energy per Si atom -5580.568196 kJ/mol
# Density = 1.952628 g / cm^3
# Si number density = 19.570820 Si / 1000 Ang^3
#
#
#
# Elastic Constant Matrix: (Units=GPa)
#
#
# Indices 1 2 3 4 5 6 
#
# 1 69.2422 18.6396 17.1435 0.0000 0.0000 0.0000
# 2 18.6396 78.4874 23.2189 0.0000 0.0000 0.0000
# 3 17.1435 23.2189 82.0061 0.0000 0.0000 0.0000
# 4 0.0000 0.0000 0.0000 15.2601 0.0000 0.0000
# 5 0.0000 0.0000 0.0000 0.0000 11.2085 0.0000
# 6 0.0000 0.0000 0.0000 0.0000 0.0000 7.6912
#
#
#
# Elastic Compliance Matrix: (Units=1/GPa)
#
#
# Indices 1 2 3 4 5 6 
#
# 1 0.015869 -0.003042 -0.002456 0.000000 0.000000 0.000000
# 2 -0.003042 0.014489 -0.003466 0.000000 0.000000 0.000000
# 3 -0.002456 -0.003466 0.013689 0.000000 0.000000 0.000000
# 4 0.000000 0.000000 0.000000 0.065530 0.000000 0.000000
# 5 0.000000 0.000000 0.000000 0.000000 0.089218 0.000000
# 6 0.000000 0.000000 0.000000 0.000000 0.000000 0.130019
#
#
# Mechanical properties :
#
#
# Convention : Reuss Voigt Hill
#
# Bulk Modulus (GPa) = 38.28796 38.63775 38.46285
# Shear Modulus (GPa) = 14.06670 18.21421 16.14045
#
# Velocity S-wave (km/s) = 2.68388 3.05402 2.87491
# Velocity P-wave (km/s) = 5.40468 5.67639 5.54220
#
# Compressibility (1/GPa) = 0.02611787
#
# Stress axis : x y z
#
# Youngs Moduli (GPa) = 63.01566 69.01887 73.05069
#
# Poissons Ratio (x) = 0.20996 0.17942
# Poissons Ratio (y) = 0.19170 0.25322
# Poissons Ratio (z) = 0.15477 0.23924
#
# Static dielectric constant tensor:
#      x y z
#    x 1.779210 0.000000 0.000000 
#    y 0.000000 1.753460 0.000000 
#    z 0.000000 0.000000 1.712300 
# 
# From -- ./inp_files/24624.got.cif
#   From: 2010.05.17/outbox.cif.g08.bks.cpg/sg54_13_cif.got.tgz:24624.got - 2010.06.03 13:09:01.
