data_PCOD9421899
_publ_section_title
;
Structure prediction by ZEFSAII (Michael W. Deem and Ramdas Pophale) SiO2 
 PCOD9421899
Probable space group: P C C A
;
_chemical_formula_sum "Si O2"
_cell_formula_units_Z 56
_cell_length_a 11.714219
_cell_length_b 15.092606
_cell_length_c 14.896674
_cell_angle_alpha 90.000000
_cell_angle_beta 90.000000
_cell_angle_gamma 90.000000
_cell_volume 2633.703540
_symmetry_space_group_name_H-M "P C C A"
_symmetry_group_IT_number 54
_symmetry_cell_setting 'orthorhombic'
loop_
_space_group_symop_operation_xyz
x,y,z
1/2-x,-y,z
1/2+x,-y,1/2-z
-x,y,1/2-z
-x,-y,-z
1/2+x,y,-z
1/2-x,y,1/2+z
x,-y,1/2+z
loop_
_atom_site_type_symbol
_atom_site_label
_atom_site_fract_x
_atom_site_fract_y
_atom_site_fract_z
Si Si1 0.153217 0.435490 0.006336
Si Si2 0.622170 0.753267 0.484971
Si Si3 0.050653 0.542970 0.849650
Si Si4 0.269775 0.099933 0.103935
Si Si5 0.924149 0.744310 0.660474
Si Si6 0.990503 0.812064 0.154849
Si Si7 0.253773 0.899140 0.812309
O O1 0.250000 0.500000 0.039846
O O2 0.121342 0.468771 0.905367
O O3 0.195721 0.335405 0.016251
O O4 0.049512 0.440804 0.077051
O O5 0.700766 0.835828 0.461230
O O6 0.517314 0.755812 0.416610
O O7 0.559489 0.750451 0.579437
O O8 0.112205 0.639911 0.839413
O O9 0.000000 0.521029 0.750000
O O10 0.398492 0.136790 0.117665
O O11 0.222588 0.101063 0.206202
O O12 0.250000 0.000000 0.072129
O O13 0.825339 0.818746 0.651271
O O14 0.000000 0.757934 0.750000
O O15 0.887093 0.878290 0.176467
O O16 0.000000 0.763194 0.250000
O O17 0.250000 0.000000 0.846649
#
# Coordination Sequence:
#
# PCOD9421899 Si02
#       7
#     8   8   8   8   8   8   8
#     4  10  23  41  65  97 130 166 217 288 342 402
#     4  11  24  40  67  96 129 179 224 280 340 414
#     4   9  21  41  65  95 130 170 223 275 341 413
#     4  10  23  42  63  96 138 180 226 276 337 405
#     4  10  20  39  67  97 130 176 232 278 337 414
#     4  10  25  43  60  95 138 178 222 279 338 398
#     4  10  22  39  66  96 135 180 224 282 333 391
#
# _framework density 21.262832
#
# number of rings (size 3 to 8) (size 9 to 14) (size 15 to 20)
#    0.000    2.000    1.429    0.000    6.000    5.143 
#    0.000    1.429    0.000    0.000    0.000    0.000 
#    0.000    0.000    0.000    0.000    0.000    0.000 
#
# Total GULP energy -311989.375467 kJ/mol
# GULP energy per Si atom -5571.238848 kJ/mol
# Density = 2.121444 g / cm^3
# Si number density = 21.262832 Si / 1000 Ang^3
#
#
#
# Elastic Constant Matrix: (Units=GPa)
#
#
# Indices 1 2 3 4 5 6 
#
# 1 64.1879 43.7853 22.4432 0.0000 0.0000 0.0000
# 2 43.7853 148.7635 26.7018 0.0000 0.0000 0.0000
# 3 22.4432 26.7018 115.3631 0.0000 0.0000 0.0000
# 4 0.0000 0.0000 0.0000 30.9548 0.0000 0.0000
# 5 0.0000 0.0000 0.0000 0.0000 19.4788 0.0000
# 6 0.0000 0.0000 0.0000 0.0000 0.0000 -47.5668
#
#
#
# Elastic Compliance Matrix: (Units=1/GPa)
#
#
# Indices 1 2 3 4 5 6 
#
# 1 0.020252 -0.005481 -0.002671 0.000000 0.000000 0.000000
# 2 -0.005481 0.008497 -0.000900 0.000000 0.000000 0.000000
# 3 -0.002671 -0.000900 0.009396 0.000000 0.000000 0.000000
# 4 0.000000 0.000000 0.000000 0.032305 0.000000 0.000000
# 5 0.000000 0.000000 0.000000 0.000000 0.051338 0.000000
# 6 0.000000 0.000000 0.000000 0.000000 0.000000 -0.021023
#
#
# Mechanical properties :
#
#
# Convention : Reuss Voigt Hill
#
# Bulk Modulus (GPa) = 49.90081 57.13059 53.51570
# Shear Modulus (GPa) = 39.82431 16.26564 28.04497
#
# Velocity S-wave (km/s) = 4.33246 2.76883 3.63570
# Velocity P-wave (km/s) = 6.96753 6.09499 6.54582
#
# Compressibility (1/GPa) = 0.02003975
#
# Stress axis : x y z
#
# Youngs Moduli (GPa) = 49.37706 117.68854 106.42425
#
# Poissons Ratio (x) = 0.64509 0.28429
# Poissons Ratio (y) = 0.27065 0.09582
# Poissons Ratio (z) = 0.13190 0.10596
#
# Static dielectric constant tensor:
#      x y z
#    x 1.837700 0.000000 0.000000 
#    y 0.000000 1.726170 0.000000 
#    z 0.000000 0.000000 1.803210 
# 
# From -- ./inp_files/12692.got.cif
#   From: 2010.05.17/outbox.cif.g08.bks.cpg/sg54_7_cif.got.tgz:12692.got - 2010.06.03 13:09:01.
