data_PCOD9421430
_publ_section_title
;
Structure prediction by ZEFSAII (Michael W. Deem and Ramdas Pophale) SiO2 
 PCOD9421430
Probable space group: P C C A
;
_chemical_formula_sum "Si O2"
_cell_formula_units_Z 48
_cell_length_a 7.998469
_cell_length_b 9.769084
_cell_length_c 30.978780
_cell_angle_alpha 90.000000
_cell_angle_beta 90.000000
_cell_angle_gamma 90.000000
_cell_volume 2420.611099
_symmetry_space_group_name_H-M "P C C A"
_symmetry_group_IT_number 54
_symmetry_cell_setting 'orthorhombic'
loop_
_space_group_symop_operation_xyz
x,y,z
1/2-x,-y,z
1/2+x,-y,1/2-z
-x,y,1/2-z
-x,-y,-z
1/2+x,y,-z
1/2-x,y,1/2+z
x,-y,1/2+z
loop_
_atom_site_type_symbol
_atom_site_label
_atom_site_fract_x
_atom_site_fract_y
_atom_site_fract_z
Si Si1 0.750000 0.000000 0.311331
Si Si2 0.500000 0.149056 0.750000
Si Si3 0.429250 0.067996 0.913311
Si Si4 0.502645 0.612850 0.942772
Si Si5 0.786555 0.840724 0.674499
Si Si6 0.880665 0.321010 0.036316
Si Si7 0.437914 0.192448 0.128872
O O1 0.601876 0.948855 0.281620
O O2 0.802394 0.867632 0.338864
O O3 0.626982 0.224166 0.716661
O O4 0.405510 0.148235 0.867681
O O5 0.465145 0.179617 0.949299
O O6 0.250000 0.000000 0.923091
O O7 0.541562 0.936727 0.904020
O O8 0.313478 0.674218 0.948663
O O9 0.474286 0.450411 0.942460
O O10 0.585800 0.675669 0.900431
O O11 0.605762 0.653155 0.985344
O O12 0.610109 0.787254 0.656081
O O13 0.750000 0.000000 0.685841
#
# Coordination Sequence:
#
# PCOD9421430 Si02
#       7
#     4   4   8   8   8   8   8
#     4  12  20  30  52  82 116 140 178 232 284 336
#     4  12  18  30  50  82 110 142 172 220 294 330
#     4   9  16  33  51  75 106 139 174 222 262 323
#     4  10  21  36  54  78 104 148 182 228 260 330
#     4   9  16  30  49  72 109 136 169 215 265 336
#     4  10  20  36  56  74 108 145 188 215 272 321
#     4  10  20  35  50  79 114 135 181 223 278 317
#
# _framework density 19.829704
#
# number of rings (size 3 to 8) (size 9 to 14) (size 15 to 20)
#    0.000    2.333    7.500    0.000    0.000    2.000 
#    1.500    0.000    0.000    0.000    0.000    5.833 
#    0.000    0.000    0.000    0.000    0.000    0.000 
#
# Total GULP energy -267544.735186 kJ/mol
# GULP energy per Si atom -5573.848650 kJ/mol
# Density = 1.978457 g / cm^3
# Si number density = 19.829704 Si / 1000 Ang^3
#
#
#
# Elastic Constant Matrix: (Units=GPa)
#
#
# Indices 1 2 3 4 5 6 
#
# 1 39.5087 14.0551 20.3813 0.0000 0.0000 0.0000
# 2 14.0551 52.9068 42.3488 0.0000 0.0000 0.0000
# 3 20.3813 42.3488 79.9626 0.0000 0.0000 0.0000
# 4 0.0000 0.0000 0.0000 18.2696 0.0000 0.0000
# 5 0.0000 0.0000 0.0000 0.0000 18.7020 0.0000
# 6 0.0000 0.0000 0.0000 0.0000 0.0000 6.8246
#
#
#
# Elastic Compliance Matrix: (Units=1/GPa)
#
#
# Indices 1 2 3 4 5 6 
#
# 1 0.029442 -0.003150 -0.005836 0.000000 0.000000 0.000000
# 2 -0.003150 0.033147 -0.016752 0.000000 0.000000 0.000000
# 3 -0.005836 -0.016752 0.022865 0.000000 0.000000 0.000000
# 4 0.000000 0.000000 0.000000 0.054736 0.000000 0.000000
# 5 0.000000 0.000000 0.000000 0.000000 0.053470 0.000000
# 6 0.000000 0.000000 0.000000 0.000000 0.000000 0.146528
#
#
# Mechanical properties :
#
#
# Convention : Reuss Voigt Hill
#
# Bulk Modulus (GPa) = 29.43065 36.21652 32.82358
# Shear Modulus (GPa) = 12.40724 15.13212 13.76968
#
# Velocity S-wave (km/s) = 2.50409 2.76543 2.63800
# Velocity P-wave (km/s) = 4.82022 5.33856 5.08600
#
# Compressibility (1/GPa) = 0.03397819
#
# Stress axis : x y z
#
# Youngs Moduli (GPa) = 33.96486 30.16864 43.73431
#
# Poissons Ratio (x) = 0.09504 0.25524
# Poissons Ratio (y) = 0.10699 0.73264
# Poissons Ratio (z) = 0.19822 0.50538
#
# Static dielectric constant tensor:
#      x y z
#    x 1.589230 0.000000 0.000000 
#    y 0.000000 1.670690 0.000000 
#    z 0.000000 0.000000 1.732110 
# 
# From -- ./inp_files/27863.got.cif
#   From: 2010.05.17/outbox.cif.g08.bks.cpg/sg54_14_cif.got.tgz:27863.got - 2010.06.03 13:09:01.
