data_PCOD9421806
_publ_section_title
;
Structure prediction by ZEFSAII (Michael W. Deem and Ramdas Pophale) SiO2 
 PCOD9421806
Probable space group: P C C A
;
_chemical_formula_sum "Si O2"
_cell_formula_units_Z 64
_cell_length_a 7.645932
_cell_length_b 12.465189
_cell_length_c 28.000689
_cell_angle_alpha 90.000000
_cell_angle_beta 90.000000
_cell_angle_gamma 90.000000
_cell_volume 2668.689316
_symmetry_space_group_name_H-M "P C C A"
_symmetry_group_IT_number 54
_symmetry_cell_setting 'orthorhombic'
loop_
_space_group_symop_operation_xyz
x,y,z
1/2-x,-y,z
1/2+x,-y,1/2-z
-x,y,1/2-z
-x,-y,-z
1/2+x,y,-z
1/2-x,y,1/2+z
x,-y,1/2+z
loop_
_atom_site_type_symbol
_atom_site_label
_atom_site_fract_x
_atom_site_fract_y
_atom_site_fract_z
Si Si1 0.046277 0.379474 0.888821
Si Si2 0.957975 0.001671 0.176270
Si Si3 0.539596 0.233360 0.698308
Si Si4 0.252629 0.380328 0.030823
Si Si5 0.959144 0.232255 0.697897
Si Si6 0.200834 0.856074 0.010112
Si Si7 0.954734 0.375167 0.109691
Si Si8 0.508801 0.979535 0.063304
O O1 0.980393 0.301579 0.847102
O O2 0.037496 0.502587 0.871819
O O3 0.249320 0.354340 0.900074
O O4 0.920799 0.376002 0.934358
O O5 0.032153 0.111902 0.197048
O O6 0.980622 0.008289 0.119296
O O7 0.750000 0.000000 0.186261
O O8 0.030876 0.889025 0.194556
O O9 0.500000 0.282349 0.750000
O O10 0.749246 0.228608 0.693562
O O11 0.479472 0.297289 0.651588
O O12 0.250000 0.500000 0.007688
O O13 0.271080 0.269030 0.003395
O O14 0.079224 0.370410 0.063625
O O15 0.000000 0.277833 0.750000
O O16 0.348655 0.904337 0.045115
O O17 0.031984 0.904660 0.038966
O O18 0.167585 0.911183 0.958992
#
# Coordination Sequence:
#
# PCOD9421806 Si02
#       8
#     8   8   8   8   8   8   8   8
#     4   9  19  36  58  88 123 166 205 249 302 362
#     4  10  21  37  59  82 114 157 197 239 308 372
#     4  10  21  36  54  83 118 156 199 250 299 356
#     4  10  20  38  65  93 125 161 206 255 311 375
#     4  10  21  36  54  84 120 159 202 249 302 363
#     4  10  22  40  60  94 120 150 204 253 312 376
#     4   9  19  36  58  88 123 164 208 248 300 367
#     4  10  22  40  63  88 121 156 198 260 310 369
#
# _framework density 23.981808999999998
#
# number of rings (size 3 to 8) (size 9 to 14) (size 15 to 20)
#    0.000    2.250    0.000    1.875    5.250    0.500 
#    6.750    0.625    0.000    0.000    0.000    0.000 
#    0.000    0.000    0.000    0.000    0.000    0.000 
#
# Total GULP energy -357766.842971 kJ/mol
# GULP energy per Si atom -5590.106921 kJ/mol
# Density = 2.392723 g / cm^3
# Si number density = 23.981809 Si / 1000 Ang^3
#
#
#
# Elastic Constant Matrix: (Units=GPa)
#
#
# Indices 1 2 3 4 5 6 
#
# 1 88.4445 24.2036 -5.7617 0.0000 0.0000 0.0000
# 2 24.2036 160.8994 51.8468 0.0000 0.0000 0.0000
# 3 -5.7617 51.8468 72.8859 0.0000 0.0000 0.0000
# 4 0.0000 0.0000 0.0000 -3.3934 0.0000 0.0000
# 5 0.0000 0.0000 0.0000 0.0000 22.7132 0.0000
# 6 0.0000 0.0000 0.0000 0.0000 0.0000 21.4168
#
#
#
# Elastic Compliance Matrix: (Units=1/GPa)
#
#
# Indices 1 2 3 4 5 6 
#
# 1 0.012265 -0.002799 0.002961 0.000000 0.000000 0.000000
# 2 -0.002799 0.008702 -0.006411 0.000000 0.000000 0.000000
# 3 0.002961 -0.006411 0.018515 0.000000 0.000000 0.000000
# 4 0.000000 0.000000 0.000000 -0.294687 0.000000 0.000000
# 5 0.000000 0.000000 0.000000 0.000000 0.044027 0.000000
# 6 0.000000 0.000000 0.000000 0.000000 0.000000 0.046692
#
#
# Mechanical properties :
#
#
# Convention : Reuss Voigt Hill
#
# Bulk Modulus (GPa) = 37.06082 51.42302 44.24192
# Shear Modulus (GPa) = -34.96720 24.94338 -5.01191
#
# Velocity S-wave (km/s) = -3.82261 3.22855 -1.44721
# Velocity P-wave (km/s) = 1.99897 5.94871 3.96177
#
# Compressibility (1/GPa) = 0.02698268
#
# Stress axis : x y z
#
# Youngs Moduli (GPa) = 81.53027 114.91505 54.01075
#
# Poissons Ratio (x) = 0.32165 -0.15991
# Poissons Ratio (y) = 0.22821 0.34629
# Poissons Ratio (z) = -0.24138 0.73677
#
# Static dielectric constant tensor:
#      x y z
#    x 2.097090 0.000000 0.000000 
#    y 0.000000 1.929730 0.000000 
#    z 0.000000 0.000000 1.869790 
# 
# From -- ./inp_files/27961.got.cif
#   From: 2010.05.17/outbox.cif.g08.bks.cpg/sg54_14_cif.got.tgz:27961.got - 2010.06.03 13:09:01.
