data_PCOD9421685
_publ_section_title
;
Structure prediction by ZEFSAII (Michael W. Deem and Ramdas Pophale) SiO2 
 PCOD9421685
Probable space group: P C C A
;
_chemical_formula_sum "Si O2"
_cell_formula_units_Z 36
_cell_length_a 20.214266
_cell_length_b 7.919960
_cell_length_c 10.023288
_cell_angle_alpha 90.000000
_cell_angle_beta 90.000000
_cell_angle_gamma 90.000000
_cell_volume 1604.690101
_symmetry_space_group_name_H-M "P C C A"
_symmetry_group_IT_number 54
_symmetry_cell_setting 'orthorhombic'
loop_
_space_group_symop_operation_xyz
x,y,z
1/2-x,-y,z
1/2+x,-y,1/2-z
-x,y,1/2-z
-x,-y,-z
1/2+x,y,-z
1/2-x,y,1/2+z
x,-y,1/2+z
loop_
_atom_site_type_symbol
_atom_site_label
_atom_site_fract_x
_atom_site_fract_y
_atom_site_fract_z
Si Si1 0.345426 0.697354 0.256456
Si Si2 0.750000 0.500000 0.601507
Si Si3 0.268982 0.181965 0.085300
Si Si4 0.909792 0.841249 0.479649
Si Si5 0.536561 0.794339 0.393763
O O1 0.315580 0.522922 0.310177
O O2 0.281101 0.796283 0.206766
O O3 0.375909 0.805534 0.377205
O O4 0.401353 0.677214 0.143755
O O5 0.749482 0.663910 0.509917
O O6 0.347287 0.195650 0.115131
O O7 0.250000 0.000000 0.025667
O O8 0.979910 0.743569 0.499319
O O9 0.931718 0.031483 0.446726
O O10 0.500000 0.822742 0.250000
#
# Coordination Sequence:
#
# PCOD9421685 Si02
#       5
#     8   4   8   8   8
#     4  10  20  37  62  89 133 170 219 276 336 393
#     4  10  24  40  60  94 134 170 216 286 332 396
#     4  11  21  39  64  96 128 171 222 276 340 402
#     4   9  19  35  58  96 126 170 220 269 328 401
#     4   9  17  35  60  93 131 170 217 275 329 398
#
# _framework density 22.434238000000001
#
# number of rings (size 3 to 8) (size 9 to 14) (size 15 to 20)
#    0.000    2.222    2.222    0.667    0.000    3.556 
#    0.000    0.000    0.000   36.000    0.000    0.000 
#    0.000    0.000    0.000    0.000    0.000    0.000 
#
# Total GULP energy -200437.336915 kJ/mol
# GULP energy per Si atom -5567.703803 kJ/mol
# Density = 2.238318 g / cm^3
# Si number density = 22.434238 Si / 1000 Ang^3
#
#
#
# Elastic Constant Matrix: (Units=GPa)
#
#
# Indices 1 2 3 4 5 6 
#
# 1 138.9149 16.8222 23.9497 0.0000 0.0000 0.0000
# 2 16.8222 87.6907 11.6619 0.0000 0.0000 0.0000
# 3 23.9497 11.6619 13.1035 0.0000 0.0000 0.0000
# 4 0.0000 0.0000 0.0000 16.0624 0.0000 0.0000
# 5 0.0000 0.0000 0.0000 0.0000 40.0220 0.0000
# 6 0.0000 0.0000 0.0000 0.0000 0.0000 27.6780
#
#
#
# Elastic Compliance Matrix: (Units=1/GPa)
#
#
# Indices 1 2 3 4 5 6 
#
# 1 0.010540 0.000612 -0.019809 0.000000 0.000000 0.000000
# 2 0.000612 0.012970 -0.012663 0.000000 0.000000 0.000000
# 3 -0.019809 -0.012663 0.123789 0.000000 0.000000 0.000000
# 4 0.000000 0.000000 0.000000 0.062257 0.000000 0.000000
# 5 0.000000 0.000000 0.000000 0.000000 0.024986 0.000000
# 6 0.000000 0.000000 0.000000 0.000000 0.000000 0.036130
#
#
# Mechanical properties :
#
#
# Convention : Reuss Voigt Hill
#
# Bulk Modulus (GPa) = 11.96435 38.28631 25.12533
# Shear Modulus (GPa) = 13.80260 29.23749 21.52004
#
# Velocity S-wave (km/s) = 2.48311 3.61398 3.10054
# Velocity P-wave (km/s) = 3.68317 5.87516 4.90323
#
# Compressibility (1/GPa) = 0.08358164
#
# Stress axis : x y z
#
# Youngs Moduli (GPa) = 94.88041 77.09966 8.07824
#
# Poissons Ratio (x) = -0.04722 0.16002
# Poissons Ratio (y) = -0.05811 0.10229
# Poissons Ratio (z) = 1.87944 0.97629
#
# Static dielectric constant tensor:
#      x y z
#    x 1.929200 0.000000 0.000000 
#    y 0.000000 1.979600 0.000000 
#    z 0.000000 0.000000 1.943690 
# 
# From -- ./inp_files/9353.got.cif
#   From: 2010.05.17/outbox.cif.g08.bks.cpg/sg54_5_cif.got.tgz:9353.got - 2010.06.03 13:09:01.
