data_PCOD9421647
_publ_section_title
;
Structure prediction by ZEFSAII (Michael W. Deem and Ramdas Pophale) SiO2 
 PCOD9421647
Probable space group: P C C A
;
_chemical_formula_sum "Si O2"
_cell_formula_units_Z 60
_cell_length_a 12.293454
_cell_length_b 20.082772
_cell_length_c 13.115149
_cell_angle_alpha 90.000000
_cell_angle_beta 90.000000
_cell_angle_gamma 90.000000
_cell_volume 3237.954988
_symmetry_space_group_name_H-M "P C C A"
_symmetry_group_IT_number 54
_symmetry_cell_setting 'orthorhombic'
loop_
_space_group_symop_operation_xyz
x,y,z
1/2-x,-y,z
1/2+x,-y,1/2-z
-x,y,1/2-z
-x,-y,-z
1/2+x,y,-z
1/2-x,y,1/2+z
x,-y,1/2+z
loop_
_atom_site_type_symbol
_atom_site_label
_atom_site_fract_x
_atom_site_fract_y
_atom_site_fract_z
Si Si1 0.616910 0.108056 0.117668
Si Si2 0.545159 0.438000 0.363395
Si Si3 0.300176 0.216907 0.537624
Si Si4 0.831256 0.650391 0.494688
Si Si5 0.641333 0.113641 0.358299
Si Si6 0.859532 0.434654 0.463548
Si Si7 0.966402 0.311475 0.365959
Si Si8 0.750000 0.000000 0.994182
O O1 0.648399 0.105799 0.236522
O O2 0.486461 0.117497 0.113673
O O3 0.664718 0.042120 0.062635
O O4 0.668857 0.169882 0.056698
O O5 0.500000 0.442148 0.250000
O O6 0.612037 0.370623 0.387950
O O7 0.620815 0.500612 0.394222
O O8 0.446850 0.438563 0.445113
O O9 0.239342 0.283555 0.504221
O O10 0.216166 0.175813 0.607896
O O11 0.408808 0.244347 0.593218
O O12 0.753951 0.586733 0.516229
O O13 0.927765 0.665123 0.572286
O O14 0.688278 0.051555 0.421166
O O15 0.884274 0.372420 0.388558
O O16 0.000000 0.304352 0.250000
#
# Coordination Sequence:
#
# PCOD9421647 Si02
#       8
#     8   8   8   8   8   8   8   4
#     4  10  21  38  60  88 123 158 198 256 297 368
#     4  10  20  37  58  85 112 147 199 244 306 360
#     4  10  22  38  56  84 119 159 202 249 296 361
#     4  10  21  38  56  82 116 154 196 246 301 357
#     4  10  21  38  61  89 118 163 200 243 315 360
#     4   9  20  37  56  82 115 149 189 252 301 360
#     4  10  21  36  57  83 115 155 203 248 302 357
#     4  10  20  38  64  90 124 150 204 250 308 362
#
# _framework density 18.530214000000001
#
# number of rings (size 3 to 8) (size 9 to 14) (size 15 to 20)
#    0.000    2.133    0.000    2.400    1.867    2.133 
#    7.200    4.000    5.867    0.000    0.000    0.000 
#    0.000    0.000    0.000    0.000    0.000    0.000 
#
# Total GULP energy -334370.949193 kJ/mol
# GULP energy per Si atom -5572.849153 kJ/mol
# Density = 1.848804 g / cm^3
# Si number density = 18.530214 Si / 1000 Ang^3
#
#
#
# Elastic Constant Matrix: (Units=GPa)
#
#
# Indices 1 2 3 4 5 6 
#
# 1 110.4084 41.4505 53.5859 0.0000 0.0000 0.0000
# 2 41.4505 98.7104 51.0195 0.0000 0.0000 0.0000
# 3 53.5859 51.0195 121.0284 0.0000 0.0000 0.0000
# 4 0.0000 0.0000 0.0000 15.3786 0.0000 0.0000
# 5 0.0000 0.0000 0.0000 0.0000 23.4265 0.0000
# 6 0.0000 0.0000 0.0000 0.0000 0.0000 35.5689
#
#
#
# Elastic Compliance Matrix: (Units=1/GPa)
#
#
# Indices 1 2 3 4 5 6 
#
# 1 0.012184 -0.002977 -0.004140 0.000000 0.000000 0.000000
# 2 -0.002977 0.013680 -0.004449 0.000000 0.000000 0.000000
# 3 -0.004140 -0.004449 0.011971 0.000000 0.000000 0.000000
# 4 0.000000 0.000000 0.000000 0.065025 0.000000 0.000000
# 5 0.000000 0.000000 0.000000 0.000000 0.042687 0.000000
# 6 0.000000 0.000000 0.000000 0.000000 0.000000 0.028114
#
#
# Mechanical properties :
#
#
# Convention : Reuss Voigt Hill
#
# Bulk Modulus (GPa) = 68.00705 69.13988 68.57346
# Shear Modulus (GPa) = 24.79014 27.14758 25.96886
#
# Velocity S-wave (km/s) = 3.66159 3.83174 3.74763
# Velocity P-wave (km/s) = 7.39301 7.54780 7.47081
#
# Compressibility (1/GPa) = 0.01470436
#
# Stress axis : x y z
#
# Youngs Moduli (GPa) = 82.07499 73.09913 83.53637
#
# Poissons Ratio (x) = 0.21759 0.34582
# Poissons Ratio (y) = 0.24431 0.37164
# Poissons Ratio (z) = 0.33977 0.32521
#
# Static dielectric constant tensor:
#      x y z
#    x 1.715010 0.000000 0.000000 
#    y 0.000000 1.649780 0.000000 
#    z 0.000000 0.000000 1.592700 
# 
# From -- ./inp_files/7642.got.cif
#   From: 2010.05.17/outbox.cif.g08.bks.cpg/sg54_4_cif.got.tgz:7642.got - 2010.06.03 13:09:01.
