data_PCOD9421672
_publ_section_title
;
Structure prediction by ZEFSAII (Michael W. Deem and Ramdas Pophale) SiO2 
 PCOD9421672
Probable space group: P C C A
;
_chemical_formula_sum "Si O2"
_cell_formula_units_Z 64
_cell_length_a 9.725935
_cell_length_b 16.265760
_cell_length_c 19.551387
_cell_angle_alpha 90.000000
_cell_angle_beta 90.000000
_cell_angle_gamma 90.000000
_cell_volume 3093.024037
_symmetry_space_group_name_H-M "P C C A"
_symmetry_group_IT_number 54
_symmetry_cell_setting 'orthorhombic'
loop_
_space_group_symop_operation_xyz
x,y,z
1/2-x,-y,z
1/2+x,-y,1/2-z
-x,y,1/2-z
-x,-y,-z
1/2+x,y,-z
1/2-x,y,1/2+z
x,-y,1/2+z
loop_
_atom_site_type_symbol
_atom_site_label
_atom_site_fract_x
_atom_site_fract_y
_atom_site_fract_z
Si Si1 0.857830 0.182787 0.229762
Si Si2 0.644456 0.927472 0.783493
Si Si3 0.756138 0.317741 0.821302
Si Si4 0.871364 0.564142 0.210390
Si Si5 0.397459 0.803727 0.588934
Si Si6 0.772740 0.591162 0.066701
Si Si7 0.641355 0.759746 0.496393
Si Si8 0.479760 0.315421 0.874235
O O1 0.729049 0.123173 0.224413
O O2 0.815979 0.234509 0.296220
O O3 0.894969 0.253273 0.175083
O O4 0.000000 0.139094 0.250000
O O5 0.500000 0.951351 0.750000
O O6 0.614284 0.871405 0.850855
O O7 0.750000 0.000000 0.802652
O O8 0.829821 0.358537 0.757442
O O9 0.863460 0.286020 0.877214
O O10 0.617079 0.361898 0.846416
O O11 0.750000 0.500000 0.215069
O O12 0.879448 0.584717 0.130331
O O13 0.000000 0.527919 0.250000
O O14 0.547623 0.801353 0.554597
O O15 0.274038 0.808694 0.532453
O O16 0.750000 0.500000 0.035884
O O17 0.627958 0.618038 0.099930
O O18 0.813026 0.668240 0.020228
O O19 0.538027 0.741879 0.434119
#
# Coordination Sequence:
#
# PCOD9421672 Si02
#       8
#     8   8   8   8   8   8   8   8
#     4   9  18  36  64  92 122 163 208 259 319 390
#     4  11  25  43  69 105 140 163 204 267 338 402
#     4   9  19  35  59  85 117 154 211 262 324 378
#     4  11  24  36  55  83 121 160 210 275 340 398
#     4  10  23  41  67  97 125 171 218 266 312 395
#     4  11  24  37  58  88 129 172 224 277 332 382
#     4  11  22  42  62  89 126 172 230 264 312 380
#     4  10  20  37  61  87 120 169 217 270 320 387
#
# _framework density 20.691724000000001
#
# number of rings (size 3 to 8) (size 9 to 14) (size 15 to 20)
#    0.000    1.750    2.500    1.875    5.250    2.500 
#    0.000    1.875    0.000    0.750    0.000    0.000 
#    0.000    0.000    0.000    0.000    0.000    0.000 
#
# Total GULP energy -356423.941536 kJ/mol
# GULP energy per Si atom -5569.124087 kJ/mol
# Density = 2.064463 g / cm^3
# Si number density = 20.691724 Si / 1000 Ang^3
#
#
#
# Elastic Constant Matrix: (Units=GPa)
#
#
# Indices 1 2 3 4 5 6 
#
# 1 102.1443 44.8421 28.6514 0.0000 0.0000 0.0000
# 2 44.8421 66.0058 25.4124 0.0000 0.0000 0.0000
# 3 28.6514 25.4124 74.9544 0.0000 0.0000 0.0000
# 4 0.0000 0.0000 0.0000 18.7067 0.0000 0.0000
# 5 0.0000 0.0000 0.0000 0.0000 23.1251 0.0000
# 6 0.0000 0.0000 0.0000 0.0000 0.0000 25.3441
#
#
#
# Elastic Compliance Matrix: (Units=1/GPa)
#
#
# Indices 1 2 3 4 5 6 
#
# 1 0.014349 -0.008783 -0.002507 0.000000 0.000000 0.000000
# 2 -0.008783 0.022801 -0.004373 0.000000 0.000000 0.000000
# 3 -0.002507 -0.004373 0.015782 0.000000 0.000000 0.000000
# 4 0.000000 0.000000 0.000000 0.053457 0.000000 0.000000
# 5 0.000000 0.000000 0.000000 0.000000 0.043243 0.000000
# 6 0.000000 0.000000 0.000000 0.000000 0.000000 0.039457
#
#
# Mechanical properties :
#
#
# Convention : Reuss Voigt Hill
#
# Bulk Modulus (GPa) = 46.28379 48.99072 47.63725
# Shear Modulus (GPa) = 21.96670 23.04843 22.50757
#
# Velocity S-wave (km/s) = 3.26178 3.34113 3.30169
# Velocity P-wave (km/s) = 6.05000 6.21386 6.13248
#
# Compressibility (1/GPa) = 0.02160584
#
# Stress axis : x y z
#
# Youngs Moduli (GPa) = 69.69053 43.85837 63.36163
#
# Poissons Ratio (x) = 0.38521 0.15886
# Poissons Ratio (y) = 0.61209 0.27708
# Poissons Ratio (z) = 0.17473 0.19179
#
# Static dielectric constant tensor:
#      x y z
#    x 1.842680 0.000000 0.000000 
#    y 0.000000 1.768280 0.000000 
#    z 0.000000 0.000000 1.819110 
# 
# From -- ./inp_files/20680.got.cif
#   From: 2010.05.17/outbox.cif.g08.bks.cpg/sg54_11_cif.got.tgz:20680.got - 2010.06.03 13:09:01.
