data_PCOD9421667
_publ_section_title
;
Structure prediction by ZEFSAII (Michael W. Deem and Ramdas Pophale) SiO2 
 PCOD9421667
Probable space group: P C C A
;
_chemical_formula_sum "Si O2"
_cell_formula_units_Z 52
_cell_length_a 9.797567
_cell_length_b 9.470882
_cell_length_c 25.560739
_cell_angle_alpha 90.000000
_cell_angle_beta 90.000000
_cell_angle_gamma 90.000000
_cell_volume 2371.821893
_symmetry_space_group_name_H-M "P C C A"
_symmetry_group_IT_number 54
_symmetry_cell_setting 'orthorhombic'
loop_
_space_group_symop_operation_xyz
x,y,z
1/2-x,-y,z
1/2+x,-y,1/2-z
-x,y,1/2-z
-x,-y,-z
1/2+x,y,-z
1/2-x,y,1/2+z
x,-y,1/2+z
loop_
_atom_site_type_symbol
_atom_site_label
_atom_site_fract_x
_atom_site_fract_y
_atom_site_fract_z
Si Si1 0.985630 0.323374 0.872044
Si Si2 0.725714 0.672987 0.432677
Si Si3 0.841127 0.646093 0.728125
Si Si4 0.891206 0.853763 0.212685
Si Si5 0.250000 0.000000 0.881110
Si Si6 0.240408 0.268238 0.947256
Si Si7 0.457107 0.635515 0.383081
O O1 0.025869 0.271807 0.815006
O O2 0.102726 0.296192 0.915133
O O3 0.847750 0.269139 0.897327
O O4 0.976040 0.489851 0.866021
O O5 0.750000 0.500000 0.437504
O O6 0.723237 0.732296 0.491238
O O7 0.586983 0.717777 0.403791
O O8 0.750000 0.500000 0.735960
O O9 0.741010 0.781101 0.740553
O O10 0.000000 0.642259 0.750000
O O11 0.864394 0.674117 0.666118
O O12 0.859280 0.946238 0.161293
O O13 0.000000 0.928102 0.250000
O O14 0.294943 0.124823 0.919788
O O15 0.355856 0.380926 0.931833
#
# Coordination Sequence:
#
# PCOD9421667 Si02
#       7
#     8   8   8   8   4   8   8
#     4  10  20  37  60  92 128 162 194 257 317 384
#     4  10  22  34  61  98 129 166 208 250 311 397
#     4  12  24  39  66 100 134 165 205 260 329 397
#     4  11  24  44  66  89 123 171 220 270 324 382
#     4  10  24  44  66  86 120 172 218 278 324 358
#     4  11  20  40  61  84 122 168 219 256 316 366
#     4  11  20  37  61  92 134 160 199 254 316 388
#
# _framework density 21.924074999999998
#
# number of rings (size 3 to 8) (size 9 to 14) (size 15 to 20)
#    0.000    1.231    4.615    2.769    2.154    3.692 
#    0.000    6.923    0.000    0.000    0.000    0.000 
#    0.000    0.000    0.000    0.000    0.000    0.000 
#
# Total GULP energy -289579.556088 kJ/mol
# GULP energy per Si atom -5568.837617 kJ/mol
# Density = 2.187417 g / cm^3
# Si number density = 21.924075 Si / 1000 Ang^3
#
#
#
# Elastic Constant Matrix: (Units=GPa)
#
#
# Indices 1 2 3 4 5 6 
#
# 1 140.5311 -1.0349 22.0397 0.0000 0.0000 0.0000
# 2 -1.0349 36.0559 9.7329 0.0000 0.0000 0.0000
# 3 22.0397 9.7329 51.3987 0.0000 0.0000 0.0000
# 4 0.0000 0.0000 0.0000 23.0851 0.0000 0.0000
# 5 0.0000 0.0000 0.0000 0.0000 37.0001 0.0000
# 6 0.0000 0.0000 0.0000 0.0000 0.0000 7.0514
#
#
#
# Elastic Compliance Matrix: (Units=1/GPa)
#
#
# Indices 1 2 3 4 5 6 
#
# 1 0.007675 0.001168 -0.003512 0.000000 0.000000 0.000000
# 2 0.001168 0.029407 -0.006070 0.000000 0.000000 0.000000
# 3 -0.003512 -0.006070 0.022111 0.000000 0.000000 0.000000
# 4 0.000000 0.000000 0.000000 0.043318 0.000000 0.000000
# 5 0.000000 0.000000 0.000000 0.000000 0.027027 0.000000
# 6 0.000000 0.000000 0.000000 0.000000 0.000000 0.141815
#
#
# Mechanical properties :
#
#
# Convention : Reuss Voigt Hill
#
# Bulk Modulus (GPa) = 23.60372 32.16234 27.88303
# Shear Modulus (GPa) = 16.53972 26.57718 21.55845
#
# Velocity S-wave (km/s) = 2.74963 3.48550 3.13920
# Velocity P-wave (km/s) = 4.56838 5.55877 5.08773
#
# Compressibility (1/GPa) = 0.04236621
#
# Stress axis : x y z
#
# Youngs Moduli (GPa) = 130.28765 34.00591 45.22597
#
# Poissons Ratio (x) = -0.03973 0.15885
# Poissons Ratio (y) = -0.15224 0.27450
# Poissons Ratio (z) = 0.45763 0.20640
#
# Static dielectric constant tensor:
#      x y z
#    x 1.889100 0.000000 0.000000 
#    y 0.000000 1.976130 0.000000 
#    z 0.000000 0.000000 1.786550 
# 
# From -- ./inp_files/25882.got.cif
#   From: 2010.05.17/outbox.cif.g08.bks.cpg/sg54_13_cif.got.tgz:25882.got - 2010.06.03 13:09:01.
