data_PCOD9421535
_publ_section_title
;
Structure prediction by ZEFSAII (Michael W. Deem and Ramdas Pophale) SiO2 
 PCOD9421535
Probable space group: P C C A
;
_chemical_formula_sum "Si O2"
_cell_formula_units_Z 56
_cell_length_a 22.946517
_cell_length_b 11.511754
_cell_length_c 11.520302
_cell_angle_alpha 90.000000
_cell_angle_beta 90.000000
_cell_angle_gamma 90.000000
_cell_volume 3043.141445
_symmetry_space_group_name_H-M "P C C A"
_symmetry_group_IT_number 54
_symmetry_cell_setting 'orthorhombic'
loop_
_space_group_symop_operation_xyz
x,y,z
1/2-x,-y,z
1/2+x,-y,1/2-z
-x,y,1/2-z
-x,-y,-z
1/2+x,y,-z
1/2-x,y,1/2+z
x,-y,1/2+z
loop_
_atom_site_type_symbol
_atom_site_label
_atom_site_fract_x
_atom_site_fract_y
_atom_site_fract_z
Si Si1 0.106076 0.308163 0.406225
Si Si2 0.692923 0.152376 0.001684
Si Si3 0.302353 0.668714 0.200856
Si Si4 0.368960 0.474004 0.122803
Si Si5 0.171114 0.115627 0.528899
Si Si6 0.171630 0.732917 0.259299
Si Si7 0.990333 0.562168 0.876046
O O1 0.150814 0.332257 0.303242
O O2 0.123989 0.397679 0.508051
O O3 0.121997 0.180926 0.454182
O O4 0.038513 0.335028 0.375748
O O5 0.664758 0.212115 0.114270
O O6 0.684125 0.227413 0.887029
O O7 0.763661 0.147738 0.016927
O O8 0.669621 0.022712 0.980464
O O9 0.311185 0.549409 0.131368
O O10 0.237679 0.686216 0.248532
O O11 0.368493 0.377487 0.225527
O O12 0.420613 0.568914 0.124518
O O13 0.166072 0.168502 0.658949
O O14 0.000000 0.500540 0.750000
O O15 0.000000 0.500000 0.000000
#
# Coordination Sequence:
#
# PCOD9421535 Si02
#       7
#     8   8   8   8   8   8   8
#     4  10  20  37  58  81 115 149 194 245 287 345
#     4  10  21  32  58  81 113 158 192 234 290 352
#     4  11  21  34  54  83 113 155 190 227 296 348
#     4  10  22  37  55  82 117 152 190 239 294 349
#     4   9  20  36  53  81 114 152 198 240 283 341
#     4  10  21  36  51  83 119 153 188 235 292 346
#     4  10  20  36  59  83 107 150 192 241 290 343
#
# _framework density 18.402035000000001
#
# number of rings (size 3 to 8) (size 9 to 14) (size 15 to 20)
#    0.000    2.000    2.857    0.429    4.000    1.143 
#    0.000    0.000    0.000    0.857    0.000    1.000 
#    0.000    0.000    0.000    0.000    0.000    0.000 
#
# Total GULP energy -311752.757736 kJ/mol
# GULP energy per Si atom -5567.013531 kJ/mol
# Density = 1.836015 g / cm^3
# Si number density = 18.402035 Si / 1000 Ang^3
#
#
#
# Elastic Constant Matrix: (Units=GPa)
#
#
# Indices 1 2 3 4 5 6 
#
# 1 87.1753 40.9452 24.5837 0.0000 0.0000 0.0000
# 2 40.9452 88.4295 2.5362 0.0000 0.0000 0.0000
# 3 24.5837 2.5362 49.9461 0.0000 0.0000 0.0000
# 4 0.0000 0.0000 0.0000 11.0223 0.0000 0.0000
# 5 0.0000 0.0000 0.0000 0.0000 19.7873 0.0000
# 6 0.0000 0.0000 0.0000 0.0000 0.0000 26.8003
#
#
#
# Elastic Compliance Matrix: (Units=1/GPa)
#
#
# Indices 1 2 3 4 5 6 
#
# 1 0.017474 -0.007856 -0.008202 0.000000 0.000000 0.000000
# 2 -0.007856 0.014857 0.003112 0.000000 0.000000 0.000000
# 3 -0.008202 0.003112 0.023900 0.000000 0.000000 0.000000
# 4 0.000000 0.000000 0.000000 0.090725 0.000000 0.000000
# 5 0.000000 0.000000 0.000000 0.000000 0.050537 0.000000
# 6 0.000000 0.000000 0.000000 0.000000 0.000000 0.037313
#
#
# Mechanical properties :
#
#
# Convention : Reuss Voigt Hill
#
# Bulk Modulus (GPa) = 32.95938 40.18680 36.57309
# Shear Modulus (GPa) = 18.46311 22.02103 20.24207
#
# Velocity S-wave (km/s) = 3.17096 3.46303 3.32021
# Velocity P-wave (km/s) = 5.59966 6.15433 5.88354
#
# Compressibility (1/GPa) = 0.03034038
#
# Stress axis : x y z
#
# Youngs Moduli (GPa) = 57.22884 67.31055 41.84021
#
# Poissons Ratio (x) = 0.52876 0.34316
# Poissons Ratio (y) = 0.44956 -0.13021
# Poissons Ratio (z) = 0.46937 -0.20948
#
# Static dielectric constant tensor:
#      x y z
#    x 1.753700 0.000000 0.000000 
#    y 0.000000 1.634640 0.000000 
#    z 0.000000 0.000000 1.716680 
# 
# From -- ./inp_files/9530.got.cif
#   From: 2010.05.17/outbox.cif.g08.bks.cpg/sg54_5_cif.got.tgz:9530.got - 2010.06.03 13:09:01.
