data_PCOD9421822
_publ_section_title
;
Structure prediction by ZEFSAII (Michael W. Deem and Ramdas Pophale) SiO2 
 PCOD9421822
Probable space group: P C C A
;
_chemical_formula_sum "Si O2"
_cell_formula_units_Z 48
_cell_length_a 8.790265
_cell_length_b 17.470958
_cell_length_c 14.446865
_cell_angle_alpha 90.000000
_cell_angle_beta 90.000000
_cell_angle_gamma 90.000000
_cell_volume 2218.667911
_symmetry_space_group_name_H-M "P C C A"
_symmetry_group_IT_number 54
_symmetry_cell_setting 'orthorhombic'
loop_
_space_group_symop_operation_xyz
x,y,z
1/2-x,-y,z
1/2+x,-y,1/2-z
-x,y,1/2-z
-x,-y,-z
1/2+x,y,-z
1/2-x,y,1/2+z
x,-y,1/2+z
loop_
_atom_site_type_symbol
_atom_site_label
_atom_site_fract_x
_atom_site_fract_y
_atom_site_fract_z
Si Si1 0.406992 0.353010 0.931037
Si Si2 0.870773 0.155291 0.584957
Si Si3 0.134308 0.056777 0.530767
Si Si4 0.767119 0.727817 0.236050
Si Si5 0.250000 0.500000 0.370050
Si Si6 0.500000 0.594329 0.750000
Si Si7 0.198654 0.723092 0.568874
O O1 0.330684 0.435056 0.929756
O O2 0.350448 0.305650 0.019513
O O3 0.345050 0.311595 0.838069
O O4 0.086914 0.349843 0.071253
O O5 0.734016 0.096900 0.552037
O O6 0.869178 0.214546 0.500198
O O7 0.038053 0.118433 0.587337
O O8 0.842004 0.204629 0.676720
O O9 0.250000 0.000000 0.582568
O O10 0.000000 0.000000 0.500000
O O11 0.872665 0.658726 0.276890
O O12 0.302517 0.758792 0.170040
O O13 0.390433 0.460592 0.312151
#
# Coordination Sequence:
#
# PCOD9421822 Si02
#       7
#     8   8   8   8   4   4   8
#     4  10  24  41  60  92 126 168 224 270 335 401
#     4  10  20  38  66  96 125 174 214 259 328 380
#     4   9  19  37  64  97 135 170 205 254 316 393
#     4  10  23  39  65  92 129 166 224 275 325 380
#     4  10  24  44  60  90 132 172 222 268 356 410
#     4  10  24  40  64  90 126 172 216 282 336 394
#     4  11  23  40  65  94 130 164 225 283 316 385
#
# _framework density 21.634602000000001
#
# number of rings (size 3 to 8) (size 9 to 14) (size 15 to 20)
#    0.000    2.000    0.000    2.500   14.000    0.667 
#    0.000    0.000    0.000   15.000    0.000    0.000 
#    0.000    0.000    0.000    0.000    0.000    0.000 
#
# Total GULP energy -267261.661800 kJ/mol
# GULP energy per Si atom -5567.951287 kJ/mol
# Density = 2.158536 g / cm^3
# Si number density = 21.634602 Si / 1000 Ang^3
#
#
#
# Elastic Constant Matrix: (Units=GPa)
#
#
# Indices 1 2 3 4 5 6 
#
# 1 102.8596 35.8669 28.7532 0.0000 0.0000 0.0000
# 2 35.8669 107.3024 38.8540 0.0000 0.0000 0.0000
# 3 28.7532 38.8540 128.8448 0.0000 0.0000 0.0000
# 4 0.0000 0.0000 0.0000 16.0316 0.0000 0.0000
# 5 0.0000 0.0000 0.0000 0.0000 -6.1120 0.0000
# 6 0.0000 0.0000 0.0000 0.0000 0.0000 44.2354
#
#
#
# Elastic Compliance Matrix: (Units=1/GPa)
#
#
# Indices 1 2 3 4 5 6 
#
# 1 0.011273 -0.003208 -0.001549 0.000000 0.000000 0.000000
# 2 -0.003208 0.011374 -0.002714 0.000000 0.000000 0.000000
# 3 -0.001549 -0.002714 0.008925 0.000000 0.000000 0.000000
# 4 0.000000 0.000000 0.000000 0.062377 0.000000 0.000000
# 5 0.000000 0.000000 0.000000 0.000000 -0.163612 0.000000
# 6 0.000000 0.000000 0.000000 0.000000 0.000000 0.022606
#
#
# Mechanical properties :
#
#
# Convention : Reuss Voigt Hill
#
# Bulk Modulus (GPa) = 60.12310 60.66166 60.39238
# Shear Modulus (GPa) = -188.17847 26.53317 -80.82265
#
# Velocity S-wave (km/s) = -9.33644 3.50583 -6.11875
# Velocity P-wave (km/s) = 9.40080 6.66992 4.68439
#
# Compressibility (1/GPa) = 0.01663254
#
# Stress axis : x y z
#
# Youngs Moduli (GPa) = 88.70508 87.91661 112.04058
#
# Poissons Ratio (x) = 0.28199 0.17350
# Poissons Ratio (y) = 0.28452 0.30410
# Poissons Ratio (z) = 0.13736 0.23863
#
# Static dielectric constant tensor:
#      x y z
#    x 1.866990 0.000000 0.000000 
#    y 0.000000 1.856570 0.000000 
#    z 0.000000 0.000000 1.756020 
# 
# From -- ./inp_files/16745.got.cif
#   From: 2010.05.17/outbox.cif.g08.bks.cpg/sg54_9_cif.got.tgz:16745.got - 2010.06.03 13:09:01.
