data_PCOD9421422
_publ_section_title
;
Structure prediction by ZEFSAII (Michael W. Deem and Ramdas Pophale) SiO2 
 PCOD9421422
Probable space group: P C C A
;
_chemical_formula_sum "Si O2"
_cell_formula_units_Z 52
_cell_length_a 20.952840
_cell_length_b 9.969384
_cell_length_c 13.347688
_cell_angle_alpha 90.000000
_cell_angle_beta 90.000000
_cell_angle_gamma 90.000000
_cell_volume 2788.157273
_symmetry_space_group_name_H-M "P C C A"
_symmetry_group_IT_number 54
_symmetry_cell_setting 'orthorhombic'
loop_
_space_group_symop_operation_xyz
x,y,z
1/2-x,-y,z
1/2+x,-y,1/2-z
-x,y,1/2-z
-x,-y,-z
1/2+x,y,-z
1/2-x,y,1/2+z
x,-y,1/2+z
loop_
_atom_site_type_symbol
_atom_site_label
_atom_site_fract_x
_atom_site_fract_y
_atom_site_fract_z
Si Si1 0.165187 0.265125 0.121696
Si Si2 0.552168 0.478662 0.863512
Si Si3 0.867020 0.398799 0.698156
Si Si4 0.324899 0.840208 0.348841
Si Si5 0.582591 0.383127 0.567448
Si Si6 0.821134 0.147505 0.591386
Si Si7 0.750000 0.500000 0.832377
O O1 0.102164 0.356359 0.127948
O O2 0.173316 0.194755 0.230124
O O3 0.221451 0.374937 0.107807
O O4 0.165066 0.168120 0.026371
O O5 0.572914 0.565201 0.767546
O O6 0.483867 0.406717 0.873700
O O7 0.563456 0.583206 0.954322
O O8 0.871127 0.497579 0.603779
O O9 0.862582 0.250326 0.656703
O O10 0.805953 0.440966 0.763134
O O11 0.378813 0.750558 0.404177
O O12 0.252953 0.813353 0.388004
O O13 0.333813 0.997026 0.372141
#
# Coordination Sequence:
#
# PCOD9421422 Si02
#       7
#     8   8   8   8   8   8   4
#     4  11  22  40  62  91 126 161 210 254 311 369
#     4  10  23  36  66  93 118 164 211 267 301 369
#     4  11  19  37  62  90 121 153 210 258 309 360
#     4  11  25  40  62  89 130 170 197 255 316 378
#     4  11  21  40  64  91 123 160 216 256 314 356
#     4  11  25  40  60  95 129 163 205 253 314 385
#     4  10  20  34  62  94 114 158 204 262 308 360
#
# _framework density 18.650310999999999
#
# number of rings (size 3 to 8) (size 9 to 14) (size 15 to 20)
#    0.000    1.231    6.154    0.462    4.308    4.308 
#    0.000    0.769    6.769    0.000    0.000    0.000 
#    0.000    0.000    0.000    0.000    0.000    0.000 
#
# Total GULP energy -290041.856226 kJ/mol
# GULP energy per Si atom -5577.728004 kJ/mol
# Density = 1.860786 g / cm^3
# Si number density = 18.650311 Si / 1000 Ang^3
#
#
#
# Elastic Constant Matrix: (Units=GPa)
#
#
# Indices 1 2 3 4 5 6 
#
# 1 99.7082 53.0982 31.3365 0.0000 0.0000 0.0000
# 2 53.0982 127.2673 55.7123 0.0000 0.0000 0.0000
# 3 31.3365 55.7123 90.4345 0.0000 0.0000 0.0000
# 4 0.0000 0.0000 0.0000 18.1336 0.0000 0.0000
# 5 0.0000 0.0000 0.0000 0.0000 16.4655 0.0000
# 6 0.0000 0.0000 0.0000 0.0000 0.0000 29.0664
#
#
#
# Elastic Compliance Matrix: (Units=1/GPa)
#
#
# Indices 1 2 3 4 5 6 
#
# 1 0.013061 -0.004749 -0.001600 0.000000 0.000000 0.000000
# 2 -0.004749 0.012486 -0.006046 0.000000 0.000000 0.000000
# 3 -0.001600 -0.006046 0.015337 0.000000 0.000000 0.000000
# 4 0.000000 0.000000 0.000000 0.055146 0.000000 0.000000
# 5 0.000000 0.000000 0.000000 0.000000 0.060733 0.000000
# 6 0.000000 0.000000 0.000000 0.000000 0.000000 0.034404
#
#
# Mechanical properties :
#
#
# Convention : Reuss Voigt Hill
#
# Bulk Modulus (GPa) = 62.13870 66.41158 64.27514
# Shear Modulus (GPa) = 22.59150 24.55062 23.57106
#
# Velocity S-wave (km/s) = 3.48418 3.63211 3.55891
# Velocity P-wave (km/s) = 7.04103 7.29903 7.17119
#
# Compressibility (1/GPa) = 0.01609303
#
# Stress axis : x y z
#
# Youngs Moduli (GPa) = 76.56313 80.09266 65.20161
#
# Poissons Ratio (x) = 0.38034 0.10434
# Poissons Ratio (y) = 0.36358 0.39422
# Poissons Ratio (z) = 0.12253 0.48426
#
# Static dielectric constant tensor:
#      x y z
#    x 1.680310 0.000000 0.000000 
#    y 0.000000 1.616960 0.000000 
#    z 0.000000 0.000000 1.700370 
# 
# From -- ./inp_files/14596.got.cif
#   From: 2010.05.17/outbox.cif.g08.bks.cpg/sg54_8_cif.got.tgz:14596.got - 2010.06.03 13:09:01.
