data_PCOD9421952
_publ_section_title
;
Structure prediction by ZEFSAII (Michael W. Deem and Ramdas Pophale) SiO2 
 PCOD9421952
Probable space group: P C C A
;
_chemical_formula_sum "Si O2"
_cell_formula_units_Z 56
_cell_length_a 15.227103
_cell_length_b 14.775307
_cell_length_c 11.599375
_cell_angle_alpha 90.000000
_cell_angle_beta 90.000000
_cell_angle_gamma 90.000000
_cell_volume 2609.686794
_symmetry_space_group_name_H-M "P C C A"
_symmetry_group_IT_number 54
_symmetry_cell_setting 'orthorhombic'
loop_
_space_group_symop_operation_xyz
x,y,z
1/2-x,-y,z
1/2+x,-y,1/2-z
-x,y,1/2-z
-x,-y,-z
1/2+x,y,-z
1/2-x,y,1/2+z
x,-y,1/2+z
loop_
_atom_site_type_symbol
_atom_site_label
_atom_site_fract_x
_atom_site_fract_y
_atom_site_fract_z
Si Si1 0.953528 0.527918 0.876782
Si Si2 0.152135 0.645392 0.176939
Si Si3 0.106714 0.068072 0.734826
Si Si4 0.416625 0.193744 0.029645
Si Si5 0.615249 0.233193 0.110385
Si Si6 0.662871 0.700807 0.380734
Si Si7 0.896131 0.865759 0.727331
O O1 0.878399 0.453347 0.857311
O O2 0.916333 0.629208 0.888206
O O3 0.000000 0.525169 0.750000
O O4 0.000000 0.500000 0.000000
O O5 0.123594 0.714057 0.076689
O O6 0.108377 0.688338 0.292418
O O7 0.256441 0.653031 0.182378
O O8 0.117711 0.111757 0.609611
O O9 0.143991 0.142124 0.823891
O O10 0.000000 0.068058 0.750000
O O11 0.139677 0.966879 0.753068
O O12 0.521500 0.207733 0.051907
O O13 0.390357 0.170328 0.901593
O O14 0.679243 0.268457 0.011879
O O15 0.642395 0.791690 0.312194
O O16 0.000000 0.871963 0.750000
#
# Coordination Sequence:
#
# PCOD9421952 Si02
#       7
#     8   8   8   8   8   8   8
#     4  12  27  47  74 101 128 170 224 278 332 399
#     4  11  25  44  66  93 136 177 210 264 342 401
#     4   8  19  35  64  94 126 173 222 270 320 378
#     4  10  20  40  66  91 127 176 226 268 321 388
#     4  10  21  43  66  93 131 180 222 262 324 396
#     4  12  26  40  67 100 135 169 217 277 330 391
#     4  11  22  36  64 100 131 167 224 284 319 373
#
# _framework density 21.458514000000001
#
# number of rings (size 3 to 8) (size 9 to 14) (size 15 to 20)
#    0.000    1.429    1.429    4.714    6.000    1.714 
#    0.000    5.714    0.000    0.000    0.000    0.000 
#    0.000    0.000    0.000    0.000    0.000    0.000 
#
# Total GULP energy -312795.269875 kJ/mol
# GULP energy per Si atom -5585.629819 kJ/mol
# Density = 2.140967 g / cm^3
# Si number density = 21.458514 Si / 1000 Ang^3
#
#
#
# Elastic Constant Matrix: (Units=GPa)
#
#
# Indices 1 2 3 4 5 6 
#
# 1 33.3765 -2.3395 5.9974 0.0000 0.0000 0.0000
# 2 -2.3395 98.1962 36.0013 0.0000 0.0000 0.0000
# 3 5.9974 36.0013 123.3150 0.0000 0.0000 0.0000
# 4 0.0000 0.0000 0.0000 6.2103 0.0000 0.0000
# 5 0.0000 0.0000 0.0000 0.0000 12.9462 0.0000
# 6 0.0000 0.0000 0.0000 0.0000 0.0000 14.6613
#
#
#
# Elastic Compliance Matrix: (Units=1/GPa)
#
#
# Indices 1 2 3 4 5 6 
#
# 1 0.030401 0.001418 -0.001893 0.000000 0.000000 0.000000
# 2 0.001418 0.011471 -0.003418 0.000000 0.000000 0.000000
# 3 -0.001893 -0.003418 0.009199 0.000000 0.000000 0.000000
# 4 0.000000 0.000000 0.000000 0.161024 0.000000 0.000000
# 5 0.000000 0.000000 0.000000 0.000000 0.077243 0.000000
# 6 0.000000 0.000000 0.000000 0.000000 0.000000 0.068207
#
#
# Mechanical properties :
#
#
# Convention : Reuss Voigt Hill
#
# Bulk Modulus (GPa) = 23.10213 37.13401 30.11807
# Shear Modulus (GPa) = 13.16631 21.11212 17.13921
#
# Velocity S-wave (km/s) = 2.47972 3.14005 2.82922
# Velocity P-wave (km/s) = 4.35752 5.52170 4.97379
#
# Compressibility (1/GPa) = 0.04328606
#
# Stress axis : x y z
#
# Youngs Moduli (GPa) = 32.89403 87.18007 108.70571
#
# Poissons Ratio (x) = -0.12364 0.20573
# Poissons Ratio (y) = -0.04665 0.37153
# Poissons Ratio (z) = 0.06225 0.29796
#
# Static dielectric constant tensor:
#      x y z
#    x 1.796770 0.000000 0.000000 
#    y 0.000000 1.744670 0.000000 
#    z 0.000000 0.000000 1.765300 
# 
# From -- ./inp_files/8446.got.cif
#   From: 2010.05.17/outbox.cif.g08.bks.cpg/sg54_5_cif.got.tgz:8446.got - 2010.06.03 13:09:01.
