data_PCOD9421064
_publ_section_title
;
Structure prediction by ZEFSAII (Michael W. Deem and Ramdas Pophale) SiO2 
 PCOD9421064
Probable space group: P C C A
;
_chemical_formula_sum "Si O2"
_cell_formula_units_Z 64
_cell_length_a 8.583402
_cell_length_b 18.185662
_cell_length_c 21.720068
_cell_angle_alpha 90.000000
_cell_angle_beta 90.000000
_cell_angle_gamma 90.000000
_cell_volume 3390.390704
_symmetry_space_group_name_H-M "P C C A"
_symmetry_group_IT_number 54
_symmetry_cell_setting 'orthorhombic'
loop_
_space_group_symop_operation_xyz
x,y,z
1/2-x,-y,z
1/2+x,-y,1/2-z
-x,y,1/2-z
-x,-y,-z
1/2+x,y,-z
1/2-x,y,1/2+z
x,-y,1/2+z
loop_
_atom_site_type_symbol
_atom_site_label
_atom_site_fract_x
_atom_site_fract_y
_atom_site_fract_z
Si Si1 0.172640 0.257614 0.605003
Si Si2 0.823307 0.078274 0.228433
Si Si3 0.234546 0.414674 0.919889
Si Si4 0.808974 0.147006 0.093770
Si Si5 0.615453 0.177761 0.979103
Si Si6 0.160384 0.281630 0.841562
Si Si7 0.177567 0.765854 0.725550
Si Si8 0.020480 0.342680 0.502996
O O1 0.230885 0.190216 0.562840
O O2 0.304132 0.263710 0.656954
O O3 0.142337 0.324705 0.558335
O O4 0.009517 0.250095 0.641151
O O5 0.805062 0.098310 0.155733
O O6 0.766034 0.149335 0.267036
O O7 0.000000 0.072358 0.250000
O O8 0.750000 0.000000 0.241344
O O9 0.250000 0.500000 0.906660
O O10 0.175556 0.364407 0.864302
O O11 0.391252 0.377119 0.945705
O O12 0.106040 0.399401 0.972341
O O13 0.779403 0.229438 0.120115
O O14 0.975402 0.141873 0.059478
O O15 0.674955 0.138860 0.041523
O O16 0.556455 0.261719 0.993133
O O17 0.209979 0.277021 0.771470
O O18 0.000000 0.762482 0.750000
#
# Coordination Sequence:
#
# PCOD9421064 Si02
#       8
#     8   8   8   8   8   8   8   8
#     4  11  19  32  58  85 115 148 185 250 295 336
#     4  10  23  43  60  86 118 155 193 239 289 351
#     4  11  21  33  52  80 119 159 194 241 295 353
#     4  11  20  35  61  86 119 153 194 241 297 350
#     4  12  17  34  57  88 119 148 191 245 295 345
#     4  10  19  35  53  83 115 150 201 245 286 345
#     4  10  22  37  61  92 110 148 201 244 295 344
#     4  11  19  33  52  83 115 150 195 238 296 345
#
# _framework density 18.87688
#
# number of rings (size 3 to 8) (size 9 to 14) (size 15 to 20)
#    0.000    1.250    6.250    3.000    0.000    2.000 
#    0.000    0.625    0.000    4.500    0.000    0.000 
#    0.000    0.000    0.000    0.000    0.000    0.000 
#
# Total GULP energy -356739.597057 kJ/mol
# GULP energy per Si atom -5574.056204 kJ/mol
# Density = 1.883392 g / cm^3
# Si number density = 18.876880 Si / 1000 Ang^3
#
#
#
# Elastic Constant Matrix: (Units=GPa)
#
#
# Indices 1 2 3 4 5 6 
#
# 1 62.5170 25.4647 13.6952 0.0000 0.0000 0.0000
# 2 25.4647 57.6464 4.8636 0.0000 0.0000 0.0000
# 3 13.6952 4.8636 59.6899 0.0000 0.0000 0.0000
# 4 0.0000 0.0000 0.0000 12.3902 0.0000 0.0000
# 5 0.0000 0.0000 0.0000 0.0000 39.5091 0.0000
# 6 0.0000 0.0000 0.0000 0.0000 0.0000 12.7658
#
#
#
# Elastic Compliance Matrix: (Units=1/GPa)
#
#
# Indices 1 2 3 4 5 6 
#
# 1 0.020400 -0.008676 -0.003974 0.000000 0.000000 0.000000
# 2 -0.008676 0.021157 0.000267 0.000000 0.000000 0.000000
# 3 -0.003974 0.000267 0.017643 0.000000 0.000000 0.000000
# 4 0.000000 0.000000 0.000000 0.080709 0.000000 0.000000
# 5 0.000000 0.000000 0.000000 0.000000 0.025311 0.000000
# 6 0.000000 0.000000 0.000000 0.000000 0.000000 0.078335
#
#
# Mechanical properties :
#
#
# Convention : Reuss Voigt Hill
#
# Bulk Modulus (GPa) = 29.04079 29.76670 29.40375
# Shear Modulus (GPa) = 17.86993 21.98833 19.92913
#
# Velocity S-wave (km/s) = 3.08012 3.41666 3.25274
# Velocity P-wave (km/s) = 5.29785 5.60070 5.45138
#
# Compressibility (1/GPa) = 0.03443432
#
# Stress axis : x y z
#
# Youngs Moduli (GPa) = 49.01912 47.26502 56.67897
#
# Poissons Ratio (x) = 0.41009 0.22522
# Poissons Ratio (y) = 0.42531 -0.01512
# Poissons Ratio (z) = 0.19478 -0.01261
#
# Static dielectric constant tensor:
#      x y z
#    x 1.746360 0.000000 0.000000 
#    y 0.000000 1.621090 0.000000 
#    z 0.000000 0.000000 1.703430 
# 
# From -- ./inp_files/20671.got.cif
#   From: 2010.05.17/outbox.cif.g08.bks.cpg/sg54_11_cif.got.tgz:20671.got - 2010.06.03 13:09:01.
