data_PCOD9421003
_publ_section_title
;
Structure prediction by ZEFSAII (Michael W. Deem and Ramdas Pophale) SiO2 
 PCOD9421003
Probable space group: P C C A
;
_chemical_formula_sum "Si O2"
_cell_formula_units_Z 40
_cell_length_a 14.448727
_cell_length_b 12.158636
_cell_length_c 8.449614
_cell_angle_alpha 90.000000
_cell_angle_beta 90.000000
_cell_angle_gamma 90.000000
_cell_volume 1484.401252
_symmetry_space_group_name_H-M "P C C A"
_symmetry_group_IT_number 54
_symmetry_cell_setting 'orthorhombic'
loop_
_space_group_symop_operation_xyz
x,y,z
1/2-x,-y,z
1/2+x,-y,1/2-z
-x,y,1/2-z
-x,-y,-z
1/2+x,y,-z
1/2-x,y,1/2+z
x,-y,1/2+z
loop_
_atom_site_type_symbol
_atom_site_label
_atom_site_fract_x
_atom_site_fract_y
_atom_site_fract_z
Si Si1 0.104244 0.540797 0.951755
Si Si2 0.594454 0.038724 0.573303
Si Si3 0.371369 0.336535 0.614702
Si Si4 0.950149 0.747935 0.417711
Si Si5 0.813043 0.894842 0.870610
O O1 0.113111 0.595252 0.778272
O O2 0.159279 0.428813 0.987137
O O3 0.114037 0.640484 0.075004
O O4 0.000000 0.500000 0.000000
O O5 0.611527 0.148318 0.469108
O O6 0.603758 0.081588 0.748094
O O7 0.500000 0.000000 0.500000
O O8 0.657392 0.931158 0.546325
O O9 0.465882 0.277654 0.544675
O O10 0.301875 0.234982 0.640050
O O11 0.000000 0.763741 0.250000
O O12 0.750000 0.000000 0.830952
#
# Coordination Sequence:
#
# PCOD9421003 Si02
#       5
#     8   8   8   8   8
#     4  10  19  33  63 103 150 188 236 317 380 434
#     4  12  24  42  73 104 142 192 259 314 377 439
#     4  11  22  40  65 107 154 190 246 306 382 457
#     4  11  20  35  62 108 149 184 241 317 377 437
#     4  12  27  47  69 105 152 201 243 311 385 458
#
# _framework density 26.946891000000001
#
# number of rings (size 3 to 8) (size 9 to 14) (size 15 to 20)
#    0.000    0.800    4.000    7.200    0.000    0.000 
#    0.000    0.000    0.000    1.200    0.000    0.000 
#    0.000    0.000    0.000    0.000    0.000    0.000 
#
# Total GULP energy -223149.177451 kJ/mol
# GULP energy per Si atom -5578.729436 kJ/mol
# Density = 2.688556 g / cm^3
# Si number density = 26.946891 Si / 1000 Ang^3
#
#
#
# Elastic Constant Matrix: (Units=GPa)
#
#
# Indices 1 2 3 4 5 6 
#
# 1 53.7442 46.2017 13.6686 0.0000 0.0000 0.0000
# 2 46.2017 268.1276 68.4119 0.0000 0.0000 0.0000
# 3 13.6686 68.4119 154.0482 0.0000 0.0000 0.0000
# 4 0.0000 0.0000 0.0000 58.6081 0.0000 0.0000
# 5 0.0000 0.0000 0.0000 0.0000 13.6733 0.0000
# 6 0.0000 0.0000 0.0000 0.0000 0.0000 47.6639
#
#
#
# Elastic Compliance Matrix: (Units=1/GPa)
#
#
# Indices 1 2 3 4 5 6 
#
# 1 0.021854 -0.003689 -0.000301 0.000000 0.000000 0.000000
# 2 -0.003689 0.004829 -0.001817 0.000000 0.000000 0.000000
# 3 -0.000301 -0.001817 0.007325 0.000000 0.000000 0.000000
# 4 0.000000 0.000000 0.000000 0.017062 0.000000 0.000000
# 5 0.000000 0.000000 0.000000 0.000000 0.073135 0.000000
# 6 0.000000 0.000000 0.000000 0.000000 0.000000 0.020980
#
#
# Mechanical properties :
#
#
# Convention : Reuss Voigt Hill
#
# Bulk Modulus (GPa) = 44.65396 81.38715 63.02055
# Shear Modulus (GPa) = 30.43858 47.16493 38.80175
#
# Velocity S-wave (km/s) = 3.36456 4.18819 3.79876
# Velocity P-wave (km/s) = 5.63035 7.32504 6.53288
#
# Compressibility (1/GPa) = 0.02239443
#
# Stress axis : x y z
#
# Youngs Moduli (GPa) = 45.75724 207.08764 136.51591
#
# Poissons Ratio (x) = 0.76395 0.04107
# Poissons Ratio (y) = 0.16880 0.24807
# Poissons Ratio (z) = 0.01377 0.37631
#
# Static dielectric constant tensor:
#      x y z
#    x 2.410910 0.000000 0.000000 
#    y 0.000000 2.259150 0.000000 
#    z 0.000000 0.000000 2.080050 
# 
# From -- ./inp_files/3988.got.cif
#   From: 2010.05.17/outbox.cif.g08.bks.cpg/sg54_2_cif.got.tgz:3988.got - 2010.06.03 13:09:01.
