data_PCOD9421148
_publ_section_title
;
Structure prediction by ZEFSAII (Michael W. Deem and Ramdas Pophale) SiO2 
 PCOD9421148
Probable space group: P C C A
;
_chemical_formula_sum "Si O2"
_cell_formula_units_Z 56
_cell_length_a 21.323216
_cell_length_b 14.955633
_cell_length_c 8.931304
_cell_angle_alpha 90.000000
_cell_angle_beta 90.000000
_cell_angle_gamma 90.000000
_cell_volume 2848.212431
_symmetry_space_group_name_H-M "P C C A"
_symmetry_group_IT_number 54
_symmetry_cell_setting 'orthorhombic'
loop_
_space_group_symop_operation_xyz
x,y,z
1/2-x,-y,z
1/2+x,-y,1/2-z
-x,y,1/2-z
-x,-y,-z
1/2+x,y,-z
1/2-x,y,1/2+z
x,-y,1/2+z
loop_
_atom_site_type_symbol
_atom_site_label
_atom_site_fract_x
_atom_site_fract_y
_atom_site_fract_z
Si Si1 0.363116 0.091538 0.898142
Si Si2 0.751468 0.772089 0.678915
Si Si3 0.690039 0.944349 0.814636
Si Si4 0.431585 0.243069 0.802837
Si Si5 0.440306 0.613191 0.542194
Si Si6 0.416685 0.429207 0.385153
Si Si7 0.672739 0.314034 0.916896
O O1 0.310953 0.170438 0.878964
O O2 0.424151 0.137965 0.833487
O O3 0.335531 0.005500 0.817036
O O4 0.365615 0.066473 0.069363
O O5 0.713827 0.846776 0.771089
O O6 0.775991 0.688997 0.780764
O O7 0.707955 0.741845 0.544049
O O8 0.750000 0.000000 0.378833
O O9 0.500000 0.269283 0.750000
O O10 0.385191 0.268219 0.668084
O O11 0.418840 0.297482 0.956935
O O12 0.424570 0.533654 0.425090
O O13 0.515750 0.612777 0.567602
O O14 0.410845 0.592251 0.706985
O O15 0.360068 0.393987 0.490122
#
# Coordination Sequence:
#
# PCOD9421148 Si02
#       7
#     8   8   8   8   8   8   8
#     4  10  22  35  61  86 119 165 213 277 319 395
#     4  10  21  36  59  92 125 163 213 266 326 386
#     4  10  19  36  59  88 117 157 217 268 320 386
#     4  11  23  41  61  91 134 173 216 275 337 386
#     4  10  21  39  63  98 128 167 220 256 319 382
#     4  10  21  37  68  96 127 166 213 274 307 382
#     4  11  22  37  64  96 130 167 214 274 325 392
#
# _framework density 19.661456000000001
#
# number of rings (size 3 to 8) (size 9 to 14) (size 15 to 20)
#    0.000    1.714    2.857    2.143    8.000    0.000 
#    0.000    0.714    0.000   18.000    0.000    0.000 
#    0.000    0.000    0.000    0.000    0.000    0.000 
#
# Total GULP energy -311797.657448 kJ/mol
# GULP energy per Si atom -5567.815312 kJ/mol
# Density = 1.961671 g / cm^3
# Si number density = 19.661456 Si / 1000 Ang^3
#
#
#
# Elastic Constant Matrix: (Units=GPa)
#
#
# Indices 1 2 3 4 5 6 
#
# 1 36.7211 40.0823 51.6988 0.0000 0.0000 0.0000
# 2 40.0823 -8.1290 -5.2726 0.0000 0.0000 0.0000
# 3 51.6988 -5.2726 89.7443 0.0000 0.0000 0.0000
# 4 0.0000 0.0000 0.0000 14.7342 0.0000 0.0000
# 5 0.0000 0.0000 0.0000 0.0000 27.9501 0.0000
# 6 0.0000 0.0000 0.0000 0.0000 0.0000 -21.8345
#
#
#
# Elastic Compliance Matrix: (Units=1/GPa)
#
#
# Indices 1 2 3 4 5 6 
#
# 1 0.004400 0.022483 -0.001214 0.000000 0.000000 0.000000
# 2 0.022483 -0.003618 -0.013164 0.000000 0.000000 0.000000
# 3 -0.001214 -0.013164 0.011069 0.000000 0.000000 0.000000
# 4 0.000000 0.000000 0.000000 0.067869 0.000000 0.000000
# 5 0.000000 0.000000 0.000000 0.000000 0.035778 0.000000
# 6 0.000000 0.000000 0.000000 0.000000 0.000000 -0.045799
#
#
# Mechanical properties :
#
#
# Convention : Reuss Voigt Hill
#
# Bulk Modulus (GPa) = 35.63733 32.37259 34.00496
# Shear Modulus (GPa) = 79.56418 6.29182 42.92800
#
# Velocity S-wave (km/s) = 6.36828 1.79082 4.67771
# Velocity P-wave (km/s) = 8.49930 4.55815 6.81964
#
# Compressibility (1/GPa) = 0.02806047
#
# Stress axis : x y z
#
# Youngs Moduli (GPa) = 227.26731 -276.38803 90.34563
#
# Poissons Ratio (x) = 6.21408 0.10967
# Poissons Ratio (y) = -5.10969 1.18935
# Poissons Ratio (z) = 0.27587 -3.63849
#
# Static dielectric constant tensor:
#      x y z
#    x 1.738190 0.000000 0.000000 
#    y 0.000000 1.705670 0.000000 
#    z 0.000000 0.000000 1.728940 
# 
# From -- ./inp_files/4786.got.cif
#   From: 2010.05.17/outbox.cif.g08.bks.cpg/sg54_3_cif.got.tgz:4786.got - 2010.06.03 13:09:01.
