data_PCOD9421136
_publ_section_title
;
Structure prediction by ZEFSAII (Michael W. Deem and Ramdas Pophale) SiO2 
 PCOD9421136
Probable space group: P C C A
;
_chemical_formula_sum "Si O2"
_cell_formula_units_Z 48
_cell_length_a 12.589777
_cell_length_b 19.197082
_cell_length_c 8.724698
_cell_angle_alpha 90.000000
_cell_angle_beta 90.000000
_cell_angle_gamma 90.000000
_cell_volume 2108.645924
_symmetry_space_group_name_H-M "P C C A"
_symmetry_group_IT_number 54
_symmetry_cell_setting 'orthorhombic'
loop_
_space_group_symop_operation_xyz
x,y,z
1/2-x,-y,z
1/2+x,-y,1/2-z
-x,y,1/2-z
-x,-y,-z
1/2+x,y,-z
1/2-x,y,1/2+z
x,-y,1/2+z
loop_
_atom_site_type_symbol
_atom_site_label
_atom_site_fract_x
_atom_site_fract_y
_atom_site_fract_z
Si Si1 0.537644 0.347228 0.923080
Si Si2 0.877300 0.423041 0.892763
Si Si3 0.245955 0.708448 0.177995
Si Si4 0.878385 0.224207 0.055277
Si Si5 0.887556 0.929603 0.682542
Si Si6 0.250000 0.000000 0.073192
Si Si7 0.750000 0.500000 0.649924
O O1 0.500000 0.365259 0.750000
O O2 0.660719 0.329505 0.917942
O O3 0.481050 0.273175 0.960891
O O4 0.492720 0.406592 0.036082
O O5 0.842153 0.350851 0.813913
O O6 0.845800 0.478765 0.764595
O O7 0.802200 0.442685 0.037964
O O8 0.302994 0.733061 0.329690
O O9 0.189179 0.774327 0.099847
O O10 0.900444 0.149716 0.126846
O O11 0.842418 0.971477 0.537084
O O12 0.800707 0.941590 0.816159
O O13 0.000000 0.954386 0.750000
#
# Coordination Sequence:
#
# PCOD9421136 Si02
#       7
#     8   8   8   8   8   4   4
#     4   9  18  34  55  79 105 137 174 222 281 332
#     4  10  20  36  54  74 105 140 175 221 273 324
#     4  10  19  36  56  80 107 137 176 228 283 335
#     4  10  20  34  59  84 108 142 181 226 282 333
#     4  11  21  39  61  87 122 161 202 245 290 347
#     4  10  24  38  58  88 122 166 206 240 288 340
#     4  10  20  36  54  74 104 142 182 222 264 328
#
# _framework density 22.763421999999998
#
# number of rings (size 3 to 8) (size 9 to 14) (size 15 to 20)
#    0.000    2.000    0.000    6.000    0.000    0.000 
#    0.000   16.667    0.000    6.000    0.000    0.000 
#    0.000    0.000    0.000    0.000    0.000    0.000 
#
# Total GULP energy -268125.368514 kJ/mol
# GULP energy per Si atom -5585.945177 kJ/mol
# Density = 2.271161 g / cm^3
# Si number density = 22.763422 Si / 1000 Ang^3
#
#
#
# Elastic Constant Matrix: (Units=GPa)
#
#
# Indices 1 2 3 4 5 6 
#
# 1 54.7268 -2.3034 12.4258 0.0000 0.0000 0.0000
# 2 -2.3034 68.0048 24.1094 0.0000 0.0000 0.0000
# 3 12.4258 24.1094 58.4267 0.0000 0.0000 0.0000
# 4 0.0000 0.0000 0.0000 17.5242 0.0000 0.0000
# 5 0.0000 0.0000 0.0000 0.0000 37.4347 0.0000
# 6 0.0000 0.0000 0.0000 0.0000 0.0000 27.4010
#
#
#
# Elastic Compliance Matrix: (Units=1/GPa)
#
#
# Indices 1 2 3 4 5 6 
#
# 1 0.019557 0.002503 -0.005192 0.000000 0.000000 0.000000
# 2 0.002503 0.017545 -0.007772 0.000000 0.000000 0.000000
# 3 -0.005192 -0.007772 0.021427 0.000000 0.000000 0.000000
# 4 0.000000 0.000000 0.000000 0.057064 0.000000 0.000000
# 5 0.000000 0.000000 0.000000 0.000000 0.026713 0.000000
# 6 0.000000 0.000000 0.000000 0.000000 0.000000 0.036495
#
#
# Mechanical properties :
#
#
# Convention : Reuss Voigt Hill
#
# Bulk Modulus (GPa) = 26.59125 27.73577 27.16351
# Shear Modulus (GPa) = 23.55615 26.26708 24.91161
#
# Velocity S-wave (km/s) = 3.22036 3.40062 3.31172
# Velocity P-wave (km/s) = 5.05317 5.25640 5.15579
#
# Compressibility (1/GPa) = 0.03760636
#
# Stress axis : x y z
#
# Youngs Moduli (GPa) = 51.13304 56.99603 46.67042
#
# Poissons Ratio (x) = -0.14267 0.24232
# Poissons Ratio (y) = -0.12799 0.36273
# Poissons Ratio (z) = 0.26549 0.44299
#
# Static dielectric constant tensor:
#      x y z
#    x 1.850570 0.000000 0.000000 
#    y 0.000000 1.827440 0.000000 
#    z 0.000000 0.000000 1.890520 
# 
# From -- ./inp_files/3620.got.cif
#   From: 2010.05.17/outbox.cif.g08.bks.cpg/sg54_2_cif.got.tgz:3620.got - 2010.06.03 13:09:01.
