data_PCOD9421869
_publ_section_title
;
Structure prediction by ZEFSAII (Michael W. Deem and Ramdas Pophale) SiO2 
 PCOD9421869
Probable space group: P C C A
;
_chemical_formula_sum "Si O2"
_cell_formula_units_Z 48
_cell_length_a 9.590372
_cell_length_b 18.593980
_cell_length_c 13.363282
_cell_angle_alpha 90.000000
_cell_angle_beta 90.000000
_cell_angle_gamma 90.000000
_cell_volume 2382.983010
_symmetry_space_group_name_H-M "P C C A"
_symmetry_group_IT_number 54
_symmetry_cell_setting 'orthorhombic'
loop_
_space_group_symop_operation_xyz
x,y,z
1/2-x,-y,z
1/2+x,-y,1/2-z
-x,y,1/2-z
-x,-y,-z
1/2+x,y,-z
1/2-x,y,1/2+z
x,-y,1/2+z
loop_
_atom_site_type_symbol
_atom_site_label
_atom_site_fract_x
_atom_site_fract_y
_atom_site_fract_z
Si Si1 0.780978 0.655345 0.895367
Si Si2 0.752780 0.785514 0.033863
Si Si3 0.089875 0.987617 0.155268
Si Si4 0.497969 0.883752 0.479947
Si Si5 0.359268 0.329377 0.307143
Si Si6 0.997148 0.583682 0.476081
O O1 0.750161 0.649306 0.778133
O O2 0.658652 0.610421 0.951693
O O3 0.759575 0.736721 0.933943
O O4 0.929304 0.626708 0.933347
O O5 0.859539 0.851016 0.022138
O O6 0.801111 0.732953 0.122211
O O7 0.600714 0.817904 0.049828
O O8 0.000000 0.964798 0.250000
O O9 0.250000 0.000000 0.182620
O O10 0.028446 0.061499 0.109715
O O11 0.076706 0.929176 0.067302
O O12 0.500000 0.304630 0.250000
O O13 0.410788 0.393915 0.379019
O O14 0.000000 0.500000 0.500000
#
# Coordination Sequence:
#
# PCOD9421869 Si02
#       6
#     8   8   8   8   8   8
#     4  10  21  40  62  91 127 159 209 262 308 375
#     4  11  22  40  66  91 122 169 204 259 321 371
#     4  11  26  44  65  95 129 166 211 262 311 376
#     4  11  24  43  66  90 128 164 210 257 315 376
#     4   9  20  39  62  91 125 161 208 262 312 369
#     4  10  20  39  63  88 124 169 205 254 316 370
#
# _framework density 20.142821999999999
#
# number of rings (size 3 to 8) (size 9 to 14) (size 15 to 20)
#    0.000    1.667    1.667    3.500    2.333    3.333 
#    0.000   25.000    0.000    0.000    0.000    0.000 
#    0.000    0.000    0.000    0.000    0.000    0.000 
#
# Total GULP energy -268289.182425 kJ/mol
# GULP energy per Si atom -5589.357967 kJ/mol
# Density = 2.009698 g / cm^3
# Si number density = 20.142822 Si / 1000 Ang^3
#
#
#
# Elastic Constant Matrix: (Units=GPa)
#
#
# Indices 1 2 3 4 5 6 
#
# 1 51.8740 1.1954 20.3691 0.0000 0.0000 0.0000
# 2 1.1954 72.6612 9.6682 0.0000 0.0000 0.0000
# 3 20.3691 9.6682 82.6971 0.0000 0.0000 0.0000
# 4 0.0000 0.0000 0.0000 2.8095 0.0000 0.0000
# 5 0.0000 0.0000 0.0000 0.0000 28.5620 0.0000
# 6 0.0000 0.0000 0.0000 0.0000 0.0000 20.5084
#
#
#
# Elastic Compliance Matrix: (Units=1/GPa)
#
#
# Indices 1 2 3 4 5 6 
#
# 1 0.021351 0.000354 -0.005300 0.000000 0.000000 0.000000
# 2 0.000354 0.013986 -0.001722 0.000000 0.000000 0.000000
# 3 -0.005300 -0.001722 0.013599 0.000000 0.000000 0.000000
# 4 0.000000 0.000000 0.000000 0.355936 0.000000 0.000000
# 5 0.000000 0.000000 0.000000 0.000000 0.035012 0.000000
# 6 0.000000 0.000000 0.000000 0.000000 0.000000 0.048760
#
#
# Mechanical properties :
#
#
# Convention : Reuss Voigt Hill
#
# Bulk Modulus (GPa) = 28.09107 29.96640 29.02874
# Shear Modulus (GPa) = 9.73053 22.10929 15.91991
#
# Velocity S-wave (km/s) = 2.20029 3.31664 2.81437
# Velocity P-wave (km/s) = 4.52009 5.43839 5.00036
#
# Compressibility (1/GPa) = 0.03559850
#
# Stress axis : x y z
#
# Youngs Moduli (GPa) = 46.83723 71.50083 73.53386
#
# Poissons Ratio (x) = -0.02531 0.38975
# Poissons Ratio (y) = -0.01658 0.12665
# Poissons Ratio (z) = 0.24825 0.12315
#
# Static dielectric constant tensor:
#      x y z
#    x 2.872330 0.000000 0.000000 
#    y 0.000000 1.683060 0.000000 
#    z 0.000000 0.000000 1.722640 
# 
# From -- ./inp_files/11700.got.cif
#   From: 2010.05.17/outbox.cif.g08.bks.cpg/sg54_6_cif.got.tgz:11700.got - 2010.06.03 13:09:01.
