data_PCOD9421016
_publ_section_title
;
Structure prediction by ZEFSAII (Michael W. Deem and Ramdas Pophale) SiO2 
 PCOD9421016
Probable space group: P C C A
;
_chemical_formula_sum "Si O2"
_cell_formula_units_Z 52
_cell_length_a 23.936628
_cell_length_b 8.157102
_cell_length_c 11.713805
_cell_angle_alpha 90.000000
_cell_angle_beta 90.000000
_cell_angle_gamma 90.000000
_cell_volume 2287.161614
_symmetry_space_group_name_H-M "P C C A"
_symmetry_group_IT_number 54
_symmetry_cell_setting 'orthorhombic'
loop_
_space_group_symop_operation_xyz
x,y,z
1/2-x,-y,z
1/2+x,-y,1/2-z
-x,y,1/2-z
-x,-y,-z
1/2+x,y,-z
1/2-x,y,1/2+z
x,-y,1/2+z
loop_
_atom_site_type_symbol
_atom_site_label
_atom_site_fract_x
_atom_site_fract_y
_atom_site_fract_z
Si Si1 0.067310 0.577934 0.080234
Si Si2 0.868811 0.167643 0.368385
Si Si3 0.470035 0.165611 0.459291
Si Si4 0.389334 0.174702 0.251981
Si Si5 0.500000 0.662863 0.250000
Si Si6 0.610636 0.730624 0.134305
Si Si7 0.687065 0.955846 0.571765
O O1 0.106690 0.673654 0.168494
O O2 0.016521 0.696918 0.047096
O O3 0.034583 0.449160 0.161422
O O4 0.101721 0.583035 0.957976
O O5 0.918701 0.209537 0.456360
O O6 0.859727 0.285061 0.259314
O O7 0.816668 0.130534 0.449006
O O8 0.886240 0.992043 0.318707
O O9 0.442596 0.162006 0.334596
O O10 0.500000 0.000000 0.500000
O O11 0.336366 0.168891 0.334457
O O12 0.547305 0.763710 0.181965
O O13 0.643851 0.885938 0.078107
O O14 0.750000 0.000000 0.598266
#
# Coordination Sequence:
#
# PCOD9421016 Si02
#       7
#     8   8   8   8   4   8   8
#     4  12  21  39  60  90 134 182 221 261 327 407
#     4  10  20  34  57  89 126 160 207 284 345 394
#     4  11  18  28  54  86 128 166 210 261 329 397
#     4  10  19  34  54  94 122 162 211 267 329 397
#     4  12  26  42  62  92 144 200 226 258 324 428
#     4  11  24  41  60 101 134 175 227 276 334 425
#     4  10  22  41  67  97 129 165 217 291 368 404
#
# _framework density 22.735603999999999
#
# number of rings (size 3 to 8) (size 9 to 14) (size 15 to 20)
#    0.000    1.231    4.615    3.231    0.000    3.692 
#    0.000    0.000    0.000    0.923    0.000    0.000 
#    0.000    0.000    0.000    0.000    0.000    0.000 
#
# Total GULP energy -289965.362717 kJ/mol
# GULP energy per Si atom -5576.256975 kJ/mol
# Density = 2.268386 g / cm^3
# Si number density = 22.735604 Si / 1000 Ang^3
#
#
#
# Elastic Constant Matrix: (Units=GPa)
#
#
# Indices 1 2 3 4 5 6 
#
# 1 87.4386 13.6738 39.9093 0.0000 0.0000 0.0000
# 2 13.6738 47.1733 21.3035 0.0000 0.0000 0.0000
# 3 39.9093 21.3035 157.8956 0.0000 0.0000 0.0000
# 4 0.0000 0.0000 0.0000 37.0113 0.0000 0.0000
# 5 0.0000 0.0000 0.0000 0.0000 15.8865 0.0000
# 6 0.0000 0.0000 0.0000 0.0000 0.0000 18.0699
#
#
#
# Elastic Compliance Matrix: (Units=1/GPa)
#
#
# Indices 1 2 3 4 5 6 
#
# 1 0.013193 -0.002469 -0.003001 0.000000 0.000000 0.000000
# 2 -0.002469 0.023036 -0.002484 0.000000 0.000000 0.000000
# 3 -0.003001 -0.002484 0.007427 0.000000 0.000000 0.000000
# 4 0.000000 0.000000 0.000000 0.027019 0.000000 0.000000
# 5 0.000000 0.000000 0.000000 0.000000 0.062946 0.000000
# 6 0.000000 0.000000 0.000000 0.000000 0.000000 0.055341
#
#
# Mechanical properties :
#
#
# Convention : Reuss Voigt Hill
#
# Bulk Modulus (GPa) = 36.03961 49.14230 42.59095
# Shear Modulus (GPa) = 23.35155 28.70161 26.02658
#
# Velocity S-wave (km/s) = 3.20830 3.55689 3.38709
# Velocity P-wave (km/s) = 5.44154 6.20727 5.83698
#
# Compressibility (1/GPa) = 0.02774725
#
# Stress axis : x y z
#
# Youngs Moduli (GPa) = 75.80020 43.41074 134.64213
#
# Poissons Ratio (x) = 0.10716 0.40412
# Poissons Ratio (y) = 0.18712 0.33446
# Poissons Ratio (z) = 0.22751 0.10784
#
# Static dielectric constant tensor:
#      x y z
#    x 1.862710 0.000000 0.000000 
#    y 0.000000 1.932070 0.000000 
#    z 0.000000 0.000000 1.980180 
# 
# From -- ./inp_files/10292.got.cif
#   From: 2010.05.17/outbox.cif.g08.bks.cpg/sg54_6_cif.got.tgz:10292.got - 2010.06.03 13:09:01.
