data_PCOD9421471
_publ_section_title
;
Structure prediction by ZEFSAII (Michael W. Deem and Ramdas Pophale) SiO2 
 PCOD9421471
Probable space group: P C C A
;
_chemical_formula_sum "Si O2"
_cell_formula_units_Z 40
_cell_length_a 18.354682
_cell_length_b 9.883902
_cell_length_c 9.830550
_cell_angle_alpha 90.000000
_cell_angle_beta 90.000000
_cell_angle_gamma 90.000000
_cell_volume 1783.417861
_symmetry_space_group_name_H-M "P C C A"
_symmetry_group_IT_number 54
_symmetry_cell_setting 'orthorhombic'
loop_
_space_group_symop_operation_xyz
x,y,z
1/2-x,-y,z
1/2+x,-y,1/2-z
-x,y,1/2-z
-x,-y,-z
1/2+x,y,-z
1/2-x,y,1/2+z
x,-y,1/2+z
loop_
_atom_site_type_symbol
_atom_site_label
_atom_site_fract_x
_atom_site_fract_y
_atom_site_fract_z
Si Si1 0.922085 0.473132 0.809613
Si Si2 0.818058 0.274276 0.359881
Si Si3 0.027820 0.789735 0.094176
Si Si4 0.293838 0.365026 0.361212
Si Si5 0.435796 0.078046 0.638175
O O1 0.873015 0.597159 0.857338
O O2 0.936146 0.357191 0.923933
O O3 0.873795 0.404477 0.690834
O O4 0.000000 0.518093 0.750000
O O5 0.750204 0.309016 0.266667
O O6 0.795174 0.261066 0.515724
O O7 0.863758 0.147818 0.307490
O O8 0.000000 0.780819 0.250000
O O9 0.077399 0.924128 0.091290
O O10 0.965533 0.830986 0.987345
O O11 0.250000 0.500000 0.407232
O O12 0.500000 0.077308 0.750000
#
# Coordination Sequence:
#
# PCOD9421471 Si02
#       5
#     8   8   8   8   8
#     4  10  20  35  61  88 111 144 192 240 287 344
#     4  11  22  38  59  84 115 154 194 234 286 348
#     4   9  19  37  58  85 119 148 180 233 291 334
#     4  10  22  38  56  81 118 153 185 235 292 338
#     4  10  21  36  59  89 118 147 187 239 291 341
#
# _framework density 22.428844000000002
#
# number of rings (size 3 to 8) (size 9 to 14) (size 15 to 20)
#    0.000    2.000    0.000    4.800    0.000    8.000 
#    0.000    1.000    0.000    7.200    0.000    0.000 
#    0.000    0.000    0.000    0.000    0.000    0.000 
#
# Total GULP energy -223578.282250 kJ/mol
# GULP energy per Si atom -5589.457056 kJ/mol
# Density = 2.237780 g / cm^3
# Si number density = 22.428844 Si / 1000 Ang^3
#
#
#
# Elastic Constant Matrix: (Units=GPa)
#
#
# Indices 1 2 3 4 5 6 
#
# 1 98.1781 2.8998 26.7569 0.0000 0.0000 0.0000
# 2 2.8998 45.6387 8.4634 0.0000 0.0000 0.0000
# 3 26.7569 8.4634 64.7070 0.0000 0.0000 0.0000
# 4 0.0000 0.0000 0.0000 497.0941 0.0000 0.0000
# 5 0.0000 0.0000 0.0000 0.0000 13.6867 0.0000
# 6 0.0000 0.0000 0.0000 0.0000 0.0000 5.3485
#
#
#
# Elastic Compliance Matrix: (Units=1/GPa)
#
#
# Indices 1 2 3 4 5 6 
#
# 1 0.011480 0.000155 -0.004767 0.000000 0.000000 0.000000
# 2 0.000155 0.022458 -0.003001 0.000000 0.000000 0.000000
# 3 -0.004767 -0.003001 0.017818 0.000000 0.000000 0.000000
# 4 0.000000 0.000000 0.000000 0.002012 0.000000 0.000000
# 5 0.000000 0.000000 0.000000 0.000000 0.073064 0.000000
# 6 0.000000 0.000000 0.000000 0.000000 0.000000 0.186969
#
#
# Mechanical properties :
#
#
# Convention : Reuss Voigt Hill
#
# Bulk Modulus (GPa) = 27.37610 31.64046 29.50828
# Shear Modulus (GPa) = 14.65395 114.58611 64.62003
#
# Velocity S-wave (km/s) = 2.55885 7.15539 5.37342
# Velocity P-wave (km/s) = 4.57849 9.07766 7.18910
#
# Compressibility (1/GPa) = 0.03652821
#
# Stress axis : x y z
#
# Youngs Moduli (GPa) = 87.10582 44.52757 56.12234
#
# Poissons Ratio (x) = -0.00689 0.26756
# Poissons Ratio (y) = -0.01347 0.16844
# Poissons Ratio (z) = 0.41527 0.13364
#
# Static dielectric constant tensor:
#      x y z
#    x 1.826910 0.000000 0.000000 
#    y 0.000000 1.868460 0.000000 
#    z 0.000000 0.000000 1.831550 
# 
# From -- ./inp_files/3942.got.cif
#   From: 2010.05.17/outbox.cif.g08.bks.cpg/sg54_2_cif.got.tgz:3942.got - 2010.06.03 13:09:01.
