data_PCOD9421503
_publ_section_title
;
Structure prediction by ZEFSAII (Michael W. Deem and Ramdas Pophale) SiO2 
 PCOD9421503
Probable space group: P C C A
;
_chemical_formula_sum "Si O2"
_cell_formula_units_Z 32
_cell_length_a 12.782017
_cell_length_b 13.525062
_cell_length_c 9.468585
_cell_angle_alpha 90.000000
_cell_angle_beta 90.000000
_cell_angle_gamma 90.000000
_cell_volume 1636.905989
_symmetry_space_group_name_H-M "P C C A"
_symmetry_group_IT_number 54
_symmetry_cell_setting 'orthorhombic'
loop_
_space_group_symop_operation_xyz
x,y,z
1/2-x,-y,z
1/2+x,-y,1/2-z
-x,y,1/2-z
-x,-y,-z
1/2+x,y,-z
1/2-x,y,1/2+z
x,-y,1/2+z
loop_
_atom_site_type_symbol
_atom_site_label
_atom_site_fract_x
_atom_site_fract_y
_atom_site_fract_z
Si Si1 0.750000 0.000000 0.505018
Si Si2 0.000000 0.517227 0.750000
Si Si3 0.825058 0.592628 0.119196
Si Si4 0.324660 0.674018 0.164449
Si Si5 0.123414 0.106473 0.245510
O O1 0.676201 0.939720 0.395770
O O2 0.819442 0.934354 0.613494
O O3 0.058667 0.447821 0.861576
O O4 0.090236 0.588348 0.692038
O O5 0.750000 0.500000 0.079022
O O6 0.781740 0.635482 0.265351
O O7 0.814279 0.676939 0.002989
O O8 0.360257 0.775877 0.232422
O O9 0.000000 0.083602 0.250000
#
# Coordination Sequence:
#
# PCOD9421503 Si02
#       5
#     4   4   8   8   8
#     4  10  24  42  68  92 124 156 200 258 318 374
#     4  10  20  36  56  86 118 162 200 240 294 346
#     4  10  21  36  56  83 122 161 200 243 291 349
#     4  11  21  37  59  86 119 157 201 246 292 355
#     4  11  22  43  66  94 123 160 202 254 314 370
#
# _framework density 19.549077
#
# number of rings (size 3 to 8) (size 9 to 14) (size 15 to 20)
#    0.000    1.500    1.250    5.250    0.000    2.000 
#    4.500    0.000    5.500    0.000    0.000    0.000 
#    0.000    0.000    0.000    0.000    0.000    0.000 
#
# Total GULP energy -178617.971785 kJ/mol
# GULP energy per Si atom -5581.811618 kJ/mol
# Density = 1.950458 g / cm^3
# Si number density = 19.549077 Si / 1000 Ang^3
#
#
#
# Elastic Constant Matrix: (Units=GPa)
#
#
# Indices 1 2 3 4 5 6 
#
# 1 109.6076 44.1582 46.4483 0.0000 0.0000 0.0000
# 2 44.1582 69.3183 44.5472 0.0000 0.0000 0.0000
# 3 46.4483 44.5472 123.7621 0.0000 0.0000 0.0000
# 4 0.0000 0.0000 0.0000 17.9095 0.0000 0.0000
# 5 0.0000 0.0000 0.0000 0.0000 20.2667 0.0000
# 6 0.0000 0.0000 0.0000 0.0000 0.0000 20.7209
#
#
#
# Elastic Compliance Matrix: (Units=1/GPa)
#
#
# Indices 1 2 3 4 5 6 
#
# 1 0.012813 -0.006598 -0.002434 0.000000 0.000000 0.000000
# 2 -0.006598 0.022165 -0.005502 0.000000 0.000000 0.000000
# 3 -0.002434 -0.005502 0.010974 0.000000 0.000000 0.000000
# 4 0.000000 0.000000 0.000000 0.055836 0.000000 0.000000
# 5 0.000000 0.000000 0.000000 0.000000 0.049342 0.000000
# 6 0.000000 0.000000 0.000000 0.000000 0.000000 0.048260
#
#
# Mechanical properties :
#
#
# Convention : Reuss Voigt Hill
#
# Bulk Modulus (GPa) = 59.22676 63.66615 61.44646
# Shear Modulus (GPa) = 21.35958 22.94838 22.15398
#
# Velocity S-wave (km/s) = 3.30906 3.42992 3.37003
# Velocity P-wave (km/s) = 6.70537 6.95153 6.82956
#
# Compressibility (1/GPa) = 0.01688426
#
# Stress axis : x y z
#
# Youngs Moduli (GPa) = 78.04504 45.11553 91.12633
#
# Poissons Ratio (x) = 0.29769 0.22178
# Poissons Ratio (y) = 0.51497 0.50136
# Poissons Ratio (z) = 0.18994 0.24822
#
# Static dielectric constant tensor:
#      x y z
#    x 1.660980 0.000000 0.000000 
#    y 0.000000 1.659130 0.000000 
#    z 0.000000 0.000000 1.709680 
# 
# From -- ./inp_files/2808.got.cif
#   From: 2010.05.17/outbox.cif.g08.bks.cpg/sg54_2_cif.got.tgz:2808.got - 2010.06.03 13:09:01.
