data_PCOD9421035
_publ_section_title
;
Structure prediction by ZEFSAII (Michael W. Deem and Ramdas Pophale) SiO2 
 PCOD9421035
Probable space group: P C C A
;
_chemical_formula_sum "Si O2"
_cell_formula_units_Z 60
_cell_length_a 22.038680
_cell_length_b 5.903204
_cell_length_c 20.710369
_cell_angle_alpha 90.000000
_cell_angle_beta 90.000000
_cell_angle_gamma 90.000000
_cell_volume 2694.394650
_symmetry_space_group_name_H-M "P C C A"
_symmetry_group_IT_number 54
_symmetry_cell_setting 'orthorhombic'
loop_
_space_group_symop_operation_xyz
x,y,z
1/2-x,-y,z
1/2+x,-y,1/2-z
-x,y,1/2-z
-x,-y,-z
1/2+x,y,-z
1/2-x,y,1/2+z
x,-y,1/2+z
loop_
_atom_site_type_symbol
_atom_site_label
_atom_site_fract_x
_atom_site_fract_y
_atom_site_fract_z
Si Si1 0.417460 0.977880 0.472662
Si Si2 0.323559 0.002297 0.804078
Si Si3 0.180379 0.499650 0.850695
Si Si4 0.182654 0.680468 0.489974
Si Si5 0.023279 0.797111 0.589090
Si Si6 0.595294 0.409808 0.420425
Si Si7 0.750000 0.000000 0.435823
Si Si8 0.864587 0.036347 0.841811
O O1 0.352761 0.093780 0.464648
O O2 0.455446 0.159942 0.514809
O O3 0.456859 0.903404 0.411354
O O4 0.412523 0.773136 0.523220
O O5 0.344025 0.248713 0.833066
O O6 0.250000 0.000000 0.812642
O O7 0.345055 0.747536 0.827016
O O8 0.342640 0.015173 0.729213
O O9 0.250000 0.500000 0.826292
O O10 0.182177 0.478967 0.928293
O O11 0.144588 0.577168 0.548956
O O12 0.244744 0.777674 0.519328
O O13 0.031924 0.530666 0.595813
O O14 0.073889 0.907725 0.635564
O O15 0.619955 0.297973 0.355553
O O16 0.809220 0.005303 0.391331
#
# Coordination Sequence:
#
# PCOD9421035 Si02
#       8
#     8   8   8   8   8   8   4   8
#     4   9  18  35  56  85 122 162 205 254 314 385
#     4  10  23  43  61  87 122 176 218 256 302 378
#     4  10  25  41  63  86 125 174 221 260 299 379
#     4  11  24  37  59  91 130 166 208 261 327 382
#     4   9  18  35  55  87 124 158 206 252 317 385
#     4  10  19  34  56  94 119 169 194 260 328 379
#     4  12  22  38  54  94 136 158 192 262 338 392
#     4  11  22  37  59  89 130 160 204 258 328 387
#
# _framework density 22.268452
#
# number of rings (size 3 to 8) (size 9 to 14) (size 15 to 20)
#    0.000    1.867    4.667    0.400    8.400    1.067 
#    2.400    0.000    0.000    0.800    0.000    0.000 
#    0.000    0.000    0.000    0.000    0.000    0.000 
#
# Total GULP energy -334264.053956 kJ/mol
# GULP energy per Si atom -5571.067566 kJ/mol
# Density = 2.221777 g / cm^3
# Si number density = 22.268452 Si / 1000 Ang^3
#
#
#
# Elastic Constant Matrix: (Units=GPa)
#
#
# Indices 1 2 3 4 5 6 
#
# 1 47.0477 14.2617 5.2542 0.0000 0.0000 0.0000
# 2 14.2617 133.3286 48.5636 0.0000 0.0000 0.0000
# 3 5.2542 48.5636 93.1603 0.0000 0.0000 0.0000
# 4 0.0000 0.0000 0.0000 28.6871 0.0000 0.0000
# 5 0.0000 0.0000 0.0000 0.0000 15.7958 0.0000
# 6 0.0000 0.0000 0.0000 0.0000 0.0000 27.2745
#
#
#
# Elastic Compliance Matrix: (Units=1/GPa)
#
#
# Indices 1 2 3 4 5 6 
#
# 1 0.021967 -0.002343 -0.000017 0.000000 0.000000 0.000000
# 2 -0.002343 0.009508 -0.004824 0.000000 0.000000 0.000000
# 3 -0.000017 -0.004824 0.013250 0.000000 0.000000 0.000000
# 4 0.000000 0.000000 0.000000 0.034859 0.000000 0.000000
# 5 0.000000 0.000000 0.000000 0.000000 0.063308 0.000000
# 6 0.000000 0.000000 0.000000 0.000000 0.000000 0.036664
#
#
# Mechanical properties :
#
#
# Convention : Reuss Voigt Hill
#
# Bulk Modulus (GPa) = 32.94316 45.52173 39.23244
# Shear Modulus (GPa) = 24.50437 28.04864 26.27650
#
# Velocity S-wave (km/s) = 3.32084 3.55289 3.43882
# Velocity P-wave (km/s) = 5.43412 6.10879 5.78131
#
# Compressibility (1/GPa) = 0.03035532
#
# Stress axis : x y z
#
# Youngs Moduli (GPa) = 45.52210 105.17288 75.47144
#
# Poissons Ratio (x) = 0.24647 0.00131
# Poissons Ratio (y) = 0.10668 0.36410
# Poissons Ratio (z) = 0.00079 0.50739
#
# Static dielectric constant tensor:
#      x y z
#    x 1.900650 0.000000 0.000000 
#    y 0.000000 1.962330 0.000000 
#    z 0.000000 0.000000 1.804390 
# 
# From -- ./inp_files/22340.got.cif
#   From: 2010.05.17/outbox.cif.g08.bks.cpg/sg54_12_cif.got.tgz:22340.got - 2010.06.03 13:09:01.
