data_PCOD9421066
_publ_section_title
;
Structure prediction by ZEFSAII (Michael W. Deem and Ramdas Pophale) SiO2 
 PCOD9421066
Probable space group: P C C A
;
_chemical_formula_sum "Si O2"
_cell_formula_units_Z 56
_cell_length_a 24.129513
_cell_length_b 5.455305
_cell_length_c 22.575170
_cell_angle_alpha 90.000000
_cell_angle_beta 90.000000
_cell_angle_gamma 90.000000
_cell_volume 2971.656607
_symmetry_space_group_name_H-M "P C C A"
_symmetry_group_IT_number 54
_symmetry_cell_setting 'orthorhombic'
loop_
_space_group_symop_operation_xyz
x,y,z
1/2-x,-y,z
1/2+x,-y,1/2-z
-x,y,1/2-z
-x,-y,-z
1/2+x,y,-z
1/2-x,y,1/2+z
x,-y,1/2+z
loop_
_atom_site_type_symbol
_atom_site_label
_atom_site_fract_x
_atom_site_fract_y
_atom_site_fract_z
Si Si1 0.489204 0.911232 0.095341
Si Si2 0.399595 0.415889 0.890648
Si Si3 0.780852 0.752656 0.637012
Si Si4 0.888718 0.321214 0.733186
Si Si5 0.545020 0.693633 0.521773
Si Si6 0.558952 0.183205 0.779118
Si Si7 0.237592 0.749423 0.231423
O O1 0.542819 0.735570 0.106882
O O2 0.451790 0.888495 0.152923
O O3 0.517792 0.165416 0.077245
O O4 0.452017 0.858257 0.036720
O O5 0.344563 0.254530 0.882741
O O6 0.398068 0.596441 0.834395
O O7 0.400905 0.565963 0.952096
O O8 0.750000 0.500000 0.618635
O O9 0.775990 0.752365 0.709133
O O10 0.750000 0.000000 0.617378
O O11 0.906160 0.566487 0.769974
O O12 0.824832 0.263342 0.745676
O O13 0.919384 0.066099 0.748010
O O14 0.500000 0.500000 0.500000
O O15 0.500000 0.243558 0.750000
O O16 0.250000 0.500000 0.197705
O O17 0.250000 0.000000 0.198408
#
# Coordination Sequence:
#
# PCOD9421066 Si02
#       7
#     8   8   8   8   8   8   8
#     4  10  22  40  58  87 124 162 214 249 302 366
#     4  11  21  36  60  87 125 161 201 248 314 370
#     4  10  21  32  54  84 120 154 186 249 304 364
#     4  12  24  36  56  90 125 164 195 245 313 374
#     4   9  21  38  63  83 115 163 206 261 293 356
#     4  12  25  36  56  85 129 168 197 244 301 373
#     4  10  19  35  54  78 118 150 197 247 298 364
#
# _framework density 18.844705999999999
#
# number of rings (size 3 to 8) (size 9 to 14) (size 15 to 20)
#    0.000    1.429    4.286    2.143    8.000    0.000 
#    0.000    0.000    0.000    0.000    0.000    4.000 
#    0.000    0.000    0.000    0.000    0.000    0.000 
#
# Total GULP energy -312130.589305 kJ/mol
# GULP energy per Si atom -5573.760523 kJ/mol
# Density = 1.880181 g / cm^3
# Si number density = 18.844706 Si / 1000 Ang^3
#
#
#
# Elastic Constant Matrix: (Units=GPa)
#
#
# Indices 1 2 3 4 5 6 
#
# 1 76.8182 41.5291 26.0003 0.0000 0.0000 0.0000
# 2 41.5291 142.6402 18.2993 0.0000 0.0000 0.0000
# 3 26.0003 18.2993 57.5829 0.0000 0.0000 0.0000
# 4 0.0000 0.0000 0.0000 3.5770 0.0000 0.0000
# 5 0.0000 0.0000 0.0000 0.0000 9.2220 0.0000
# 6 0.0000 0.0000 0.0000 0.0000 0.0000 19.6702
#
#
#
# Elastic Compliance Matrix: (Units=1/GPa)
#
#
# Indices 1 2 3 4 5 6 
#
# 1 0.017547 -0.004266 -0.006567 0.000000 0.000000 0.000000
# 2 -0.004266 0.008346 -0.000726 0.000000 0.000000 0.000000
# 3 -0.006567 -0.000726 0.020562 0.000000 0.000000 0.000000
# 4 0.000000 0.000000 0.000000 0.279566 0.000000 0.000000
# 5 0.000000 0.000000 0.000000 0.000000 0.108436 0.000000
# 6 0.000000 0.000000 0.000000 0.000000 0.000000 0.050838
#
#
# Mechanical properties :
#
#
# Convention : Reuss Voigt Hill
#
# Bulk Modulus (GPa) = 42.85154 49.85542 46.35348
# Shear Modulus (GPa) = 9.68631 19.24135 14.46383
#
# Velocity S-wave (km/s) = 2.26963 3.19885 2.77343
# Velocity P-wave (km/s) = 5.44582 6.33695 5.90821
#
# Compressibility (1/GPa) = 0.02333639
#
# Stress axis : x y z
#
# Youngs Moduli (GPa) = 56.99021 119.81992 48.63293
#
# Poissons Ratio (x) = 0.51118 0.31938
# Poissons Ratio (y) = 0.24313 0.03530
# Poissons Ratio (z) = 0.37426 0.08698
#
# Static dielectric constant tensor:
#      x y z
#    x 1.652270 0.000000 0.000000 
#    y 0.000000 1.792560 0.000000 
#    z 0.000000 0.000000 1.654390 
# 
# From -- ./inp_files/22296.got.cif
#   From: 2010.05.17/outbox.cif.g08.bks.cpg/sg54_12_cif.got.tgz:22296.got - 2010.06.03 13:09:01.
