data_PCOD9421962
_publ_section_title
;
Structure prediction by ZEFSAII (Michael W. Deem and Ramdas Pophale) SiO2 
 PCOD9421962
Probable space group: P C C A
;
_chemical_formula_sum "Si O2"
_cell_formula_units_Z 32
_cell_length_a 13.939026
_cell_length_b 7.586482
_cell_length_c 11.988715
_cell_angle_alpha 90.000000
_cell_angle_beta 90.000000
_cell_angle_gamma 90.000000
_cell_volume 1267.784670
_symmetry_space_group_name_H-M "P C C A"
_symmetry_group_IT_number 54
_symmetry_cell_setting 'orthorhombic'
loop_
_space_group_symop_operation_xyz
x,y,z
1/2-x,-y,z
1/2+x,-y,1/2-z
-x,y,1/2-z
-x,-y,-z
1/2+x,y,-z
1/2-x,y,1/2+z
x,-y,1/2+z
loop_
_atom_site_type_symbol
_atom_site_label
_atom_site_fract_x
_atom_site_fract_y
_atom_site_fract_z
Si Si1 0.113150 0.172893 0.829175
Si Si2 0.250000 0.000000 0.460660
Si Si3 0.000000 0.836650 0.750000
Si Si4 0.892717 0.353048 0.448216
Si Si5 0.665962 0.726357 0.910346
O O1 0.119818 0.269777 0.712200
O O2 0.073141 0.978354 0.805251
O O3 0.220313 0.153001 0.876447
O O4 0.069112 0.265773 0.937126
O O5 0.164033 0.078390 0.535457
O O6 0.045128 0.714686 0.654785
O O7 0.881290 0.560975 0.470521
O O8 0.782153 0.301264 0.412527
#
# Coordination Sequence:
#
# PCOD9421962 Si02
#       5
#     8   4   4   8   8
#     4  11  22  40  64  91 129 172 214 265 323 382
#     4  10  20  40  68  94 122 168 214 264 320 386
#     4  12  24  42  62  96 134 170 212 262 328 394
#     4  10  24  41  64  96 130 168 215 272 323 379
#     4  10  22  42  66  94 122 166 224 267 317 386
#
# _framework density 25.240879
#
# number of rings (size 3 to 8) (size 9 to 14) (size 15 to 20)
#    0.000    1.500    0.000    6.000    0.000   11.000 
#    0.000    3.750    0.000    0.000    0.000    0.000 
#    0.000    0.000    0.000    0.000    0.000    0.000 
#
# Total GULP energy -178650.185729 kJ/mol
# GULP energy per Si atom -5582.818304 kJ/mol
# Density = 2.518343 g / cm^3
# Si number density = 25.240879 Si / 1000 Ang^3
#
#
#
# Elastic Constant Matrix: (Units=GPa)
#
#
# Indices 1 2 3 4 5 6 
#
# 1 66.8516 15.7496 35.9207 0.0000 0.0000 0.0000
# 2 15.7496 121.9682 55.6980 0.0000 0.0000 0.0000
# 3 35.9207 55.6980 171.8155 0.0000 0.0000 0.0000
# 4 0.0000 0.0000 0.0000 40.6977 0.0000 0.0000
# 5 0.0000 0.0000 0.0000 0.0000 37.8338 0.0000
# 6 0.0000 0.0000 0.0000 0.0000 0.0000 44.9771
#
#
#
# Elastic Compliance Matrix: (Units=1/GPa)
#
#
# Indices 1 2 3 4 5 6 
#
# 1 0.016898 -0.000668 -0.003316 0.000000 0.000000 0.000000
# 2 -0.000668 0.009650 -0.002989 0.000000 0.000000 0.000000
# 3 -0.003316 -0.002989 0.007482 0.000000 0.000000 0.000000
# 4 0.000000 0.000000 0.000000 0.024571 0.000000 0.000000
# 5 0.000000 0.000000 0.000000 0.000000 0.026431 0.000000
# 6 0.000000 0.000000 0.000000 0.000000 0.000000 0.022234
#
#
# Mechanical properties :
#
#
# Convention : Reuss Voigt Hill
#
# Bulk Modulus (GPa) = 49.78878 63.93022 56.85950
# Shear Modulus (GPa) = 39.09111 41.58618 40.33865
#
# Velocity S-wave (km/s) = 3.93965 4.06343 4.00202
# Velocity P-wave (km/s) = 6.36103 6.88465 6.62801
#
# Compressibility (1/GPa) = 0.02008485
#
# Stress axis : x y z
#
# Youngs Moduli (GPa) = 59.17967 103.62839 133.64741
#
# Poissons Ratio (x) = 0.06918 0.44322
# Poissons Ratio (y) = 0.03951 0.39943
# Poissons Ratio (z) = 0.19626 0.30971
#
# Static dielectric constant tensor:
#      x y z
#    x 2.142130 0.000000 0.000000 
#    y 0.000000 2.154660 0.000000 
#    z 0.000000 0.000000 1.976280 
# 
# From -- ./inp_files/8023.got.cif
#   From: 2010.05.17/outbox.cif.g08.bks.cpg/sg54_5_cif.got.tgz:8023.got - 2010.06.03 13:09:01.
