data_PCOD9421473
_publ_section_title
;
Structure prediction by ZEFSAII (Michael W. Deem and Ramdas Pophale) SiO2 
 PCOD9421473
Probable space group: P C C A
;
_chemical_formula_sum "Si O2"
_cell_formula_units_Z 48
_cell_length_a 12.774430
_cell_length_b 8.940753
_cell_length_c 20.727881
_cell_angle_alpha 90.000000
_cell_angle_beta 90.000000
_cell_angle_gamma 90.000000
_cell_volume 2367.393957
_symmetry_space_group_name_H-M "P C C A"
_symmetry_group_IT_number 54
_symmetry_cell_setting 'orthorhombic'
loop_
_space_group_symop_operation_xyz
x,y,z
1/2-x,-y,z
1/2+x,-y,1/2-z
-x,y,1/2-z
-x,-y,-z
1/2+x,y,-z
1/2-x,y,1/2+z
x,-y,1/2+z
loop_
_atom_site_type_symbol
_atom_site_label
_atom_site_fract_x
_atom_site_fract_y
_atom_site_fract_z
Si Si1 0.605346 0.241809 0.711616
Si Si2 0.580433 0.845685 0.936238
Si Si3 0.492053 0.820375 0.080291
Si Si4 0.786821 0.327794 0.456209
Si Si5 0.750000 0.000000 0.182609
Si Si6 0.860063 0.259471 0.600701
Si Si7 0.750000 0.500000 0.685602
O O1 0.500000 0.253176 0.750000
O O2 0.572377 0.222113 0.636535
O O3 0.670352 0.093156 0.725908
O O4 0.679546 0.382576 0.723430
O O5 0.694043 0.774112 0.927136
O O6 0.484720 0.755930 0.904065
O O7 0.563908 0.017077 0.913991
O O8 0.554552 0.832846 0.012882
O O9 0.398389 0.700133 0.077827
O O10 0.750000 0.500000 0.456329
O O11 0.811137 0.273558 0.529424
O O12 0.687500 0.115975 0.137312
O O13 0.825955 0.403177 0.640647
#
# Coordination Sequence:
#
# PCOD9421473 Si02
#       7
#     8   8   8   8   4   8   4
#     4  11  24  46  66  91 121 163 217 264 305 366
#     4  10  20  36  60  92 125 162 200 250 316 366
#     4  10  22  38  62  88 125 163 204 261 303 369
#     4  11  23  33  54  96 134 166 192 245 316 380
#     4  10  20  42  68  90 112 162 214 256 298 364
#     4  10  20  35  63  88 124 161 208 243 300 377
#     4  10  22  40  66  90 118 166 200 254 312 372
#
# _framework density 20.275458
#
# number of rings (size 3 to 8) (size 9 to 14) (size 15 to 20)
#    0.000    1.667    2.500    2.500    7.000    1.333 
#    4.500    3.333    0.000    0.000    0.000    0.000 
#    0.000    0.000    0.000    0.000    0.000    0.000 
#
# Total GULP energy -268177.854268 kJ/mol
# GULP energy per Si atom -5587.038631 kJ/mol
# Density = 2.022931 g / cm^3
# Si number density = 20.275458 Si / 1000 Ang^3
#
#
#
# Elastic Constant Matrix: (Units=GPa)
#
#
# Indices 1 2 3 4 5 6 
#
# 1 95.4946 26.1597 6.8798 0.0000 0.0000 0.0000
# 2 26.1597 96.6390 4.7553 0.0000 0.0000 0.0000
# 3 6.8798 4.7553 9.2293 0.0000 0.0000 0.0000
# 4 0.0000 0.0000 0.0000 -5.9513 0.0000 0.0000
# 5 0.0000 0.0000 0.0000 0.0000 -24.5479 0.0000
# 6 0.0000 0.0000 0.0000 0.0000 0.0000 31.9526
#
#
#
# Elastic Compliance Matrix: (Units=1/GPa)
#
#
# Indices 1 2 3 4 5 6 
#
# 1 0.011774 -0.002827 -0.007320 0.000000 0.000000 0.000000
# 2 -0.002827 0.011296 -0.003713 0.000000 0.000000 0.000000
# 3 -0.007320 -0.003713 0.115720 0.000000 0.000000 0.000000
# 4 0.000000 0.000000 0.000000 -0.168030 0.000000 0.000000
# 5 0.000000 0.000000 0.000000 0.000000 -0.040737 0.000000
# 6 0.000000 0.000000 0.000000 0.000000 0.000000 0.031296
#
#
# Mechanical properties :
#
#
# Convention : Reuss Voigt Hill
#
# Bulk Modulus (GPa) = 9.00333 30.77251 19.88792
# Shear Modulus (GPa) = 191.85886 11.19521 101.52704
#
# Velocity S-wave (km/s) = 9.73815 2.35235 7.08397
# Velocity P-wave (km/s) = 11.44082 4.75271 8.76015
#
# Compressibility (1/GPa) = 0.11106999
#
# Stress axis : x y z
#
# Youngs Moduli (GPa) = 84.93630 88.52923 8.64157
#
# Poissons Ratio (x) = 0.25026 0.06325
# Poissons Ratio (y) = 0.24010 0.03208
# Poissons Ratio (z) = 0.62172 0.32869
#
# Static dielectric constant tensor:
#      x y z
#    x 1.707320 0.000000 0.000000 
#    y 0.000000 1.737630 0.000000 
#    z 0.000000 0.000000 1.718410 
# 
# From -- ./inp_files/24103.got.cif
#   From: 2010.05.17/outbox.cif.g08.bks.cpg/sg54_13_cif.got.tgz:24103.got - 2010.06.03 13:09:01.
