data_PCOD9421570
_publ_section_title
;
Structure prediction by ZEFSAII (Michael W. Deem and Ramdas Pophale) SiO2 
 PCOD9421570
Probable space group: P C C A
;
_chemical_formula_sum "Si O2"
_cell_formula_units_Z 56
_cell_length_a 20.475906
_cell_length_b 8.940903
_cell_length_c 15.030514
_cell_angle_alpha 90.000000
_cell_angle_beta 90.000000
_cell_angle_gamma 90.000000
_cell_volume 2751.682633
_symmetry_space_group_name_H-M "P C C A"
_symmetry_group_IT_number 54
_symmetry_cell_setting 'orthorhombic'
loop_
_space_group_symop_operation_xyz
x,y,z
1/2-x,-y,z
1/2+x,-y,1/2-z
-x,y,1/2-z
-x,-y,-z
1/2+x,y,-z
1/2-x,y,1/2+z
x,-y,1/2+z
loop_
_atom_site_type_symbol
_atom_site_label
_atom_site_fract_x
_atom_site_fract_y
_atom_site_fract_z
Si Si1 0.479044 0.829373 0.989304
Si Si2 0.179501 0.082224 0.684249
Si Si3 0.640927 0.258400 0.137035
Si Si4 0.922958 0.491735 0.249547
Si Si5 0.811784 0.406393 0.476766
Si Si6 0.607128 0.217131 0.844714
Si Si7 0.388797 0.670461 0.572799
O O1 0.418579 0.815975 0.919495
O O2 0.542659 0.739438 0.957764
O O3 0.452315 0.773898 0.084930
O O4 0.500000 0.000000 0.000000
O O5 0.168318 0.164016 0.779691
O O6 0.161688 0.199620 0.604861
O O7 0.250000 0.000000 0.678506
O O8 0.125603 0.951390 0.676647
O O9 0.610534 0.411388 0.174478
O O10 0.694996 0.307500 0.065140
O O11 0.905170 0.318074 0.258630
O O12 0.899802 0.572671 0.339245
O O13 0.000000 0.506864 0.250000
O O14 0.750000 0.500000 0.447639
O O15 0.834414 0.294950 0.399616
O O16 0.863070 0.542192 0.493222
#
# Coordination Sequence:
#
# PCOD9421570 Si02
#       7
#     8   8   8   8   8   8   8
#     4  11  21  40  62  94 123 152 206 256 314 355
#     4  11  23  43  61  88 124 166 204 244 306 367
#     4  10  24  40  61  89 124 160 201 258 303 362
#     4  10  20  36  60  90 121 155 191 244 305 368
#     4  10  22  42  63  90 120 160 211 251 297 358
#     4  10  23  37  62  94 118 158 205 249 303 371
#     4  10  21  39  68  86 121 165 195 256 304 363
#
# _framework density 20.351185999999998
#
# number of rings (size 3 to 8) (size 9 to 14) (size 15 to 20)
#    0.000    1.714    2.857    0.857    2.000    4.000 
#    2.571    2.857    0.000    0.000    0.000    0.000 
#    0.000    0.000    0.000    0.000    0.000    0.000 
#
# Total GULP energy -312324.738702 kJ/mol
# GULP energy per Si atom -5577.227477 kJ/mol
# Density = 2.030487 g / cm^3
# Si number density = 20.351186 Si / 1000 Ang^3
#
#
#
# Elastic Constant Matrix: (Units=GPa)
#
#
# Indices 1 2 3 4 5 6 
#
# 1 39.3464 4.4247 4.3080 0.0000 0.0000 0.0000
# 2 4.4247 98.2698 29.5947 0.0000 0.0000 0.0000
# 3 4.3080 29.5947 57.8655 0.0000 0.0000 0.0000
# 4 0.0000 0.0000 0.0000 7.6723 0.0000 0.0000
# 5 0.0000 0.0000 0.0000 0.0000 4.1793 0.0000
# 6 0.0000 0.0000 0.0000 0.0000 0.0000 38.5900
#
#
#
# Elastic Compliance Matrix: (Units=1/GPa)
#
#
# Indices 1 2 3 4 5 6 
#
# 1 0.025663 -0.000686 -0.001560 0.000000 0.000000 0.000000
# 2 -0.000686 0.012047 -0.006110 0.000000 0.000000 0.000000
# 3 -0.001560 -0.006110 0.020523 0.000000 0.000000 0.000000
# 4 0.000000 0.000000 0.000000 0.130339 0.000000 0.000000
# 5 0.000000 0.000000 0.000000 0.000000 0.239277 0.000000
# 6 0.000000 0.000000 0.000000 0.000000 0.000000 0.025913
#
#
# Mechanical properties :
#
#
# Convention : Reuss Voigt Hill
#
# Bulk Modulus (GPa) = 24.08416 30.23739 27.16077
# Shear Modulus (GPa) = 10.32386 20.56525 15.44456
#
# Velocity S-wave (km/s) = 2.25474 3.18231 2.75781
# Velocity P-wave (km/s) = 4.31723 5.32850 4.84930
#
# Compressibility (1/GPa) = 0.04152107
#
# Stress axis : x y z
#
# Youngs Moduli (GPa) = 38.96636 83.00744 48.72669
#
# Poissons Ratio (x) = 0.05692 0.07601
# Poissons Ratio (y) = 0.02672 0.29774
# Poissons Ratio (z) = 0.06078 0.50720
#
# Static dielectric constant tensor:
#      x y z
#    x 1.787630 0.000000 0.000000 
#    y 0.000000 1.735910 0.000000 
#    z 0.000000 0.000000 1.750390 
# 
# From -- ./inp_files/14673.got.cif
#   From: 2010.05.17/outbox.cif.g08.bks.cpg/sg54_8_cif.got.tgz:14673.got - 2010.06.03 13:09:01.
