data_PCOD9421203
_publ_section_title
;
Structure prediction by ZEFSAII (Michael W. Deem and Ramdas Pophale) SiO2 
 PCOD9421203
Probable space group: P C C A
;
_chemical_formula_sum "Si O2"
_cell_formula_units_Z 64
_cell_length_a 14.297387
_cell_length_b 11.811545
_cell_length_c 19.098926
_cell_angle_alpha 90.000000
_cell_angle_beta 90.000000
_cell_angle_gamma 90.000000
_cell_volume 3225.316421
_symmetry_space_group_name_H-M "P C C A"
_symmetry_group_IT_number 54
_symmetry_cell_setting 'orthorhombic'
loop_
_space_group_symop_operation_xyz
x,y,z
1/2-x,-y,z
1/2+x,-y,1/2-z
-x,y,1/2-z
-x,-y,-z
1/2+x,y,-z
1/2-x,y,1/2+z
x,-y,1/2+z
loop_
_atom_site_type_symbol
_atom_site_label
_atom_site_fract_x
_atom_site_fract_y
_atom_site_fract_z
Si Si1 0.845724 0.066408 0.175835
Si Si2 0.506168 0.676519 0.446560
Si Si3 0.855027 0.046105 0.815910
Si Si4 0.909181 0.697985 0.702229
Si Si5 0.985021 0.069422 0.430058
Si Si6 0.651646 0.464121 0.167929
Si Si7 0.041668 0.435380 0.587769
Si Si8 0.104592 0.701097 0.217992
O O1 0.839139 0.195929 0.203793
O O2 0.916494 0.071147 0.111408
O O3 0.750000 0.000000 0.159128
O O4 0.889971 0.998563 0.240621
O O5 0.439900 0.684871 0.378714
O O6 0.547876 0.802592 0.448379
O O7 0.455729 0.643436 0.519127
O O8 0.568361 0.564668 0.431263
O O9 0.858793 0.180745 0.810885
O O10 0.750000 0.000000 0.821840
O O11 0.914340 0.993701 0.878396
O O12 0.875578 0.571055 0.717768
O O13 0.000000 0.724445 0.750000
O O14 0.000000 0.000000 0.500000
O O15 0.750000 0.500000 0.134340
O O16 0.567094 0.440865 0.114297
O O17 0.660556 0.356612 0.218656
O O18 0.096726 0.384060 0.652664
O O19 0.000000 0.716929 0.250000
#
# Coordination Sequence:
#
# PCOD9421203 Si02
#       8
#     8   8   8   8   8   8   8   8
#     4  10  22  38  61  89 119 157 202 252 303 362
#     4   9  18  34  61  83 107 155 203 241 298 368
#     4  11  24  39  59  86 126 161 203 256 306 360
#     4  10  19  37  61  84 116 155 201 248 298 371
#     4  11  22  39  62  88 118 167 209 250 304 369
#     4  10  21  33  57  91 120 147 195 249 307 359
#     4   9  18  37  60  82 116 152 197 247 303 369
#     4  10  20  37  59  86 115 156 196 246 309 365
#
# _framework density 19.843015000000001
#
# number of rings (size 3 to 8) (size 9 to 14) (size 15 to 20)
#    0.000    2.000    0.000    5.250    3.500    1.500 
#    0.000    0.000    8.250    1.500    0.000    0.000 
#    0.000    0.000    0.000    0.000    0.000    0.000 
#
# Total GULP energy -356776.538220 kJ/mol
# GULP energy per Si atom -5574.633410 kJ/mol
# Density = 1.979785 g / cm^3
# Si number density = 19.843015 Si / 1000 Ang^3
#
#
#
# Elastic Constant Matrix: (Units=GPa)
#
#
# Indices 1 2 3 4 5 6 
#
# 1 62.1347 26.2378 18.5366 0.0000 0.0000 0.0000
# 2 26.2378 149.2381 44.0065 0.0000 0.0000 0.0000
# 3 18.5366 44.0065 107.7447 0.0000 0.0000 0.0000
# 4 0.0000 0.0000 0.0000 42.7380 0.0000 0.0000
# 5 0.0000 0.0000 0.0000 0.0000 58.4062 0.0000
# 6 0.0000 0.0000 0.0000 0.0000 0.0000 25.5474
#
#
#
# Elastic Compliance Matrix: (Units=1/GPa)
#
#
# Indices 1 2 3 4 5 6 
#
# 1 0.017765 -0.002526 -0.002024 0.000000 0.000000 0.000000
# 2 -0.002526 0.007977 -0.002824 0.000000 0.000000 0.000000
# 3 -0.002024 -0.002824 0.010783 0.000000 0.000000 0.000000
# 4 0.000000 0.000000 0.000000 0.023398 0.000000 0.000000
# 5 0.000000 0.000000 0.000000 0.000000 0.017121 0.000000
# 6 0.000000 0.000000 0.000000 0.000000 0.000000 0.039143
#
#
# Mechanical properties :
#
#
# Convention : Reuss Voigt Hill
#
# Bulk Modulus (GPa) = 45.92159 55.18659 50.55409
# Shear Modulus (GPa) = 36.18066 40.69409 38.43738
#
# Velocity S-wave (km/s) = 4.27470 4.53349 4.40599
# Velocity P-wave (km/s) = 6.89614 7.43474 7.17050
#
# Compressibility (1/GPa) = 0.02177625
#
# Stress axis : x y z
#
# Youngs Moduli (GPa) = 56.29104 125.35301 92.74068
#
# Poissons Ratio (x) = 0.31668 0.18775
# Poissons Ratio (y) = 0.14221 0.26187
# Poissons Ratio (z) = 0.11396 0.35395
#
# Static dielectric constant tensor:
#      x y z
#    x 1.747440 0.000000 0.000000 
#    y 0.000000 1.761130 0.000000 
#    z 0.000000 0.000000 1.732650 
# 
# From -- ./inp_files/18247.got.cif
#   From: 2010.05.17/outbox.cif.g08.bks.cpg/sg54_10_cif.got.tgz:18247.got - 2010.06.03 13:09:01.
