data_PCOD9421893
_publ_section_title
;
Structure prediction by ZEFSAII (Michael W. Deem and Ramdas Pophale) SiO2 
 PCOD9421893
Probable space group: P C C A
;
_chemical_formula_sum "Si O2"
_cell_formula_units_Z 36
_cell_length_a 11.210651
_cell_length_b 5.938941
_cell_length_c 23.528107
_cell_angle_alpha 90.000000
_cell_angle_beta 90.000000
_cell_angle_gamma 90.000000
_cell_volume 1566.487126
_symmetry_space_group_name_H-M "P C C A"
_symmetry_group_IT_number 54
_symmetry_cell_setting 'orthorhombic'
loop_
_space_group_symop_operation_xyz
x,y,z
1/2-x,-y,z
1/2+x,-y,1/2-z
-x,y,1/2-z
-x,-y,-z
1/2+x,y,-z
1/2-x,y,1/2+z
x,-y,1/2+z
loop_
_atom_site_type_symbol
_atom_site_label
_atom_site_fract_x
_atom_site_fract_y
_atom_site_fract_z
Si Si1 0.437428 0.673171 0.197897
Si Si2 0.571692 0.690854 0.896746
Si Si3 0.882553 0.966757 0.633037
Si Si4 0.750000 0.000000 0.326942
Si Si5 0.124737 0.863182 0.990280
O O1 0.500000 0.543998 0.250000
O O2 0.415566 0.524495 0.142444
O O3 0.535205 0.857824 0.180300
O O4 0.315929 0.807766 0.208942
O O5 0.656464 0.879441 0.868475
O O6 0.440725 0.799475 0.888805
O O7 0.612121 0.670397 0.962025
O O8 0.877238 0.808972 0.576543
O O9 0.750000 0.000000 0.653666
O O10 0.250000 0.000000 0.999295
O O11 0.000000 0.000000 0.000000
#
# Coordination Sequence:
#
# PCOD9421893 Si02
#       5
#     8   8   8   4   8
#     4  11  25  41  64  94 123 171 228 270 322 392
#     4  10  20  39  66  94 126 162 219 268 326 399
#     4   9  21  40  63  94 135 167 206 267 335 385
#     4  10  22  44  62  86 124 168 212 274 328 384
#     4   9  17  35  66  96 131 172 211 271 336 405
#
# _framework density 22.981358
#
# number of rings (size 3 to 8) (size 9 to 14) (size 15 to 20)
#    0.000    2.222    1.111    0.667    1.556    5.333 
#    4.000    0.000    4.889    0.000    0.000    0.000 
#    0.000    0.000    0.000    0.000    0.000    0.000 
#
# Total GULP energy -200854.328195 kJ/mol
# GULP energy per Si atom -5579.286894 kJ/mol
# Density = 2.292905 g / cm^3
# Si number density = 22.981358 Si / 1000 Ang^3
#
#
#
# Elastic Constant Matrix: (Units=GPa)
#
#
# Indices 1 2 3 4 5 6 
#
# 1 130.7818 10.5264 0.7252 0.0000 0.0000 0.0000
# 2 10.5264 37.7114 1.5293 0.0000 0.0000 0.0000
# 3 0.7252 1.5293 72.3152 0.0000 0.0000 0.0000
# 4 0.0000 0.0000 0.0000 26.6411 0.0000 0.0000
# 5 0.0000 0.0000 0.0000 0.0000 20.9375 0.0000
# 6 0.0000 0.0000 0.0000 0.0000 0.0000 12.4234
#
#
#
# Elastic Compliance Matrix: (Units=1/GPa)
#
#
# Indices 1 2 3 4 5 6 
#
# 1 0.007822 -0.002182 -0.000032 0.000000 0.000000 0.000000
# 2 -0.002182 0.027149 -0.000552 0.000000 0.000000 0.000000
# 3 -0.000032 -0.000552 0.013840 0.000000 0.000000 0.000000
# 4 0.000000 0.000000 0.000000 0.037536 0.000000 0.000000
# 5 0.000000 0.000000 0.000000 0.000000 0.047761 0.000000
# 6 0.000000 0.000000 0.000000 0.000000 0.000000 0.080494
#
#
# Mechanical properties :
#
#
# Convention : Reuss Voigt Hill
#
# Bulk Modulus (GPa) = 23.10649 29.59669 26.35159
# Shear Modulus (GPa) = 21.31640 27.20222 24.25931
#
# Velocity S-wave (km/s) = 3.04888 3.44417 3.25254
# Velocity P-wave (km/s) = 4.74030 5.35938 5.05932
#
# Compressibility (1/GPa) = 0.04327788
#
# Stress axis : x y z
#
# Youngs Moduli (GPa) = 127.84233 36.83422 72.25247
#
# Poissons Ratio (x) = 0.08038 0.00233
# Poissons Ratio (y) = 0.27896 0.03990
# Poissons Ratio (z) = 0.00413 0.02034
#
# Static dielectric constant tensor:
#      x y z
#    x 1.892590 0.000000 0.000000 
#    y 0.000000 1.878850 0.000000 
#    z 0.000000 0.000000 1.897480 
# 
# From -- ./inp_files/23803.got.cif
#   From: 2010.05.17/outbox.cif.g08.bks.cpg/sg54_12_cif.got.tgz:23803.got - 2010.06.03 13:09:01.
