data_PCOD9421860
_publ_section_title
;
Structure prediction by ZEFSAII (Michael W. Deem and Ramdas Pophale) SiO2 
 PCOD9421860
Probable space group: P C C A
;
_chemical_formula_sum "Si O2"
_cell_formula_units_Z 56
_cell_length_a 14.215811
_cell_length_b 10.578689
_cell_length_c 19.840259
_cell_angle_alpha 90.000000
_cell_angle_beta 90.000000
_cell_angle_gamma 90.000000
_cell_volume 2983.670276
_symmetry_space_group_name_H-M "P C C A"
_symmetry_group_IT_number 54
_symmetry_cell_setting 'orthorhombic'
loop_
_space_group_symop_operation_xyz
x,y,z
1/2-x,-y,z
1/2+x,-y,1/2-z
-x,y,1/2-z
-x,-y,-z
1/2+x,y,-z
1/2-x,y,1/2+z
x,-y,1/2+z
loop_
_atom_site_type_symbol
_atom_site_label
_atom_site_fract_x
_atom_site_fract_y
_atom_site_fract_z
Si Si1 0.250000 0.000000 0.322234
Si Si2 0.990307 0.295338 0.003905
Si Si3 0.638540 0.489055 0.294731
Si Si4 0.362951 0.489392 0.549231
Si Si5 0.941275 0.116210 0.124652
Si Si6 0.521950 0.854662 0.865676
Si Si7 0.365333 0.211525 0.253751
Si Si8 0.000000 0.707522 0.750000
O O1 0.339572 0.949632 0.364428
O O2 0.220632 0.876244 0.278424
O O3 0.949889 0.199918 0.058667
O O4 0.089271 0.356200 0.028408
O O5 0.915306 0.408294 0.996662
O O6 0.996507 0.226939 0.931778
O O7 0.750000 0.500000 0.296573
O O8 0.609100 0.479617 0.373213
O O9 0.625845 0.363374 0.250054
O O10 0.585591 0.611823 0.266729
O O11 0.250000 0.500000 0.542854
O O12 0.969504 0.202865 0.188365
O O13 0.014585 0.001689 0.118342
O O14 0.615837 0.825330 0.824024
O O15 0.443738 0.826930 0.808565
#
# Coordination Sequence:
#
# PCOD9421860 Si02
#       8
#     4   8   8   8   8   8   8   4
#     4  10  22  40  60  88 130 162 212 274 312 380
#     4  11  22  42  64  89 125 167 204 257 322 376
#     4  11  22  37  63  94 123 161 211 264 313 381
#     4  10  23  41  62  90 125 163 206 262 315 380
#     4  11  23  39  61  90 123 164 211 261 319 378
#     4  10  21  38  62  85 117 160 205 250 309 380
#     4  10  20  39  61  89 120 158 205 256 313 368
#     4  12  22  40  64  94 126 166 210 270 334 378
#
# _framework density 18.768829
#
# number of rings (size 3 to 8) (size 9 to 14) (size 15 to 20)
#    0.000    1.429    2.857    3.857    0.000    2.286 
#    0.000    2.143    0.000    0.000    0.000    0.000 
#    0.000    0.000    0.000    0.000    0.000    0.000 
#
# Total GULP energy -312059.947427 kJ/mol
# GULP energy per Si atom -5572.499061 kJ/mol
# Density = 1.872611 g / cm^3
# Si number density = 18.768829 Si / 1000 Ang^3
#
#
#
# Elastic Constant Matrix: (Units=GPa)
#
#
# Indices 1 2 3 4 5 6 
#
# 1 56.7557 25.2508 21.5463 0.0000 0.0000 0.0000
# 2 25.2508 115.5473 37.4709 0.0000 0.0000 0.0000
# 3 21.5463 37.4709 96.6110 0.0000 0.0000 0.0000
# 4 0.0000 0.0000 0.0000 45.4360 0.0000 0.0000
# 5 0.0000 0.0000 0.0000 0.0000 9.2874 0.0000
# 6 0.0000 0.0000 0.0000 0.0000 0.0000 26.8488
#
#
#
# Elastic Compliance Matrix: (Units=1/GPa)
#
#
# Indices 1 2 3 4 5 6 
#
# 1 0.020356 -0.003404 -0.003219 0.000000 0.000000 0.000000
# 2 -0.003404 0.010469 -0.003301 0.000000 0.000000 0.000000
# 3 -0.003219 -0.003301 0.012349 0.000000 0.000000 0.000000
# 4 0.000000 0.000000 0.000000 0.022009 0.000000 0.000000
# 5 0.000000 0.000000 0.000000 0.000000 0.107673 0.000000
# 6 0.000000 0.000000 0.000000 0.000000 0.000000 0.037246
#
#
# Mechanical properties :
#
#
# Convention : Reuss Voigt Hill
#
# Bulk Modulus (GPa) = 42.87383 48.60556 45.73970
# Shear Modulus (GPa) = 21.03257 28.62417 24.82837
#
# Velocity S-wave (km/s) = 3.35119 3.90948 3.64105
# Velocity P-wave (km/s) = 6.15359 6.80675 6.48839
#
# Compressibility (1/GPa) = 0.02332425
#
# Stress axis : x y z
#
# Youngs Moduli (GPa) = 49.12502 95.52024 80.97713
#
# Poissons Ratio (x) = 0.32519 0.26070
# Poissons Ratio (y) = 0.16724 0.26732
# Poissons Ratio (z) = 0.15815 0.31533
#
# Static dielectric constant tensor:
#      x y z
#    x 1.677780 0.000000 0.000000 
#    y 0.000000 1.712260 0.000000 
#    z 0.000000 0.000000 1.642010 
# 
# From -- ./inp_files/21677.got.cif
#   From: 2010.05.17/outbox.cif.g08.bks.cpg/sg54_11_cif.got.tgz:21677.got - 2010.06.03 13:09:01.
