data_PCOD9421435
_publ_section_title
;
Structure prediction by ZEFSAII (Michael W. Deem and Ramdas Pophale) SiO2 
 PCOD9421435
Probable space group: P C C A
;
_chemical_formula_sum "Si O2"
_cell_formula_units_Z 60
_cell_length_a 27.036735
_cell_length_b 5.392521
_cell_length_c 18.312088
_cell_angle_alpha 90.000000
_cell_angle_beta 90.000000
_cell_angle_gamma 90.000000
_cell_volume 2669.832135
_symmetry_space_group_name_H-M "P C C A"
_symmetry_group_IT_number 54
_symmetry_cell_setting 'orthorhombic'
loop_
_space_group_symop_operation_xyz
x,y,z
1/2-x,-y,z
1/2+x,-y,1/2-z
-x,y,1/2-z
-x,-y,-z
1/2+x,y,-z
1/2-x,y,1/2+z
x,-y,1/2+z
loop_
_atom_site_type_symbol
_atom_site_label
_atom_site_fract_x
_atom_site_fract_y
_atom_site_fract_z
Si Si1 0.383107 0.554001 0.062806
Si Si2 0.250000 0.500000 0.204502
Si Si3 0.019809 0.212116 0.096012
Si Si4 0.598398 0.230133 0.566637
Si Si5 0.605674 0.262734 0.143721
Si Si6 0.201446 0.890397 0.594334
Si Si7 0.493110 0.281920 0.166557
Si Si8 0.651269 0.714905 0.797335
O O1 0.434900 0.693706 0.046231
O O2 0.336555 0.729846 0.047357
O O3 0.375083 0.479700 0.147926
O O4 0.384273 0.310422 0.013372
O O5 0.272080 0.709009 0.152030
O O6 0.298708 0.390169 0.241172
O O7 0.962805 0.215017 0.067218
O O8 0.034792 0.941927 0.126266
O O9 0.021024 0.431776 0.156493
O O10 0.617824 0.460248 0.616754
O O11 0.621187 0.977225 0.597688
O O12 0.617177 0.218229 0.229232
O O13 0.547080 0.264579 0.133054
O O14 0.250000 0.000000 0.554309
O O15 0.170164 0.076695 0.645997
O O16 0.500000 0.216163 0.250000
#
# Coordination Sequence:
#
# PCOD9421435 Si02
#       8
#     8   4   8   8   8   8   8   8
#     4  11  23  36  66  93 123 169 227 260 317 389
#     4   8  18  38  60  98 120 148 196 280 320 368
#     4  10  22  36  56  86 127 170 220 259 304 381
#     4  10  24  42  57  91 135 180 205 263 321 378
#     4  10  23  39  61  87 133 170 206 256 325 380
#     4   9  20  38  63  96 121 149 206 279 323 368
#     4  10  20  35  53  84 128 167 208 265 315 360
#     4  10  21  37  67  96 119 162 219 265 319 384
#
# _framework density 22.473323000000001
#
# number of rings (size 3 to 8) (size 9 to 14) (size 15 to 20)
#    0.000    2.133    0.000    1.600    9.333    1.067 
#    0.000    4.000    0.000    7.200    0.000    0.000 
#    0.000    0.000    0.000    0.000    0.000    0.000 
#
# Total GULP energy -334382.484343 kJ/mol
# GULP energy per Si atom -5573.041406 kJ/mol
# Density = 2.242217 g / cm^3
# Si number density = 22.473323 Si / 1000 Ang^3
#
#
#
# Elastic Constant Matrix: (Units=GPa)
#
#
# Indices 1 2 3 4 5 6 
#
# 1 82.5226 27.5632 24.7382 0.0000 0.0000 0.0000
# 2 27.5632 94.7139 29.0455 0.0000 0.0000 0.0000
# 3 24.7382 29.0455 84.4974 0.0000 0.0000 0.0000
# 4 0.0000 0.0000 0.0000 21.3352 0.0000 0.0000
# 5 0.0000 0.0000 0.0000 0.0000 11.9658 0.0000
# 6 0.0000 0.0000 0.0000 0.0000 0.0000 27.1819
#
#
#
# Elastic Compliance Matrix: (Units=1/GPa)
#
#
# Indices 1 2 3 4 5 6 
#
# 1 0.014086 -0.003169 -0.003035 0.000000 0.000000 0.000000
# 2 -0.003169 0.012515 -0.003374 0.000000 0.000000 0.000000
# 3 -0.003035 -0.003374 0.013883 0.000000 0.000000 0.000000
# 4 0.000000 0.000000 0.000000 0.046871 0.000000 0.000000
# 5 0.000000 0.000000 0.000000 0.000000 0.083571 0.000000
# 6 0.000000 0.000000 0.000000 0.000000 0.000000 0.036789
#
#
# Mechanical properties :
#
#
# Convention : Reuss Voigt Hill
#
# Bulk Modulus (GPa) = 46.88503 47.15864 47.02184
# Shear Modulus (GPa) = 21.36931 24.12238 22.74585
#
# Velocity S-wave (km/s) = 3.08697 3.27980 3.18485
# Velocity P-wave (km/s) = 5.79773 5.94749 5.87309
#
# Compressibility (1/GPa) = 0.02132877
#
# Stress axis : x y z
#
# Youngs Moduli (GPa) = 70.99264 79.90407 72.03018
#
# Poissons Ratio (x) = 0.25318 0.21859
# Poissons Ratio (y) = 0.22495 0.24305
# Poissons Ratio (z) = 0.21544 0.26962
#
# Static dielectric constant tensor:
#      x y z
#    x 1.950740 0.000000 0.000000 
#    y 0.000000 1.928710 0.000000 
#    z 0.000000 0.000000 1.807220 
# 
# From -- ./inp_files/19255.got.cif
#   From: 2010.05.17/outbox.cif.g08.bks.cpg/sg54_10_cif.got.tgz:19255.got - 2010.06.03 13:09:01.
