data_PCOD9421840
_publ_section_title
;
Structure prediction by ZEFSAII (Michael W. Deem and Ramdas Pophale) SiO2 
 PCOD9421840
Probable space group: P C C A
;
_chemical_formula_sum "Si O2"
_cell_formula_units_Z 60
_cell_length_a 22.904329
_cell_length_b 15.235690
_cell_length_c 9.095104
_cell_angle_alpha 90.000000
_cell_angle_beta 90.000000
_cell_angle_gamma 90.000000
_cell_volume 3173.857108
_symmetry_space_group_name_H-M "P C C A"
_symmetry_group_IT_number 54
_symmetry_cell_setting 'orthorhombic'
loop_
_space_group_symop_operation_xyz
x,y,z
1/2-x,-y,z
1/2+x,-y,1/2-z
-x,y,1/2-z
-x,-y,-z
1/2+x,y,-z
1/2-x,y,1/2+z
x,-y,1/2+z
loop_
_atom_site_type_symbol
_atom_site_label
_atom_site_fract_x
_atom_site_fract_y
_atom_site_fract_z
Si Si1 0.250000 0.500000 0.326793
Si Si2 0.613713 0.022078 0.237796
Si Si3 0.470414 0.164354 0.105361
Si Si4 0.683434 0.762541 0.372367
Si Si5 0.720867 0.912515 0.915939
Si Si6 0.588193 0.115897 0.953320
Si Si7 0.717667 0.374627 0.424811
Si Si8 0.641481 0.770689 0.048597
O O1 0.215690 0.565786 0.219574
O O2 0.286494 0.561280 0.436036
O O3 0.565773 0.084589 0.318438
O O4 0.677319 0.053739 0.289058
O O5 0.598741 0.924790 0.292785
O O6 0.608089 0.040226 0.066219
O O7 0.500000 0.209107 0.250000
O O8 0.522402 0.135396 0.997854
O O9 0.423793 0.215053 0.006487
O O10 0.729928 0.843333 0.364005
O O11 0.630945 0.800903 0.471594
O O12 0.720677 0.679090 0.426836
O O13 0.654907 0.742145 0.214585
O O14 0.750000 0.000000 0.978979
O O15 0.679537 0.858850 0.025391
O O16 0.669389 0.300491 0.438579
#
# Coordination Sequence:
#
# PCOD9421840 Si02
#       8
#     4   8   8   8   8   8   8   8
#     4  10  20  38  68  94 126 154 174 226 308 392
#     4  10  22  36  52  75 108 159 219 271 293 344
#     4   9  21  40  56  78 110 163 216 265 305 337
#     4  11  23  34  55  89 122 155 199 253 301 359
#     4  10  21  33  50  76 117 162 204 243 303 353
#     4  11  23  37  55  78 112 161 219 258 309 333
#     4  10  21  39  63  98 126 147 187 233 303 379
#     4  10  22  38  58  85 123 155 201 253 297 353
#
# _framework density 18.904442
#
# number of rings (size 3 to 8) (size 9 to 14) (size 15 to 20)
#    0.000    1.867    2.667    0.400    7.467    3.200 
#    0.000    0.000    0.000    0.000    0.000   10.267 
#    0.000    0.000    0.000    0.000    0.000    0.000 
#
# Total GULP energy -334953.129819 kJ/mol
# GULP energy per Si atom -5582.552164 kJ/mol
# Density = 1.886141 g / cm^3
# Si number density = 18.904442 Si / 1000 Ang^3
#
#
#
# Elastic Constant Matrix: (Units=GPa)
#
#
# Indices 1 2 3 4 5 6 
#
# 1 105.0851 28.2538 25.6052 0.0000 0.0000 0.0000
# 2 28.2538 78.7665 19.5478 0.0000 0.0000 0.0000
# 3 25.6052 19.5478 74.9261 0.0000 0.0000 0.0000
# 4 0.0000 0.0000 0.0000 27.4518 0.0000 0.0000
# 5 0.0000 0.0000 0.0000 0.0000 20.8581 0.0000
# 6 0.0000 0.0000 0.0000 0.0000 0.0000 4.9975
#
#
#
# Elastic Compliance Matrix: (Units=1/GPa)
#
#
# Indices 1 2 3 4 5 6 
#
# 1 0.011109 -0.003253 -0.002948 0.000000 0.000000 0.000000
# 2 -0.003253 0.014527 -0.002678 0.000000 0.000000 0.000000
# 3 -0.002948 -0.002678 0.015053 0.000000 0.000000 0.000000
# 4 0.000000 0.000000 0.000000 0.036427 0.000000 0.000000
# 5 0.000000 0.000000 0.000000 0.000000 0.047943 0.000000
# 6 0.000000 0.000000 0.000000 0.000000 0.000000 0.200101
#
#
# Mechanical properties :
#
#
# Convention : Reuss Voigt Hill
#
# Bulk Modulus (GPa) = 43.61010 45.06568 44.33789
# Shear Modulus (GPa) = 14.26278 23.01953 18.64115
#
# Velocity S-wave (km/s) = 2.74974 3.49331 3.14359
# Velocity P-wave (km/s) = 5.76196 6.33730 6.05647
#
# Compressibility (1/GPa) = 0.02293047
#
# Stress axis : x y z
#
# Youngs Moduli (GPa) = 90.01691 68.83534 66.43386
#
# Poissons Ratio (x) = 0.22394 0.19582
# Poissons Ratio (y) = 0.29285 0.17793
# Poissons Ratio (z) = 0.26533 0.18436
#
# Static dielectric constant tensor:
#      x y z
#    x 1.659480 0.000000 0.000000 
#    y 0.000000 1.658060 0.000000 
#    z 0.000000 0.000000 1.706800 
# 
# From -- ./inp_files/5268.got.cif
#   From: 2010.05.17/outbox.cif.g08.bks.cpg/sg54_3_cif.got.tgz:5268.got - 2010.06.03 13:09:01.
