data_PCOD9421445
_publ_section_title
;
Structure prediction by ZEFSAII (Michael W. Deem and Ramdas Pophale) SiO2 
 PCOD9421445
Probable space group: P C C A
;
_chemical_formula_sum "Si O2"
_cell_formula_units_Z 36
_cell_length_a 15.193485
_cell_length_b 7.983693
_cell_length_c 13.898469
_cell_angle_alpha 90.000000
_cell_angle_beta 90.000000
_cell_angle_gamma 90.000000
_cell_volume 1685.885955
_symmetry_space_group_name_H-M "P C C A"
_symmetry_group_IT_number 54
_symmetry_cell_setting 'orthorhombic'
loop_
_space_group_symop_operation_xyz
x,y,z
1/2-x,-y,z
1/2+x,-y,1/2-z
-x,y,1/2-z
-x,-y,-z
1/2+x,y,-z
1/2-x,y,1/2+z
x,-y,1/2+z
loop_
_atom_site_type_symbol
_atom_site_label
_atom_site_fract_x
_atom_site_fract_y
_atom_site_fract_z
Si Si1 0.100158 0.854102 0.787010
Si Si2 0.052066 0.279374 0.003051
Si Si3 0.619356 0.916569 0.988147
Si Si4 0.250000 0.000000 0.650434
Si Si5 0.954478 0.498997 0.159001
O O1 0.101663 0.652375 0.796617
O O2 0.000000 0.896196 0.750000
O O3 0.174657 0.926777 0.718901
O O4 0.120039 0.912946 0.896115
O O5 0.094553 0.380007 0.915201
O O6 0.959949 0.206553 0.961646
O O7 0.025744 0.401465 0.090533
O O8 0.099015 0.110744 0.035573
O O9 0.703209 0.872069 0.924397
O O10 0.000000 0.586191 0.250000
#
# Coordination Sequence:
#
# PCOD9421445 Si02
#       5
#     8   8   8   4   8
#     4  10  21  38  62  90 122 162 208 259 313 373
#     4   9  18  34  59  84 112 152 195 250 308 368
#     4  10  20  35  56  87 117 151 204 253 306 371
#     4  12  22  36  62  90 124 162 208 264 312 368
#     4   9  17  32  57  86 115 151 196 243 307 372
#
# _framework density 21.353757000000002
#
# number of rings (size 3 to 8) (size 9 to 14) (size 15 to 20)
#    0.000    2.222    0.000    6.000    0.000    2.667 
#    0.000    1.111    0.000   64.000    0.000    0.000 
#    0.000    0.000    0.000    0.000    0.000    0.000 
#
# Total GULP energy -200583.102698 kJ/mol
# GULP energy per Si atom -5571.752853 kJ/mol
# Density = 2.130516 g / cm^3
# Si number density = 21.353757 Si / 1000 Ang^3
#
#
#
# Elastic Constant Matrix: (Units=GPa)
#
#
# Indices 1 2 3 4 5 6 
#
# 1 107.2362 9.9240 48.3649 0.0000 0.0000 0.0000
# 2 9.9240 52.2075 32.4218 0.0000 0.0000 0.0000
# 3 48.3649 32.4218 131.0340 0.0000 0.0000 0.0000
# 4 0.0000 0.0000 0.0000 15.5728 0.0000 0.0000
# 5 0.0000 0.0000 0.0000 0.0000 30.6954 0.0000
# 6 0.0000 0.0000 0.0000 0.0000 0.0000 5.3579
#
#
#
# Elastic Compliance Matrix: (Units=1/GPa)
#
#
# Indices 1 2 3 4 5 6 
#
# 1 0.011199 0.000518 -0.004262 0.000000 0.000000 0.000000
# 2 0.000518 0.022656 -0.005797 0.000000 0.000000 0.000000
# 3 -0.004262 -0.005797 0.010639 0.000000 0.000000 0.000000
# 4 0.000000 0.000000 0.000000 0.064215 0.000000 0.000000
# 5 0.000000 0.000000 0.000000 0.000000 0.032578 0.000000
# 6 0.000000 0.000000 0.000000 0.000000 0.000000 0.186639
#
#
# Mechanical properties :
#
#
# Convention : Reuss Voigt Hill
#
# Bulk Modulus (GPa) = 39.35077 52.43323 45.89200
# Shear Modulus (GPa) = 14.06553 23.64301 18.85427
#
# Velocity S-wave (km/s) = 2.56928 3.33108 2.97467
# Velocity P-wave (km/s) = 5.22203 6.27715 5.77375
#
# Compressibility (1/GPa) = 0.02541247
#
# Stress axis : x y z
#
# Youngs Moduli (GPa) = 89.29015 44.13865 93.99388
#
# Poissons Ratio (x) = -0.02286 0.40059
# Poissons Ratio (y) = -0.04624 0.54487
# Poissons Ratio (z) = 0.38054 0.25587
#
# Static dielectric constant tensor:
#      x y z
#    x 1.911580 0.000000 0.000000 
#    y 0.000000 1.818940 0.000000 
#    z 0.000000 0.000000 1.833950 
# 
# From -- ./inp_files/13073.got.cif
#   From: 2010.05.17/outbox.cif.g08.bks.cpg/sg54_7_cif.got.tgz:13073.got - 2010.06.03 13:09:01.
