data_PCOD9421598
_publ_section_title
;
Structure prediction by ZEFSAII (Michael W. Deem and Ramdas Pophale) SiO2 
 PCOD9421598
Probable space group: P C C A
;
_chemical_formula_sum "Si O2"
_cell_formula_units_Z 36
_cell_length_a 5.030306
_cell_length_b 15.641929
_cell_length_c 22.888283
_cell_angle_alpha 90.000000
_cell_angle_beta 90.000000
_cell_angle_gamma 90.000000
_cell_volume 1800.934548
_symmetry_space_group_name_H-M "P C C A"
_symmetry_group_IT_number 54
_symmetry_cell_setting 'orthorhombic'
loop_
_space_group_symop_operation_xyz
x,y,z
1/2-x,-y,z
1/2+x,-y,1/2-z
-x,y,1/2-z
-x,-y,-z
1/2+x,y,-z
1/2-x,y,1/2+z
x,-y,1/2+z
loop_
_atom_site_type_symbol
_atom_site_label
_atom_site_fract_x
_atom_site_fract_y
_atom_site_fract_z
Si Si1 0.589885 0.818353 0.315956
Si Si2 0.250000 0.000000 0.137740
Si Si3 0.255745 0.601526 0.461816
Si Si4 0.583377 0.748637 0.617038
Si Si5 0.552114 0.901886 0.538885
O O1 0.500000 0.802208 0.250000
O O2 0.649908 0.919205 0.325227
O O3 0.346392 0.792286 0.357068
O O4 0.845461 0.763699 0.337058
O O5 0.467654 0.041648 0.094421
O O6 0.250000 0.500000 0.450334
O O7 0.550140 0.621263 0.485353
O O8 0.159942 0.655447 0.406177
O O9 0.510791 0.805223 0.560575
O O10 0.844075 0.914770 0.513519
#
# Coordination Sequence:
#
# PCOD9421598 Si02
#       5
#     8   4   8   8   8
#     4  11  25  42  60  81 111 154 208 258 295 336
#     4  10  24  38  56  80 110 154 200 246 296 340
#     4  10  20  36  62  97 130 157 187 228 287 364
#     4  11  22  39  60  86 117 157 195 237 296 349
#     4  11  21  34  52  79 115 149 185 228 284 356
#
# _framework density 19.989623000000002
#
# number of rings (size 3 to 8) (size 9 to 14) (size 15 to 20)
#    0.000    1.333    0.000    6.667    0.000   10.667 
#    0.000    0.000    0.000    2.667    0.000    0.000 
#    0.000    0.000    0.000    0.000    0.000    0.000 
#
# Total GULP energy -201314.498557 kJ/mol
# GULP energy per Si atom -5592.069404 kJ/mol
# Density = 1.994413 g / cm^3
# Si number density = 19.989623 Si / 1000 Ang^3
#
#
#
# Elastic Constant Matrix: (Units=GPa)
#
#
# Indices 1 2 3 4 5 6 
#
# 1 111.8324 33.6245 21.3806 0.0000 0.0000 0.0000
# 2 33.6245 106.3428 50.7982 0.0000 0.0000 0.0000
# 3 21.3806 50.7982 70.4178 0.0000 0.0000 0.0000
# 4 0.0000 0.0000 0.0000 16.6521 0.0000 0.0000
# 5 0.0000 0.0000 0.0000 0.0000 23.4457 0.0000
# 6 0.0000 0.0000 0.0000 0.0000 0.0000 26.3738
#
#
#
# Elastic Compliance Matrix: (Units=1/GPa)
#
#
# Indices 1 2 3 4 5 6 
#
# 1 0.009942 -0.002596 -0.001146 0.000000 0.000000 0.000000
# 2 -0.002596 0.015026 -0.010051 0.000000 0.000000 0.000000
# 3 -0.001146 -0.010051 0.021799 0.000000 0.000000 0.000000
# 4 0.000000 0.000000 0.000000 0.060053 0.000000 0.000000
# 5 0.000000 0.000000 0.000000 0.000000 0.042652 0.000000
# 6 0.000000 0.000000 0.000000 0.000000 0.000000 0.037916
#
#
# Mechanical properties :
#
#
# Convention : Reuss Voigt Hill
#
# Bulk Modulus (GPa) = 52.13496 55.57772 53.85634
# Shear Modulus (GPa) = 22.58697 25.48031 24.03364
#
# Velocity S-wave (km/s) = 3.36510 3.57413 3.47119
# Velocity P-wave (km/s) = 6.42154 6.70046 6.56248
#
# Compressibility (1/GPa) = 0.01918099
#
# Stress axis : x y z
#
# Youngs Moduli (GPa) = 100.58775 66.55300 45.87278
#
# Poissons Ratio (x) = 0.17278 0.05256
# Poissons Ratio (y) = 0.26114 0.46107
# Poissons Ratio (z) = 0.11524 0.66892
#
# Static dielectric constant tensor:
#      x y z
#    x 1.728030 0.000000 0.000000 
#    y 0.000000 1.748320 0.000000 
#    z 0.000000 0.000000 1.691240 
# 
# From -- ./inp_files/19594.got.cif
#   From: 2010.05.17/outbox.cif.g08.bks.cpg/sg54_10_cif.got.tgz:19594.got - 2010.06.03 13:09:01.
