data_PCOD9421955
_publ_section_title
;
Structure prediction by ZEFSAII (Michael W. Deem and Ramdas Pophale) SiO2 
 PCOD9421955
Probable space group: P C C A
;
_chemical_formula_sum "Si O2"
_cell_formula_units_Z 48
_cell_length_a 16.420876
_cell_length_b 7.627499
_cell_length_c 18.578956
_cell_angle_alpha 90.000000
_cell_angle_beta 90.000000
_cell_angle_gamma 90.000000
_cell_volume 2327.018238
_symmetry_space_group_name_H-M "P C C A"
_symmetry_group_IT_number 54
_symmetry_cell_setting 'orthorhombic'
loop_
_space_group_symop_operation_xyz
x,y,z
1/2-x,-y,z
1/2+x,-y,1/2-z
-x,y,1/2-z
-x,-y,-z
1/2+x,y,-z
1/2-x,y,1/2+z
x,-y,1/2+z
loop_
_atom_site_type_symbol
_atom_site_label
_atom_site_fract_x
_atom_site_fract_y
_atom_site_fract_z
Si Si1 0.107148 0.216253 0.627909
Si Si2 0.990975 0.516944 0.587128
Si Si3 0.248239 0.709772 0.720205
Si Si4 0.813248 0.655452 0.623723
Si Si5 0.240054 0.200270 0.517857
Si Si6 0.117938 0.185706 0.102015
O O1 0.029829 0.342362 0.622790
O O2 0.160677 0.222706 0.701260
O O3 0.173806 0.288570 0.569780
O O4 0.089182 0.016451 0.603772
O O5 0.045290 0.681078 0.612266
O O6 0.000000 0.500000 0.500000
O O7 0.901160 0.567334 0.614180
O O8 0.250000 0.500000 0.709289
O O9 0.211762 0.734546 0.799547
O O10 0.184998 0.793237 0.664510
O O11 0.750000 0.500000 0.609041
O O12 0.796284 0.792681 0.560734
O O13 0.332734 0.256956 0.531286
O O14 0.250000 0.000000 0.542421
#
# Coordination Sequence:
#
# PCOD9421955 Si02
#       6
#     8   8   8   8   8   8
#     4  10  21  41  68  98 121 174 223 257 329 393
#     4  12  23  40  70  97 132 170 212 279 332 381
#     4  10  20  40  67  90 126 176 213 264 320 396
#     4  11  24  40  61  96 132 169 216 269 328 389
#     4   9  19  37  60  93 129 165 213 265 316 386
#     4  10  22  40  69  93 128 169 223 265 317 401
#
# _framework density 20.627255999999999
#
# number of rings (size 3 to 8) (size 9 to 14) (size 15 to 20)
#    0.000    1.667    3.333    2.500    0.000    2.667 
#    3.000    0.000    7.333    0.000    0.000    0.000 
#    0.000    0.000    0.000    0.000    0.000    0.000 
#
# Total GULP energy -267606.258559 kJ/mol
# GULP energy per Si atom -5575.130387 kJ/mol
# Density = 2.058031 g / cm^3
# Si number density = 20.627256 Si / 1000 Ang^3
#
#
#
# Elastic Constant Matrix: (Units=GPa)
#
#
# Indices 1 2 3 4 5 6 
#
# 1 121.7362 40.8139 32.9830 0.0000 0.0000 0.0000
# 2 40.8139 81.1801 21.0204 0.0000 0.0000 0.0000
# 3 32.9830 21.0204 103.0867 0.0000 0.0000 0.0000
# 4 0.0000 0.0000 0.0000 21.0936 0.0000 0.0000
# 5 0.0000 0.0000 0.0000 0.0000 18.0606 0.0000
# 6 0.0000 0.0000 0.0000 0.0000 0.0000 1.5719
#
#
#
# Elastic Compliance Matrix: (Units=1/GPa)
#
#
# Indices 1 2 3 4 5 6 
#
# 1 0.010409 -0.004614 -0.002389 0.000000 0.000000 0.000000
# 2 -0.004614 0.015051 -0.001593 0.000000 0.000000 0.000000
# 3 -0.002389 -0.001593 0.010790 0.000000 0.000000 0.000000
# 4 0.000000 0.000000 0.000000 0.047408 0.000000 0.000000
# 5 0.000000 0.000000 0.000000 0.000000 0.055369 0.000000
# 6 0.000000 0.000000 0.000000 0.000000 0.000000 0.636190
#
#
# Mechanical properties :
#
#
# Convention : Reuss Voigt Hill
#
# Bulk Modulus (GPa) = 52.47567 55.07086 53.77326
# Shear Modulus (GPa) = 6.25969 22.22424 14.24197
#
# Velocity S-wave (km/s) = 1.74392 3.28597 2.63048
# Velocity P-wave (km/s) = 5.43601 6.41505 5.94572
#
# Compressibility (1/GPa) = 0.01905645
#
# Stress axis : x y z
#
# Youngs Moduli (GPa) = 96.07114 66.44240 92.67986
#
# Poissons Ratio (x) = 0.30660 0.22145
# Poissons Ratio (y) = 0.44332 0.14760
# Poissons Ratio (z) = 0.22956 0.10581
#
# Static dielectric constant tensor:
#      x y z
#    x 1.785400 0.000000 0.000000 
#    y 0.000000 1.798960 0.000000 
#    z 0.000000 0.000000 1.857250 
# 
# From -- ./inp_files/18048.got.cif
#   From: 2010.05.17/outbox.cif.g08.bks.cpg/sg54_10_cif.got.tgz:18048.got - 2010.06.03 13:09:01.
