data_PCOD9421163
_publ_section_title
;
Structure prediction by ZEFSAII (Michael W. Deem and Ramdas Pophale) SiO2 
 PCOD9421163
Probable space group: P C C A
;
_chemical_formula_sum "Si O2"
_cell_formula_units_Z 52
_cell_length_a 19.808835
_cell_length_b 5.540346
_cell_length_c 19.148220
_cell_angle_alpha 90.000000
_cell_angle_beta 90.000000
_cell_angle_gamma 90.000000
_cell_volume 2101.475014
_symmetry_space_group_name_H-M "P C C A"
_symmetry_group_IT_number 54
_symmetry_cell_setting 'orthorhombic'
loop_
_space_group_symop_operation_xyz
x,y,z
1/2-x,-y,z
1/2+x,-y,1/2-z
-x,y,1/2-z
-x,-y,-z
1/2+x,y,-z
1/2-x,y,1/2+z
x,-y,1/2+z
loop_
_atom_site_type_symbol
_atom_site_label
_atom_site_fract_x
_atom_site_fract_y
_atom_site_fract_z
Si Si1 0.750000 0.500000 0.065110
Si Si2 0.325588 0.550397 0.689534
Si Si3 0.934335 0.735357 0.520117
Si Si4 0.110233 0.951835 0.737625
Si Si5 0.846289 0.658438 0.958114
Si Si6 0.042422 0.955141 0.605984
Si Si7 0.673384 0.105352 0.617192
O O1 0.807079 0.388598 0.113588
O O2 0.783479 0.687985 0.010353
O O3 0.250000 0.500000 0.713132
O O4 0.369210 0.327056 0.720156
O O5 0.328155 0.524170 0.605303
O O6 0.345654 0.819781 0.710540
O O7 0.902038 0.479137 0.504353
O O8 0.873023 0.908697 0.547635
O O9 0.989121 0.755404 0.581234
O O10 0.967855 0.826548 0.447935
O O11 0.044350 0.992583 0.688391
O O12 0.124588 0.968172 0.820079
O O13 0.882330 0.870236 0.916197
O O14 0.750000 0.000000 0.623953
#
# Coordination Sequence:
#
# PCOD9421163 Si02
#       7
#     4   8   8   8   8   8   8
#     4  10  22  38  58  94 130 170 214 272 338 406
#     4  11  21  39  62  95 126 172 211 272 321 388
#     4  10  21  40  63  90 126 165 222 269 341 384
#     4  11  25  40  66  91 134 170 226 261 333 391
#     4  10  19  36  61  92 127 163 219 270 337 388
#     4  10  21  39  64  92 122 168 221 278 321 399
#     4  11  24  40  61  89 130 172 212 271 335 405
#
# _framework density 24.744523000000001
#
# number of rings (size 3 to 8) (size 9 to 14) (size 15 to 20)
#    0.000    1.538    2.308    2.769    3.231    0.615 
#    0.000    0.000    0.000    1.846    0.000    0.000 
#    0.000    0.000    0.000    0.000    0.000    0.000 
#
# Total GULP energy -289634.016044 kJ/mol
# GULP energy per Si atom -5569.884924 kJ/mol
# Density = 2.468820 g / cm^3
# Si number density = 24.744523 Si / 1000 Ang^3
#
#
#
# Elastic Constant Matrix: (Units=GPa)
#
#
# Indices 1 2 3 4 5 6 
#
# 1 44.3030 13.0140 32.9341 0.0000 0.0000 0.0000
# 2 13.0140 65.3773 26.4325 0.0000 0.0000 0.0000
# 3 32.9341 26.4325 142.7624 0.0000 0.0000 0.0000
# 4 0.0000 0.0000 0.0000 23.3518 0.0000 0.0000
# 5 0.0000 0.0000 0.0000 0.0000 28.9137 0.0000
# 6 0.0000 0.0000 0.0000 0.0000 0.0000 38.4678
#
#
#
# Elastic Compliance Matrix: (Units=1/GPa)
#
#
# Indices 1 2 3 4 5 6 
#
# 1 0.027844 -0.003184 -0.005834 0.000000 0.000000 0.000000
# 2 -0.003184 0.016898 -0.002394 0.000000 0.000000 0.000000
# 3 -0.005834 -0.002394 0.008794 0.000000 0.000000 0.000000
# 4 0.000000 0.000000 0.000000 0.042823 0.000000 0.000000
# 5 0.000000 0.000000 0.000000 0.000000 0.034586 0.000000
# 6 0.000000 0.000000 0.000000 0.000000 0.000000 0.025996
#
#
# Mechanical properties :
#
#
# Convention : Reuss Voigt Hill
#
# Bulk Modulus (GPa) = 32.56114 44.13376 38.34745
# Shear Modulus (GPa) = 26.31568 30.15079 28.23324
#
# Velocity S-wave (km/s) = 3.26467 3.49447 3.38152
# Velocity P-wave (km/s) = 5.23433 5.84433 5.54772
#
# Compressibility (1/GPa) = 0.03071145
#
# Stress axis : x y z
#
# Youngs Moduli (GPa) = 35.91456 59.18011 113.71745
#
# Poissons Ratio (x) = 0.18843 0.66341
# Poissons Ratio (y) = 0.11435 0.27225
# Poissons Ratio (z) = 0.20952 0.14168
#
# Static dielectric constant tensor:
#      x y z
#    x 2.046200 0.000000 0.000000 
#    y 0.000000 2.056180 0.000000 
#    z 0.000000 0.000000 1.981530 
# 
# From -- ./inp_files/22156.got.cif
#   From: 2010.05.17/outbox.cif.g08.bks.cpg/sg54_12_cif.got.tgz:22156.got - 2010.06.03 13:09:01.
