data_PCOD9421614
_publ_section_title
;
Structure prediction by ZEFSAII (Michael W. Deem and Ramdas Pophale) SiO2 
 PCOD9421614
Probable space group: P C C A
;
_chemical_formula_sum "Si O2"
_cell_formula_units_Z 64
_cell_length_a 14.210791
_cell_length_b 9.205111
_cell_length_c 22.718145
_cell_angle_alpha 90.000000
_cell_angle_beta 90.000000
_cell_angle_gamma 90.000000
_cell_volume 2971.803906
_symmetry_space_group_name_H-M "P C C A"
_symmetry_group_IT_number 54
_symmetry_cell_setting 'orthorhombic'
loop_
_space_group_symop_operation_xyz
x,y,z
1/2-x,-y,z
1/2+x,-y,1/2-z
-x,y,1/2-z
-x,-y,-z
1/2+x,y,-z
1/2-x,y,1/2+z
x,-y,1/2+z
loop_
_atom_site_type_symbol
_atom_site_label
_atom_site_fract_x
_atom_site_fract_y
_atom_site_fract_z
Si Si1 0.348630 0.082507 0.210694
Si Si2 0.246875 0.326656 0.154872
Si Si3 0.978169 0.973214 0.896604
Si Si4 0.654671 0.905343 0.655723
Si Si5 0.048458 0.352432 0.119605
Si Si6 0.638649 0.498529 0.496342
Si Si7 0.887576 0.222834 0.938646
Si Si8 0.435415 0.623034 0.882243
O O1 0.315167 0.250101 0.201763
O O2 0.379050 0.062037 0.277649
O O3 0.250000 0.000000 0.200507
O O4 0.421536 0.023011 0.162824
O O5 0.250000 0.500000 0.152349
O O6 0.135487 0.306091 0.161631
O O7 0.289030 0.252771 0.095116
O O8 0.988707 0.802368 0.900167
O O9 0.915843 0.055987 0.945862
O O10 0.082479 0.034695 0.892086
O O11 0.640983 0.729726 0.648072
O O12 0.750000 0.000000 0.649614
O O13 0.094999 0.429022 0.062112
O O14 0.974299 0.470357 0.144695
O O15 0.750000 0.500000 0.493637
O O16 0.609672 0.329203 0.493845
O O17 0.604496 0.577187 0.554399
O O18 0.969006 0.286109 0.894999
#
# Coordination Sequence:
#
# PCOD9421614 Si02
#       8
#     8   8   8   8   8   8   8   8
#     4  10  20  36  64  91 120 154 199 253 321 377
#     4  11  17  32  60  91 123 147 189 255 319 363
#     4  10  21  35  63  93 121 157 198 256 321 371
#     4  10  23  45  61  79 121 172 215 253 298 381
#     4  11  19  36  60  94 127 145 205 264 308 365
#     4  11  20  37  58  87 123 167 202 247 309 377
#     4   9  17  34  56  84 120 153 193 241 306 368
#     4  10  22  38  60  82 118 171 204 246 308 372
#
# _framework density 21.535741999999999
#
# number of rings (size 3 to 8) (size 9 to 14) (size 15 to 20)
#    0.000    1.750    5.000    1.875    0.000    1.000 
#    0.000   10.000    0.000    0.000    0.000    0.000 
#    0.000    0.000    0.000    0.000    0.000    0.000 
#
# Total GULP energy -356361.929218 kJ/mol
# GULP energy per Si atom -5568.155144 kJ/mol
# Density = 2.148673 g / cm^3
# Si number density = 21.535742 Si / 1000 Ang^3
#
#
#
# Elastic Constant Matrix: (Units=GPa)
#
#
# Indices 1 2 3 4 5 6 
#
# 1 75.0030 51.1148 20.0049 0.0000 0.0000 0.0000
# 2 51.1148 143.9077 4.7953 0.0000 0.0000 0.0000
# 3 20.0049 4.7953 33.2534 0.0000 0.0000 0.0000
# 4 0.0000 0.0000 0.0000 21.6190 0.0000 0.0000
# 5 0.0000 0.0000 0.0000 0.0000 19.5727 0.0000
# 6 0.0000 0.0000 0.0000 0.0000 0.0000 38.9277
#
#
#
# Elastic Compliance Matrix: (Units=1/GPa)
#
#
# Indices 1 2 3 4 5 6 
#
# 1 0.021401 -0.007207 -0.011836 0.000000 0.000000 0.000000
# 2 -0.007207 0.009410 0.002979 0.000000 0.000000 0.000000
# 3 -0.011836 0.002979 0.036763 0.000000 0.000000 0.000000
# 4 0.000000 0.000000 0.000000 0.046256 0.000000 0.000000
# 5 0.000000 0.000000 0.000000 0.000000 0.051092 0.000000
# 6 0.000000 0.000000 0.000000 0.000000 0.000000 0.025689
#
#
# Mechanical properties :
#
#
# Convention : Reuss Voigt Hill
#
# Bulk Modulus (GPa) = 28.21198 44.88824 36.55011
# Shear Modulus (GPa) = 21.31718 27.77381 24.54550
#
# Velocity S-wave (km/s) = 3.14960 3.59508 3.37969
# Velocity P-wave (km/s) = 5.13373 6.17427 5.67789
#
# Compressibility (1/GPa) = 0.03544593
#
# Stress axis : x y z
#
# Youngs Moduli (GPa) = 46.72604 106.27475 27.20144
#
# Poissons Ratio (x) = 0.76594 0.32194
# Poissons Ratio (y) = 0.33676 -0.08103
# Poissons Ratio (z) = 0.55303 -0.31658
#
# Static dielectric constant tensor:
#      x y z
#    x 1.811320 0.000000 0.000000 
#    y 0.000000 1.910880 0.000000 
#    z 0.000000 0.000000 1.790920 
# 
# From -- ./inp_files/24513.got.cif
#   From: 2010.05.17/outbox.cif.g08.bks.cpg/sg54_13_cif.got.tgz:24513.got - 2010.06.03 13:09:01.
