data_PCOD9421968
_publ_section_title
;
Structure prediction by ZEFSAII (Michael W. Deem and Ramdas Pophale) SiO2 
 PCOD9421968
Probable space group: P C C A
;
_chemical_formula_sum "Si O2"
_cell_formula_units_Z 40
_cell_length_a 14.302993
_cell_length_b 5.551119
_cell_length_c 22.108240
_cell_angle_alpha 90.000000
_cell_angle_beta 90.000000
_cell_angle_gamma 90.000000
_cell_volume 1755.341554
_symmetry_space_group_name_H-M "P C C A"
_symmetry_group_IT_number 54
_symmetry_cell_setting 'orthorhombic'
loop_
_space_group_symop_operation_xyz
x,y,z
1/2-x,-y,z
1/2+x,-y,1/2-z
-x,y,1/2-z
-x,-y,-z
1/2+x,y,-z
1/2-x,y,1/2+z
x,-y,1/2+z
loop_
_atom_site_type_symbol
_atom_site_label
_atom_site_fract_x
_atom_site_fract_y
_atom_site_fract_z
Si Si1 0.002126 0.248594 0.462910
Si Si2 0.840799 0.167355 0.262810
Si Si3 0.649369 0.448511 0.882081
Si Si4 0.353324 0.903443 0.366601
Si Si5 0.514597 0.218188 0.313623
O O1 0.910237 0.261094 0.420804
O O2 0.000000 0.500000 0.500000
O O3 0.093318 0.230625 0.420172
O O4 0.000000 0.000000 0.500000
O O5 0.827825 0.353839 0.315491
O O6 0.852143 0.258139 0.194433
O O7 0.750000 0.000000 0.259881
O O8 0.925051 0.003844 0.287511
O O9 0.750000 0.500000 0.911462
O O10 0.577215 0.661152 0.865658
O O11 0.250000 0.000000 0.381407
O O12 0.419523 0.124676 0.344111
O O13 0.500000 0.365288 0.250000
#
# Coordination Sequence:
#
# PCOD9421968 Si02
#       5
#     8   8   8   8   8
#     4  12  29  51  74 104 143 204 268 307 355 428
#     4  10  20  40  69 110 147 177 233 291 389 459
#     4  12  25  42  73 109 142 187 241 312 377 445
#     4  10  23  46  73 104 148 192 238 308 375 448
#     4  10  21  38  66 105 149 184 223 291 366 458
#
# _framework density 22.787588
#
# number of rings (size 3 to 8) (size 9 to 14) (size 15 to 20)
#    0.000    1.200    4.000    1.200    2.800    1.600 
#    0.000    3.000    0.000    0.000    0.000    0.000 
#    0.000    0.000    0.000    0.000    0.000    0.000 
#
# Total GULP energy -223423.555834 kJ/mol
# GULP energy per Si atom -5585.588896 kJ/mol
# Density = 2.273572 g / cm^3
# Si number density = 22.787588 Si / 1000 Ang^3
#
#
#
# Elastic Constant Matrix: (Units=GPa)
#
#
# Indices 1 2 3 4 5 6 
#
# 1 196.1799 53.0917 65.6239 0.0000 0.0000 0.0000
# 2 53.0917 88.0276 65.3416 0.0000 0.0000 0.0000
# 3 65.6239 65.3416 134.5424 0.0000 0.0000 0.0000
# 4 0.0000 0.0000 0.0000 13.6528 0.0000 0.0000
# 5 0.0000 0.0000 0.0000 0.0000 13.1202 0.0000
# 6 0.0000 0.0000 0.0000 0.0000 0.0000 30.3468
#
#
#
# Elastic Compliance Matrix: (Units=1/GPa)
#
#
# Indices 1 2 3 4 5 6 
#
# 1 0.006403 -0.002414 -0.001951 0.000000 0.000000 0.000000
# 2 -0.002414 0.018674 -0.007892 0.000000 0.000000 0.000000
# 3 -0.001951 -0.007892 0.012217 0.000000 0.000000 0.000000
# 4 0.000000 0.000000 0.000000 0.073245 0.000000 0.000000
# 5 0.000000 0.000000 0.000000 0.000000 0.076218 0.000000
# 6 0.000000 0.000000 0.000000 0.000000 0.000000 0.032952
#
#
# Mechanical properties :
#
#
# Convention : Reuss Voigt Hill
#
# Bulk Modulus (GPa) = 78.24141 87.42940 82.83540
# Shear Modulus (GPa) = 20.12210 27.07014 23.59612
#
# Velocity S-wave (km/s) = 2.97480 3.45038 3.22138
# Velocity P-wave (km/s) = 6.79771 7.37048 7.08988
#
# Compressibility (1/GPa) = 0.01278096
#
# Stress axis : x y z
#
# Youngs Moduli (GPa) = 156.17188 53.55087 81.85402
#
# Poissons Ratio (x) = 0.12926 0.15969
# Poissons Ratio (y) = 0.37697 0.64597
# Poissons Ratio (z) = 0.30468 0.42261
#
# Static dielectric constant tensor:
#      x y z
#    x 3.963420 0.000000 0.000000 
#    y 0.000000 1.911470 0.000000 
#    z 0.000000 0.000000 1.920990 
# 
# From -- ./inp_files/24322.got.cif
#   From: 2010.05.17/outbox.cif.g08.bks.cpg/sg54_13_cif.got.tgz:24322.got - 2010.06.03 13:09:01.
