data_PCOD9421382
_publ_section_title
;
Structure prediction by ZEFSAII (Michael W. Deem and Ramdas Pophale) SiO2 
 PCOD9421382
Probable space group: P C C A
;
_chemical_formula_sum "Si O2"
_cell_formula_units_Z 36
_cell_length_a 9.356120
_cell_length_b 14.358037
_cell_length_c 12.158812
_cell_angle_alpha 90.000000
_cell_angle_beta 90.000000
_cell_angle_gamma 90.000000
_cell_volume 1633.360298
_symmetry_space_group_name_H-M "P C C A"
_symmetry_group_IT_number 54
_symmetry_cell_setting 'orthorhombic'
loop_
_space_group_symop_operation_xyz
x,y,z
1/2-x,-y,z
1/2+x,-y,1/2-z
-x,y,1/2-z
-x,-y,-z
1/2+x,y,-z
1/2-x,y,1/2+z
x,-y,1/2+z
loop_
_atom_site_type_symbol
_atom_site_label
_atom_site_fract_x
_atom_site_fract_y
_atom_site_fract_z
Si Si1 0.278905 0.387291 0.611419
Si Si2 0.999244 0.885443 0.117265
Si Si3 0.371256 0.569152 0.815597
Si Si4 0.750000 0.000000 0.499597
Si Si5 0.976402 0.687408 0.499105
O O1 0.250000 0.500000 0.604275
O O2 0.202788 0.362752 0.727253
O O3 0.436939 0.343917 0.606455
O O4 0.189375 0.337357 0.514027
O O5 0.857540 0.940438 0.076712
O O6 0.999681 0.789727 0.047678
O O7 0.000000 0.872243 0.250000
O O8 0.142005 0.940078 0.076957
O O9 0.250000 0.500000 0.852392
O O10 0.500000 0.519299 0.750000
O O11 0.449911 0.616702 0.914058
#
# Coordination Sequence:
#
# PCOD9421382 Si02
#       5
#     8   8   8   4   8
#     4  10  20  34  52  78 113 151 187 225 270 322
#     4  11  22  41  65  89 118 150 191 241 295 354
#     4   9  19  34  51  74 109 150 188 224 269 320
#     4  10  24  42  64  90 116 150 188 238 304 362
#     4  11  21  35  56  81 109 145 187 230 275 328
#
# _framework density 22.040451000000001
#
# number of rings (size 3 to 8) (size 9 to 14) (size 15 to 20)
#    0.000    1.778    0.000    5.333    0.000    3.556 
#    0.000    0.000    0.000    5.333    0.000    0.000 
#    0.000    0.000    0.000    0.000    0.000    0.000 
#
# Total GULP energy -200837.607508 kJ/mol
# GULP energy per Si atom -5578.822431 kJ/mol
# Density = 2.199029 g / cm^3
# Si number density = 22.040451 Si / 1000 Ang^3
#
#
#
# Elastic Constant Matrix: (Units=GPa)
#
#
# Indices 1 2 3 4 5 6 
#
# 1 99.1557 33.4833 11.8092 0.0000 0.0000 0.0000
# 2 33.4833 93.0832 -3.2741 0.0000 0.0000 0.0000
# 3 11.8092 -3.2741 65.2049 0.0000 0.0000 0.0000
# 4 0.0000 0.0000 0.0000 18.1801 0.0000 0.0000
# 5 0.0000 0.0000 0.0000 0.0000 39.5024 0.0000
# 6 0.0000 0.0000 0.0000 0.0000 0.0000 30.9972
#
#
#
# Elastic Compliance Matrix: (Units=1/GPa)
#
#
# Indices 1 2 3 4 5 6 
#
# 1 0.011832 -0.004339 -0.002361 0.000000 0.000000 0.000000
# 2 -0.004339 0.012353 0.001406 0.000000 0.000000 0.000000
# 3 -0.002361 0.001406 0.015834 0.000000 0.000000 0.000000
# 4 0.000000 0.000000 0.000000 0.055005 0.000000 0.000000
# 5 0.000000 0.000000 0.000000 0.000000 0.025315 0.000000
# 6 0.000000 0.000000 0.000000 0.000000 0.000000 0.032261
#
#
# Mechanical properties :
#
#
# Convention : Reuss Voigt Hill
#
# Bulk Modulus (GPa) = 33.97640 37.94228 35.95934
# Shear Modulus (GPa) = 28.90206 32.09764 30.49985
#
# Velocity S-wave (km/s) = 3.62514 3.82030 3.72400
# Velocity P-wave (km/s) = 5.74205 6.05902 5.90267
#
# Compressibility (1/GPa) = 0.02943220
#
# Stress axis : x y z
#
# Youngs Moduli (GPa) = 84.52004 80.94978 63.15353
#
# Poissons Ratio (x) = 0.35124 0.14908
# Poissons Ratio (y) = 0.36673 -0.08880
# Poissons Ratio (z) = 0.19952 -0.11383
#
# Static dielectric constant tensor:
#      x y z
#    x 2.037440 0.000000 0.000000 
#    y 0.000000 1.808500 0.000000 
#    z 0.000000 0.000000 1.912140 
# 
# From -- ./inp_files/11425.got.cif
#   From: 2010.05.17/outbox.cif.g08.bks.cpg/sg54_6_cif.got.tgz:11425.got - 2010.06.03 13:09:01.
