data_PCOD9421676
_publ_section_title
;
Structure prediction by ZEFSAII (Michael W. Deem and Ramdas Pophale) SiO2 
 PCOD9421676
Probable space group: P C C A
;
_chemical_formula_sum "Si O2"
_cell_formula_units_Z 56
_cell_length_a 5.585601
_cell_length_b 13.988422
_cell_length_c 31.251492
_cell_angle_alpha 90.000000
_cell_angle_beta 90.000000
_cell_angle_gamma 90.000000
_cell_volume 2441.796073
_symmetry_space_group_name_H-M "P C C A"
_symmetry_group_IT_number 54
_symmetry_cell_setting 'orthorhombic'
loop_
_space_group_symop_operation_xyz
x,y,z
1/2-x,-y,z
1/2+x,-y,1/2-z
-x,y,1/2-z
-x,-y,-z
1/2+x,y,-z
1/2-x,y,1/2+z
x,-y,1/2+z
loop_
_atom_site_type_symbol
_atom_site_label
_atom_site_fract_x
_atom_site_fract_y
_atom_site_fract_z
Si Si1 0.930912 0.258448 0.341319
Si Si2 0.860565 0.393783 0.793853
Si Si3 0.293259 0.394941 0.526180
Si Si4 0.020761 0.891032 0.517104
Si Si5 0.710443 0.395809 0.123043
Si Si6 0.300077 0.107838 0.893551
Si Si7 0.907598 0.241033 0.915783
O O1 0.822867 0.303811 0.298370
O O2 0.708479 0.225907 0.369441
O O3 0.040042 0.354580 0.361255
O O4 0.125055 0.176438 0.353831
O O5 0.750000 0.500000 0.792147
O O6 0.000000 0.379939 0.750000
O O7 0.036501 0.395805 0.835366
O O8 0.250000 0.500000 0.547665
O O9 0.556536 0.391212 0.504522
O O10 0.278915 0.301746 0.556241
O O11 0.774621 0.848167 0.497886
O O12 0.000553 0.891028 0.568671
O O13 0.000000 0.000000 0.500000
O O14 0.750000 0.500000 0.105405
O O15 0.609847 0.323047 0.088691
O O16 0.067276 0.146169 0.919490
O O17 0.250000 0.000000 0.879858
#
# Coordination Sequence:
#
# PCOD9421676 Si02
#       7
#     8   8   8   8   8   8   8
#     4  10  24  41  60  98 139 175 229 275 336 433
#     4  11  22  37  65 106 148 184 210 263 348 431
#     4  10  24  42  61  88 127 182 240 292 352 426
#     4  10  21  38  62  96 126 178 240 313 381 437
#     4  10  20  37  61  93 133 175 215 264 333 407
#     4  11  24  43  65  93 137 188 241 305 375 417
#     4  10  25  38  61  94 125 176 233 284 347 416
#
# _framework density 22.933937
#
# number of rings (size 3 to 8) (size 9 to 14) (size 15 to 20)
#    0.000    1.714    2.857    0.429    8.000    2.286 
#    0.000    0.000    0.000    0.000    0.000    0.000 
#  154.286    0.000    0.000    0.000    0.000    0.000 
#
# Total GULP energy -312322.953400 kJ/mol
# GULP energy per Si atom -5577.195596 kJ/mol
# Density = 2.288174 g / cm^3
# Si number density = 22.933937 Si / 1000 Ang^3
#
#
#
# Elastic Constant Matrix: (Units=GPa)
#
#
# Indices 1 2 3 4 5 6 
#
# 1 112.0128 16.9116 22.7534 0.0000 0.0000 0.0000
# 2 16.9116 140.4869 32.9600 0.0000 0.0000 0.0000
# 3 22.7534 32.9600 52.5905 0.0000 0.0000 0.0000
# 4 0.0000 0.0000 0.0000 16.1092 0.0000 0.0000
# 5 0.0000 0.0000 0.0000 0.0000 52.1335 0.0000
# 6 0.0000 0.0000 0.0000 0.0000 0.0000 34.5849
#
#
#
# Elastic Compliance Matrix: (Units=1/GPa)
#
#
# Indices 1 2 3 4 5 6 
#
# 1 0.009793 -0.000217 -0.004101 0.000000 0.000000 0.000000
# 2 -0.000217 0.008350 -0.005139 0.000000 0.000000 0.000000
# 3 -0.004101 -0.005139 0.024010 0.000000 0.000000 0.000000
# 4 0.000000 0.000000 0.000000 0.062076 0.000000 0.000000
# 5 0.000000 0.000000 0.000000 0.000000 0.019182 0.000000
# 6 0.000000 0.000000 0.000000 0.000000 0.000000 0.028914
#
#
# Mechanical properties :
#
#
# Convention : Reuss Voigt Hill
#
# Bulk Modulus (GPa) = 43.03151 50.03782 46.53466
# Shear Modulus (GPa) = 27.93497 36.06319 31.99908
#
# Velocity S-wave (km/s) = 3.49386 3.96975 3.73939
# Velocity P-wave (km/s) = 5.92284 6.54809 6.24330
#
# Compressibility (1/GPa) = 0.02323879
#
# Stress axis : x y z
#
# Youngs Moduli (GPa) = 102.10977 119.76106 41.64876
#
# Poissons Ratio (x) = 0.02595 0.17082
# Poissons Ratio (y) = 0.02213 0.21405
# Poissons Ratio (z) = 0.41879 0.61550
#
# Static dielectric constant tensor:
#      x y z
#    x 2.057910 0.000000 0.000000 
#    y 0.000000 1.900690 0.000000 
#    z 0.000000 0.000000 2.051140 
# 
# From -- ./inp_files/27209.got.cif
#   From: 2010.05.17/outbox.cif.g08.bks.cpg/sg54_14_cif.got.tgz:27209.got - 2010.06.03 13:09:01.
