data_PCOD9421691
_publ_section_title
;
Structure prediction by ZEFSAII (Michael W. Deem and Ramdas Pophale) SiO2 
 PCOD9421691
Probable space group: P C C A
;
_chemical_formula_sum "Si O2"
_cell_formula_units_Z 40
_cell_length_a 10.051431
_cell_length_b 11.067582
_cell_length_c 16.004576
_cell_angle_alpha 90.000000
_cell_angle_beta 90.000000
_cell_angle_gamma 90.000000
_cell_volume 1780.429646
_symmetry_space_group_name_H-M "P C C A"
_symmetry_group_IT_number 54
_symmetry_cell_setting 'orthorhombic'
loop_
_space_group_symop_operation_xyz
x,y,z
1/2-x,-y,z
1/2+x,-y,1/2-z
-x,y,1/2-z
-x,-y,-z
1/2+x,y,-z
1/2-x,y,1/2+z
x,-y,1/2+z
loop_
_atom_site_type_symbol
_atom_site_label
_atom_site_fract_x
_atom_site_fract_y
_atom_site_fract_z
Si Si1 0.920824 0.630691 0.406367
Si Si2 0.500000 0.078149 0.750000
Si Si3 0.750000 0.500000 0.531536
Si Si4 0.173805 0.749491 0.388368
Si Si5 0.794155 0.725936 0.788967
Si Si6 0.250000 0.000000 0.861588
Si Si7 0.500000 0.522019 0.250000
O O1 0.873175 0.530982 0.471442
O O2 0.788917 0.692102 0.369752
O O3 0.026287 0.734957 0.425835
O O4 0.994423 0.560180 0.331315
O O5 0.597049 0.169157 0.801533
O O6 0.388552 0.010214 0.806593
O O7 0.760268 0.375351 0.581688
O O8 0.194498 0.756057 0.287497
O O9 0.239693 0.876146 0.413661
O O10 0.873749 0.608384 0.758303
#
# Coordination Sequence:
#
# PCOD9421691 Si02
#       7
#     8   4   4   8   8   4   4
#     4  12  22  38  67 100 135 182 236 282 350 418
#     4   9  22  37  70 100 134 170 238 294 346 398
#     4  12  26  42  64 104 142 184 232 278 356 428
#     4  11  24  42  66  97 141 182 222 292 349 413
#     4  10  20  37  62  99 135 173 227 290 345 401
#     4  10  24  46  70 100 140 188 232 290 352 410
#     4  11  18  33  62  96 136 168 220 290 342 400
#
# _framework density 22.466487000000001
#
# number of rings (size 3 to 8) (size 9 to 14) (size 15 to 20)
#    0.000    1.200    4.000    1.800    5.600    0.000 
#    3.600    1.000    0.000    0.000    0.000    0.000 
#    0.000    0.000    0.000    0.000    0.000    0.000 
#
# Total GULP energy -223089.615142 kJ/mol
# GULP energy per Si atom -5577.240379 kJ/mol
# Density = 2.241535 g / cm^3
# Si number density = 22.466487 Si / 1000 Ang^3
#
#
#
# Elastic Constant Matrix: (Units=GPa)
#
#
# Indices 1 2 3 4 5 6 
#
# 1 118.7700 46.7312 8.8411 0.0000 0.0000 0.0000
# 2 46.7312 162.5544 27.5980 0.0000 0.0000 0.0000
# 3 8.8411 27.5980 33.0150 0.0000 0.0000 0.0000
# 4 0.0000 0.0000 0.0000 -2.1925 0.0000 0.0000
# 5 0.0000 0.0000 0.0000 0.0000 6.4371 0.0000
# 6 0.0000 0.0000 0.0000 0.0000 0.0000 39.4219
#
#
#
# Elastic Compliance Matrix: (Units=1/GPa)
#
#
# Indices 1 2 3 4 5 6 
#
# 1 0.009496 -0.002678 -0.000304 0.000000 0.000000 0.000000
# 2 -0.002678 0.007925 -0.005907 0.000000 0.000000 0.000000
# 3 -0.000304 -0.005907 0.035309 0.000000 0.000000 0.000000
# 4 0.000000 0.000000 0.000000 -0.456096 0.000000 0.000000
# 5 0.000000 0.000000 0.000000 0.000000 0.155349 0.000000
# 6 0.000000 0.000000 0.000000 0.000000 0.000000 0.025367
#
#
# Mechanical properties :
#
#
# Convention : Reuss Voigt Hill
#
# Bulk Modulus (GPa) = 28.61211 53.40888 41.01050
# Shear Modulus (GPa) = -25.87694 24.14459 -0.86618
#
# Velocity S-wave (km/s) = -3.39750 3.28181 -0.62159
# Velocity P-wave (km/s) = 1.62098 6.17937 4.21646
#
# Compressibility (1/GPa) = 0.03495023
#
# Stress axis : x y z
#
# Youngs Moduli (GPa) = 105.30665 126.18860 28.32166
#
# Poissons Ratio (x) = 0.33797 0.00861
# Poissons Ratio (y) = 0.28204 0.16730
# Poissons Ratio (z) = 0.03202 0.74542
#
# Static dielectric constant tensor:
#      x y z
#    x 1.616830 0.000000 0.000000 
#    y 0.000000 1.890310 0.000000 
#    z 0.000000 0.000000 1.861560 
# 
# From -- ./inp_files/12551.got.cif
#   From: 2010.05.17/outbox.cif.g08.bks.cpg/sg54_7_cif.got.tgz:12551.got - 2010.06.03 13:09:01.
