data_PCOD9421590
_publ_section_title
;
Structure prediction by ZEFSAII (Michael W. Deem and Ramdas Pophale) SiO2 
 PCOD9421590
Probable space group: P C C A
;
_chemical_formula_sum "Si O2"
_cell_formula_units_Z 60
_cell_length_a 7.580412
_cell_length_b 11.426374
_cell_length_c 29.345242
_cell_angle_alpha 90.000000
_cell_angle_beta 90.000000
_cell_angle_gamma 90.000000
_cell_volume 2541.785751
_symmetry_space_group_name_H-M "P C C A"
_symmetry_group_IT_number 54
_symmetry_cell_setting 'orthorhombic'
loop_
_space_group_symop_operation_xyz
x,y,z
1/2-x,-y,z
1/2+x,-y,1/2-z
-x,y,1/2-z
-x,-y,-z
1/2+x,y,-z
1/2-x,y,1/2+z
x,-y,1/2+z
loop_
_atom_site_type_symbol
_atom_site_label
_atom_site_fract_x
_atom_site_fract_y
_atom_site_fract_z
Si Si1 0.688671 0.367347 0.138309
Si Si2 0.782441 0.168623 0.697517
Si Si3 0.282329 0.686398 0.551185
Si Si4 0.207933 0.129826 0.700023
Si Si5 0.061844 0.944695 0.048742
Si Si6 0.354372 0.380511 0.459271
Si Si7 0.750000 0.000000 0.618346
Si Si8 0.231792 0.635461 0.148630
O O1 0.750000 0.500000 0.138920
O O2 0.757130 0.300904 0.182746
O O3 0.722493 0.321065 0.086781
O O4 0.478530 0.355737 0.142160
O O5 0.725250 0.132838 0.747655
O O6 0.703885 0.100555 0.654612
O O7 0.994546 0.144344 0.697840
O O8 0.392709 0.807122 0.550729
O O9 0.167179 0.688296 0.506139
O O10 0.439505 0.592112 0.546937
O O11 0.186802 0.657926 0.598411
O O12 0.281717 0.249375 0.677527
O O13 0.250000 0.000000 0.681048
O O14 0.250000 0.000000 0.060435
O O15 0.913378 0.970779 0.085983
O O16 0.000000 0.000000 0.000000
O O17 0.250000 0.500000 0.463629
O O18 0.250000 0.500000 0.164421
#
# Coordination Sequence:
#
# PCOD9421590 Si02
#       8
#     8   8   8   8   8   8   4   8
#     4   9  20  39  60  90 132 172 220 274 345 411
#     4  10  22  41  70  99 135 180 224 300 350 428
#     4  11  23  40  60  93 133 177 229 283 348 411
#     4  10  21  44  71  99 136 177 232 290 370 424
#     4  12  26  44  66 103 149 195 239 292 346 421
#     4  10  20  36  62  88 127 174 222 273 334 411
#     4  12  24  44  72 100 140 190 240 284 370 420
#     4  10  22  41  64  94 132 175 223 289 351 423
#
# _framework density 23.605452
#
# number of rings (size 3 to 8) (size 9 to 14) (size 15 to 20)
#    0.000    1.600    1.333    4.000    1.867    4.800 
#    4.800    0.000    0.000    0.000    0.000    0.000 
#    0.000    0.000    0.000    0.000    0.000    0.000 
#
# Total GULP energy -335040.426602 kJ/mol
# GULP energy per Si atom -5584.007110 kJ/mol
# Density = 2.355172 g / cm^3
# Si number density = 23.605452 Si / 1000 Ang^3
#
#
#
# Elastic Constant Matrix: (Units=GPa)
#
#
# Indices 1 2 3 4 5 6 
#
# 1 44.8937 8.1485 21.8201 0.0000 0.0000 0.0000
# 2 8.1485 139.7795 74.2602 0.0000 0.0000 0.0000
# 3 21.8201 74.2602 139.1893 0.0000 0.0000 0.0000
# 4 0.0000 0.0000 0.0000 31.3742 0.0000 0.0000
# 5 0.0000 0.0000 0.0000 0.0000 3.3104 0.0000
# 6 0.0000 0.0000 0.0000 0.0000 0.0000 32.6140
#
#
#
# Elastic Compliance Matrix: (Units=1/GPa)
#
#
# Indices 1 2 3 4 5 6 
#
# 1 0.024183 0.000843 -0.004241 0.000000 0.000000 0.000000
# 2 0.000843 0.010013 -0.005475 0.000000 0.000000 0.000000
# 3 -0.004241 -0.005475 0.010770 0.000000 0.000000 0.000000
# 4 0.000000 0.000000 0.000000 0.031873 0.000000 0.000000
# 5 0.000000 0.000000 0.000000 0.000000 0.302075 0.000000
# 6 0.000000 0.000000 0.000000 0.000000 0.000000 0.030662
#
#
# Mechanical properties :
#
#
# Convention : Reuss Voigt Hill
#
# Bulk Modulus (GPa) = 36.73483 59.14666 47.94075
# Shear Modulus (GPa) = 11.45751 28.10198 19.77974
#
# Velocity S-wave (km/s) = 2.20551 3.45409 2.89784
# Velocity P-wave (km/s) = 4.69910 6.40456 5.61693
#
# Compressibility (1/GPa) = 0.02722212
#
# Stress axis : x y z
#
# Youngs Moduli (GPa) = 41.35124 99.86610 92.84981
#
# Poissons Ratio (x) = -0.08422 0.39378
# Poissons Ratio (y) = -0.03487 0.50831
# Poissons Ratio (z) = 0.17537 0.54672
#
# Static dielectric constant tensor:
#      x y z
#    x 1.916360 0.000000 0.000000 
#    y 0.000000 0.875130 0.000000 
#    z 0.000000 0.000000 1.934320 
# 
# From -- ./inp_files/25935.got.cif
#   From: 2010.05.17/outbox.cif.g08.bks.cpg/sg54_13_cif.got.tgz:25935.got - 2010.06.03 13:09:01.
