data_PCOD9421407
_publ_section_title
;
Structure prediction by ZEFSAII (Michael W. Deem and Ramdas Pophale) SiO2 
 PCOD9421407
Probable space group: P C C A
;
_chemical_formula_sum "Si O2"
_cell_formula_units_Z 28
_cell_length_a 8.309219
_cell_length_b 10.853046
_cell_length_c 12.998168
_cell_angle_alpha 90.000000
_cell_angle_beta 90.000000
_cell_angle_gamma 90.000000
_cell_volume 1172.179158
_symmetry_space_group_name_H-M "P C C A"
_symmetry_group_IT_number 54
_symmetry_cell_setting 'orthorhombic'
loop_
_space_group_symop_operation_xyz
x,y,z
1/2-x,-y,z
1/2+x,-y,1/2-z
-x,y,1/2-z
-x,-y,-z
1/2+x,y,-z
1/2-x,y,1/2+z
x,-y,1/2+z
loop_
_atom_site_type_symbol
_atom_site_label
_atom_site_fract_x
_atom_site_fract_y
_atom_site_fract_z
Si Si1 0.152516 0.688298 0.323119
Si Si2 0.490531 0.141009 0.030122
Si Si3 0.194775 0.729641 0.621846
Si Si4 0.250000 0.500000 0.983112
O O1 0.128918 0.810406 0.391769
O O2 0.298595 0.699467 0.242503
O O3 0.140952 0.571673 0.399422
O O4 0.000000 0.679953 0.250000
O O5 0.324201 0.165774 0.090060
O O6 0.527547 0.227411 0.930123
O O7 0.500000 0.000000 0.000000
O O8 0.269235 0.612592 0.561570
#
# Coordination Sequence:
#
# PCOD9421407 Si02
#       4
#     8   8   8   4
#     4   9  20  36  56  85 117 154 194 236 290 348
#     4  10  21  40  60  83 115 153 196 240 289 343
#     4  10  21  38  61  86 117 154 192 241 290 344
#     4  10  20  34  58  88 118 150 192 240 290 344
#
# _framework density 23.887132000000001
#
# number of rings (size 3 to 8) (size 9 to 14) (size 15 to 20)
#    0.000    2.286    0.000    1.714    0.000   12.571 
#    0.000   35.714    0.000    0.000    0.000    0.000 
#    0.000    0.000    0.000    0.000    0.000    0.000 
#
# Total GULP energy -155996.604896 kJ/mol
# GULP energy per Si atom -5571.307318 kJ/mol
# Density = 2.383276 g / cm^3
# Si number density = 23.887132 Si / 1000 Ang^3
#
#
#
# Elastic Constant Matrix: (Units=GPa)
#
#
# Indices 1 2 3 4 5 6 
#
# 1 42.8704 0.1525 14.5413 0.0000 0.0000 0.0000
# 2 0.1525 155.4354 38.9262 0.0000 0.0000 0.0000
# 3 14.5413 38.9262 156.5834 0.0000 0.0000 0.0000
# 4 0.0000 0.0000 0.0000 31.6034 0.0000 0.0000
# 5 0.0000 0.0000 0.0000 0.0000 47.3338 0.0000
# 6 0.0000 0.0000 0.0000 0.0000 0.0000 18.9613
#
#
#
# Elastic Compliance Matrix: (Units=1/GPa)
#
#
# Indices 1 2 3 4 5 6 
#
# 1 0.024133 0.000573 -0.002384 0.000000 0.000000 0.000000
# 2 0.000573 0.006874 -0.001762 0.000000 0.000000 0.000000
# 3 -0.002384 -0.001762 0.007046 0.000000 0.000000 0.000000
# 4 0.000000 0.000000 0.000000 0.031642 0.000000 0.000000
# 5 0.000000 0.000000 0.000000 0.000000 0.021127 0.000000
# 6 0.000000 0.000000 0.000000 0.000000 0.000000 0.052739
#
#
# Mechanical properties :
#
#
# Convention : Reuss Voigt Hill
#
# Bulk Modulus (GPa) = 32.35446 51.34767 41.85106
# Shear Modulus (GPa) = 31.05435 39.66430 35.35933
#
# Velocity S-wave (km/s) = 3.60953 4.07933 3.85160
# Velocity P-wave (km/s) = 5.56289 6.61291 6.11049
#
# Compressibility (1/GPa) = 0.03090764
#
# Stress axis : x y z
#
# Youngs Moduli (GPa) = 41.43774 145.46972 141.92856
#
# Poissons Ratio (x) = -0.08339 0.33830
# Poissons Ratio (y) = -0.02375 0.25010
# Poissons Ratio (z) = 0.09877 0.25634
#
# Static dielectric constant tensor:
#      x y z
#    x 2.080270 0.000000 0.000000 
#    y 0.000000 1.865520 0.000000 
#    z 0.000000 0.000000 1.948840 
# 
# From -- ./inp_files/11169.got.cif
#   From: 2010.05.17/outbox.cif.g08.bks.cpg/sg54_6_cif.got.tgz:11169.got - 2010.06.03 13:09:01.
