data_PCOD9421242
_publ_section_title
;
Structure prediction by ZEFSAII (Michael W. Deem and Ramdas Pophale) SiO2 
 PCOD9421242
Probable space group: P C C A
;
_chemical_formula_sum "Si O2"
_cell_formula_units_Z 44
_cell_length_a 14.711792
_cell_length_b 17.218638
_cell_length_c 9.018402
_cell_angle_alpha 90.000000
_cell_angle_beta 90.000000
_cell_angle_gamma 90.000000
_cell_volume 2284.514727
_symmetry_space_group_name_H-M "P C C A"
_symmetry_group_IT_number 54
_symmetry_cell_setting 'orthorhombic'
loop_
_space_group_symop_operation_xyz
x,y,z
1/2-x,-y,z
1/2+x,-y,1/2-z
-x,y,1/2-z
-x,-y,-z
1/2+x,y,-z
1/2-x,y,1/2+z
x,-y,1/2+z
loop_
_atom_site_type_symbol
_atom_site_label
_atom_site_fract_x
_atom_site_fract_y
_atom_site_fract_z
Si Si1 0.500000 0.658210 0.250000
Si Si2 0.658645 0.399842 0.907799
Si Si3 0.000000 0.011489 0.750000
Si Si4 0.283345 0.221313 0.609334
Si Si5 0.750000 0.500000 0.654755
Si Si6 0.559987 0.892012 0.475064
Si Si7 0.381451 0.210649 0.910061
O O1 0.446474 0.607837 0.131211
O O2 0.567692 0.712816 0.154372
O O3 0.694551 0.311811 0.922405
O O4 0.702779 0.438718 0.762927
O O5 0.682992 0.452468 0.047464
O O6 0.949488 0.064271 0.630148
O O7 0.067014 0.956758 0.654017
O O8 0.357501 0.168192 0.525153
O O9 0.307521 0.198533 0.778739
O O10 0.179950 0.211599 0.556883
O O11 0.464883 0.848390 0.435325
#
# Coordination Sequence:
#
# PCOD9421242 Si02
#       7
#     4   8   4   8   4   8   8
#     4  10  19  38  64  85 130 166 208 266 321 364
#     4  10  20  39  61  89 126 170 202 265 313 380
#     4  10  23  40  70  87 138 172 204 270 335 382
#     4  11  22  39  67  93 123 171 225 260 315 386
#     4  10  22  38  62  92 132 160 210 258 330 374
#     4  11  21  45  64  93 129 174 211 264 331 381
#     4  11  21  40  64  95 125 164 220 270 313 378
#
# _framework density 19.260110000000001
#
# number of rings (size 3 to 8) (size 9 to 14) (size 15 to 20)
#    0.000    1.455    5.455    2.182    2.545    0.727 
#    0.000    5.455    0.000    0.000    0.000    0.000 
#    0.000    0.000    0.000    0.000    0.000    0.000 
#
# Total GULP energy -245282.652782 kJ/mol
# GULP energy per Si atom -5574.605745 kJ/mol
# Density = 1.921627 g / cm^3
# Si number density = 19.260110 Si / 1000 Ang^3
#
#
#
# Elastic Constant Matrix: (Units=GPa)
#
#
# Indices 1 2 3 4 5 6 
#
# 1 89.2453 34.8153 38.0450 0.0000 0.0000 0.0000
# 2 34.8153 114.9344 51.2463 0.0000 0.0000 0.0000
# 3 38.0450 51.2463 95.7698 0.0000 0.0000 0.0000
# 4 0.0000 0.0000 0.0000 8.3193 0.0000 0.0000
# 5 0.0000 0.0000 0.0000 0.0000 20.5829 0.0000
# 6 0.0000 0.0000 0.0000 0.0000 0.0000 -15.0139
#
#
#
# Elastic Compliance Matrix: (Units=1/GPa)
#
#
# Indices 1 2 3 4 5 6 
#
# 1 0.013939 -0.002303 -0.004305 0.000000 0.000000 0.000000
# 2 -0.002303 0.011807 -0.005403 0.000000 0.000000 0.000000
# 3 -0.004305 -0.005403 0.015043 0.000000 0.000000 0.000000
# 4 0.000000 0.000000 0.000000 0.120202 0.000000 0.000000
# 5 0.000000 0.000000 0.000000 0.000000 0.048584 0.000000
# 6 0.000000 0.000000 0.000000 0.000000 0.000000 -0.066605
#
#
# Mechanical properties :
#
#
# Convention : Reuss Voigt Hill
#
# Bulk Modulus (GPa) = 59.64077 60.90698 60.27388
# Shear Modulus (GPa) = 28.97184 14.50054 21.73619
#
# Velocity S-wave (km/s) = 3.88266 2.74684 3.36305
# Velocity P-wave (km/s) = 7.15075 6.46160 6.81489
#
# Compressibility (1/GPa) = 0.01676705
#
# Stress axis : x y z
#
# Youngs Moduli (GPa) = 71.74338 84.69305 66.47525
#
# Poissons Ratio (x) = 0.19502 0.28617
# Poissons Ratio (y) = 0.16520 0.35919
# Poissons Ratio (z) = 0.30885 0.45763
#
# Static dielectric constant tensor:
#      x y z
#    x 1.732710 0.000000 0.000000 
#    y 0.000000 1.695130 0.000000 
#    z 0.000000 0.000000 1.689840 
# 
# From -- ./inp_files/3544.got.cif
#   From: 2010.05.17/outbox.cif.g08.bks.cpg/sg54_2_cif.got.tgz:3544.got - 2010.06.03 13:09:01.
