data_PCOD9421662
_publ_section_title
;
Structure prediction by ZEFSAII (Michael W. Deem and Ramdas Pophale) SiO2 
 PCOD9421662
Probable space group: P C C A
;
_chemical_formula_sum "Si O2"
_cell_formula_units_Z 48
_cell_length_a 16.041489
_cell_length_b 8.615229
_cell_length_c 18.877900
_cell_angle_alpha 90.000000
_cell_angle_beta 90.000000
_cell_angle_gamma 90.000000
_cell_volume 2608.946569
_symmetry_space_group_name_H-M "P C C A"
_symmetry_group_IT_number 54
_symmetry_cell_setting 'orthorhombic'
loop_
_space_group_symop_operation_xyz
x,y,z
1/2-x,-y,z
1/2+x,-y,1/2-z
-x,y,1/2-z
-x,-y,-z
1/2+x,y,-z
1/2-x,y,1/2+z
x,-y,1/2+z
loop_
_atom_site_type_symbol
_atom_site_label
_atom_site_fract_x
_atom_site_fract_y
_atom_site_fract_z
Si Si1 0.841346 0.057325 0.837223
Si Si2 0.844272 0.049302 0.672603
Si Si3 0.007965 0.438326 0.078956
Si Si4 0.917201 0.382654 0.701724
Si Si5 0.498487 0.931201 0.420776
Si Si6 0.838159 0.431528 0.838830
O O1 0.852479 0.002393 0.755575
O O2 0.841177 0.244619 0.840386
O O3 0.750000 0.000000 0.861389
O O4 0.919228 0.994992 0.881325
O O5 0.866149 0.232861 0.675794
O O6 0.750000 0.000000 0.651307
O O7 0.915453 0.979652 0.622274
O O8 0.001173 0.254146 0.078308
O O9 0.095927 0.494955 0.108783
O O10 0.944591 0.516986 0.134769
O O11 0.000000 0.500000 0.000000
O O12 0.862723 0.476280 0.758414
O O13 0.000000 0.337571 0.750000
O O14 0.500000 0.000000 0.500000
O O15 0.750000 0.500000 0.856766
#
# Coordination Sequence:
#
# PCOD9421662 Si02
#       6
#     8   8   8   8   8   8
#     4  10  21  38  63  90 118 151 191 239 288 342
#     4  10  21  38  61  88 117 151 192 240 288 342
#     4  11  23  39  58  82 115 156 195 235 291 347
#     4   9  19  37  60  84 117 153 188 236 289 343
#     4  12  24  39  60  84 117 156 197 242 290 346
#     4  10  20  37  60  88 118 149 188 236 287 342
#
# _framework density 18.398230999999999
#
# number of rings (size 3 to 8) (size 9 to 14) (size 15 to 20)
#    0.000    1.667    0.000    6.500    0.000    8.667 
#    0.000    5.833    0.000    0.000    0.000    0.000 
#    0.000    0.000    0.000    0.000    0.000    0.000 
#
# Total GULP energy -267923.973592 kJ/mol
# GULP energy per Si atom -5581.749450 kJ/mol
# Density = 1.835636 g / cm^3
# Si number density = 18.398231 Si / 1000 Ang^3
#
#
#
# Elastic Constant Matrix: (Units=GPa)
#
#
# Indices 1 2 3 4 5 6 
#
# 1 146.8038 71.8453 92.7776 0.0000 0.0000 0.0000
# 2 71.8453 118.4084 80.6533 0.0000 0.0000 0.0000
# 3 92.7776 80.6533 148.8371 0.0000 0.0000 0.0000
# 4 0.0000 0.0000 0.0000 19.6354 0.0000 0.0000
# 5 0.0000 0.0000 0.0000 0.0000 10.0818 0.0000
# 6 0.0000 0.0000 0.0000 0.0000 0.0000 34.9265
#
#
#
# Elastic Compliance Matrix: (Units=1/GPa)
#
#
# Indices 1 2 3 4 5 6 
#
# 1 0.012086 -0.003490 -0.005643 0.000000 0.000000 0.000000
# 2 -0.003490 0.014394 -0.005625 0.000000 0.000000 0.000000
# 3 -0.005643 -0.005625 0.013284 0.000000 0.000000 0.000000
# 4 0.000000 0.000000 0.000000 0.050929 0.000000 0.000000
# 5 0.000000 0.000000 0.000000 0.000000 0.099189 0.000000
# 6 0.000000 0.000000 0.000000 0.000000 0.000000 0.028632
#
#
# Mechanical properties :
#
#
# Convention : Reuss Voigt Hill
#
# Bulk Modulus (GPa) = 97.56280 100.51131 99.03705
# Shear Modulus (GPa) = 19.88522 24.18026 22.03274
#
# Velocity S-wave (km/s) = 3.29115 3.62922 3.46431
# Velocity P-wave (km/s) = 8.22105 8.50360 8.36352
#
# Compressibility (1/GPa) = 0.01024981
#
# Stress axis : x y z
#
# Youngs Moduli (GPa) = 82.74258 69.47374 75.27855
#
# Poissons Ratio (x) = 0.24244 0.42477
# Poissons Ratio (y) = 0.28874 0.42341
# Poissons Ratio (z) = 0.46688 0.39076
#
# Static dielectric constant tensor:
#      x y z
#    x 1.697700 0.000000 0.000000 
#    y 0.000000 1.627390 0.000000 
#    z 0.000000 0.000000 1.631560 
# 
# From -- ./inp_files/18016.got.cif
#   From: 2010.05.17/outbox.cif.g08.bks.cpg/sg54_10_cif.got.tgz:18016.got - 2010.06.03 13:09:01.
