data_PCOD9421037
_publ_section_title
;
Structure prediction by ZEFSAII (Michael W. Deem and Ramdas Pophale) SiO2 
 PCOD9421037
Probable space group: P C C A
;
_chemical_formula_sum "Si O2"
_cell_formula_units_Z 48
_cell_length_a 13.004838
_cell_length_b 19.188866
_cell_length_c 9.358792
_cell_angle_alpha 90.000000
_cell_angle_beta 90.000000
_cell_angle_gamma 90.000000
_cell_volume 2335.468703
_symmetry_space_group_name_H-M "P C C A"
_symmetry_group_IT_number 54
_symmetry_cell_setting 'orthorhombic'
loop_
_space_group_symop_operation_xyz
x,y,z
1/2-x,-y,z
1/2+x,-y,1/2-z
-x,y,1/2-z
-x,-y,-z
1/2+x,y,-z
1/2-x,y,1/2+z
x,-y,1/2+z
loop_
_atom_site_type_symbol
_atom_site_label
_atom_site_fract_x
_atom_site_fract_y
_atom_site_fract_z
Si Si1 0.685787 0.262650 0.186404
Si Si2 0.000000 0.176190 0.750000
Si Si3 0.214792 0.176264 0.093131
Si Si4 0.143749 0.035712 0.239128
Si Si5 0.874386 0.422162 0.727723
Si Si6 0.582670 0.087654 0.470161
Si Si7 0.750000 0.500000 0.479460
O O1 0.593535 0.226879 0.271875
O O2 0.779978 0.228288 0.270592
O O3 0.667653 0.344196 0.197379
O O4 0.679288 0.228003 0.031471
O O5 0.009106 0.127835 0.889704
O O6 0.160358 0.106667 0.151025
O O7 0.320014 0.140204 0.032853
O O8 0.074732 0.056907 0.373369
O O9 0.250000 0.000000 0.299926
O O10 0.108408 0.975247 0.134910
O O11 0.832675 0.464839 0.588823
O O12 0.815816 0.451037 0.870098
O O13 0.000000 0.423854 0.750000
#
# Coordination Sequence:
#
# PCOD9421037 Si02
#       7
#     8   4   8   8   8   8   4
#     4  11  21  40  62  88 120 165 204 256 327 383
#     4  10  24  38  54  82 126 156 200 260 334 376
#     4  10  20  35  60  82 113 155 215 262 309 393
#     4  10  19  34  57  82 106 154 212 269 322 372
#     4  11  22  43  70 104 143 181 223 276 330 403
#     4  10  21  35  54  78 112 154 207 263 324 386
#     4  10  24  42  72 108 138 180 228 266 334 404
#
# _framework density 20.552622
#
# number of rings (size 3 to 8) (size 9 to 14) (size 15 to 20)
#    0.000    1.667    2.500    3.000    4.667    0.667 
#    0.000    0.000    0.000    4.000    0.000    0.000 
#    0.000    0.000    0.000    0.000    0.000    0.000 
#
# Total GULP energy -267380.202915 kJ/mol
# GULP energy per Si atom -5570.420894 kJ/mol
# Density = 2.050584 g / cm^3
# Si number density = 20.552622 Si / 1000 Ang^3
#
#
#
# Elastic Constant Matrix: (Units=GPa)
#
#
# Indices 1 2 3 4 5 6 
#
# 1 50.5972 43.5516 11.5782 0.0000 0.0000 0.0000
# 2 43.5516 163.6077 68.9621 0.0000 0.0000 0.0000
# 3 11.5782 68.9621 123.9862 0.0000 0.0000 0.0000
# 4 0.0000 0.0000 0.0000 28.9265 0.0000 0.0000
# 5 0.0000 0.0000 0.0000 0.0000 27.5409 0.0000
# 6 0.0000 0.0000 0.0000 0.0000 0.0000 22.1678
#
#
#
# Elastic Compliance Matrix: (Units=1/GPa)
#
#
# Indices 1 2 3 4 5 6 
#
# 1 0.025961 -0.007692 0.001854 0.000000 0.000000 0.000000
# 2 -0.007692 0.010263 -0.004990 0.000000 0.000000 0.000000
# 3 0.001854 -0.004990 0.010668 0.000000 0.000000 0.000000
# 4 0.000000 0.000000 0.000000 0.034570 0.000000 0.000000
# 5 0.000000 0.000000 0.000000 0.000000 0.036310 0.000000
# 6 0.000000 0.000000 0.000000 0.000000 0.000000 0.045110
#
#
# Mechanical properties :
#
#
# Convention : Reuss Voigt Hill
#
# Bulk Modulus (GPa) = 39.62691 65.15278 52.38984
# Shear Modulus (GPa) = 25.91342 30.00032 27.95687
#
# Velocity S-wave (km/s) = 3.55467 3.82473 3.69217
# Velocity P-wave (km/s) = 6.01416 7.16059 6.61227
#
# Compressibility (1/GPa) = 0.02523538
#
# Stress axis : x y z
#
# Youngs Moduli (GPa) = 38.51980 97.43560 93.73982
#
# Poissons Ratio (x) = 0.74949 -0.17381
# Poissons Ratio (y) = 0.29630 0.46778
# Poissons Ratio (z) = -0.07142 0.48622
#
# Static dielectric constant tensor:
#      x y z
#    x 1.927920 0.000000 0.000000 
#    y 0.000000 1.694740 0.000000 
#    z 0.000000 0.000000 1.845340 
# 
# From -- ./inp_files/3625.got.cif
#   From: 2010.05.17/outbox.cif.g08.bks.cpg/sg54_2_cif.got.tgz:3625.got - 2010.06.03 13:09:01.
