data_PCOD9421591
_publ_section_title
;
Structure prediction by ZEFSAII (Michael W. Deem and Ramdas Pophale) SiO2 
 PCOD9421591
Probable space group: P C C A
;
_chemical_formula_sum "Si O2"
_cell_formula_units_Z 36
_cell_length_a 9.900249
_cell_length_b 19.773479
_cell_length_c 9.243759
_cell_angle_alpha 90.000000
_cell_angle_beta 90.000000
_cell_angle_gamma 90.000000
_cell_volume 1809.580130
_symmetry_space_group_name_H-M "P C C A"
_symmetry_group_IT_number 54
_symmetry_cell_setting 'orthorhombic'
loop_
_space_group_symop_operation_xyz
x,y,z
1/2-x,-y,z
1/2+x,-y,1/2-z
-x,y,1/2-z
-x,-y,-z
1/2+x,y,-z
1/2-x,y,1/2+z
x,-y,1/2+z
loop_
_atom_site_type_symbol
_atom_site_label
_atom_site_fract_x
_atom_site_fract_y
_atom_site_fract_z
Si Si1 0.872411 0.308743 0.855873
Si Si2 0.643942 0.757189 0.168060
Si Si3 0.750000 0.000000 0.464774
Si Si4 0.899651 0.534046 0.385504
Si Si5 0.848124 0.092845 0.209720
O O1 0.743117 0.291524 0.757462
O O2 0.873133 0.386344 0.908716
O O3 0.000000 0.297532 0.750000
O O4 0.873359 0.263965 0.001145
O O5 0.500000 0.754583 0.250000
O O6 0.707840 0.833143 0.172269
O O7 0.711424 0.941136 0.353089
O O8 0.845744 0.960988 0.578605
O O9 0.750000 0.500000 0.373391
O O10 0.000000 0.529959 0.250000
O O11 0.000000 0.500000 0.500000
O O12 0.000000 0.105842 0.250000
#
# Coordination Sequence:
#
# PCOD9421591 Si02
#       5
#     8   8   4   8   8
#     4  11  26  43  67  98 128 176 219 274 341 399
#     4  11  24  42  67  93 136 174 223 276 331 405
#     4  10  20  36  62  88 128 162 214 268 320 394
#     4  11  27  44  70 101 135 178 228 286 348 419
#     4  10  21  38  59  92 122 170 212 266 327 383
#
# _framework density 19.894117999999999
#
# number of rings (size 3 to 8) (size 9 to 14) (size 15 to 20)
#    0.000    1.333    0.000    4.000   12.444    1.778 
#    0.000    5.556    0.000    0.000    0.000    0.000 
#    0.000    0.000    0.000    0.000    0.000    0.000 
#
# Total GULP energy -200579.028424 kJ/mol
# GULP energy per Si atom -5571.639678 kJ/mol
# Density = 1.984884 g / cm^3
# Si number density = 19.894118 Si / 1000 Ang^3
#
#
#
# Elastic Constant Matrix: (Units=GPa)
#
#
# Indices 1 2 3 4 5 6 
#
# 1 97.4039 40.6750 17.3673 0.0000 0.0000 0.0000
# 2 40.6750 133.6544 50.7603 0.0000 0.0000 0.0000
# 3 17.3673 50.7603 110.3350 0.0000 0.0000 0.0000
# 4 0.0000 0.0000 0.0000 20.1021 0.0000 0.0000
# 5 0.0000 0.0000 0.0000 0.0000 23.9621 0.0000
# 6 0.0000 0.0000 0.0000 0.0000 0.0000 29.3128
#
#
#
# Elastic Compliance Matrix: (Units=1/GPa)
#
#
# Indices 1 2 3 4 5 6 
#
# 1 0.011767 -0.003487 -0.000248 0.000000 0.000000 0.000000
# 2 -0.003487 0.010099 -0.004097 0.000000 0.000000 0.000000
# 3 -0.000248 -0.004097 0.010987 0.000000 0.000000 0.000000
# 4 0.000000 0.000000 0.000000 0.049746 0.000000 0.000000
# 5 0.000000 0.000000 0.000000 0.000000 0.041733 0.000000
# 6 0.000000 0.000000 0.000000 0.000000 0.000000 0.034115
#
#
# Mechanical properties :
#
#
# Convention : Reuss Voigt Hill
#
# Bulk Modulus (GPa) = 58.17670 62.11097 60.14383
# Shear Modulus (GPa) = 27.80234 30.18144 28.99189
#
# Velocity S-wave (km/s) = 3.74239 3.89923 3.82161
# Velocity P-wave (km/s) = 6.92681 7.18056 7.05483
#
# Compressibility (1/GPa) = 0.01718901
#
# Stress axis : x y z
#
# Youngs Moduli (GPa) = 84.98477 99.01719 91.01353
#
# Poissons Ratio (x) = 0.34525 0.02257
# Poissons Ratio (y) = 0.29632 0.37292
# Poissons Ratio (z) = 0.02108 0.40571
#
# Static dielectric constant tensor:
#      x y z
#    x 1.686150 0.000000 0.000000 
#    y 0.000000 1.787130 0.000000 
#    z 0.000000 0.000000 1.610850 
# 
# From -- ./inp_files/2474.got.cif
#   From: 2010.05.17/outbox.cif.g08.bks.cpg/sg54_2_cif.got.tgz:2474.got - 2010.06.03 13:09:01.
