data_PCOD9421607
_publ_section_title
;
Structure prediction by ZEFSAII (Michael W. Deem and Ramdas Pophale) SiO2 
 PCOD9421607
Probable space group: P C C A
;
_chemical_formula_sum "Si O2"
_cell_formula_units_Z 36
_cell_length_a 13.673633
_cell_length_b 15.221090
_cell_length_c 8.993072
_cell_angle_alpha 90.000000
_cell_angle_beta 90.000000
_cell_angle_gamma 90.000000
_cell_volume 1871.706479
_symmetry_space_group_name_H-M "P C C A"
_symmetry_group_IT_number 54
_symmetry_cell_setting 'orthorhombic'
loop_
_space_group_symop_operation_xyz
x,y,z
1/2-x,-y,z
1/2+x,-y,1/2-z
-x,y,1/2-z
-x,-y,-z
1/2+x,y,-z
1/2-x,y,1/2+z
x,-y,1/2+z
loop_
_atom_site_type_symbol
_atom_site_label
_atom_site_fract_x
_atom_site_fract_y
_atom_site_fract_z
Si Si1 0.444397 0.877783 0.986572
Si Si2 0.029199 0.590259 0.422368
Si Si3 0.000000 0.016862 0.250000
Si Si4 0.616017 0.255714 0.475346
Si Si5 0.312534 0.722933 0.863445
O O1 0.552476 0.833180 0.981691
O O2 0.369022 0.801856 0.946514
O O3 0.442236 0.953622 0.862574
O O4 0.432955 0.921933 0.146764
O O5 0.138826 0.631187 0.420495
O O6 0.000000 0.582613 0.250000
O O7 0.000000 0.500000 0.500000
O O8 0.961964 0.666281 0.491705
O O9 0.699863 0.266922 0.596544
O O10 0.663084 0.266263 0.311009
#
# Coordination Sequence:
#
# PCOD9421607 Si02
#       5
#     8   8   4   8   8
#     4  10  20  40  57  81 113 150 187 228 284 324
#     4   9  20  39  59  82 113 148 183 228 275 327
#     4  10  20  36  64  78 110 150 188 234 276 332
#     4  10  21  38  58  82 116 149 184 228 279 332
#     4  10  21  38  58  82 116 149 184 228 279 332
#
# _framework density 19.233784
#
# number of rings (size 3 to 8) (size 9 to 14) (size 15 to 20)
#    0.000    2.222    2.222    1.333    3.111    2.667 
#    4.000   11.111    0.000    0.000    0.000    0.000 
#    0.000    0.000    0.000    0.000    0.000    0.000 
#
# Total GULP energy -200808.686927 kJ/mol
# GULP energy per Si atom -5578.019081 kJ/mol
# Density = 1.919001 g / cm^3
# Si number density = 19.233784 Si / 1000 Ang^3
#
#
#
# Elastic Constant Matrix: (Units=GPa)
#
#
# Indices 1 2 3 4 5 6 
#
# 1 63.0227 -0.8488 1.3894 0.0000 0.0000 0.0000
# 2 -0.8488 81.0307 21.8807 0.0000 0.0000 0.0000
# 3 1.3894 21.8807 44.0027 0.0000 0.0000 0.0000
# 4 0.0000 0.0000 0.0000 27.3003 0.0000 0.0000
# 5 0.0000 0.0000 0.0000 0.0000 22.2821 0.0000
# 6 0.0000 0.0000 0.0000 0.0000 0.0000 6.9155
#
#
#
# Elastic Compliance Matrix: (Units=1/GPa)
#
#
# Indices 1 2 3 4 5 6 
#
# 1 0.015887 0.000349 -0.000675 0.000000 0.000000 0.000000
# 2 0.000349 0.014263 -0.007103 0.000000 0.000000 0.000000
# 3 -0.000675 -0.007103 0.026279 0.000000 0.000000 0.000000
# 4 0.000000 0.000000 0.000000 0.036630 0.000000 0.000000
# 5 0.000000 0.000000 0.000000 0.000000 0.044879 0.000000
# 6 0.000000 0.000000 0.000000 0.000000 0.000000 0.144603
#
#
# Mechanical properties :
#
#
# Convention : Reuss Voigt Hill
#
# Bulk Modulus (GPa) = 24.05594 25.87763 24.96679
# Shear Modulus (GPa) = 16.06392 22.34190 19.20291
#
# Velocity S-wave (km/s) = 2.89311 3.41192 3.16317
# Velocity P-wave (km/s) = 4.86769 5.38563 5.13320
#
# Compressibility (1/GPa) = 0.04156977
#
# Stress axis : x y z
#
# Youngs Moduli (GPa) = 62.94499 70.11264 38.05264
#
# Poissons Ratio (x) = -0.02445 0.02569
# Poissons Ratio (y) = -0.02195 0.27030
# Poissons Ratio (z) = 0.04249 0.49803
#
# Static dielectric constant tensor:
#      x y z
#    x 1.665590 0.000000 0.000000 
#    y 0.000000 1.681740 0.000000 
#    z 0.000000 0.000000 1.673300 
# 
# From -- ./inp_files/3382.got.cif
#   From: 2010.05.17/outbox.cif.g08.bks.cpg/sg54_2_cif.got.tgz:3382.got - 2010.06.03 13:09:01.
