data_PCOD9421159
_publ_section_title
;
Structure prediction by ZEFSAII (Michael W. Deem and Ramdas Pophale) SiO2 
 PCOD9421159
Probable space group: P C C A
;
_chemical_formula_sum "Si O2"
_cell_formula_units_Z 60
_cell_length_a 9.519398
_cell_length_b 18.253371
_cell_length_c 18.148777
_cell_angle_alpha 90.000000
_cell_angle_beta 90.000000
_cell_angle_gamma 90.000000
_cell_volume 3153.551517
_symmetry_space_group_name_H-M "P C C A"
_symmetry_group_IT_number 54
_symmetry_cell_setting 'orthorhombic'
loop_
_space_group_symop_operation_xyz
x,y,z
1/2-x,-y,z
1/2+x,-y,1/2-z
-x,y,1/2-z
-x,-y,-z
1/2+x,y,-z
1/2-x,y,1/2+z
x,-y,1/2+z
loop_
_atom_site_type_symbol
_atom_site_label
_atom_site_fract_x
_atom_site_fract_y
_atom_site_fract_z
Si Si1 0.513291 0.289507 0.057427
Si Si2 0.525642 0.400867 0.837647
Si Si3 0.411871 0.233490 0.676008
Si Si4 0.299727 0.624347 0.460236
Si Si5 0.155552 0.072901 0.560329
Si Si6 0.059530 0.147467 0.033462
Si Si7 0.750000 0.500000 0.921359
Si Si8 0.406246 0.811213 0.678710
O O1 0.642590 0.346572 0.056438
O O2 0.457388 0.262504 0.136045
O O3 0.389949 0.314523 0.002733
O O4 0.559543 0.212959 0.023698
O O5 0.500000 0.411363 0.750000
O O6 0.590193 0.318893 0.848565
O O7 0.382913 0.399362 0.886454
O O8 0.630393 0.461555 0.871551
O O9 0.500000 0.230997 0.750000
O O10 0.478010 0.182178 0.612579
O O11 0.257158 0.204132 0.692919
O O12 0.302911 0.561111 0.521569
O O13 0.279023 0.126734 0.536751
O O14 0.088375 0.113125 0.631255
O O15 0.038932 0.081665 0.495867
O O16 0.250000 0.000000 0.573507
O O17 0.500000 0.820007 0.750000
#
# Coordination Sequence:
#
# PCOD9421159 Si02
#       8
#     8   8   8   8   8   8   4   8
#     4  11  22  38  65  92 120 155 216 267 319 366
#     4  11  25  41  64  91 129 168 213 272 327 392
#     4  10  21  39  62  88 123 157 206 263 323 372
#     4  12  23  42  66  90 123 169 213 269 319 393
#     4  10  21  37  59  89 127 163 202 248 301 373
#     4  10  19  36  61  89 119 157 204 256 304 359
#     4  12  24  46  62  90 128 170 220 254 322 406
#     4  10  23  38  60  94 124 163 208 268 317 377
#
# _framework density 19.026167000000001
#
# number of rings (size 3 to 8) (size 9 to 14) (size 15 to 20)
#    0.000    1.333    2.667    4.000    3.733    1.600 
#    0.000    3.333    0.000    4.000    0.000    0.000 
#    0.000    0.000    0.000    0.000    0.000    0.000 
#
# Total GULP energy -334354.635228 kJ/mol
# GULP energy per Si atom -5572.577254 kJ/mol
# Density = 1.898286 g / cm^3
# Si number density = 19.026167 Si / 1000 Ang^3
#
#
#
# Elastic Constant Matrix: (Units=GPa)
#
#
# Indices 1 2 3 4 5 6 
#
# 1 67.9587 27.4987 53.2262 0.0000 0.0000 0.0000
# 2 27.4987 64.7456 36.0274 0.0000 0.0000 0.0000
# 3 53.2262 36.0274 118.3813 0.0000 0.0000 0.0000
# 4 0.0000 0.0000 0.0000 18.5535 0.0000 0.0000
# 5 0.0000 0.0000 0.0000 0.0000 43.0368 0.0000
# 6 0.0000 0.0000 0.0000 0.0000 0.0000 26.8828
#
#
#
# Elastic Compliance Matrix: (Units=1/GPa)
#
#
# Indices 1 2 3 4 5 6 
#
# 1 0.024008 -0.005044 -0.009259 0.000000 0.000000 0.000000
# 2 -0.005044 0.019654 -0.003713 0.000000 0.000000 0.000000
# 3 -0.009259 -0.003713 0.013740 0.000000 0.000000 0.000000
# 4 0.000000 0.000000 0.000000 0.053898 0.000000 0.000000
# 5 0.000000 0.000000 0.000000 0.000000 0.023236 0.000000
# 6 0.000000 0.000000 0.000000 0.000000 0.000000 0.037199
#
#
# Mechanical properties :
#
#
# Convention : Reuss Voigt Hill
#
# Bulk Modulus (GPa) = 46.79801 53.84335 50.32068
# Shear Modulus (GPa) = 23.26759 26.65017 24.95888
#
# Velocity S-wave (km/s) = 3.50083 3.74667 3.62583
# Velocity P-wave (km/s) = 6.40243 6.86132 6.63585
#
# Compressibility (1/GPa) = 0.02136843
#
# Stress axis : x y z
#
# Youngs Moduli (GPa) = 41.65296 50.88093 72.77790
#
# Poissons Ratio (x) = 0.25666 0.67386
# Poissons Ratio (y) = 0.21011 0.27024
# Poissons Ratio (z) = 0.38567 0.18893
#
# Static dielectric constant tensor:
#      x y z
#    x 1.609610 0.000000 0.000000 
#    y 0.000000 2.461860 0.000000 
#    z 0.000000 0.000000 1.683100 
# 
# From -- ./inp_files/16818.got.cif
#   From: 2010.05.17/outbox.cif.g08.bks.cpg/sg54_9_cif.got.tgz:16818.got - 2010.06.03 13:09:01.
