data_PCOD9421147
_publ_section_title
;
Structure prediction by ZEFSAII (Michael W. Deem and Ramdas Pophale) SiO2 
 PCOD9421147
Probable space group: P C C A
;
_chemical_formula_sum "Si O2"
_cell_formula_units_Z 32
_cell_length_a 5.137040
_cell_length_b 21.442734
_cell_length_c 13.114574
_cell_angle_alpha 90.000000
_cell_angle_beta 90.000000
_cell_angle_gamma 90.000000
_cell_volume 1444.598946
_symmetry_space_group_name_H-M "P C C A"
_symmetry_group_IT_number 54
_symmetry_cell_setting 'orthorhombic'
loop_
_space_group_symop_operation_xyz
x,y,z
1/2-x,-y,z
1/2+x,-y,1/2-z
-x,y,1/2-z
-x,-y,-z
1/2+x,y,-z
1/2-x,y,1/2+z
x,-y,1/2+z
loop_
_atom_site_type_symbol
_atom_site_label
_atom_site_fract_x
_atom_site_fract_y
_atom_site_fract_z
Si Si1 0.727426 0.615314 0.939756
Si Si2 0.000000 0.460329 0.750000
Si Si3 0.739469 0.864719 0.426658
Si Si4 0.246233 0.734853 0.681832
Si Si5 0.250000 0.000000 0.073593
O O1 0.623405 0.580807 0.839880
O O2 0.727020 0.688860 0.913906
O O3 0.519558 0.599534 0.027403
O O4 0.750000 0.500000 0.712783
O O5 0.499915 0.860993 0.505528
O O6 0.720883 0.806153 0.352836
O O7 0.741491 0.932789 0.372330
O O8 0.500000 0.728046 0.750000
O O9 0.000000 0.715776 0.750000
O O10 0.500000 0.000000 0.000000
#
# Coordination Sequence:
#
# PCOD9421147 Si02
#       5
#     8   4   8   8   4
#     4  12  26  46  74 102 135 182 224 269 332 397
#     4  12  28  48  74 106 144 176 218 280 326 398
#     4  10  19  36  58  87 118 164 220 268 329 399
#     4  12  24  40  63  93 132 170 216 280 334 382
#     4   8  16  30  54  80 116 158 210 272 322 388
#
# _framework density 22.151478000000001
#
# number of rings (size 3 to 8) (size 9 to 14) (size 15 to 20)
#    0.000    1.000    1.250    6.000    1.750    3.000 
#    0.000    1.250    0.000    0.000    0.000    0.000 
#    0.000    0.000    0.000    0.000    0.000    0.000 
#
# Total GULP energy -178976.234560 kJ/mol
# GULP energy per Si atom -5593.007330 kJ/mol
# Density = 2.210106 g / cm^3
# Si number density = 22.151478 Si / 1000 Ang^3
#
#
#
# Elastic Constant Matrix: (Units=GPa)
#
#
# Indices 1 2 3 4 5 6 
#
# 1 173.8711 14.5521 22.9879 0.0000 0.0000 0.0000
# 2 14.5521 104.1839 20.7801 0.0000 0.0000 0.0000
# 3 22.9879 20.7801 47.0284 0.0000 0.0000 0.0000
# 4 0.0000 0.0000 0.0000 37.9201 0.0000 0.0000
# 5 0.0000 0.0000 0.0000 0.0000 34.7772 0.0000
# 6 0.0000 0.0000 0.0000 0.0000 0.0000 31.8430
#
#
#
# Elastic Compliance Matrix: (Units=1/GPa)
#
#
# Indices 1 2 3 4 5 6 
#
# 1 0.006156 -0.000285 -0.002883 0.000000 0.000000 0.000000
# 2 -0.000285 0.010539 -0.004518 0.000000 0.000000 0.000000
# 3 -0.002883 -0.004518 0.024669 0.000000 0.000000 0.000000
# 4 0.000000 0.000000 0.000000 0.026371 0.000000 0.000000
# 5 0.000000 0.000000 0.000000 0.000000 0.028754 0.000000
# 6 0.000000 0.000000 0.000000 0.000000 0.000000 0.031404
#
#
# Mechanical properties :
#
#
# Convention : Reuss Voigt Hill
#
# Bulk Modulus (GPa) = 38.47162 49.08040 43.77601
# Shear Modulus (GPa) = 32.90961 38.69229 35.80095
#
# Velocity S-wave (km/s) = 3.85861 4.18390 4.02455
# Velocity P-wave (km/s) = 6.10386 6.74870 6.43436
#
# Compressibility (1/GPa) = 0.02599318
#
# Stress axis : x y z
#
# Youngs Moduli (GPa) = 162.43121 94.88313 40.53600
#
# Poissons Ratio (x) = 0.02702 0.11688
# Poissons Ratio (y) = 0.04626 0.18313
# Poissons Ratio (z) = 0.46837 0.42866
#
# Static dielectric constant tensor:
#      x y z
#    x 1.787850 0.000000 0.000000 
#    y 0.000000 1.871920 0.000000 
#    z 0.000000 0.000000 1.767410 
# 
# From -- ./inp_files/10745.got.cif
#   From: 2010.05.17/outbox.cif.g08.bks.cpg/sg54_6_cif.got.tgz:10745.got - 2010.06.03 13:09:01.
