data_PCOD9421363
_publ_section_title
;
Structure prediction by ZEFSAII (Michael W. Deem and Ramdas Pophale) SiO2 
 PCOD9421363
Probable space group: P C C A
;
_chemical_formula_sum "Si O2"
_cell_formula_units_Z 56
_cell_length_a 15.053001
_cell_length_b 14.560197
_cell_length_c 9.606116
_cell_angle_alpha 90.000000
_cell_angle_beta 90.000000
_cell_angle_gamma 90.000000
_cell_volume 2105.417208
_symmetry_space_group_name_H-M "P C C A"
_symmetry_group_IT_number 54
_symmetry_cell_setting 'orthorhombic'
loop_
_space_group_symop_operation_xyz
x,y,z
1/2-x,-y,z
1/2+x,-y,1/2-z
-x,y,1/2-z
-x,-y,-z
1/2+x,y,-z
1/2-x,y,1/2+z
x,-y,1/2+z
loop_
_atom_site_type_symbol
_atom_site_label
_atom_site_fract_x
_atom_site_fract_y
_atom_site_fract_z
Si Si1 0.757922 0.213676 0.899778
Si Si2 0.402374 0.880741 0.259334
Si Si3 0.213686 0.399680 0.156116
Si Si4 0.359014 0.000179 0.010352
Si Si5 0.575341 0.425284 0.641860
Si Si6 0.637044 0.819350 0.653684
Si Si7 0.559878 0.370344 0.071228
O O1 0.669238 0.185404 0.812452
O O2 0.781391 0.318494 0.867847
O O3 0.833641 0.161600 0.812461
O O4 0.725054 0.202402 0.057411
O O5 0.500000 0.839596 0.250000
O O6 0.384885 0.912969 0.416598
O O7 0.395621 0.971195 0.160524
O O8 0.250000 0.500000 0.131375
O O9 0.171240 0.392859 0.309599
O O10 0.134240 0.379442 0.049106
O O11 0.393777 0.912686 0.918967
O O12 0.250000 0.000000 0.016968
O O13 0.500000 0.393835 0.750000
O O14 0.536402 0.390155 0.496660
O O15 0.578666 0.536283 0.655956
O O16 0.574714 0.730084 0.635736
#
# Coordination Sequence:
#
# PCOD9421363 Si02
#       7
#     8   8   8   8   8   8   8
#     4  10  22  37  58  87 121 158 201 261 304 372
#     4  11  24  41  63  94 128 167 212 263 326 387
#     4  10  20  33  55  83 115 154 204 251 300 365
#     4  11  22  40  67  90 124 168 215 263 321 384
#     4   9  18  34  55  77 111 159 195 245 313 374
#     4  10  21  37  60  90 119 159 211 259 307 374
#     4   9  19  35  54  81 117 154 202 251 312 369
#
# _framework density 26.598054000000001
#
# number of rings (size 3 to 8) (size 9 to 14) (size 15 to 20)
#    0.000    2.000    1.429    1.714    2.000    6.857 
#    0.000    2.143    0.000    0.000    0.000    0.000 
#    0.000    0.000    0.000    0.000    0.000    0.000 
#
# Total GULP energy -313045.066900 kJ/mol
# GULP energy per Si atom -5590.090480 kJ/mol
# Density = 2.653752 g / cm^3
# Si number density = 26.598054 Si / 1000 Ang^3
#
#
#
# Elastic Constant Matrix: (Units=GPa)
#
#
# Indices 1 2 3 4 5 6 
#
# 1 52.0317 17.1610 17.8949 0.0000 0.0000 0.0000
# 2 17.1610 103.4447 8.5738 0.0000 0.0000 0.0000
# 3 17.8949 8.5738 134.9092 0.0000 0.0000 0.0000
# 4 0.0000 0.0000 0.0000 25.3497 0.0000 0.0000
# 5 0.0000 0.0000 0.0000 0.0000 26.6286 0.0000
# 6 0.0000 0.0000 0.0000 0.0000 0.0000 30.3935
#
#
#
# Elastic Compliance Matrix: (Units=1/GPa)
#
#
# Indices 1 2 3 4 5 6 
#
# 1 0.021203 -0.003302 -0.002603 0.000000 0.000000 0.000000
# 2 -0.003302 0.010232 -0.000212 0.000000 0.000000 0.000000
# 3 -0.002603 -0.000212 0.007771 0.000000 0.000000 0.000000
# 4 0.000000 0.000000 0.000000 0.039448 0.000000 0.000000
# 5 0.000000 0.000000 0.000000 0.000000 0.037554 0.000000
# 6 0.000000 0.000000 0.000000 0.000000 0.000000 0.032902
#
#
# Mechanical properties :
#
#
# Convention : Reuss Voigt Hill
#
# Bulk Modulus (GPa) = 37.07396 41.96055 39.51726
# Shear Modulus (GPa) = 29.35398 32.92476 31.13937
#
# Velocity S-wave (km/s) = 3.32567 3.52215 3.42532
# Velocity P-wave (km/s) = 5.35870 5.68777 5.52568
#
# Compressibility (1/GPa) = 0.02697311
#
# Stress axis : x y z
#
# Youngs Moduli (GPa) = 47.16279 97.72927 128.68172
#
# Poissons Ratio (x) = 0.32268 0.33491
# Poissons Ratio (y) = 0.15572 0.02732
# Poissons Ratio (z) = 0.12275 0.02075
#
# Static dielectric constant tensor:
#      x y z
#    x 2.092050 0.000000 0.000000 
#    y 0.000000 2.135150 0.000000 
#    z 0.000000 0.000000 2.099990 
# 
# From -- ./inp_files/8426.got.cif
#   From: 2010.05.17/outbox.cif.g08.bks.cpg/sg54_5_cif.got.tgz:8426.got - 2010.06.03 13:09:01.
