data_PCOD9421865
_publ_section_title
;
Structure prediction by ZEFSAII (Michael W. Deem and Ramdas Pophale) SiO2 
 PCOD9421865
Probable space group: P C C A
;
_chemical_formula_sum "Si O2"
_cell_formula_units_Z 40
_cell_length_a 8.090095
_cell_length_b 15.578703
_cell_length_c 13.440733
_cell_angle_alpha 90.000000
_cell_angle_beta 90.000000
_cell_angle_gamma 90.000000
_cell_volume 1693.978419
_symmetry_space_group_name_H-M "P C C A"
_symmetry_group_IT_number 54
_symmetry_cell_setting 'orthorhombic'
loop_
_space_group_symop_operation_xyz
x,y,z
1/2-x,-y,z
1/2+x,-y,1/2-z
-x,y,1/2-z
-x,-y,-z
1/2+x,y,-z
1/2-x,y,1/2+z
x,-y,1/2+z
loop_
_atom_site_type_symbol
_atom_site_label
_atom_site_fract_x
_atom_site_fract_y
_atom_site_fract_z
Si Si1 0.378964 0.608521 0.660429
Si Si2 0.822293 0.588811 0.017272
Si Si3 0.327243 0.914581 0.301255
Si Si4 0.717899 0.219788 0.060405
Si Si5 0.146351 0.197121 0.646596
O O1 0.500000 0.573825 0.750000
O O2 0.204147 0.585469 0.603667
O O3 0.493230 0.596598 0.561751
O O4 0.343804 0.706994 0.692565
O O5 0.750000 0.500000 0.058373
O O6 0.750270 0.678280 0.060301
O O7 0.500000 0.933853 0.250000
O O8 0.345412 0.836759 0.377981
O O9 0.198986 0.877535 0.219788
O O10 0.250000 0.000000 0.348029
O O11 0.538581 0.196211 0.103328
O O12 0.731848 0.194725 0.946211
#
# Coordination Sequence:
#
# PCOD9421865 Si02
#       5
#     8   8   8   8   8
#     4  10  21  39  62  90 129 174 219 275 335 391
#     4  10  21  39  62  93 132 173 223 276 328 398
#     4  12  25  42  65  94 126 165 215 273 336 408
#     4  10  21  39  63  90 126 169 213 267 328 393
#     4  10  20  39  62  89 124 165 211 263 325 392
#
# _framework density 23.613052
#
# number of rings (size 3 to 8) (size 9 to 14) (size 15 to 20)
#    0.000    1.600    0.000    6.000    0.000    3.200 
#    0.000    6.000    0.000    0.000    0.000    0.000 
#    0.000    0.000    0.000    0.000    0.000    0.000 
#
# Total GULP energy -222898.117537 kJ/mol
# GULP energy per Si atom -5572.452938 kJ/mol
# Density = 2.355931 g / cm^3
# Si number density = 23.613052 Si / 1000 Ang^3
#
#
#
# Elastic Constant Matrix: (Units=GPa)
#
#
# Indices 1 2 3 4 5 6 
#
# 1 85.4437 26.6937 31.5821 0.0000 0.0000 0.0000
# 2 26.6937 103.9055 23.2305 0.0000 0.0000 0.0000
# 3 31.5821 23.2305 94.8780 0.0000 0.0000 0.0000
# 4 0.0000 0.0000 0.0000 18.2937 0.0000 0.0000
# 5 0.0000 0.0000 0.0000 0.0000 49.0833 0.0000
# 6 0.0000 0.0000 0.0000 0.0000 0.0000 26.6745
#
#
#
# Elastic Compliance Matrix: (Units=1/GPa)
#
#
# Indices 1 2 3 4 5 6 
#
# 1 0.014031 -0.002709 -0.004007 0.000000 0.000000 0.000000
# 2 -0.002709 0.010704 -0.001719 0.000000 0.000000 0.000000
# 3 -0.004007 -0.001719 0.012295 0.000000 0.000000 0.000000
# 4 0.000000 0.000000 0.000000 0.054664 0.000000 0.000000
# 5 0.000000 0.000000 0.000000 0.000000 0.020374 0.000000
# 6 0.000000 0.000000 0.000000 0.000000 0.000000 0.037489
#
#
# Mechanical properties :
#
#
# Convention : Reuss Voigt Hill
#
# Bulk Modulus (GPa) = 49.60419 49.69330 49.64874
# Shear Modulus (GPa) = 28.87722 32.32502 30.60112
#
# Velocity S-wave (km/s) = 3.50084 3.70394 3.60382
# Velocity P-wave (km/s) = 6.11506 6.27557 6.19583
#
# Compressibility (1/GPa) = 0.02015959
#
# Stress axis : x y z
#
# Youngs Moduli (GPa) = 71.27048 93.41962 81.33567
#
# Poissons Ratio (x) = 0.25305 0.32594
# Poissons Ratio (y) = 0.19305 0.13984
# Poissons Ratio (z) = 0.28560 0.16061
#
# Static dielectric constant tensor:
#      x y z
#    x 2.013030 0.000000 0.000000 
#    y 0.000000 1.938020 0.000000 
#    z 0.000000 0.000000 1.948750 
# 
# From -- ./inp_files/11522.got.cif
#   From: 2010.05.17/outbox.cif.g08.bks.cpg/sg54_6_cif.got.tgz:11522.got - 2010.06.03 13:09:01.
