data_PCOD9421296
_publ_section_title
;
Structure prediction by ZEFSAII (Michael W. Deem and Ramdas Pophale) SiO2 
 PCOD9421296
Probable space group: P C C A
;
_chemical_formula_sum "Si O2"
_cell_formula_units_Z 32
_cell_length_a 9.722609
_cell_length_b 10.603564
_cell_length_c 14.059538
_cell_angle_alpha 90.000000
_cell_angle_beta 90.000000
_cell_angle_gamma 90.000000
_cell_volume 1449.458324
_symmetry_space_group_name_H-M "P C C A"
_symmetry_group_IT_number 54
_symmetry_cell_setting 'orthorhombic'
loop_
_space_group_symop_operation_xyz
x,y,z
1/2-x,-y,z
1/2+x,-y,1/2-z
-x,y,1/2-z
-x,-y,-z
1/2+x,y,-z
1/2-x,y,1/2+z
x,-y,1/2+z
loop_
_atom_site_type_symbol
_atom_site_label
_atom_site_fract_x
_atom_site_fract_y
_atom_site_fract_z
Si Si1 0.315729 0.306474 0.351314
Si Si2 0.041514 0.448052 0.397422
Si Si3 0.871016 0.089572 0.509298
Si Si4 0.630570 0.229253 0.813200
O O1 0.174239 0.355414 0.402181
O O2 0.407633 0.430221 0.339787
O O3 0.387966 0.205136 0.418499
O O4 0.261572 0.246525 0.253954
O O5 0.000000 0.500000 0.500000
O O6 0.921159 0.366265 0.350429
O O7 0.840871 0.145954 0.405115
O O8 0.750000 0.000000 0.545045
O O9 0.000000 0.000000 0.500000
O O10 0.500000 0.181299 0.750000
#
# Coordination Sequence:
#
# PCOD9421296 Si02
#       4
#     8   8   8   8
#     4  10  23  43  66 103 137 180 233 292 358 426
#     4  10  19  42  70  97 140 176 225 294 367 429
#     4  12  26  46  73  98 139 193 242 289 345 412
#     4  10  22  44  67 102 138 177 234 293 353 426
#
# _framework density 22.077213
#
# number of rings (size 3 to 8) (size 9 to 14) (size 15 to 20)
#    0.000    1.500    2.500    3.000    0.000    3.000 
#   22.500    0.000    0.000    0.000    0.000    0.000 
#    0.000    0.000    0.000    0.000    0.000    0.000 
#
# Total GULP energy -179061.618231 kJ/mol
# GULP energy per Si atom -5595.675570 kJ/mol
# Density = 2.202696 g / cm^3
# Si number density = 22.077213 Si / 1000 Ang^3
#
#
#
# Elastic Constant Matrix: (Units=GPa)
#
#
# Indices 1 2 3 4 5 6 
#
# 1 46.5356 25.5572 9.5250 0.0000 0.0000 0.0000
# 2 25.5572 106.0568 24.4242 0.0000 0.0000 0.0000
# 3 9.5250 24.4242 95.7348 0.0000 0.0000 0.0000
# 4 0.0000 0.0000 0.0000 28.2164 0.0000 0.0000
# 5 0.0000 0.0000 0.0000 0.0000 29.4418 0.0000
# 6 0.0000 0.0000 0.0000 0.0000 0.0000 26.0678
#
#
#
# Elastic Compliance Matrix: (Units=1/GPa)
#
#
# Indices 1 2 3 4 5 6 
#
# 1 0.024857 -0.005759 -0.001004 0.000000 0.000000 0.000000
# 2 -0.005759 0.011352 -0.002323 0.000000 0.000000 0.000000
# 3 -0.001004 -0.002323 0.011138 0.000000 0.000000 0.000000
# 4 0.000000 0.000000 0.000000 0.035440 0.000000 0.000000
# 5 0.000000 0.000000 0.000000 0.000000 0.033965 0.000000
# 6 0.000000 0.000000 0.000000 0.000000 0.000000 0.038362
#
#
# Mechanical properties :
#
#
# Convention : Reuss Voigt Hill
#
# Bulk Modulus (GPa) = 34.27570 40.81557 37.54563
# Shear Modulus (GPa) = 27.32080 29.33325 28.32703
#
# Velocity S-wave (km/s) = 3.52164 3.64904 3.58591
# Velocity P-wave (km/s) = 5.66525 6.02344 5.84709
#
# Compressibility (1/GPa) = 0.02917519
#
# Stress axis : x y z
#
# Youngs Moduli (GPa) = 40.22997 88.09304 89.78202
#
# Poissons Ratio (x) = 0.50731 0.09014
# Poissons Ratio (y) = 0.23168 0.20857
# Poissons Ratio (z) = 0.04039 0.20465
#
# Static dielectric constant tensor:
#      x y z
#    x 1.724830 0.000000 0.000000 
#    y 0.000000 1.767690 0.000000 
#    z 0.000000 0.000000 1.803450 
# 
# From -- ./inp_files/11313.got.cif
#   From: 2010.05.17/outbox.cif.g08.bks.cpg/sg54_6_cif.got.tgz:11313.got - 2010.06.03 13:09:01.
