data_PCOD9421521
_publ_section_title
;
Structure prediction by ZEFSAII (Michael W. Deem and Ramdas Pophale) SiO2 
 PCOD9421521
Probable space group: P C C A
;
_chemical_formula_sum "Si O2"
_cell_formula_units_Z 44
_cell_length_a 13.548238
_cell_length_b 5.716042
_cell_length_c 21.776433
_cell_angle_alpha 90.000000
_cell_angle_beta 90.000000
_cell_angle_gamma 90.000000
_cell_volume 1686.417001
_symmetry_space_group_name_H-M "P C C A"
_symmetry_group_IT_number 54
_symmetry_cell_setting 'orthorhombic'
loop_
_space_group_symop_operation_xyz
x,y,z
1/2-x,-y,z
1/2+x,-y,1/2-z
-x,y,1/2-z
-x,-y,-z
1/2+x,y,-z
1/2-x,y,1/2+z
x,-y,1/2+z
loop_
_atom_site_type_symbol
_atom_site_label
_atom_site_fract_x
_atom_site_fract_y
_atom_site_fract_z
Si Si1 0.064498 0.631274 0.066147
Si Si2 0.895954 0.388348 0.786793
Si Si3 0.501610 0.861831 0.088271
Si Si4 0.750000 0.500000 0.512280
Si Si5 0.722741 0.749764 0.128763
Si Si6 0.605446 0.888323 0.285119
O O1 0.081507 0.616323 0.140230
O O2 0.019769 0.374836 0.050955
O O3 0.167822 0.618890 0.030020
O O4 0.007670 0.879458 0.059202
O O5 0.848521 0.637457 0.771638
O O6 0.000000 0.388173 0.750000
O O7 0.847559 0.139165 0.772789
O O8 0.607342 0.791394 0.116455
O O9 0.421827 0.878678 0.142930
O O10 0.722913 0.703584 0.562200
O O11 0.750000 0.500000 0.158577
O O12 0.750000 0.000000 0.155453
O O13 0.500000 0.891840 0.250000
#
# Coordination Sequence:
#
# PCOD9421521 Si02
#       6
#     8   8   8   4   8   8
#     4  10  21  34  57  84 109 151 190 241 282 354
#     4   8  14  27  47  77 103 131 176 221 274 327
#     4  10  20  36  58  84 104 150 200 226 289 354
#     4  10  26  38  54  80 124 148 194 240 304 316
#     4  10  23  40  55  79 115 152 188 248 292 332
#     4   8  14  26  48  80 100 128 172 226 268 321
#
# _framework density 26.090817000000001
#
# number of rings (size 3 to 8) (size 9 to 14) (size 15 to 20)
#    0.545    2.182    0.000    1.091    2.545    1.455 
#    0.000    0.000    0.000    0.000  113.455    0.000 
#    0.000    0.000    0.000    0.000    0.000    0.000 
#
# Total GULP energy -245334.592918 kJ/mol
# GULP energy per Si atom -5575.786203 kJ/mol
# Density = 2.603143 g / cm^3
# Si number density = 26.090817 Si / 1000 Ang^3
#
#
#
# Elastic Constant Matrix: (Units=GPa)
#
#
# Indices 1 2 3 4 5 6 
#
# 1 78.9005 83.8488 27.4076 0.0000 0.0000 0.0000
# 2 83.8488 404.3919 55.1423 0.0000 0.0000 0.0000
# 3 27.4076 55.1423 115.8667 0.0000 0.0000 0.0000
# 4 0.0000 0.0000 0.0000 23.4099 0.0000 0.0000
# 5 0.0000 0.0000 0.0000 0.0000 63.2036 0.0000
# 6 0.0000 0.0000 0.0000 0.0000 0.0000 49.8881
#
#
#
# Elastic Compliance Matrix: (Units=1/GPa)
#
#
# Indices 1 2 3 4 5 6 
#
# 1 0.016903 -0.003165 -0.002492 0.000000 0.000000 0.000000
# 2 -0.003165 0.003237 -0.000792 0.000000 0.000000 0.000000
# 3 -0.002492 -0.000792 0.009597 0.000000 0.000000 0.000000
# 4 0.000000 0.000000 0.000000 0.042717 0.000000 0.000000
# 5 0.000000 0.000000 0.000000 0.000000 0.015822 0.000000
# 6 0.000000 0.000000 0.000000 0.000000 0.000000 0.020045
#
#
# Mechanical properties :
#
#
# Convention : Reuss Voigt Hill
#
# Bulk Modulus (GPa) = 59.38466 103.55072 81.46769
# Shear Modulus (GPa) = 39.42212 56.15102 47.78657
#
# Velocity S-wave (km/s) = 3.89132 4.64415 4.28430
# Velocity P-wave (km/s) = 6.55744 8.27842 7.46767
#
# Compressibility (1/GPa) = 0.01683936
#
# Stress axis : x y z
#
# Youngs Moduli (GPa) = 59.15974 308.92001 104.19946
#
# Poissons Ratio (x) = 0.97774 0.25968
# Poissons Ratio (y) = 0.18724 0.08252
# Poissons Ratio (z) = 0.14743 0.24463
#
# Static dielectric constant tensor:
#      x y z
#    x 2.033540 0.000000 0.000000 
#    y 0.000000 2.077380 0.000000 
#    z 0.000000 0.000000 1.967020 
# 
# From -- ./inp_files/26376.got.cif
#   From: 2010.05.17/outbox.cif.g08.bks.cpg/sg54_14_cif.got.tgz:26376.got - 2010.06.03 13:09:01.
