data_PCOD9421767
_publ_section_title
;
Structure prediction by ZEFSAII (Michael W. Deem and Ramdas Pophale) SiO2 
 PCOD9421767
Probable space group: P C C A
;
_chemical_formula_sum "Si O2"
_cell_formula_units_Z 40
_cell_length_a 24.018571
_cell_length_b 5.297097
_cell_length_c 14.350947
_cell_angle_alpha 90.000000
_cell_angle_beta 90.000000
_cell_angle_gamma 90.000000
_cell_volume 1825.852336
_symmetry_space_group_name_H-M "P C C A"
_symmetry_group_IT_number 54
_symmetry_cell_setting 'orthorhombic'
loop_
_space_group_symop_operation_xyz
x,y,z
1/2-x,-y,z
1/2+x,-y,1/2-z
-x,y,1/2-z
-x,-y,-z
1/2+x,y,-z
1/2-x,y,1/2+z
x,-y,1/2+z
loop_
_atom_site_type_symbol
_atom_site_label
_atom_site_fract_x
_atom_site_fract_y
_atom_site_fract_z
Si Si1 0.876144 0.477715 0.767621
Si Si2 0.917704 0.559485 0.574636
Si Si3 0.964456 0.255452 0.399681
Si Si4 0.214040 0.748369 0.636503
Si Si5 0.874181 0.094243 0.928632
O O1 0.891486 0.418588 0.662331
O O2 0.929350 0.608493 0.818044
O O3 0.823243 0.663941 0.775362
O O4 0.859716 0.250275 0.835951
O O5 0.944796 0.382319 0.496491
O O6 0.874146 0.735764 0.520018
O O7 0.970022 0.724156 0.611642
O O8 0.938543 0.979131 0.409636
O O9 0.250000 0.500000 0.608159
O O10 0.250000 0.000000 0.651049
O O11 0.165737 0.850421 0.565860
#
# Coordination Sequence:
#
# PCOD9421767 Si02
#       5
#     8   8   8   8   8
#     4  10  21  38  65  95 130 174 225 272 332 398
#     4  10  20  38  61  99 139 169 221 270 324 407
#     4   9  20  36  61  94 138 179 209 265 333 395
#     4  11  22  43  72  90 125 176 221 279 342 390
#     4  10  21  39  65  96 130 179 220 271 340 394
#
# _framework density 21.907578999999998
#
# number of rings (size 3 to 8) (size 9 to 14) (size 15 to 20)
#    0.000    2.000    2.000    1.200    0.000    3.200 
#    0.000   13.000    8.800    0.000    0.000    0.000 
#    0.000    0.000    0.000    0.000    0.000    0.000 
#
# Total GULP energy -223020.616845 kJ/mol
# GULP energy per Si atom -5575.515421 kJ/mol
# Density = 2.185772 g / cm^3
# Si number density = 21.907579 Si / 1000 Ang^3
#
#
#
# Elastic Constant Matrix: (Units=GPa)
#
#
# Indices 1 2 3 4 5 6 
#
# 1 98.1613 36.9101 30.9468 0.0000 0.0000 0.0000
# 2 36.9101 87.4218 30.2300 0.0000 0.0000 0.0000
# 3 30.9468 30.2300 103.1616 0.0000 0.0000 0.0000
# 4 0.0000 0.0000 0.0000 3.8881 0.0000 0.0000
# 5 0.0000 0.0000 0.0000 0.0000 8.8497 0.0000
# 6 0.0000 0.0000 0.0000 0.0000 0.0000 50.8691
#
#
#
# Elastic Compliance Matrix: (Units=1/GPa)
#
#
# Indices 1 2 3 4 5 6 
#
# 1 0.012656 -0.004485 -0.002482 0.000000 0.000000 0.000000
# 2 -0.004485 0.014318 -0.002850 0.000000 0.000000 0.000000
# 3 -0.002482 -0.002850 0.011273 0.000000 0.000000 0.000000
# 4 0.000000 0.000000 0.000000 0.257195 0.000000 0.000000
# 5 0.000000 0.000000 0.000000 0.000000 0.112998 0.000000
# 6 0.000000 0.000000 0.000000 0.000000 0.000000 0.019658
#
#
# Mechanical properties :
#
#
# Convention : Reuss Voigt Hill
#
# Bulk Modulus (GPa) = 53.72799 53.87981 53.80390
# Shear Modulus (GPa) = 11.01468 25.43191 18.22330
#
# Velocity S-wave (km/s) = 2.24471 3.41085 2.88727
# Velocity P-wave (km/s) = 5.59432 6.33715 5.97728
#
# Compressibility (1/GPa) = 0.01861227
#
# Stress axis : x y z
#
# Youngs Moduli (GPa) = 79.01121 69.84181 88.70425
#
# Poissons Ratio (x) = 0.31326 0.22020
# Poissons Ratio (y) = 0.35438 0.25283
# Poissons Ratio (z) = 0.19614 0.19906
#
# Static dielectric constant tensor:
#      x y z
#    x 1.958180 0.000000 0.000000 
#    y 0.000000 1.904510 0.000000 
#    z 0.000000 0.000000 1.768140 
# 
# From -- ./inp_files/14802.got.cif
#   From: 2010.05.17/outbox.cif.g08.bks.cpg/sg54_8_cif.got.tgz:14802.got - 2010.06.03 13:09:01.
