data_PCOD9421082
_publ_section_title
;
Structure prediction by ZEFSAII (Michael W. Deem and Ramdas Pophale) SiO2 
 PCOD9421082
Probable space group: P C C A
;
_chemical_formula_sum "Si O2"
_cell_formula_units_Z 64
_cell_length_a 14.858497
_cell_length_b 11.405125
_cell_length_c 18.832488
_cell_angle_alpha 90.000000
_cell_angle_beta 90.000000
_cell_angle_gamma 90.000000
_cell_volume 3191.410208
_symmetry_space_group_name_H-M "P C C A"
_symmetry_group_IT_number 54
_symmetry_cell_setting 'orthorhombic'
loop_
_space_group_symop_operation_xyz
x,y,z
1/2-x,-y,z
1/2+x,-y,1/2-z
-x,y,1/2-z
-x,-y,-z
1/2+x,y,-z
1/2-x,y,1/2+z
x,-y,1/2+z
loop_
_atom_site_type_symbol
_atom_site_label
_atom_site_fract_x
_atom_site_fract_y
_atom_site_fract_z
Si Si1 0.439415 0.175813 0.399308
Si Si2 0.668483 0.086699 0.981500
Si Si3 0.722617 0.328937 0.782989
Si Si4 0.117109 0.066051 0.645895
Si Si5 0.905551 0.531952 0.285654
Si Si6 0.720144 0.279529 0.434525
Si Si7 0.454518 0.589923 0.554885
Si Si8 0.209012 0.115678 0.792662
O O1 0.413486 0.091593 0.464849
O O2 0.515045 0.106921 0.355226
O O3 0.480943 0.298538 0.427085
O O4 0.353408 0.183621 0.348269
O O5 0.709365 0.217228 0.985092
O O6 0.750000 0.000000 0.001151
O O7 0.637900 0.047453 0.902420
O O8 0.639739 0.410381 0.761304
O O9 0.823974 0.378440 0.769034
O O10 0.724993 0.333296 0.868902
O O11 0.720892 0.205144 0.743679
O O12 0.167890 0.171388 0.603813
O O13 0.154128 0.065370 0.724958
O O14 0.928462 0.533446 0.369254
O O15 0.000000 0.561633 0.250000
O O16 0.643191 0.358815 0.469238
O O17 0.500000 0.500000 0.500000
O O18 0.250000 0.000000 0.828140
#
# Coordination Sequence:
#
# PCOD9421082 Si02
#       8
#     8   8   8   8   8   8   8   8
#     4  11  22  35  58  89 123 158 199 263 313 362
#     4  10  19  35  57  85 120 161 193 241 307 376
#     4   9  19  36  62  85 113 163 207 249 310 377
#     4   9  18  35  59  85 113 160 206 234 291 379
#     4  10  20  38  63  85 117 159 213 265 305 366
#     4   8  17  34  57  79 109 152 204 244 291 370
#     4  10  22  39  57  88 117 162 212 261 310 372
#     4  11  21  38  60  90 124 153 204 250 314 379
#
# _framework density 20.053832
#
# number of rings (size 3 to 8) (size 9 to 14) (size 15 to 20)
#    0.000    2.250    0.000    4.500    1.750    0.000 
#    2.250    2.500    0.000    0.000    0.000    0.000 
#    0.000    0.000    0.000    0.000    0.000    0.000 
#
# Total GULP energy -356634.202271 kJ/mol
# GULP energy per Si atom -5572.409410 kJ/mol
# Density = 2.000819 g / cm^3
# Si number density = 20.053832 Si / 1000 Ang^3
#
#
#
# Elastic Constant Matrix: (Units=GPa)
#
#
# Indices 1 2 3 4 5 6 
#
# 1 36.7594 17.8428 0.6933 0.0000 0.0000 0.0000
# 2 17.8428 76.6333 16.7524 0.0000 0.0000 0.0000
# 3 0.6933 16.7524 54.8715 0.0000 0.0000 0.0000
# 4 0.0000 0.0000 0.0000 20.8977 0.0000 0.0000
# 5 0.0000 0.0000 0.0000 0.0000 11.7722 0.0000
# 6 0.0000 0.0000 0.0000 0.0000 0.0000 30.5007
#
#
#
# Elastic Compliance Matrix: (Units=1/GPa)
#
#
# Indices 1 2 3 4 5 6 
#
# 1 0.030860 -0.007608 0.001933 0.000000 0.000000 0.000000
# 2 -0.007608 0.015858 -0.004745 0.000000 0.000000 0.000000
# 3 0.001933 -0.004745 0.019649 0.000000 0.000000 0.000000
# 4 0.000000 0.000000 0.000000 0.047852 0.000000 0.000000
# 5 0.000000 0.000000 0.000000 0.000000 0.084946 0.000000
# 6 0.000000 0.000000 0.000000 0.000000 0.000000 0.032786
#
#
# Mechanical properties :
#
#
# Convention : Reuss Voigt Hill
#
# Bulk Modulus (GPa) = 21.96541 26.53792 24.25167
# Shear Modulus (GPa) = 18.65898 21.49915 20.07907
#
# Velocity S-wave (km/s) = 3.05363 3.27780 3.16770
# Velocity P-wave (km/s) = 4.83837 5.25237 5.04962
#
# Compressibility (1/GPa) = 0.04552612
#
# Stress axis : x y z
#
# Youngs Moduli (GPa) = 32.40410 63.06025 50.89388
#
# Poissons Ratio (x) = 0.47975 -0.09837
# Poissons Ratio (y) = 0.24652 0.24151
# Poissons Ratio (z) = -0.06263 0.29924
#
# Static dielectric constant tensor:
#      x y z
#    x 1.740180 0.000000 0.000000 
#    y 0.000000 1.761740 0.000000 
#    z 0.000000 0.000000 1.714070 
# 
# From -- ./inp_files/18227.got.cif
#   From: 2010.05.17/outbox.cif.g08.bks.cpg/sg54_10_cif.got.tgz:18227.got - 2010.06.03 13:09:01.
