data_PCOD9421774
_publ_section_title
;
Structure prediction by ZEFSAII (Michael W. Deem and Ramdas Pophale) SiO2 
 PCOD9421774
Probable space group: P C C A
;
_chemical_formula_sum "Si O2"
_cell_formula_units_Z 56
_cell_length_a 18.467984
_cell_length_b 11.168832
_cell_length_c 12.425605
_cell_angle_alpha 90.000000
_cell_angle_beta 90.000000
_cell_angle_gamma 90.000000
_cell_volume 2562.977488
_symmetry_space_group_name_H-M "P C C A"
_symmetry_group_IT_number 54
_symmetry_cell_setting 'orthorhombic'
loop_
_space_group_symop_operation_xyz
x,y,z
1/2-x,-y,z
1/2+x,-y,1/2-z
-x,y,1/2-z
-x,-y,-z
1/2+x,y,-z
1/2-x,y,1/2+z
x,-y,1/2+z
loop_
_atom_site_type_symbol
_atom_site_label
_atom_site_fract_x
_atom_site_fract_y
_atom_site_fract_z
Si Si1 0.043117 0.585805 0.859652
Si Si2 0.929010 0.649841 0.041867
Si Si3 0.648270 0.756352 0.006538
Si Si4 0.072249 0.082278 0.191022
Si Si5 0.687895 0.785937 0.455194
Si Si6 0.171536 0.003691 0.868523
Si Si7 0.478626 0.846196 0.627348
O O1 0.064890 0.445793 0.863384
O O2 0.112239 0.662115 0.907061
O O3 0.000000 0.612099 0.750000
O O4 0.980901 0.606139 0.947753
O O5 0.956168 0.784321 0.064335
O O6 0.848666 0.666274 0.000543
O O7 0.652834 0.880518 0.071759
O O8 0.727261 0.751827 0.949651
O O9 0.590102 0.770687 0.911909
O O10 0.134866 0.168113 0.142661
O O11 0.112131 0.993800 0.275808
O O12 0.000000 0.134452 0.250000
O O13 0.039399 0.985565 0.107891
O O14 0.681804 0.893317 0.542796
O O15 0.250000 0.000000 0.812208
O O16 0.500000 0.826875 0.750000
#
# Coordination Sequence:
#
# PCOD9421774 Si02
#       7
#     8   8   8   8   8   8   8
#     4  10  23  44  69  92 125 171 229 282 341 407
#     4  10  23  41  64  94 128 168 218 282 341 389
#     4  10  23  41  64  93 134 176 221 285 351 407
#     4  11  24  34  63  97 130 184 230 272 337 420
#     4  11  23  41  63  94 140 173 218 287 341 411
#     4  10  23  38  57  92 133 173 220 269 344 407
#     4  10  20  38  62  92 130 176 225 274 336 410
#
# _framework density 21.849587
#
# number of rings (size 3 to 8) (size 9 to 14) (size 15 to 20)
#    0.000    1.714    1.429    2.143    8.000    1.714 
#    0.000    0.000    0.000    5.143    0.000    0.000 
#    0.000    0.000    0.000    0.000    0.000    0.000 
#
# Total GULP energy -311820.003366 kJ/mol
# GULP energy per Si atom -5568.214346 kJ/mol
# Density = 2.179986 g / cm^3
# Si number density = 21.849587 Si / 1000 Ang^3
#
#
#
# Elastic Constant Matrix: (Units=GPa)
#
#
# Indices 1 2 3 4 5 6 
#
# 1 182.5617 30.8126 49.1870 0.0000 0.0000 0.0000
# 2 30.8126 73.5127 15.9679 0.0000 0.0000 0.0000
# 3 49.1870 15.9679 77.0279 0.0000 0.0000 0.0000
# 4 0.0000 0.0000 0.0000 17.8073 0.0000 0.0000
# 5 0.0000 0.0000 0.0000 0.0000 38.0807 0.0000
# 6 0.0000 0.0000 0.0000 0.0000 0.0000 5.7568
#
#
#
# Elastic Compliance Matrix: (Units=1/GPa)
#
#
# Indices 1 2 3 4 5 6 
#
# 1 0.006892 -0.002024 -0.003981 0.000000 0.000000 0.000000
# 2 -0.002024 0.014839 -0.001784 0.000000 0.000000 0.000000
# 3 -0.003981 -0.001784 0.015894 0.000000 0.000000 0.000000
# 4 0.000000 0.000000 0.000000 0.056157 0.000000 0.000000
# 5 0.000000 0.000000 0.000000 0.000000 0.026260 0.000000
# 6 0.000000 0.000000 0.000000 0.000000 0.000000 0.173708
#
#
# Mechanical properties :
#
#
# Convention : Reuss Voigt Hill
#
# Bulk Modulus (GPa) = 45.35717 58.33747 51.84732
# Shear Modulus (GPa) = 15.78898 28.13795 21.96347
#
# Velocity S-wave (km/s) = 2.69108 3.59249 3.17395
# Velocity P-wave (km/s) = 5.51904 6.63065 6.10022
#
# Compressibility (1/GPa) = 0.02204723
#
# Stress axis : x y z
#
# Youngs Moduli (GPa) = 145.09859 67.39068 62.91535
#
# Poissons Ratio (x) = 0.13639 0.25049
# Poissons Ratio (y) = 0.29367 0.11222
# Poissons Ratio (z) = 0.57768 0.12020
#
# Static dielectric constant tensor:
#      x y z
#    x 1.838060 0.000000 0.000000 
#    y 0.000000 1.869030 0.000000 
#    z 0.000000 0.000000 1.856850 
# 
# From -- ./inp_files/9532.got.cif
#   From: 2010.05.17/outbox.cif.g08.bks.cpg/sg54_5_cif.got.tgz:9532.got - 2010.06.03 13:09:01.
