data_PCOD9421129
_publ_section_title
;
Structure prediction by ZEFSAII (Michael W. Deem and Ramdas Pophale) SiO2 
 PCOD9421129
Probable space group: P C C A
;
_chemical_formula_sum "Si O2"
_cell_formula_units_Z 64
_cell_length_a 23.093323
_cell_length_b 7.634684
_cell_length_c 13.922881
_cell_angle_alpha 90.000000
_cell_angle_beta 90.000000
_cell_angle_gamma 90.000000
_cell_volume 2454.746262
_symmetry_space_group_name_H-M "P C C A"
_symmetry_group_IT_number 54
_symmetry_cell_setting 'orthorhombic'
loop_
_space_group_symop_operation_xyz
x,y,z
1/2-x,-y,z
1/2+x,-y,1/2-z
-x,y,1/2-z
-x,-y,-z
1/2+x,y,-z
1/2-x,y,1/2+z
x,-y,1/2+z
loop_
_atom_site_type_symbol
_atom_site_label
_atom_site_fract_x
_atom_site_fract_y
_atom_site_fract_z
Si Si1 0.292130 0.634857 0.980468
Si Si2 0.064022 0.265499 0.772897
Si Si3 0.912390 0.152468 0.037222
Si Si4 0.084827 0.261064 0.973652
Si Si5 0.478578 0.676257 0.152172
Si Si6 0.850315 0.371042 0.868417
Si Si7 0.763250 0.805208 0.839560
Si Si8 0.619589 0.886799 0.241466
O O1 0.250000 0.500000 0.926543
O O2 0.319698 0.513896 0.064660
O O3 0.262030 0.784001 0.044248
O O4 0.349221 0.715698 0.937681
O O5 0.052387 0.329293 0.880947
O O6 0.099743 0.403532 0.709443
O O7 0.000000 0.199365 0.750000
O O8 0.106255 0.094817 0.762615
O O9 0.870918 0.162268 0.130116
O O10 0.969147 0.243865 0.085523
O O11 0.924923 0.947519 0.013244
O O12 0.882238 0.239289 0.944791
O O13 0.064464 0.373730 0.064179
O O14 0.500000 0.576461 0.250000
O O15 0.438659 0.817736 0.207871
O O16 0.792678 0.306106 0.810606
O O17 0.828417 0.795521 0.799980
O O18 0.750000 0.000000 0.809421
#
# Coordination Sequence:
#
# PCOD9421129 Si02
#       8
#     8   8   8   8   8   8   8   8
#     4  10  24  44  64  90 131 178 223 272 337 405
#     4  11  22  39  66  97 137 174 219 275 336 399
#     4  10  21  37  66 101 135 169 216 275 332 398
#     4  11  20  39  65  97 130 170 227 270 324 391
#     4  10  19  35  65 104 138 168 210 274 335 393
#     4  11  23  43  62  95 135 182 217 270 340 397
#     4  11  20  41  70  92 126 165 220 285 331 393
#     4  10  19  37  65 104 129 164 222 276 334 388
#
# _framework density 26.071940999999999
#
# number of rings (size 3 to 8) (size 9 to 14) (size 15 to 20)
#    0.000    1.500    2.500    4.500    0.000    0.000 
#    6.750    4.375    0.000    0.000    0.000    0.000 
#    0.000    0.000    0.000    0.000    0.000    0.000 
#
# Total GULP energy -356616.525547 kJ/mol
# GULP energy per Si atom -5572.133212 kJ/mol
# Density = 2.601260 g / cm^3
# Si number density = 26.071941 Si / 1000 Ang^3
#
#
#
# Elastic Constant Matrix: (Units=GPa)
#
#
# Indices 1 2 3 4 5 6 
#
# 1 148.9789 15.2957 15.8444 0.0000 0.0000 0.0000
# 2 15.2957 66.1470 17.7541 0.0000 0.0000 0.0000
# 3 15.8444 17.7541 112.9877 0.0000 0.0000 0.0000
# 4 0.0000 0.0000 0.0000 -17.6512 0.0000 0.0000
# 5 0.0000 0.0000 0.0000 0.0000 38.5444 0.0000
# 6 0.0000 0.0000 0.0000 0.0000 0.0000 27.5916
#
#
#
# Elastic Compliance Matrix: (Units=1/GPa)
#
#
# Indices 1 2 3 4 5 6 
#
# 1 0.006936 -0.001402 -0.000752 0.000000 0.000000 0.000000
# 2 -0.001402 0.016067 -0.002328 0.000000 0.000000 0.000000
# 3 -0.000752 -0.002328 0.009322 0.000000 0.000000 0.000000
# 4 0.000000 0.000000 0.000000 -0.056653 0.000000 0.000000
# 5 0.000000 0.000000 0.000000 0.000000 0.025944 0.000000
# 6 0.000000 0.000000 0.000000 0.000000 0.000000 0.036243
#
#
# Mechanical properties :
#
#
# Convention : Reuss Voigt Hill
#
# Bulk Modulus (GPa) = 42.80781 47.32243 45.06512
# Shear Modulus (GPa) = 91.55782 28.31159 59.93470
#
# Velocity S-wave (km/s) = 5.93242 3.29888 4.79980
# Velocity P-wave (km/s) = 7.96113 5.71841 6.93108
#
# Compressibility (1/GPa) = 0.02336022
#
# Stress axis : x y z
#
# Youngs Moduli (GPa) = 144.16861 62.23977 107.27497
#
# Poissons Ratio (x) = 0.08726 0.08071
# Poissons Ratio (y) = 0.20212 0.24974
# Poissons Ratio (z) = 0.10847 0.14490
#
# Static dielectric constant tensor:
#      x y z
#    x 2.878090 0.000000 0.000000 
#    y 0.000000 2.170400 0.000000 
#    z 0.000000 0.000000 2.086300 
# 
# From -- ./inp_files/14994.got.cif
#   From: 2010.05.17/outbox.cif.g08.bks.cpg/sg54_8_cif.got.tgz:14994.got - 2010.06.03 13:09:01.
