data_PCOD9421019
_publ_section_title
;
Structure prediction by ZEFSAII (Michael W. Deem and Ramdas Pophale) SiO2 
 PCOD9421019
Probable space group: P C C A
;
_chemical_formula_sum "Si O2"
_cell_formula_units_Z 44
_cell_length_a 5.127289
_cell_length_b 15.599871
_cell_length_c 28.560942
_cell_angle_alpha 90.000000
_cell_angle_beta 90.000000
_cell_angle_gamma 90.000000
_cell_volume 2284.448288
_symmetry_space_group_name_H-M "P C C A"
_symmetry_group_IT_number 54
_symmetry_cell_setting 'orthorhombic'
loop_
_space_group_symop_operation_xyz
x,y,z
1/2-x,-y,z
1/2+x,-y,1/2-z
-x,y,1/2-z
-x,-y,-z
1/2+x,y,-z
1/2-x,y,1/2+z
x,-y,1/2+z
loop_
_atom_site_type_symbol
_atom_site_label
_atom_site_fract_x
_atom_site_fract_y
_atom_site_fract_z
Si Si1 0.788044 0.252525 0.895635
Si Si2 0.301456 0.772848 0.336065
Si Si3 0.112382 0.079083 0.200503
Si Si4 0.217148 0.402032 0.030838
Si Si5 0.245316 0.899949 0.032575
Si Si6 0.000000 0.789848 0.250000
O O1 0.563519 0.267114 0.857000
O O2 0.782355 0.332077 0.930638
O O3 0.726124 0.166446 0.925095
O O4 0.068287 0.239724 0.872153
O O5 0.386072 0.872005 0.326985
O O6 0.195020 0.742262 0.285396
O O7 0.322403 0.150343 0.216500
O O8 0.000000 0.045822 0.250000
O O9 0.250000 0.000000 0.175622
O O10 0.250000 0.500000 0.047688
O O11 0.425722 0.390993 0.988864
O O12 0.250000 0.000000 0.047170
O O13 0.476172 0.885222 0.995202
#
# Coordination Sequence:
#
# PCOD9421019 Si02
#       6
#     8   8   8   8   8   4
#     4  12  22  38  57  90 118 151 198 250 294 348
#     4  11  24  36  55  82 118 152 200 243 305 352
#     4  10  19  34  55  75 107 155 204 255 309 354
#     4  10  21  39  66  96 125 155 187 236 309 379
#     4  10  21  38  55  73 108 157 196 228 277 337
#     4  10  20  42  52  78 114 156 204 248 308 370
#
# _framework density 19.260667000000002
#
# number of rings (size 3 to 8) (size 9 to 14) (size 15 to 20)
#    0.000    1.455    2.727    3.273    0.000    0.727 
#    3.273    0.000    0.000    0.000    0.000    2.545 
#    2.727    0.000    0.000    0.000    0.000    0.000 
#
# Total GULP energy -245726.635224 kJ/mol
# GULP energy per Si atom -5584.696255 kJ/mol
# Density = 1.921683 g / cm^3
# Si number density = 19.260667 Si / 1000 Ang^3
#
#
#
# Elastic Constant Matrix: (Units=GPa)
#
#
# Indices 1 2 3 4 5 6 
#
# 1 94.7533 24.5899 18.9410 0.0000 0.0000 0.0000
# 2 24.5899 72.4396 45.4244 0.0000 0.0000 0.0000
# 3 18.9410 45.4244 49.1651 0.0000 0.0000 0.0000
# 4 0.0000 0.0000 0.0000 1.8928 0.0000 0.0000
# 5 0.0000 0.0000 0.0000 0.0000 20.7407 0.0000
# 6 0.0000 0.0000 0.0000 0.0000 0.0000 17.0789
#
#
#
# Elastic Compliance Matrix: (Units=1/GPa)
#
#
# Indices 1 2 3 4 5 6 
#
# 1 0.011654 -0.002712 -0.001984 0.000000 0.000000 0.000000
# 2 -0.002712 0.033449 -0.029859 0.000000 0.000000 0.000000
# 3 -0.001984 -0.029859 0.048691 0.000000 0.000000 0.000000
# 4 0.000000 0.000000 0.000000 0.528315 0.000000 0.000000
# 5 0.000000 0.000000 0.000000 0.000000 0.048214 0.000000
# 6 0.000000 0.000000 0.000000 0.000000 0.000000 0.058552
#
#
# Mechanical properties :
#
#
# Convention : Reuss Voigt Hill
#
# Bulk Modulus (GPa) = 40.51232 43.80763 42.15997
# Shear Modulus (GPa) = 6.20183 16.43599 11.31891
#
# Velocity S-wave (km/s) = 1.79637 2.92438 2.42682
# Velocity P-wave (km/s) = 5.03805 5.84779 5.45796
#
# Compressibility (1/GPa) = 0.02468385
#
# Stress axis : x y z
#
# Youngs Moduli (GPa) = 85.80656 29.89645 20.53748
#
# Poissons Ratio (x) = 0.08107 0.04075
# Poissons Ratio (y) = 0.23268 0.61323
# Poissons Ratio (z) = 0.17028 0.89268
#
# Static dielectric constant tensor:
#      x y z
#    x 1.718640 0.000000 0.000000 
#    y 0.000000 1.652230 0.000000 
#    z 0.000000 0.000000 1.700810 
# 
# From -- ./inp_files/25324.got.cif
#   From: 2010.05.17/outbox.cif.g08.bks.cpg/sg54_13_cif.got.tgz:25324.got - 2010.06.03 13:09:01.
