data_PCOD9421006
_publ_section_title
;
Structure prediction by ZEFSAII (Michael W. Deem and Ramdas Pophale) SiO2 
 PCOD9421006
Probable space group: P C C A
;
_chemical_formula_sum "Si O2"
_cell_formula_units_Z 48
_cell_length_a 5.191431
_cell_length_b 17.796956
_cell_length_c 33.352196
_cell_angle_alpha 90.000000
_cell_angle_beta 90.000000
_cell_angle_gamma 90.000000
_cell_volume 3081.465056
_symmetry_space_group_name_H-M "P C C A"
_symmetry_group_IT_number 54
_symmetry_cell_setting 'orthorhombic'
loop_
_space_group_symop_operation_xyz
x,y,z
1/2-x,-y,z
1/2+x,-y,1/2-z
-x,y,1/2-z
-x,-y,-z
1/2+x,y,-z
1/2-x,y,1/2+z
x,-y,1/2+z
loop_
_atom_site_type_symbol
_atom_site_label
_atom_site_fract_x
_atom_site_fract_y
_atom_site_fract_z
Si Si1 0.265491 0.411154 0.526531
Si Si2 0.250000 0.000000 0.777947
Si Si3 0.252606 0.346184 0.611877
Si Si4 0.249432 0.833512 0.278810
Si Si5 0.227029 0.700394 0.841935
Si Si6 0.858120 0.424931 0.713963
Si Si7 0.750000 0.500000 0.347714
O O1 0.250000 0.500000 0.538177
O O2 0.542253 0.399228 0.506218
O O3 0.223806 0.356907 0.564437
O O4 0.253826 0.082145 0.797765
O O5 0.500000 0.999312 0.750000
O O6 0.485964 0.295475 0.628143
O O7 0.337499 0.430396 0.625570
O O8 0.987669 0.320746 0.633645
O O9 0.500000 0.824065 0.250000
O O10 0.241975 0.773058 0.314217
O O11 0.000000 0.826647 0.250000
O O12 0.178604 0.632632 0.809610
O O13 0.750000 0.500000 0.734365
O O14 0.000000 0.382135 0.750000
O O15 0.037193 0.462285 0.680354
#
# Coordination Sequence:
#
# PCOD9421006 Si02
#       7
#     8   4   8   8   8   8   4
#     4  10  20  34  53  72  87 115 156 203 245 291
#     4   8  16  30  52  72  92 124 160 204 246 278
#     4  11  21  35  49  67  94 120 154 197 243 293
#     4  10  19  34  51  72  98 128 169 205 238 284
#     4  11  23  32  48  68  93 129 156 201 245 276
#     4  11  20  30  41  55  81 121 167 202 224 260
#     4  10  20  32  42  58  82 120 158 198 238 266
#
# _framework density 15.577006000000001
#
# number of rings (size 3 to 8) (size 9 to 14) (size 15 to 20)
#    0.000    1.667    3.333    2.500    0.000    2.000 
#    0.000    0.000    0.000    0.000    0.000    0.000 
#    0.000    0.000    0.000   15.000    0.000    0.000 
#
# Total GULP energy -267341.139769 kJ/mol
# GULP energy per Si atom -5569.607079 kJ/mol
# Density = 1.554155 g / cm^3
# Si number density = 15.577006 Si / 1000 Ang^3
#
#
#
# Elastic Constant Matrix: (Units=GPa)
#
#
# Indices 1 2 3 4 5 6 
#
# 1 77.0906 7.9626 12.6054 0.0000 0.0000 0.0000
# 2 7.9626 86.3851 29.4959 0.0000 0.0000 0.0000
# 3 12.6054 29.4959 63.9330 0.0000 0.0000 0.0000
# 4 0.0000 0.0000 0.0000 -19.6295 0.0000 0.0000
# 5 0.0000 0.0000 0.0000 0.0000 15.1836 0.0000
# 6 0.0000 0.0000 0.0000 0.0000 0.0000 13.7961
#
#
#
# Elastic Compliance Matrix: (Units=1/GPa)
#
#
# Indices 1 2 3 4 5 6 
#
# 1 0.013415 -0.000396 -0.002462 0.000000 0.000000 0.000000
# 2 -0.000396 0.013752 -0.006267 0.000000 0.000000 0.000000
# 3 -0.002462 -0.006267 0.019018 0.000000 0.000000 0.000000
# 4 0.000000 0.000000 0.000000 -0.050944 0.000000 0.000000
# 5 0.000000 0.000000 0.000000 0.000000 0.065861 0.000000
# 6 0.000000 0.000000 0.000000 0.000000 0.000000 0.072484
#
#
# Mechanical properties :
#
#
# Convention : Reuss Voigt Hill
#
# Bulk Modulus (GPa) = 35.79631 36.39294 36.09462
# Shear Modulus (GPa) = 31.02723 13.69300 22.36012
#
# Velocity S-wave (km/s) = 4.46787 2.96810 3.79285
# Velocity P-wave (km/s) = 7.04599 5.92960 6.51176
#
# Compressibility (1/GPa) = 0.02793584
#
# Stress axis : x y z
#
# Youngs Moduli (GPa) = 74.54189 72.71518 52.58163
#
# Poissons Ratio (x) = 0.02878 0.12948
# Poissons Ratio (y) = 0.02950 0.32951
# Poissons Ratio (z) = 0.18356 0.45568
#
# Static dielectric constant tensor:
#      x y z
#    x 1.578790 0.000000 0.000000 
#    y 0.000000 1.540320 0.000000 
#    z 0.000000 0.000000 1.515410 
# 
# From -- ./inp_files/27172.got.cif
#   From: 2010.05.17/outbox.cif.g08.bks.cpg/sg54_14_cif.got.tgz:27172.got - 2010.06.03 13:09:01.
