data_PCOD9421890
_publ_section_title
;
Structure prediction by ZEFSAII (Michael W. Deem and Ramdas Pophale) SiO2 
 PCOD9421890
Probable space group: P C C A
;
_chemical_formula_sum "Si O2"
_cell_formula_units_Z 40
_cell_length_a 8.154941
_cell_length_b 7.925796
_cell_length_c 27.992600
_cell_angle_alpha 90.000000
_cell_angle_beta 90.000000
_cell_angle_gamma 90.000000
_cell_volume 1809.284871
_symmetry_space_group_name_H-M "P C C A"
_symmetry_group_IT_number 54
_symmetry_cell_setting 'orthorhombic'
loop_
_space_group_symop_operation_xyz
x,y,z
1/2-x,-y,z
1/2+x,-y,1/2-z
-x,y,1/2-z
-x,-y,-z
1/2+x,y,-z
1/2-x,y,1/2+z
x,-y,1/2+z
loop_
_atom_site_type_symbol
_atom_site_label
_atom_site_fract_x
_atom_site_fract_y
_atom_site_fract_z
Si Si1 0.052762 0.181910 0.128665
Si Si2 0.550284 0.795195 0.869531
Si Si3 0.895722 0.609610 0.462444
Si Si4 0.888031 0.118512 0.033185
Si Si5 0.052322 0.490205 0.195416
O O1 0.250582 0.191145 0.128788
O O2 0.996459 0.327581 0.164735
O O3 0.985541 0.208700 0.075334
O O4 0.999581 0.988479 0.139403
O O5 0.508498 0.707404 0.920509
O O6 0.494308 0.663528 0.829452
O O7 0.750000 0.500000 0.439848
O O8 0.812789 0.749203 0.496341
O O9 0.000000 0.500000 0.500000
O O10 0.750000 0.000000 0.054762
O O11 0.000000 0.000000 0.000000
O O12 0.250000 0.500000 0.193519
O O13 0.000000 0.476768 0.250000
#
# Coordination Sequence:
#
# PCOD9421890 Si02
#       5
#     8   8   8   8   8
#     4  10  21  40  64  89 122 168 211 258 313 381
#     4  10  20  39  66  86 120 168 211 253 315 379
#     4  12  23  36  58  89 124 168 212 253 307 373
#     4  12  23  39  60  91 131 170 212 261 315 374
#     4  10  22  43  65  92 122 160 208 266 325 384
#
# _framework density 22.108180999999998
#
# number of rings (size 3 to 8) (size 9 to 14) (size 15 to 20)
#    0.000    1.200    2.000    6.600    0.000    0.800 
#    3.600    1.000    0.000    0.000    0.000    0.000 
#    0.000    0.000    0.000    0.000    0.000    0.000 
#
# Total GULP energy -223572.532550 kJ/mol
# GULP energy per Si atom -5589.313314 kJ/mol
# Density = 2.205786 g / cm^3
# Si number density = 22.108181 Si / 1000 Ang^3
#
#
#
# Elastic Constant Matrix: (Units=GPa)
#
#
# Indices 1 2 3 4 5 6 
#
# 1 29.1134 21.3790 13.6284 0.0000 0.0000 0.0000
# 2 21.3790 180.7518 93.9012 0.0000 0.0000 0.0000
# 3 13.6284 93.9012 172.0266 0.0000 0.0000 0.0000
# 4 0.0000 0.0000 0.0000 38.0709 0.0000 0.0000
# 5 0.0000 0.0000 0.0000 0.0000 31.7630 0.0000
# 6 0.0000 0.0000 0.0000 0.0000 0.0000 26.6914
#
#
#
# Elastic Compliance Matrix: (Units=1/GPa)
#
#
# Indices 1 2 3 4 5 6 
#
# 1 0.037689 -0.004057 -0.000771 0.000000 0.000000 0.000000
# 2 -0.004057 0.008159 -0.004132 0.000000 0.000000 0.000000
# 3 -0.000771 -0.004132 0.008130 0.000000 0.000000 0.000000
# 4 0.000000 0.000000 0.000000 0.026267 0.000000 0.000000
# 5 0.000000 0.000000 0.000000 0.000000 0.031483 0.000000
# 6 0.000000 0.000000 0.000000 0.000000 0.000000 0.037465
#
#
# Mechanical properties :
#
#
# Convention : Reuss Voigt Hill
#
# Bulk Modulus (GPa) = 27.73427 71.07876 49.40652
# Shear Modulus (GPa) = 27.91229 36.17062 32.04145
#
# Velocity S-wave (km/s) = 3.55707 4.04923 3.81110
# Velocity P-wave (km/s) = 5.42608 7.35404 6.46236
#
# Compressibility (1/GPa) = 0.03605647
#
# Stress axis : x y z
#
# Youngs Moduli (GPa) = 26.53308 122.56390 123.00535
#
# Poissons Ratio (x) = 0.49726 0.09486
# Poissons Ratio (y) = 0.10765 0.50828
# Poissons Ratio (z) = 0.02046 0.50646
#
# Static dielectric constant tensor:
#      x y z
#    x 1.835160 0.000000 0.000000 
#    y 0.000000 1.875900 0.000000 
#    z 0.000000 0.000000 1.761840 
# 
# From -- ./inp_files/25731.got.cif
#   From: 2010.05.17/outbox.cif.g08.bks.cpg/sg54_13_cif.got.tgz:25731.got - 2010.06.03 13:09:01.
