data_PCOD9421992
_publ_section_title
;
Structure prediction by ZEFSAII (Michael W. Deem and Ramdas Pophale) SiO2 
 PCOD9421992
Probable space group: P C C A
;
_chemical_formula_sum "Si O2"
_cell_formula_units_Z 48
_cell_length_a 7.996699
_cell_length_b 11.221382
_cell_length_c 29.474491
_cell_angle_alpha 90.000000
_cell_angle_beta 90.000000
_cell_angle_gamma 90.000000
_cell_volume 2644.864394
_symmetry_space_group_name_H-M "P C C A"
_symmetry_group_IT_number 54
_symmetry_cell_setting 'orthorhombic'
loop_
_space_group_symop_operation_xyz
x,y,z
1/2-x,-y,z
1/2+x,-y,1/2-z
-x,y,1/2-z
-x,-y,-z
1/2+x,y,-z
1/2-x,y,1/2+z
x,-y,1/2+z
loop_
_atom_site_type_symbol
_atom_site_label
_atom_site_fract_x
_atom_site_fract_y
_atom_site_fract_z
Si Si1 0.554699 0.794485 0.382012
Si Si2 0.261304 0.635659 0.861653
Si Si3 0.245524 0.131832 0.699438
Si Si4 0.077277 0.786238 0.114251
Si Si5 0.800351 0.367595 0.245443
Si Si6 0.950141 0.005908 0.552385
O O1 0.396828 0.709326 0.379802
O O2 0.588303 0.848992 0.331691
O O3 0.735377 0.735542 0.392613
O O4 0.525933 0.897640 0.418449
O O5 0.250000 0.500000 0.876556
O O6 0.433994 0.691711 0.877863
O O7 0.253132 0.637827 0.806908
O O8 0.229009 0.250078 0.729714
O O9 0.101707 0.137719 0.660832
O O10 0.250000 0.000000 0.720869
O O11 0.023360 0.874563 0.074605
O O12 0.750000 0.500000 0.263505
O O13 0.000000 0.360524 0.250000
O O14 0.750000 0.000000 0.557046
O O15 0.000000 0.000000 0.500000
#
# Coordination Sequence:
#
# PCOD9421992 Si02
#       6
#     8   8   8   8   8   8
#     4  10  20  41  60  89 128 158 203 260 318 380
#     4  11  24  40  60  89 122 173 225 258 308 376
#     4  10  21  39  59  85 127 165 207 269 323 363
#     4  10  21  39  62  88 125 162 202 256 326 373
#     4  11  24  40  58  87 123 170 227 268 311 377
#     4  12  22  38  69 101 127 157 197 253 319 393
#
# _framework density 18.148378999999998
#
# number of rings (size 3 to 8) (size 9 to 14) (size 15 to 20)
#    1.000    0.333    5.000    1.500    4.667    0.667 
#    6.000    0.000    0.000    1.000    0.000    0.000 
#    0.000    0.000    0.000    0.000    0.000    0.000 
#
# Total GULP energy -267560.730451 kJ/mol
# GULP energy per Si atom -5574.181884 kJ/mol
# Density = 1.810707 g / cm^3
# Si number density = 18.148379 Si / 1000 Ang^3
#
#
#
# Elastic Constant Matrix: (Units=GPa)
#
#
# Indices 1 2 3 4 5 6 
#
# 1 100.7535 18.6233 3.8505 0.0000 0.0000 0.0000
# 2 18.6233 110.2694 34.1223 0.0000 0.0000 0.0000
# 3 3.8505 34.1223 62.3985 0.0000 0.0000 0.0000
# 4 0.0000 0.0000 0.0000 -149.7092 0.0000 0.0000
# 5 0.0000 0.0000 0.0000 0.0000 16.2905 0.0000
# 6 0.0000 0.0000 0.0000 0.0000 0.0000 7.7837
#
#
#
# Elastic Compliance Matrix: (Units=1/GPa)
#
#
# Indices 1 2 3 4 5 6 
#
# 1 0.010252 -0.001849 0.000378 0.000000 0.000000 0.000000
# 2 -0.001849 0.011249 -0.006037 0.000000 0.000000 0.000000
# 3 0.000378 -0.006037 0.019304 0.000000 0.000000 0.000000
# 4 0.000000 0.000000 0.000000 -0.006680 0.000000 0.000000
# 5 0.000000 0.000000 0.000000 0.000000 0.061385 0.000000
# 6 0.000000 0.000000 0.000000 0.000000 0.000000 0.128474
#
#
# Mechanical properties :
#
#
# Convention : Reuss Voigt Hill
#
# Bulk Modulus (GPa) = 38.77441 42.95709 40.86575
# Shear Modulus (GPa) = 20.19404 -10.67198 4.76103
#
# Velocity S-wave (km/s) = 3.33936 -2.42759 1.62145
# Velocity P-wave (km/s) = 6.02329 3.98293 5.10607
#
# Compressibility (1/GPa) = 0.02579020
#
# Stress axis : x y z
#
# Youngs Moduli (GPa) = 97.53772 88.89543 51.80201
#
# Poissons Ratio (x) = 0.16433 -0.01959
# Poissons Ratio (y) = 0.18030 0.31275
# Poissons Ratio (z) = -0.03689 0.53671
#
# Static dielectric constant tensor:
#      x y z
#    x 1.642750 0.000000 0.000000 
#    y 0.000000 1.620370 0.000000 
#    z 0.000000 0.000000 1.613930 
# 
# From -- ./inp_files/27774.got.cif
#   From: 2010.05.17/outbox.cif.g08.bks.cpg/sg54_14_cif.got.tgz:27774.got - 2010.06.03 13:09:01.
