data_PCOD9421523
_publ_section_title
;
Structure prediction by ZEFSAII (Michael W. Deem and Ramdas Pophale) SiO2 
 PCOD9421523
Probable space group: P C C A
;
_chemical_formula_sum "Si O2"
_cell_formula_units_Z 48
_cell_length_a 29.102755
_cell_length_b 7.632448
_cell_length_c 9.264193
_cell_angle_alpha 90.000000
_cell_angle_beta 90.000000
_cell_angle_gamma 90.000000
_cell_volume 2057.811318
_symmetry_space_group_name_H-M "P C C A"
_symmetry_group_IT_number 54
_symmetry_cell_setting 'orthorhombic'
loop_
_space_group_symop_operation_xyz
x,y,z
1/2-x,-y,z
1/2+x,-y,1/2-z
-x,y,1/2-z
-x,-y,-z
1/2+x,y,-z
1/2-x,y,1/2+z
x,-y,1/2+z
loop_
_atom_site_type_symbol
_atom_site_label
_atom_site_fract_x
_atom_site_fract_y
_atom_site_fract_z
Si Si1 0.298793 0.486316 0.019598
Si Si2 0.053297 0.980865 0.041578
Si Si3 0.648494 0.030796 0.070171
Si Si4 0.793433 0.129117 0.810660
Si Si5 0.948939 0.755866 0.709231
Si Si6 0.646229 0.334874 0.736161
O O1 0.250000 0.500000 0.939621
O O2 0.285803 0.317883 0.119531
O O3 0.321206 0.625947 0.128752
O O4 0.336380 0.442600 0.900455
O O5 0.054451 0.055275 0.204817
O O6 0.096804 0.083827 0.971374
O O7 0.060248 0.792054 0.961858
O O8 0.000000 0.000000 0.000000
O O9 0.648114 0.863694 0.177861
O O10 0.680443 0.160068 0.159965
O O11 0.673724 0.962753 0.928335
O O12 0.750000 0.000000 0.788546
O O13 0.907708 0.635765 0.766011
O O14 0.000000 0.691760 0.750000
#
# Coordination Sequence:
#
# PCOD9421523 Si02
#       6
#     8   8   8   8   8   8
#     4  11  24  40  58  81 114 157 200 238 287 350
#     4   9  17  31  56  87 117 148 185 234 290 341
#     4  10  20  36  58  85 114 144 186 238 290 342
#     4  11  23  37  57  84 112 145 189 240 290 341
#     4   9  18  35  59  88 120 152 191 243 297 349
#     4  10  22  39  58  83 117 156 194 235 287 349
#
# _framework density 23.325752999999999
#
# number of rings (size 3 to 8) (size 9 to 14) (size 15 to 20)
#    0.000    2.000    0.000    4.000    0.000    6.667 
#    0.000    0.833    0.000    4.000    0.000    0.000 
#    0.000    0.000    0.000    0.000    0.000    0.000 
#
# Total GULP energy -267315.869496 kJ/mol
# GULP energy per Si atom -5569.080615 kJ/mol
# Density = 2.327266 g / cm^3
# Si number density = 23.325753 Si / 1000 Ang^3
#
#
#
# Elastic Constant Matrix: (Units=GPa)
#
#
# Indices 1 2 3 4 5 6 
#
# 1 197.4758 15.9770 42.7823 0.0000 0.0000 0.0000
# 2 15.9770 38.6863 4.6407 0.0000 0.0000 0.0000
# 3 42.7823 4.6407 94.9406 0.0000 0.0000 0.0000
# 4 0.0000 0.0000 0.0000 12.6215 0.0000 0.0000
# 5 0.0000 0.0000 0.0000 0.0000 42.1799 0.0000
# 6 0.0000 0.0000 0.0000 0.0000 0.0000 21.7528
#
#
#
# Elastic Compliance Matrix: (Units=1/GPa)
#
#
# Indices 1 2 3 4 5 6 
#
# 1 0.005774 -0.002085 -0.002500 0.000000 0.000000 0.000000
# 2 -0.002085 0.026754 -0.000368 0.000000 0.000000 0.000000
# 3 -0.002500 -0.000368 0.011678 0.000000 0.000000 0.000000
# 4 0.000000 0.000000 0.000000 0.079230 0.000000 0.000000
# 5 0.000000 0.000000 0.000000 0.000000 0.023708 0.000000
# 6 0.000000 0.000000 0.000000 0.000000 0.000000 0.045971
#
#
# Mechanical properties :
#
#
# Convention : Reuss Voigt Hill
#
# Bulk Modulus (GPa) = 29.15492 50.87807 40.01650
# Shear Modulus (GPa) = 23.31500 33.15768 28.23634
#
# Velocity S-wave (km/s) = 3.16498 3.77438 3.48303
# Velocity P-wave (km/s) = 5.08746 6.39170 5.77651
#
# Compressibility (1/GPa) = 0.03429952
#
# Stress axis : x y z
#
# Youngs Moduli (GPa) = 173.18363 37.37741 85.63475
#
# Poissons Ratio (x) = 0.07792 0.21409
# Poissons Ratio (y) = 0.36105 0.03154
# Poissons Ratio (z) = 0.43297 0.01377
#
# Static dielectric constant tensor:
#      x y z
#    x 2.025020 0.000000 0.000000 
#    y 0.000000 1.949010 0.000000 
#    z 0.000000 0.000000 1.965410 
# 
# From -- ./inp_files/5831.got.cif
#   From: 2010.05.17/outbox.cif.g08.bks.cpg/sg54_3_cif.got.tgz:5831.got - 2010.06.03 13:09:01.
