data_PCOD9421681
_publ_section_title
;
Structure prediction by ZEFSAII (Michael W. Deem and Ramdas Pophale) SiO2 
 PCOD9421681
Probable space group: P C C A
;
_chemical_formula_sum "Si O2"
_cell_formula_units_Z 32
_cell_length_a 16.806145
_cell_length_b 11.305316
_cell_length_c 7.540652
_cell_angle_alpha 90.000000
_cell_angle_beta 90.000000
_cell_angle_gamma 90.000000
_cell_volume 1432.714680
_symmetry_space_group_name_H-M "P C C A"
_symmetry_group_IT_number 54
_symmetry_cell_setting 'orthorhombic'
loop_
_space_group_symop_operation_xyz
x,y,z
1/2-x,-y,z
1/2+x,-y,1/2-z
-x,y,1/2-z
-x,-y,-z
1/2+x,y,-z
1/2-x,y,1/2+z
x,-y,1/2+z
loop_
_atom_site_type_symbol
_atom_site_label
_atom_site_fract_x
_atom_site_fract_y
_atom_site_fract_z
Si Si1 0.695311 0.330388 0.637047
Si Si2 0.646721 0.418153 0.021778
Si Si3 0.412089 0.839606 0.548193
Si Si4 0.000000 0.363356 0.750000
Si Si5 0.500000 0.022341 0.750000
O O1 0.790890 0.342476 0.641054
O O2 0.673987 0.445472 0.517866
O O3 0.666417 0.207274 0.551695
O O4 0.654522 0.358512 0.827468
O O5 0.561729 0.424587 0.117544
O O6 0.448111 0.721593 0.627833
O O7 0.472950 0.892888 0.406020
O O8 0.423792 0.939424 0.700219
#
# Coordination Sequence:
#
# PCOD9421681 Si02
#       5
#     8   8   8   4   4
#     4  11  22  40  62  89 127 169 202 261 323 383
#     4  11  23  38  61  93 128 160 209 254 319 397
#     4  10  20  37  62  86 121 160 202 252 311 355
#     4  11  22  37  62  94 124 165 208 259 316 384
#     4   9  20  37  60  92 120 159 210 261 298 358
#
# _framework density 22.335221000000001
#
# number of rings (size 3 to 8) (size 9 to 14) (size 15 to 20)
#    0.000    1.500    0.000    7.500    0.000    5.000 
#    0.000    0.000    0.000   51.000    0.000    0.000 
#    0.000    0.000    0.000    0.000    0.000    0.000 
#
# Total GULP energy -178382.987138 kJ/mol
# GULP energy per Si atom -5574.468348 kJ/mol
# Density = 2.228438 g / cm^3
# Si number density = 22.335221 Si / 1000 Ang^3
#
#
#
# Elastic Constant Matrix: (Units=GPa)
#
#
# Indices 1 2 3 4 5 6 
#
# 1 90.7967 30.9371 31.6434 0.0000 0.0000 0.0000
# 2 30.9371 57.7624 24.7654 0.0000 0.0000 0.0000
# 3 31.6434 24.7654 102.5374 0.0000 0.0000 0.0000
# 4 0.0000 0.0000 0.0000 -39.3099 0.0000 0.0000
# 5 0.0000 0.0000 0.0000 0.0000 29.9164 0.0000
# 6 0.0000 0.0000 0.0000 0.0000 0.0000 24.2843
#
#
#
# Elastic Compliance Matrix: (Units=1/GPa)
#
#
# Indices 1 2 3 4 5 6 
#
# 1 0.014174 -0.006376 -0.002834 0.000000 0.000000 0.000000
# 2 -0.006376 0.022181 -0.003389 0.000000 0.000000 0.000000
# 3 -0.002834 -0.003389 0.011446 0.000000 0.000000 0.000000
# 4 0.000000 0.000000 0.000000 -0.025439 0.000000 0.000000
# 5 0.000000 0.000000 0.000000 0.000000 0.033426 0.000000
# 6 0.000000 0.000000 0.000000 0.000000 0.000000 0.041179
#
#
# Mechanical properties :
#
#
# Convention : Reuss Voigt Hill
#
# Bulk Modulus (GPa) = 44.24653 47.30981 45.77817
# Shear Modulus (GPa) = 38.55049 13.89486 26.22268
#
# Velocity S-wave (km/s) = 4.15902 2.49691 3.43016
# Velocity P-wave (km/s) = 6.55106 5.43511 6.01901
#
# Compressibility (1/GPa) = 0.02260064
#
# Stress axis : x y z
#
# Youngs Moduli (GPa) = 70.55210 45.08439 87.36851
#
# Poissons Ratio (x) = 0.28747 0.24761
# Poissons Ratio (y) = 0.44986 0.29613
# Poissons Ratio (z) = 0.19995 0.15281
#
# Static dielectric constant tensor:
#      x y z
#    x 1.934220 0.000000 0.000000 
#    y 0.000000 1.766530 0.000000 
#    z 0.000000 0.000000 2.006710 
# 
# From -- ./inp_files/3289.got.cif
#   From: 2010.05.17/outbox.cif.g08.bks.cpg/sg54_2_cif.got.tgz:3289.got - 2010.06.03 13:09:01.
