data_PCOD9421803
_publ_section_title
;
Structure prediction by ZEFSAII (Michael W. Deem and Ramdas Pophale) SiO2 
 PCOD9421803
Probable space group: P C C A
;
_chemical_formula_sum "Si O2"
_cell_formula_units_Z 60
_cell_length_a 5.150555
_cell_length_b 15.987641
_cell_length_c 28.578388
_cell_angle_alpha 90.000000
_cell_angle_beta 90.000000
_cell_angle_gamma 90.000000
_cell_volume 2353.293770
_symmetry_space_group_name_H-M "P C C A"
_symmetry_group_IT_number 54
_symmetry_cell_setting 'orthorhombic'
loop_
_space_group_symop_operation_xyz
x,y,z
1/2-x,-y,z
1/2+x,-y,1/2-z
-x,y,1/2-z
-x,-y,-z
1/2+x,y,-z
1/2-x,y,1/2+z
x,-y,1/2+z
loop_
_atom_site_type_symbol
_atom_site_label
_atom_site_fract_x
_atom_site_fract_y
_atom_site_fract_z
Si Si1 0.930207 0.879393 0.472823
Si Si2 0.545858 0.324229 0.472740
Si Si3 0.940732 0.258544 0.355591
Si Si4 0.262106 0.398941 0.278839
Si Si5 0.599607 0.929928 0.794122
Si Si6 0.082219 0.844329 0.376367
Si Si7 0.249542 0.599379 0.385079
Si Si8 0.000000 0.201892 0.250000
O O1 0.648590 0.905213 0.490175
O O2 0.943921 0.776919 0.470833
O O3 0.007535 0.901091 0.420199
O O4 0.835328 0.350275 0.487523
O O5 0.422192 0.360436 0.425633
O O6 0.153761 0.205532 0.384600
O O7 0.974595 0.351618 0.377159
O O8 0.036836 0.249705 0.300863
O O9 0.663398 0.216240 0.364406
O O10 0.250000 0.500000 0.277783
O O11 0.500000 0.361692 0.250000
O O12 0.346490 0.383444 0.332408
O O13 0.000000 0.380166 0.250000
O O14 0.500000 0.980785 0.750000
O O15 0.385461 0.895095 0.828665
O O16 0.763650 0.856412 0.768818
O O17 0.750000 0.000000 0.823361
O O18 0.250000 0.500000 0.392490
#
# Coordination Sequence:
#
# PCOD9421803 Si02
#       8
#     8   8   8   8   8   8   8   4
#     4  10  20  38  65  90 121 163 218 271 321 380
#     4  10  23  40  64  90 119 158 213 277 340 398
#     4  11  24  40  63  93 131 169 223 267 319 390
#     4   9  20  39  58  79 107 146 195 241 299 371
#     4  11  21  38  66 100 142 175 210 250 314 385
#     4  11  23  41  66  97 131 171 215 267 319 382
#     4  11  25  44  65  90 127 171 216 278 341 393
#     4  10  22  40  62  96 136 180 212 262 308 366
#
# _framework density 25.496181
#
# number of rings (size 3 to 8) (size 9 to 14) (size 15 to 20)
#    0.000    1.600    3.333    0.800    4.667    2.667 
#    2.400    4.667    0.000    0.800    0.000    0.000 
#    0.000    0.000    0.000    0.000    0.000    0.000 
#
# Total GULP energy -334859.501808 kJ/mol
# GULP energy per Si atom -5580.991697 kJ/mol
# Density = 2.543815 g / cm^3
# Si number density = 25.496181 Si / 1000 Ang^3
#
#
#
# Elastic Constant Matrix: (Units=GPa)
#
#
# Indices 1 2 3 4 5 6 
#
# 1 92.2645 -4.9591 6.1092 0.0000 0.0000 0.0000
# 2 -4.9591 41.9069 -0.6189 0.0000 0.0000 0.0000
# 3 6.1092 -0.6189 126.2562 0.0000 0.0000 0.0000
# 4 0.0000 0.0000 0.0000 6.4393 0.0000 0.0000
# 5 0.0000 0.0000 0.0000 0.0000 33.7204 0.0000
# 6 0.0000 0.0000 0.0000 0.0000 0.0000 49.1086
#
#
#
# Elastic Compliance Matrix: (Units=1/GPa)
#
#
# Indices 1 2 3 4 5 6 
#
# 1 0.010942 0.001287 -0.000523 0.000000 0.000000 0.000000
# 2 0.001287 0.024016 0.000055 0.000000 0.000000 0.000000
# 3 -0.000523 0.000055 0.007946 0.000000 0.000000 0.000000
# 4 0.000000 0.000000 0.000000 0.155297 0.000000 0.000000
# 5 0.000000 0.000000 0.000000 0.000000 0.029656 0.000000
# 6 0.000000 0.000000 0.000000 0.000000 0.000000 0.020363
#
#
# Mechanical properties :
#
#
# Convention : Reuss Voigt Hill
#
# Bulk Modulus (GPa) = 22.45041 29.05444 25.75243
# Shear Modulus (GPa) = 19.12571 35.18008 27.15289
#
# Velocity S-wave (km/s) = 2.74184 3.71862 3.26694
# Velocity P-wave (km/s) = 4.34144 5.46423 4.93487
#
# Compressibility (1/GPa) = 0.04454261
#
# Stress axis : x y z
#
# Youngs Moduli (GPa) = 91.38904 41.63970 125.84964
#
# Poissons Ratio (x) = -0.05360 0.06584
# Poissons Ratio (y) = -0.11763 -0.00698
# Poissons Ratio (z) = 0.04781 -0.00231
#
# Static dielectric constant tensor:
#      x y z
#    x 2.158760 0.000000 0.000000 
#    y 0.000000 2.165200 0.000000 
#    z 0.000000 0.000000 1.990660 
# 
# From -- ./inp_files/25495.got.cif
#   From: 2010.05.17/outbox.cif.g08.bks.cpg/sg54_13_cif.got.tgz:25495.got - 2010.06.03 13:09:01.
