data_PCOD9421556
_publ_section_title
;
Structure prediction by ZEFSAII (Michael W. Deem and Ramdas Pophale) SiO2 
 PCOD9421556
Probable space group: P C C A
;
_chemical_formula_sum "Si O2"
_cell_formula_units_Z 40
_cell_length_a 8.496609
_cell_length_b 8.674250
_cell_length_c 24.087839
_cell_angle_alpha 90.000000
_cell_angle_beta 90.000000
_cell_angle_gamma 90.000000
_cell_volume 1775.314939
_symmetry_space_group_name_H-M "P C C A"
_symmetry_group_IT_number 54
_symmetry_cell_setting 'orthorhombic'
loop_
_space_group_symop_operation_xyz
x,y,z
1/2-x,-y,z
1/2+x,-y,1/2-z
-x,y,1/2-z
-x,-y,-z
1/2+x,y,-z
1/2-x,y,1/2+z
x,-y,1/2+z
loop_
_atom_site_type_symbol
_atom_site_label
_atom_site_fract_x
_atom_site_fract_y
_atom_site_fract_z
Si Si1 0.250000 0.000000 0.681904
Si Si2 0.745503 0.206492 0.916968
Si Si3 0.750000 0.000000 0.601769
Si Si4 0.500000 0.206237 0.750000
Si Si5 0.436893 0.217508 0.481294
Si Si6 0.250000 0.500000 0.947435
Si Si7 0.443853 0.289349 0.863607
O O1 0.322664 0.885530 0.634850
O O2 0.129277 0.904077 0.719872
O O3 0.625391 0.313181 0.882507
O O4 0.885811 0.238696 0.959920
O O5 0.609533 0.139986 0.959682
O O6 0.650435 0.885893 0.563468
O O7 0.869872 0.884683 0.632876
O O8 0.431373 0.314969 0.798221
O O9 0.360979 0.387536 0.482385
O O10 0.349550 0.393097 0.906247
#
# Coordination Sequence:
#
# PCOD9421556 Si02
#       7
#     4   8   4   4   8   4   8
#     4  10  22  40  64  96 122 156 208 262 314 362
#     4  11  23  37  61  93 126 163 207 251 309 376
#     4  10  20  36  60  86 118 156 200 248 298 364
#     4  10  20  38  62  86 122 158 202 268 316 354
#     4  11  22  38  60  89 128 164 197 247 304 367
#     4  10  24  42  62  88 126 172 210 246 308 380
#     4  10  22  40  61  89 120 160 212 258 309 368
#
# _framework density 22.531213999999999
#
# number of rings (size 3 to 8) (size 9 to 14) (size 15 to 20)
#    0.000    1.600    0.000    6.000    0.000    8.000 
#    0.000    4.000    0.000    2.400    0.000    0.000 
#    0.000    0.000    0.000    0.000    0.000    0.000 
#
# Total GULP energy -222682.154937 kJ/mol
# GULP energy per Si atom -5567.053873 kJ/mol
# Density = 2.247993 g / cm^3
# Si number density = 22.531214 Si / 1000 Ang^3
#
#
#
# Elastic Constant Matrix: (Units=GPa)
#
#
# Indices 1 2 3 4 5 6 
#
# 1 119.4544 27.2893 35.9131 0.0000 0.0000 0.0000
# 2 27.2893 60.1537 -3.1551 0.0000 0.0000 0.0000
# 3 35.9131 -3.1551 129.9069 0.0000 0.0000 0.0000
# 4 0.0000 0.0000 0.0000 21.2063 0.0000 0.0000
# 5 0.0000 0.0000 0.0000 0.0000 36.2707 0.0000
# 6 0.0000 0.0000 0.0000 0.0000 0.0000 25.9163
#
#
#
# Elastic Compliance Matrix: (Units=1/GPa)
#
#
# Indices 1 2 3 4 5 6 
#
# 1 0.010381 -0.004866 -0.002988 0.000000 0.000000 0.000000
# 2 -0.004866 0.018926 0.001805 0.000000 0.000000 0.000000
# 3 -0.002988 0.001805 0.008568 0.000000 0.000000 0.000000
# 4 0.000000 0.000000 0.000000 0.047156 0.000000 0.000000
# 5 0.000000 0.000000 0.000000 0.000000 0.027570 0.000000
# 6 0.000000 0.000000 0.000000 0.000000 0.000000 0.038586
#
#
# Mechanical properties :
#
#
# Convention : Reuss Voigt Hill
#
# Bulk Modulus (GPa) = 38.79497 47.73440 43.26469
# Shear Modulus (GPa) = 29.09022 33.30984 31.20003
#
# Velocity S-wave (km/s) = 3.59710 3.84915 3.72526
# Velocity P-wave (km/s) = 5.87434 6.40207 6.14387
#
# Compressibility (1/GPa) = 0.02577653
#
# Stress axis : x y z
#
# Youngs Moduli (GPa) = 96.32521 52.83616 116.71676
#
# Poissons Ratio (x) = 0.25712 0.34877
# Poissons Ratio (y) = 0.46876 -0.21067
# Poissons Ratio (z) = 0.28784 -0.09537
#
# Static dielectric constant tensor:
#      x y z
#    x 1.905090 0.000000 0.000000 
#    y 0.000000 1.961370 0.000000 
#    z 0.000000 0.000000 1.856230 
# 
# From -- ./inp_files/23347.got.cif
#   From: 2010.05.17/outbox.cif.g08.bks.cpg/sg54_12_cif.got.tgz:23347.got - 2010.06.03 13:09:01.
