data_PCOD9421209
_publ_section_title
;
Structure prediction by ZEFSAII (Michael W. Deem and Ramdas Pophale) SiO2 
 PCOD9421209
Probable space group: P C C A
;
_chemical_formula_sum "Si O2"
_cell_formula_units_Z 60
_cell_length_a 29.517902
_cell_length_b 10.496631
_cell_length_c 9.372195
_cell_angle_alpha 90.000000
_cell_angle_beta 90.000000
_cell_angle_gamma 90.000000
_cell_volume 2903.867077
_symmetry_space_group_name_H-M "P C C A"
_symmetry_group_IT_number 54
_symmetry_cell_setting 'orthorhombic'
loop_
_space_group_symop_operation_xyz
x,y,z
1/2-x,-y,z
1/2+x,-y,1/2-z
-x,y,1/2-z
-x,-y,-z
1/2+x,y,-z
1/2-x,y,1/2+z
x,-y,1/2+z
loop_
_atom_site_type_symbol
_atom_site_label
_atom_site_fract_x
_atom_site_fract_y
_atom_site_fract_z
Si Si1 0.500000 0.525343 0.250000
Si Si2 0.649475 0.052331 0.223600
Si Si3 0.385319 0.288893 0.417526
Si Si4 0.346079 0.402671 0.128601
Si Si5 0.200203 0.339536 0.093458
Si Si6 0.257172 0.205781 0.345169
Si Si7 0.560783 0.482453 0.510759
Si Si8 0.672087 0.865377 0.014418
O O1 0.528222 0.458003 0.376076
O O2 0.460264 0.584360 0.349268
O O3 0.613295 0.149023 0.153646
O O4 0.698287 0.124078 0.193848
O O5 0.650930 0.046450 0.392751
O O6 0.647141 0.913793 0.155272
O O7 0.362650 0.370717 0.287945
O O8 0.350063 0.287457 0.549968
O O9 0.430851 0.366204 0.456832
O O10 0.309188 0.514088 0.132499
O O11 0.389596 0.442420 0.036781
O O12 0.330821 0.275629 0.048029
O O13 0.227379 0.261270 0.214499
O O14 0.227003 0.321185 0.945808
O O15 0.224240 0.122111 0.443508
#
# Coordination Sequence:
#
# PCOD9421209 Si02
#       8
#     4   8   8   8   8   8   8   8
#     4  10  20  32  62 100 124 156 178 224 306 388
#     4  10  23  41  55  80 111 157 213 257 302 340
#     4   9  20  39  58  82 117 156 193 251 290 354
#     4  10  22  41  58  87 121 161 194 251 301 371
#     4  10  23  38  57  79 114 151 201 247 321 359
#     4  11  22  40  57  80 111 155 201 272 306 356
#     4  10  19  37  61  93 130 150 190 233 299 382
#     4  11  24  39  60  81 112 158 214 254 304 345
#
# _framework density 20.662102000000001
#
# number of rings (size 3 to 8) (size 9 to 14) (size 15 to 20)
#    0.000    1.867    2.667    0.400    7.467    1.600 
#    4.800    0.000    0.000    0.000    0.000    5.600 
#    0.000    0.000    0.000    0.000    0.000    0.000 
#
# Total GULP energy -334171.848577 kJ/mol
# GULP energy per Si atom -5569.530810 kJ/mol
# Density = 2.061507 g / cm^3
# Si number density = 20.662102 Si / 1000 Ang^3
#
#
#
# Elastic Constant Matrix: (Units=GPa)
#
#
# Indices 1 2 3 4 5 6 
#
# 1 65.9626 12.5750 24.2674 0.0000 0.0000 0.0000
# 2 12.5750 54.5608 27.8020 0.0000 0.0000 0.0000
# 3 24.2674 27.8020 105.0383 0.0000 0.0000 0.0000
# 4 0.0000 0.0000 0.0000 20.1584 0.0000 0.0000
# 5 0.0000 0.0000 0.0000 0.0000 34.7477 0.0000
# 6 0.0000 0.0000 0.0000 0.0000 0.0000 6.8674
#
#
#
# Elastic Compliance Matrix: (Units=1/GPa)
#
#
# Indices 1 2 3 4 5 6 
#
# 1 0.016791 -0.002188 -0.003300 0.000000 0.000000 0.000000
# 2 -0.002188 0.021471 -0.005177 0.000000 0.000000 0.000000
# 3 -0.003300 -0.005177 0.011653 0.000000 0.000000 0.000000
# 4 0.000000 0.000000 0.000000 0.049607 0.000000 0.000000
# 5 0.000000 0.000000 0.000000 0.000000 0.028779 0.000000
# 6 0.000000 0.000000 0.000000 0.000000 0.000000 0.145615
#
#
# Mechanical properties :
#
#
# Convention : Reuss Voigt Hill
#
# Bulk Modulus (GPa) = 34.98529 39.42783 37.20656
# Shear Modulus (GPa) = 16.40547 23.08252 19.74399
#
# Velocity S-wave (km/s) = 2.82084 3.34599 3.09458
# Velocity P-wave (km/s) = 5.25151 5.83534 5.55111
#
# Compressibility (1/GPa) = 0.02858344
#
# Stress axis : x y z
#
# Youngs Moduli (GPa) = 59.55430 46.57501 85.81370
#
# Poissons Ratio (x) = 0.10193 0.28320
# Poissons Ratio (y) = 0.13033 0.44429
# Poissons Ratio (z) = 0.19654 0.24114
#
# Static dielectric constant tensor:
#      x y z
#    x 1.790160 0.000000 0.000000 
#    y 0.000000 1.807520 0.000000 
#    z 0.000000 0.000000 1.788990 
# 
# From -- ./inp_files/5945.got.cif
#   From: 2010.05.17/outbox.cif.g08.bks.cpg/sg54_3_cif.got.tgz:5945.got - 2010.06.03 13:09:01.
