data_PCOD9421956
_publ_section_title
;
Structure prediction by ZEFSAII (Michael W. Deem and Ramdas Pophale) SiO2 
 PCOD9421956
Probable space group: P C C A
;
_chemical_formula_sum "Si O2"
_cell_formula_units_Z 56
_cell_length_a 13.336709
_cell_length_b 11.468348
_cell_length_c 16.634939
_cell_angle_alpha 90.000000
_cell_angle_beta 90.000000
_cell_angle_gamma 90.000000
_cell_volume 2544.314253
_symmetry_space_group_name_H-M "P C C A"
_symmetry_group_IT_number 54
_symmetry_cell_setting 'orthorhombic'
loop_
_space_group_symop_operation_xyz
x,y,z
1/2-x,-y,z
1/2+x,-y,1/2-z
-x,y,1/2-z
-x,-y,-z
1/2+x,y,-z
1/2-x,y,1/2+z
x,-y,1/2+z
loop_
_atom_site_type_symbol
_atom_site_label
_atom_site_fract_x
_atom_site_fract_y
_atom_site_fract_z
Si Si1 0.025607 0.362752 0.507952
Si Si2 0.189266 0.885840 0.401304
Si Si3 0.981395 0.968610 0.655180
Si Si4 0.087007 0.413159 0.682245
Si Si5 0.647028 0.730599 0.134383
Si Si6 0.182597 0.647727 0.698716
Si Si7 0.369072 0.174326 0.565662
O O1 0.054001 0.346924 0.601350
O O2 0.116424 0.334956 0.446345
O O3 0.000000 0.500000 0.500000
O O4 0.940671 0.270274 0.479175
O O5 0.238250 0.772798 0.363235
O O6 0.204306 0.866915 0.495966
O O7 0.250000 0.000000 0.373995
O O8 0.077395 0.920188 0.378472
O O9 0.918240 0.848599 0.642338
O O10 0.000000 0.981268 0.750000
O O11 0.076101 0.939856 0.600062
O O12 0.116778 0.546100 0.657753
O O13 0.198959 0.374685 0.709082
O O14 0.000000 0.406897 0.750000
O O15 0.631397 0.658228 0.214497
O O16 0.172792 0.760931 0.643584
#
# Coordination Sequence:
#
# PCOD9421956 Si02
#       7
#     8   8   8   8   8   8   8
#     4  11  22  40  68  95 131 174 220 273 325 414
#     4  10  23  43  60  92 130 165 222 279 335 398
#     4  10  20  40  67  93 123 169 224 273 330 400
#     4  11  25  42  61 100 140 176 221 272 329 396
#     4  10  22  41  66  91 128 178 218 272 335 394
#     4  11  23  42  66  95 134 180 222 270 328 410
#     4  11  22  40  70  95 128 175 222 270 346 397
#
# _framework density 22.00986
#
# number of rings (size 3 to 8) (size 9 to 14) (size 15 to 20)
#    0.000    1.429    2.857    2.143    4.000    0.000 
#    5.143    0.000    0.000    0.000    0.000    0.000 
#    0.000    0.000    0.000    0.000    0.000    0.000 
#
# Total GULP energy -312425.484239 kJ/mol
# GULP energy per Si atom -5579.026504 kJ/mol
# Density = 2.195976 g / cm^3
# Si number density = 22.009860 Si / 1000 Ang^3
#
#
#
# Elastic Constant Matrix: (Units=GPa)
#
#
# Indices 1 2 3 4 5 6 
#
# 1 57.3694 25.2182 19.2667 0.0000 0.0000 0.0000
# 2 25.2182 63.2260 25.6035 0.0000 0.0000 0.0000
# 3 19.2667 25.6035 116.2228 0.0000 0.0000 0.0000
# 4 0.0000 0.0000 0.0000 14.3381 0.0000 0.0000
# 5 0.0000 0.0000 0.0000 0.0000 35.9312 0.0000
# 6 0.0000 0.0000 0.0000 0.0000 0.0000 12.4474
#
#
#
# Elastic Compliance Matrix: (Units=1/GPa)
#
#
# Indices 1 2 3 4 5 6 
#
# 1 0.021489 -0.007827 -0.001838 0.000000 0.000000 0.000000
# 2 -0.007827 0.020216 -0.003156 0.000000 0.000000 0.000000
# 3 -0.001838 -0.003156 0.009604 0.000000 0.000000 0.000000
# 4 0.000000 0.000000 0.000000 0.069744 0.000000 0.000000
# 5 0.000000 0.000000 0.000000 0.000000 0.027831 0.000000
# 6 0.000000 0.000000 0.000000 0.000000 0.000000 0.080338
#
#
# Mechanical properties :
#
#
# Convention : Reuss Voigt Hill
#
# Bulk Modulus (GPa) = 38.96009 41.88834 40.42422
# Shear Modulus (GPa) = 18.98117 23.65867 21.31992
#
# Velocity S-wave (km/s) = 2.93984 3.28214 3.11570
# Velocity P-wave (km/s) = 5.40955 5.78241 5.59908
#
# Compressibility (1/GPa) = 0.02566729
#
# Stress axis : x y z
#
# Youngs Moduli (GPa) = 46.53647 49.46577 104.12167
#
# Poissons Ratio (x) = 0.38714 0.19138
# Poissons Ratio (y) = 0.36422 0.32862
# Poissons Ratio (z) = 0.08554 0.15612
#
# Static dielectric constant tensor:
#      x y z
#    x 1.890750 0.000000 0.000000 
#    y 0.000000 1.841930 0.000000 
#    z 0.000000 0.000000 1.798640 
# 
# From -- ./inp_files/13501.got.cif
#   From: 2010.05.17/outbox.cif.g08.bks.cpg/sg54_7_cif.got.tgz:13501.got - 2010.06.03 13:09:01.
