data_PCOD9421226
_publ_section_title
;
Structure prediction by ZEFSAII (Michael W. Deem and Ramdas Pophale) SiO2 
 PCOD9421226
Probable space group: P C C A
;
_chemical_formula_sum "Si O2"
_cell_formula_units_Z 32
_cell_length_a 7.633513
_cell_length_b 11.364441
_cell_length_c 13.519566
_cell_angle_alpha 90.000000
_cell_angle_beta 90.000000
_cell_angle_gamma 90.000000
_cell_volume 1172.830572
_symmetry_space_group_name_H-M "P C C A"
_symmetry_group_IT_number 54
_symmetry_cell_setting 'orthorhombic'
loop_
_space_group_symop_operation_xyz
x,y,z
1/2-x,-y,z
1/2+x,-y,1/2-z
-x,y,1/2-z
-x,-y,-z
1/2+x,y,-z
1/2-x,y,1/2+z
x,-y,1/2+z
loop_
_atom_site_type_symbol
_atom_site_label
_atom_site_fract_x
_atom_site_fract_y
_atom_site_fract_z
Si Si1 0.481655 0.808226 0.557798
Si Si2 0.952216 0.042591 0.143040
Si Si3 0.694465 0.367069 0.868938
Si Si4 0.211342 0.363092 0.366758
O O1 0.491874 0.875702 0.451821
O O2 0.823002 0.720092 0.423896
O O3 0.649689 0.732223 0.593764
O O4 0.446810 0.919525 0.630201
O O5 0.000000 0.095844 0.250000
O O6 0.750000 0.000000 0.138459
O O7 0.750000 0.500000 0.891404
O O8 0.719209 0.352010 0.751888
O O9 0.491993 0.349936 0.894984
O O10 0.250000 0.500000 0.389897
#
# Coordination Sequence:
#
# PCOD9421226 Si02
#       4
#     8   8   8   8
#     4  11  24  50  85 130 178 224 295 371 449 540
#     4  11  28  58  88 121 168 231 301 380 454 529
#     4  10  19  37  76 134 195 240 291 360 440 532
#     4  10  19  37  76 135 192 243 290 358 445 527
#
# _framework density 27.284416
#
# number of rings (size 3 to 8) (size 9 to 14) (size 15 to 20)
#    0.000    1.500    2.500    2.250    0.000    4.000 
#   22.500    1.250    0.000    6.000    0.000    7.000 
#    0.000    0.000    0.000    0.000    0.000    0.000 
#
# Total GULP energy -179719.970856 kJ/mol
# GULP energy per Si atom -5616.249089 kJ/mol
# Density = 2.722232 g / cm^3
# Si number density = 27.284416 Si / 1000 Ang^3
#
#
#
# Elastic Constant Matrix: (Units=GPa)
#
#
# Indices 1 2 3 4 5 6 
#
# 1 198.1405 110.5042 101.1262 0.0000 0.0000 0.0000
# 2 110.5042 267.4070 80.2368 0.0000 0.0000 0.0000
# 3 101.1262 80.2368 217.1425 0.0000 0.0000 0.0000
# 4 0.0000 0.0000 0.0000 48.6214 0.0000 0.0000
# 5 0.0000 0.0000 0.0000 0.0000 48.6984 0.0000
# 6 0.0000 0.0000 0.0000 0.0000 0.0000 35.3381
#
#
#
# Elastic Compliance Matrix: (Units=1/GPa)
#
#
# Indices 1 2 3 4 5 6 
#
# 1 0.007779 -0.002393 -0.002739 0.000000 0.000000 0.000000
# 2 -0.002393 0.004942 -0.000712 0.000000 0.000000 0.000000
# 3 -0.002739 -0.000712 0.006144 0.000000 0.000000 0.000000
# 4 0.000000 0.000000 0.000000 0.020567 0.000000 0.000000
# 5 0.000000 0.000000 0.000000 0.000000 0.020535 0.000000
# 6 0.000000 0.000000 0.000000 0.000000 0.000000 0.028298
#
#
# Mechanical properties :
#
#
# Convention : Reuss Voigt Hill
#
# Bulk Modulus (GPa) = 139.30891 140.71381 140.01136
# Shear Modulus (GPa) = 48.85477 52.58644 50.72060
#
# Velocity S-wave (km/s) = 4.23611 4.39491 4.31624
# Velocity P-wave (km/s) = 8.66574 8.79992 8.73309
#
# Compressibility (1/GPa) = 0.00717829
#
# Stress axis : x y z
#
# Youngs Moduli (GPa) = 128.54706 202.34520 162.76862
#
# Poissons Ratio (x) = 0.48421 0.44577
# Poissons Ratio (y) = 0.30761 0.11584
# Poissons Ratio (z) = 0.35205 0.14401
#
# Static dielectric constant tensor:
#      x y z
#    x 2.109510 0.000000 0.000000 
#    y 0.000000 2.154970 0.000000 
#    z 0.000000 0.000000 2.168100 
# 
# From -- ./inp_files/11324.got.cif
#   From: 2010.05.17/outbox.cif.g08.bks.cpg/sg54_6_cif.got.tgz:11324.got - 2010.06.03 13:09:01.
