data_PCOD9421954
_publ_section_title
;
Structure prediction by ZEFSAII (Michael W. Deem and Ramdas Pophale) SiO2 
 PCOD9421954
Probable space group: P C C A
;
_chemical_formula_sum "Si O2"
_cell_formula_units_Z 60
_cell_length_a 9.129701
_cell_length_b 17.896388
_cell_length_c 16.985532
_cell_angle_alpha 90.000000
_cell_angle_beta 90.000000
_cell_angle_gamma 90.000000
_cell_volume 2775.243507
_symmetry_space_group_name_H-M "P C C A"
_symmetry_group_IT_number 54
_symmetry_cell_setting 'orthorhombic'
loop_
_space_group_symop_operation_xyz
x,y,z
1/2-x,-y,z
1/2+x,-y,1/2-z
-x,y,1/2-z
-x,-y,-z
1/2+x,y,-z
1/2-x,y,1/2+z
x,-y,1/2+z
loop_
_atom_site_type_symbol
_atom_site_label
_atom_site_fract_x
_atom_site_fract_y
_atom_site_fract_z
Si Si1 0.863374 0.545465 0.696168
Si Si2 0.538041 0.301993 0.661932
Si Si3 0.235256 0.654797 0.556631
Si Si4 0.001742 0.989347 0.865527
Si Si5 0.618152 0.796853 0.018440
Si Si6 0.375295 0.103151 0.493671
Si Si7 0.531864 0.565168 0.561454
Si Si8 0.250000 0.000000 0.749243
O O1 0.750000 0.500000 0.749550
O O2 0.846068 0.628841 0.662206
O O3 0.000000 0.559374 0.750000
O O4 0.897879 0.479990 0.633561
O O5 0.500000 0.276445 0.750000
O O6 0.388277 0.333705 0.622850
O O7 0.596173 0.237197 0.605039
O O8 0.304296 0.733777 0.532646
O O9 0.376534 0.604745 0.578717
O O10 0.145209 0.619359 0.483475
O O11 0.134882 0.959557 0.809620
O O12 0.918028 0.929576 0.920714
O O13 0.875721 0.028990 0.811646
O O14 0.074865 0.046806 0.926286
O O15 0.461444 0.819113 0.984014
O O16 0.707428 0.874150 0.014308
O O17 0.500000 0.500000 0.500000
#
# Coordination Sequence:
#
# PCOD9421954 Si02
#       8
#     8   8   8   8   8   8   8   4
#     4  11  25  40  63  94 127 169 217 283 351 407
#     4  11  25  44  64  91 140 170 220 280 345 397
#     4  12  23  42  65  92 127 172 222 276 329 403
#     4  10  22  42  65 106 132 175 211 284 318 389
#     4  12  22  43  66  96 123 184 221 270 319 408
#     4  11  23  41  71  94 134 171 234 261 324 389
#     4  12  22  37  66  93 122 160 225 276 332 395
#     4  10  20  40  66  98 148 162 202 264 354 370
#
# _framework density 21.619724000000001
#
# number of rings (size 3 to 8) (size 9 to 14) (size 15 to 20)
#    0.000    0.800    4.000    3.600    3.733    2.133 
#    4.800    1.333    0.000    0.000    0.000    0.000 
#    0.000    0.000    0.000    0.000    0.000    0.000 
#
# Total GULP energy -334577.659678 kJ/mol
# GULP energy per Si atom -5576.294328 kJ/mol
# Density = 2.157052 g / cm^3
# Si number density = 21.619724 Si / 1000 Ang^3
#
#
#
# Elastic Constant Matrix: (Units=GPa)
#
#
# Indices 1 2 3 4 5 6 
#
# 1 74.2220 9.5849 8.9437 0.0000 0.0000 0.0000
# 2 9.5849 64.5073 8.9920 0.0000 0.0000 0.0000
# 3 8.9437 8.9920 69.8300 0.0000 0.0000 0.0000
# 4 0.0000 0.0000 0.0000 13.8519 0.0000 0.0000
# 5 0.0000 0.0000 0.0000 0.0000 27.2710 0.0000
# 6 0.0000 0.0000 0.0000 0.0000 0.0000 50.1424
#
#
#
# Elastic Compliance Matrix: (Units=1/GPa)
#
#
# Indices 1 2 3 4 5 6 
#
# 1 0.013898 -0.001850 -0.001542 0.000000 0.000000 0.000000
# 2 -0.001850 0.016032 -0.001827 0.000000 0.000000 0.000000
# 3 -0.001542 -0.001827 0.014753 0.000000 0.000000 0.000000
# 4 0.000000 0.000000 0.000000 0.072192 0.000000 0.000000
# 5 0.000000 0.000000 0.000000 0.000000 0.036669 0.000000
# 6 0.000000 0.000000 0.000000 0.000000 0.000000 0.019943
#
#
# Mechanical properties :
#
#
# Convention : Reuss Voigt Hill
#
# Bulk Modulus (GPa) = 29.20204 29.28895 29.24549
# Shear Modulus (GPa) = 25.59630 30.32231 27.95931
#
# Velocity S-wave (km/s) = 3.44457 3.74910 3.60005
# Velocity P-wave (km/s) = 5.41816 5.68487 5.55312
#
# Compressibility (1/GPa) = 0.03424419
#
# Stress axis : x y z
#
# Youngs Moduli (GPa) = 71.95382 62.37621 67.78155
#
# Poissons Ratio (x) = 0.11540 0.10450
# Poissons Ratio (y) = 0.13312 0.12387
# Poissons Ratio (z) = 0.11094 0.11399
#
# Static dielectric constant tensor:
#      x y z
#    x 2.264890 0.000000 0.000000 
#    y 0.000000 0.594410 0.000000 
#    z 0.000000 0.000000 1.905210 
# 
# From -- ./inp_files/16839.got.cif
#   From: 2010.05.17/outbox.cif.g08.bks.cpg/sg54_9_cif.got.tgz:16839.got - 2010.06.03 13:09:01.
