data_PCOD9421432
_publ_section_title
;
Structure prediction by ZEFSAII (Michael W. Deem and Ramdas Pophale) SiO2 
 PCOD9421432
Probable space group: P C C A
;
_chemical_formula_sum "Si O2"
_cell_formula_units_Z 40
_cell_length_a 12.098955
_cell_length_b 5.155990
_cell_length_c 32.478277
_cell_angle_alpha 90.000000
_cell_angle_beta 90.000000
_cell_angle_gamma 90.000000
_cell_volume 2026.062831
_symmetry_space_group_name_H-M "P C C A"
_symmetry_group_IT_number 54
_symmetry_cell_setting 'orthorhombic'
loop_
_space_group_symop_operation_xyz
x,y,z
1/2-x,-y,z
1/2+x,-y,1/2-z
-x,y,1/2-z
-x,-y,-z
1/2+x,y,-z
1/2-x,y,1/2+z
x,-y,1/2+z
loop_
_atom_site_type_symbol
_atom_site_label
_atom_site_fract_x
_atom_site_fract_y
_atom_site_fract_z
Si Si1 0.186758 0.242972 0.444567
Si Si2 0.056238 0.623999 0.579458
Si Si3 0.377320 0.480768 0.169246
Si Si4 0.384983 0.979499 0.223441
Si Si5 0.101646 0.900778 0.029178
O O1 0.250000 0.500000 0.434118
O O2 0.182680 0.208094 0.493998
O O3 0.064710 0.265540 0.428222
O O4 0.250000 0.000000 0.426640
O O5 0.063957 0.562746 0.627465
O O6 0.070310 0.351708 0.555674
O O7 0.130596 0.854850 0.558945
O O8 0.250000 0.500000 0.157126
O O9 0.395356 0.195866 0.187633
O O10 0.395714 0.692177 0.204840
O O11 0.500000 0.018675 0.250000
O O12 0.250000 0.000000 0.237742
O O13 0.000000 0.000000 0.000000
#
# Coordination Sequence:
#
# PCOD9421432 Si02
#       5
#     8   8   8   8   8
#     4  11  21  34  51  76 110 152 194 240 288 336
#     4  11  21  37  56  79 112 148 191 240 290 343
#     4  10  22  39  61  89 118 149 187 238 293 340
#     4  10  21  41  67  93 122 154 189 233 287 354
#     4  10  20  35  53  73 104 151 201 245 284 333
#
# _framework density 19.742723000000002
#
# number of rings (size 3 to 8) (size 9 to 14) (size 15 to 20)
#    0.000    1.600    0.000    7.800    0.000    2.400 
#    0.000    3.000    0.000    0.000    0.000    0.000 
#    0.000    0.000    0.000    0.000    0.000    0.000 
#
# Total GULP energy -222706.957523 kJ/mol
# GULP energy per Si atom -5567.673938 kJ/mol
# Density = 1.969779 g / cm^3
# Si number density = 19.742723 Si / 1000 Ang^3
#
#
#
# Elastic Constant Matrix: (Units=GPa)
#
#
# Indices 1 2 3 4 5 6 
#
# 1 90.1955 19.1471 42.8491 0.0000 0.0000 0.0000
# 2 19.1471 120.9336 2.9846 0.0000 0.0000 0.0000
# 3 42.8491 2.9846 47.6668 0.0000 0.0000 0.0000
# 4 0.0000 0.0000 0.0000 12.4188 0.0000 0.0000
# 5 0.0000 0.0000 0.0000 0.0000 15.9330 0.0000
# 6 0.0000 0.0000 0.0000 0.0000 0.0000 25.8580
#
#
#
# Elastic Compliance Matrix: (Units=1/GPa)
#
#
# Indices 1 2 3 4 5 6 
#
# 1 0.020230 -0.002758 -0.018012 0.000000 0.000000 0.000000
# 2 -0.002758 0.008658 0.001937 0.000000 0.000000 0.000000
# 3 -0.018012 0.001937 0.037050 0.000000 0.000000 0.000000
# 4 0.000000 0.000000 0.000000 0.080523 0.000000 0.000000
# 5 0.000000 0.000000 0.000000 0.000000 0.062763 0.000000
# 6 0.000000 0.000000 0.000000 0.000000 0.000000 0.038673
#
#
# Mechanical properties :
#
#
# Convention : Reuss Voigt Hill
#
# Bulk Modulus (GPa) = 35.37242 43.19526 39.28384
# Shear Modulus (GPa) = 16.94995 23.76296 20.35646
#
# Velocity S-wave (km/s) = 2.93327 3.47310 3.21454
# Velocity P-wave (km/s) = 5.42473 6.16521 5.80678
#
# Compressibility (1/GPa) = 0.02827062
#
# Stress axis : x y z
#
# Youngs Moduli (GPa) = 49.43223 115.50130 26.99088
#
# Poissons Ratio (x) = 0.31860 0.48617
# Poissons Ratio (y) = 0.13635 -0.05229
# Poissons Ratio (z) = 0.89039 -0.22378
#
# Static dielectric constant tensor:
#      x y z
#    x 1.816610 0.000000 0.000000 
#    y 0.000000 1.715760 0.000000 
#    z 0.000000 0.000000 1.703600 
# 
# From -- ./inp_files/28012.got.cif
#   From: 2010.05.17/outbox.cif.g08.bks.cpg/sg54_15_cif.got.tgz:28012.got - 2010.06.03 13:09:01.
