data_PCOD9421427
_publ_section_title
;
Structure prediction by ZEFSAII (Michael W. Deem and Ramdas Pophale) SiO2 
 PCOD9421427
Probable space group: P C C A
;
_chemical_formula_sum "Si O2"
_cell_formula_units_Z 48
_cell_length_a 28.389995
_cell_length_b 8.979864
_cell_length_c 8.714847
_cell_angle_alpha 90.000000
_cell_angle_beta 90.000000
_cell_angle_gamma 90.000000
_cell_volume 2221.748227
_symmetry_space_group_name_H-M "P C C A"
_symmetry_group_IT_number 54
_symmetry_cell_setting 'orthorhombic'
loop_
_space_group_symop_operation_xyz
x,y,z
1/2-x,-y,z
1/2+x,-y,1/2-z
-x,y,1/2-z
-x,-y,-z
1/2+x,y,-z
1/2-x,y,1/2+z
x,-y,1/2+z
loop_
_atom_site_type_symbol
_atom_site_label
_atom_site_fract_x
_atom_site_fract_y
_atom_site_fract_z
Si Si1 0.875542 0.401741 0.756667
Si Si2 0.086810 0.954663 0.742944
Si Si3 0.087072 0.653077 0.910279
Si Si4 0.944107 0.789992 0.065675
Si Si5 0.750000 0.000000 0.551493
Si Si6 0.500000 0.500000 0.000000
Si Si7 0.815474 0.862375 0.300003
O O1 0.874379 0.568725 0.694864
O O2 0.899044 0.307607 0.618912
O O3 0.829673 0.310059 0.800762
O O4 0.906942 0.388836 0.910584
O O5 0.089995 0.826191 0.872922
O O6 0.067537 0.872000 0.593248
O O7 0.052734 0.083079 0.806054
O O8 0.137136 0.035221 0.711611
O O9 0.038320 0.570008 0.872657
O O10 0.985138 0.671315 0.046877
O O11 0.785746 0.907425 0.447363
O O12 0.717669 0.897242 0.656981
#
# Coordination Sequence:
#
# PCOD9421427 Si02
#       7
#     8   8   8   8   4   4   8
#     4  10  21  38  59  86 120 165 206 248 314 394
#     4  11  21  39  64  92 123 167 214 258 317 396
#     4  11  22  37  62  87 121 170 210 259 317 365
#     4  10  22  39  62  88 124 169 214 269 321 367
#     4  10  20  34  66  94 114 152 192 266 324 366
#     4  10  24  42  58  90 130 164 224 272 316 378
#     4  10  20  38  61  90 120 148 204 254 313 393
#
# _framework density 21.604610000000001
#
# number of rings (size 3 to 8) (size 9 to 14) (size 15 to 20)
#    0.000    1.667    0.000    7.000    0.000    6.667 
#    0.000    3.333    0.000   17.000    0.000    0.000 
#    0.000    0.000    0.000    0.000    0.000    0.000 
#
# Total GULP energy -267210.325821 kJ/mol
# GULP energy per Si atom -5566.881788 kJ/mol
# Density = 2.155544 g / cm^3
# Si number density = 21.604610 Si / 1000 Ang^3
#
#
#
# Elastic Constant Matrix: (Units=GPa)
#
#
# Indices 1 2 3 4 5 6 
#
# 1 71.0471 45.2723 28.1618 0.0000 0.0000 0.0000
# 2 45.2723 139.5269 31.9197 0.0000 0.0000 0.0000
# 3 28.1618 31.9197 98.7226 0.0000 0.0000 0.0000
# 4 0.0000 0.0000 0.0000 8.4120 0.0000 0.0000
# 5 0.0000 0.0000 0.0000 0.0000 87.6629 0.0000
# 6 0.0000 0.0000 0.0000 0.0000 0.0000 21.5023
#
#
#
# Elastic Compliance Matrix: (Units=1/GPa)
#
#
# Indices 1 2 3 4 5 6 
#
# 1 0.018907 -0.005292 -0.003682 0.000000 0.000000 0.000000
# 2 -0.005292 0.009221 -0.001472 0.000000 0.000000 0.000000
# 3 -0.003682 -0.001472 0.011656 0.000000 0.000000 0.000000
# 4 0.000000 0.000000 0.000000 0.118878 0.000000 0.000000
# 5 0.000000 0.000000 0.000000 0.000000 0.011407 0.000000
# 6 0.000000 0.000000 0.000000 0.000000 0.000000 0.046507
#
#
# Mechanical properties :
#
#
# Convention : Reuss Voigt Hill
#
# Bulk Modulus (GPa) = 52.93521 57.77824 55.35673
# Shear Modulus (GPa) = 20.51148 37.11161 28.81154
#
# Velocity S-wave (km/s) = 3.08458 4.14909 3.65579
# Velocity P-wave (km/s) = 6.10256 7.05371 6.59530
#
# Compressibility (1/GPa) = 0.01889102
#
# Stress axis : x y z
#
# Youngs Moduli (GPa) = 52.88997 108.44833 85.79531
#
# Poissons Ratio (x) = 0.57395 0.31593
# Poissons Ratio (y) = 0.27992 0.12626
# Poissons Ratio (z) = 0.19476 0.15960
#
# Static dielectric constant tensor:
#      x y z
#    x 1.781060 0.000000 0.000000 
#    y 0.000000 1.052130 0.000000 
#    z 0.000000 0.000000 1.814200 
# 
# From -- ./inp_files/5888.got.cif
#   From: 2010.05.17/outbox.cif.g08.bks.cpg/sg54_3_cif.got.tgz:5888.got - 2010.06.03 13:09:01.
