data_PCOD9421596
_publ_section_title
;
Structure prediction by ZEFSAII (Michael W. Deem and Ramdas Pophale) SiO2 
 PCOD9421596
Probable space group: P C C A
;
_chemical_formula_sum "Si O2"
_cell_formula_units_Z 28
_cell_length_a 7.889842
_cell_length_b 8.507792
_cell_length_c 22.151027
_cell_angle_alpha 90.000000
_cell_angle_beta 90.000000
_cell_angle_gamma 90.000000
_cell_volume 1486.890670
_symmetry_space_group_name_H-M "P C C A"
_symmetry_group_IT_number 54
_symmetry_cell_setting 'orthorhombic'
loop_
_space_group_symop_operation_xyz
x,y,z
1/2-x,-y,z
1/2+x,-y,1/2-z
-x,y,1/2-z
-x,-y,-z
1/2+x,y,-z
1/2-x,y,1/2+z
x,-y,1/2+z
loop_
_atom_site_type_symbol
_atom_site_label
_atom_site_fract_x
_atom_site_fract_y
_atom_site_fract_z
Si Si1 0.750000 0.000000 0.108212
Si Si2 0.428902 0.909063 0.683646
Si Si3 0.182471 0.674238 0.084028
Si Si4 0.586142 0.828210 0.507556
O O1 0.778871 0.855450 0.061920
O O2 0.919819 0.001719 0.148537
O O3 0.500000 0.874917 0.750000
O O4 0.389065 0.754711 0.644071
O O5 0.250000 0.000000 0.687365
O O6 0.250000 0.500000 0.092145
O O7 0.037962 0.695652 0.033107
O O8 0.330241 0.781020 0.054982
O O9 0.500000 0.000000 0.500000
#
# Coordination Sequence:
#
# PCOD9421596 Si02
#       4
#     4   8   8   8
#     4  10  20  36  62  96 120 156 212 268 306 366
#     4  11  23  41  66  88 120 167 226 270 306 371
#     4  11  23  37  60  94 132 160 196 258 333 382
#     4  11  19  37  64  91 126 161 208 252 313 382
#
# _framework density 18.831244999999999
#
# number of rings (size 3 to 8) (size 9 to 14) (size 15 to 20)
#    0.000    1.143    4.286    4.286    0.000    0.000 
#    0.000    1.429    0.000    0.000    0.000    0.000 
#    0.000    0.000    0.000    0.000    0.000    0.000 
#
# Total GULP energy -156129.660968 kJ/mol
# GULP energy per Si atom -5576.059320 kJ/mol
# Density = 1.878838 g / cm^3
# Si number density = 18.831245 Si / 1000 Ang^3
#
#
#
# Elastic Constant Matrix: (Units=GPa)
#
#
# Indices 1 2 3 4 5 6 
#
# 1 130.9540 60.4505 63.8511 0.0000 0.0000 0.0000
# 2 60.4505 92.9632 49.4375 0.0000 0.0000 0.0000
# 3 63.8511 49.4375 145.8478 0.0000 0.0000 0.0000
# 4 0.0000 0.0000 0.0000 14.3328 0.0000 0.0000
# 5 0.0000 0.0000 0.0000 0.0000 49.7860 0.0000
# 6 0.0000 0.0000 0.0000 0.0000 0.0000 31.2808
#
#
#
# Elastic Compliance Matrix: (Units=1/GPa)
#
#
# Indices 1 2 3 4 5 6 
#
# 1 0.012014 -0.006118 -0.003186 0.000000 0.000000 0.000000
# 2 -0.006118 0.016238 -0.002826 0.000000 0.000000 0.000000
# 3 -0.003186 -0.002826 0.009209 0.000000 0.000000 0.000000
# 4 0.000000 0.000000 0.000000 0.069770 0.000000 0.000000
# 5 0.000000 0.000000 0.000000 0.000000 0.020086 0.000000
# 6 0.000000 0.000000 0.000000 0.000000 0.000000 0.031968
#
#
# Mechanical properties :
#
#
# Convention : Reuss Voigt Hill
#
# Bulk Modulus (GPa) = 75.74703 79.69369 77.72036
# Shear Modulus (GPa) = 26.60360 32.14832 29.37596
#
# Velocity S-wave (km/s) = 3.76272 4.13629 3.95392
# Velocity P-wave (km/s) = 7.69343 8.07611 7.88709
#
# Compressibility (1/GPa) = 0.01320184
#
# Stress axis : x y z
#
# Youngs Moduli (GPa) = 83.23814 61.58426 108.58959
#
# Poissons Ratio (x) = 0.37677 0.34594
# Poissons Ratio (y) = 0.50924 0.30684
# Poissons Ratio (z) = 0.26518 0.17402
#
# Static dielectric constant tensor:
#      x y z
#    x 1.779660 0.000000 0.000000 
#    y 0.000000 1.620970 0.000000 
#    z 0.000000 0.000000 1.660520 
# 
# From -- ./inp_files/19960.got.cif
#   From: 2010.05.17/outbox.cif.g08.bks.cpg/sg54_10_cif.got.tgz:19960.got - 2010.06.03 13:09:01.
