data_PCOD9421897
_publ_section_title
;
Structure prediction by ZEFSAII (Michael W. Deem and Ramdas Pophale) SiO2 
 PCOD9421897
Probable space group: P C C A
;
_chemical_formula_sum "Si O2"
_cell_formula_units_Z 48
_cell_length_a 19.068570
_cell_length_b 7.641187
_cell_length_c 17.042847
_cell_angle_alpha 90.000000
_cell_angle_beta 90.000000
_cell_angle_gamma 90.000000
_cell_volume 2483.253743
_symmetry_space_group_name_H-M "P C C A"
_symmetry_group_IT_number 54
_symmetry_cell_setting 'orthorhombic'
loop_
_space_group_symop_operation_xyz
x,y,z
1/2-x,-y,z
1/2+x,-y,1/2-z
-x,y,1/2-z
-x,-y,-z
1/2+x,y,-z
1/2-x,y,1/2+z
x,-y,1/2+z
loop_
_atom_site_type_symbol
_atom_site_label
_atom_site_fract_x
_atom_site_fract_y
_atom_site_fract_z
Si Si1 0.959975 0.333578 0.033159
Si Si2 0.543578 0.178268 0.823205
Si Si3 0.682911 0.595798 0.126177
Si Si4 0.611386 0.705235 0.716052
Si Si5 0.178808 0.921524 0.761456
Si Si6 0.530163 0.777965 0.863221
O O1 0.883947 0.371407 0.070276
O O2 0.012999 0.262283 0.098887
O O3 0.952597 0.217551 0.954666
O O4 0.000000 0.500000 0.000000
O O5 0.500000 0.254477 0.750000
O O6 0.625141 0.172140 0.798763
O O7 0.524292 0.974965 0.832632
O O8 0.750000 0.500000 0.086708
O O9 0.661753 0.450074 0.190836
O O10 0.695841 0.780171 0.170749
O O11 0.587759 0.689678 0.806683
O O12 0.543313 0.690181 0.660150
O O13 0.641045 0.902508 0.705911
O O14 0.250000 0.000000 0.725341
#
# Coordination Sequence:
#
# PCOD9421897 Si02
#       6
#     8   8   8   8   8   8
#     4  12  25  38  62 100 138 171 219 273 332 399
#     4  11  21  40  68  96 125 174 229 274 329 403
#     4  12  24  40  65  96 133 180 218 270 343 404
#     4  10  20  39  67  93 121 169 223 272 328 394
#     4  11  22  40  65  98 125 168 232 279 327 392
#     4  10  20  40  65  95 126 164 220 282 329 386
#
# _framework density 19.329478000000002
#
# number of rings (size 3 to 8) (size 9 to 14) (size 15 to 20)
#    0.000    1.000    8.333    0.500    2.333    0.000 
#    0.000    4.167    0.000    1.000    0.000    0.000 
#    0.000    0.000    0.000    0.000    0.000    0.000 
#
# Total GULP energy -267623.394131 kJ/mol
# GULP energy per Si atom -5575.487378 kJ/mol
# Density = 1.928548 g / cm^3
# Si number density = 19.329478 Si / 1000 Ang^3
#
#
#
# Elastic Constant Matrix: (Units=GPa)
#
#
# Indices 1 2 3 4 5 6 
#
# 1 130.0031 22.8874 46.9629 0.0000 0.0000 0.0000
# 2 22.8874 63.1448 27.4242 0.0000 0.0000 0.0000
# 3 46.9629 27.4242 132.6943 0.0000 0.0000 0.0000
# 4 0.0000 0.0000 0.0000 29.7708 0.0000 0.0000
# 5 0.0000 0.0000 0.0000 0.0000 20.7656 0.0000
# 6 0.0000 0.0000 0.0000 0.0000 0.0000 23.0191
#
#
#
# Elastic Compliance Matrix: (Units=1/GPa)
#
#
# Indices 1 2 3 4 5 6 
#
# 1 0.009061 -0.002078 -0.002777 0.000000 0.000000 0.000000
# 2 -0.002078 0.017875 -0.002959 0.000000 0.000000 0.000000
# 3 -0.002777 -0.002959 0.009131 0.000000 0.000000 0.000000
# 4 0.000000 0.000000 0.000000 0.033590 0.000000 0.000000
# 5 0.000000 0.000000 0.000000 0.000000 0.048157 0.000000
# 6 0.000000 0.000000 0.000000 0.000000 0.000000 0.043442
#
#
# Mechanical properties :
#
#
# Convention : Reuss Voigt Hill
#
# Bulk Modulus (GPa) = 48.92814 57.82125 53.37469
# Shear Modulus (GPa) = 27.21876 29.94895 28.58385
#
# Velocity S-wave (km/s) = 3.75660 3.94050 3.84965
# Velocity P-wave (km/s) = 6.64708 7.11912 6.88715
#
# Compressibility (1/GPa) = 0.02043814
#
# Stress axis : x y z
#
# Youngs Moduli (GPa) = 110.35907 55.94454 109.52161
#
# Poissons Ratio (x) = 0.11626 0.30420
# Poissons Ratio (y) = 0.22933 0.32405
# Poissons Ratio (z) = 0.30652 0.16553
#
# Static dielectric constant tensor:
#      x y z
#    x 1.746720 0.000000 0.000000 
#    y 0.000000 1.712310 0.000000 
#    z 0.000000 0.000000 2.148950 
# 
# From -- ./inp_files/14146.got.cif
#   From: 2010.05.17/outbox.cif.g08.bks.cpg/sg54_8_cif.got.tgz:14146.got - 2010.06.03 13:09:01.
