data_PCOD9421367
_publ_section_title
;
Structure prediction by ZEFSAII (Michael W. Deem and Ramdas Pophale) SiO2 
 PCOD9421367
Probable space group: P C C A
;
_chemical_formula_sum "Si O2"
_cell_formula_units_Z 40
_cell_length_a 18.443615
_cell_length_b 9.197904
_cell_length_c 12.452304
_cell_angle_alpha 90.000000
_cell_angle_beta 90.000000
_cell_angle_gamma 90.000000
_cell_volume 2112.441229
_symmetry_space_group_name_H-M "P C C A"
_symmetry_group_IT_number 54
_symmetry_cell_setting 'orthorhombic'
loop_
_space_group_symop_operation_xyz
x,y,z
1/2-x,-y,z
1/2+x,-y,1/2-z
-x,y,1/2-z
-x,-y,-z
1/2+x,y,-z
1/2-x,y,1/2+z
x,-y,1/2+z
loop_
_atom_site_type_symbol
_atom_site_label
_atom_site_fract_x
_atom_site_fract_y
_atom_site_fract_z
Si Si1 0.666638 0.667375 0.903552
Si Si2 0.676319 0.710675 0.294736
Si Si3 0.647585 0.353451 0.015639
Si Si4 0.281332 0.841861 0.414377
Si Si5 0.420212 0.555581 0.777079
O O1 0.742600 0.678750 0.838970
O O2 0.603713 0.666969 0.815863
O O3 0.663354 0.514698 0.968327
O O4 0.664781 0.793590 0.991297
O O5 0.633124 0.736641 0.406101
O O6 0.684267 0.830748 0.203414
O O7 0.638785 0.573547 0.236096
O O8 0.716257 0.277519 0.073725
O O9 0.587164 0.375000 0.105749
O O10 0.250000 0.000000 0.434042
O O11 0.500000 0.500777 0.750000
#
# Coordination Sequence:
#
# PCOD9421367 Si02
#       5
#     8   8   8   8   8
#     4  10  21  35  61  86 112 144 195 247 286 338
#     4  10  20  33  56  86 114 144 188 243 286 338
#     4  10  20  35  57  82 117 139 188 241 287 333
#     4  11  21  35  59  87 115 148 189 242 290 342
#     4  11  21  35  59  87 118 150 189 240 294 343
#
# _framework density 18.935437
#
# number of rings (size 3 to 8) (size 9 to 14) (size 15 to 20)
#    0.000    1.600    4.000    5.400    0.000    6.400 
#    0.000    0.000    0.000    2.400    0.000    0.000 
#    0.000    0.000    0.000    0.000    0.000    0.000 
#
# Total GULP energy -222844.647995 kJ/mol
# GULP energy per Si atom -5571.116200 kJ/mol
# Density = 1.889234 g / cm^3
# Si number density = 18.935437 Si / 1000 Ang^3
#
#
#
# Elastic Constant Matrix: (Units=GPa)
#
#
# Indices 1 2 3 4 5 6 
#
# 1 33.0076 2.5779 15.3627 0.0000 0.0000 0.0000
# 2 2.5779 53.3291 36.9226 0.0000 0.0000 0.0000
# 3 15.3627 36.9226 130.4081 0.0000 0.0000 0.0000
# 4 0.0000 0.0000 0.0000 10.1274 0.0000 0.0000
# 5 0.0000 0.0000 0.0000 0.0000 8.8613 0.0000
# 6 0.0000 0.0000 0.0000 0.0000 0.0000 5.7867
#
#
#
# Elastic Compliance Matrix: (Units=1/GPa)
#
#
# Indices 1 2 3 4 5 6 
#
# 1 0.032129 0.001328 -0.004161 0.000000 0.000000 0.000000
# 2 0.001328 0.023378 -0.006776 0.000000 0.000000 0.000000
# 3 -0.004161 -0.006776 0.010077 0.000000 0.000000 0.000000
# 4 0.000000 0.000000 0.000000 0.098742 0.000000 0.000000
# 5 0.000000 0.000000 0.000000 0.000000 0.112851 0.000000
# 6 0.000000 0.000000 0.000000 0.000000 0.000000 0.172809
#
#
# Mechanical properties :
#
#
# Convention : Reuss Voigt Hill
#
# Bulk Modulus (GPa) = 21.56720 36.27459 28.92090
# Shear Modulus (GPa) = 10.31653 15.74718 13.03186
#
# Velocity S-wave (km/s) = 2.33668 2.88692 2.62625
# Velocity P-wave (km/s) = 4.32374 5.50554 4.95003
#
# Compressibility (1/GPa) = 0.04636670
#
# Stress axis : x y z
#
# Youngs Moduli (GPa) = 31.12453 42.77453 99.23803
#
# Poissons Ratio (x) = -0.05679 0.41292
# Poissons Ratio (y) = -0.04132 0.67239
# Poissons Ratio (z) = 0.12951 0.28982
#
# Static dielectric constant tensor:
#      x y z
#    x 1.652180 0.000000 0.000000 
#    y 0.000000 1.649630 0.000000 
#    z 0.000000 0.000000 1.740650 
# 
# From -- ./inp_files/9413.got.cif
#   From: 2010.05.17/outbox.cif.g08.bks.cpg/sg54_5_cif.got.tgz:9413.got - 2010.06.03 13:09:01.
