data_PCOD9421626
_publ_section_title
;
Structure prediction by ZEFSAII (Michael W. Deem and Ramdas Pophale) SiO2 
 PCOD9421626
Probable space group: P C C A
;
_chemical_formula_sum "Si O2"
_cell_formula_units_Z 44
_cell_length_a 17.444852
_cell_length_b 10.270856
_cell_length_c 13.727918
_cell_angle_alpha 90.000000
_cell_angle_beta 90.000000
_cell_angle_gamma 90.000000
_cell_volume 2459.679978
_symmetry_space_group_name_H-M "P C C A"
_symmetry_group_IT_number 54
_symmetry_cell_setting 'orthorhombic'
loop_
_space_group_symop_operation_xyz
x,y,z
1/2-x,-y,z
1/2+x,-y,1/2-z
-x,y,1/2-z
-x,-y,-z
1/2+x,y,-z
1/2-x,y,1/2+z
x,-y,1/2+z
loop_
_atom_site_type_symbol
_atom_site_label
_atom_site_fract_x
_atom_site_fract_y
_atom_site_fract_z
Si Si1 0.316172 0.722868 0.037675
Si Si2 0.500000 0.224826 0.750000
Si Si3 0.808028 0.330169 0.687362
Si Si4 0.807912 0.879974 0.341006
Si Si5 0.357293 0.409179 0.731792
Si Si6 0.061645 0.945436 0.574489
O O1 0.238470 0.784817 0.084458
O O2 0.345039 0.616146 0.116329
O O3 0.378313 0.839191 0.033264
O O4 0.309586 0.670472 0.928869
O O5 0.427289 0.319154 0.764563
O O6 0.481682 0.131563 0.659922
O O7 0.825646 0.194980 0.741085
O O8 0.861457 0.441660 0.734883
O O9 0.720821 0.359759 0.718783
O O10 0.750000 0.000000 0.321901
O O11 0.884924 0.938740 0.385545
O O12 0.000000 0.000000 0.500000
#
# Coordination Sequence:
#
# PCOD9421626 Si02
#       6
#     8   4   8   8   8   8
#     4   9  20  39  57  85 117 145 200 244 281 349
#     4  10  22  42  56  80 134 148 190 248 300 350
#     4  10  20  36  66  83 109 158 204 237 287 349
#     4   9  20  37  56  87 116 147 193 244 285 348
#     4   9  21  40  57  87 114 157 190 244 297 339
#     4  10  22  37  57  85 118 158 186 234 305 353
#
# _framework density 17.888506
#
# number of rings (size 3 to 8) (size 9 to 14) (size 15 to 20)
#    0.000    2.545    0.000    1.091    5.091    8.000 
#    3.273    1.818    0.000    0.000    0.000    0.000 
#    0.000    0.000    0.000    0.000    0.000    0.000 
#
# Total GULP energy -245308.782621 kJ/mol
# GULP energy per Si atom -5575.199605 kJ/mol
# Density = 1.784779 g / cm^3
# Si number density = 17.888506 Si / 1000 Ang^3
#
#
#
# Elastic Constant Matrix: (Units=GPa)
#
#
# Indices 1 2 3 4 5 6 
#
# 1 90.9861 32.7726 49.5956 0.0000 0.0000 0.0000
# 2 32.7726 83.2621 57.9791 0.0000 0.0000 0.0000
# 3 49.5956 57.9791 127.9834 0.0000 0.0000 0.0000
# 4 0.0000 0.0000 0.0000 14.4871 0.0000 0.0000
# 5 0.0000 0.0000 0.0000 0.0000 19.6518 0.0000
# 6 0.0000 0.0000 0.0000 0.0000 0.0000 17.6035
#
#
#
# Elastic Compliance Matrix: (Units=1/GPa)
#
#
# Indices 1 2 3 4 5 6 
#
# 1 0.014305 -0.002586 -0.004372 0.000000 0.000000 0.000000
# 2 -0.002586 0.018013 -0.007158 0.000000 0.000000 0.000000
# 3 -0.004372 -0.007158 0.012750 0.000000 0.000000 0.000000
# 4 0.000000 0.000000 0.000000 0.069027 0.000000 0.000000
# 5 0.000000 0.000000 0.000000 0.000000 0.050886 0.000000
# 6 0.000000 0.000000 0.000000 0.000000 0.000000 0.056807
#
#
# Mechanical properties :
#
#
# Convention : Reuss Voigt Hill
#
# Bulk Modulus (GPa) = 59.39602 64.76958 62.08280
# Shear Modulus (GPa) = 19.55936 21.14077 20.35006
#
# Velocity S-wave (km/s) = 3.31025 3.44147 3.37650
# Velocity P-wave (km/s) = 6.91996 7.21648 7.06978
#
# Compressibility (1/GPa) = 0.01683614
#
# Stress axis : x y z
#
# Youngs Moduli (GPa) = 69.90398 55.51675 78.42946
#
# Poissons Ratio (x) = 0.14359 0.34288
# Poissons Ratio (y) = 0.18080 0.56138
# Poissons Ratio (z) = 0.30561 0.39738
#
# Static dielectric constant tensor:
#      x y z
#    x 1.600200 0.000000 0.000000 
#    y 0.000000 1.655820 0.000000 
#    z 0.000000 0.000000 1.597400 
# 
# From -- ./inp_files/8867.got.cif
#   From: 2010.05.17/outbox.cif.g08.bks.cpg/sg54_5_cif.got.tgz:8867.got - 2010.06.03 13:09:01.
