data_PCOD9421715
_publ_section_title
;
Structure prediction by ZEFSAII (Michael W. Deem and Ramdas Pophale) SiO2 
 PCOD9421715
Probable space group: P C C A
;
_chemical_formula_sum "Si O2"
_cell_formula_units_Z 36
_cell_length_a 5.160343
_cell_length_b 13.264826
_cell_length_c 23.315536
_cell_angle_alpha 90.000000
_cell_angle_beta 90.000000
_cell_angle_gamma 90.000000
_cell_volume 1595.972967
_symmetry_space_group_name_H-M "P C C A"
_symmetry_group_IT_number 54
_symmetry_cell_setting 'orthorhombic'
loop_
_space_group_symop_operation_xyz
x,y,z
1/2-x,-y,z
1/2+x,-y,1/2-z
-x,y,1/2-z
-x,-y,-z
1/2+x,y,-z
1/2-x,y,1/2+z
x,-y,1/2+z
loop_
_atom_site_type_symbol
_atom_site_label
_atom_site_fract_x
_atom_site_fract_y
_atom_site_fract_z
Si Si1 0.337957 0.215010 0.131780
Si Si2 0.750000 0.500000 0.209632
Si Si3 0.656739 0.721973 0.189828
Si Si4 0.519252 0.887517 0.974534
Si Si5 0.245290 0.385965 0.538677
O O1 0.555233 0.233778 0.180358
O O2 0.414658 0.120972 0.091805
O O3 0.336391 0.309626 0.088430
O O4 0.042501 0.213492 0.151984
O O5 0.500000 0.476398 0.250000
O O6 0.683082 0.602401 0.175774
O O7 0.500000 0.721783 0.250000
O O8 0.248575 0.837603 0.989428
O O9 0.500000 0.000000 0.000000
O O10 0.250000 0.500000 0.562148
O O11 0.528278 0.375350 0.510703
#
# Coordination Sequence:
#
# PCOD9421715 Si02
#       5
#     8   4   8   8   8
#     4  12  22  36  62  87 120 165 209 254 320 372
#     4  10  20  38  56  76 116 168 222 278 302 334
#     4  11  24  38  57  86 123 166 219 266 306 355
#     4  10  21  39  64  96 124 149 195 263 318 390
#     4  10  21  35  51  78 118 158 198 247 303 367
#
# _framework density 22.556773
#
# number of rings (size 3 to 8) (size 9 to 14) (size 15 to 20)
#    0.000    1.333    0.000    7.333    3.111    0.000 
#    0.000    0.000    0.000    0.000    0.000   62.222 
#    0.000    0.000    0.000    0.000    0.000    0.000 
#
# Total GULP energy -200942.215088 kJ/mol
# GULP energy per Si atom -5581.728197 kJ/mol
# Density = 2.250543 g / cm^3
# Si number density = 22.556773 Si / 1000 Ang^3
#
#
#
# Elastic Constant Matrix: (Units=GPa)
#
#
# Indices 1 2 3 4 5 6 
#
# 1 155.5571 12.9721 8.8597 0.0000 0.0000 0.0000
# 2 12.9721 80.6333 18.9562 0.0000 0.0000 0.0000
# 3 8.8597 18.9562 50.8452 0.0000 0.0000 0.0000
# 4 0.0000 0.0000 0.0000 27.2510 0.0000 0.0000
# 5 0.0000 0.0000 0.0000 0.0000 41.7098 0.0000
# 6 0.0000 0.0000 0.0000 0.0000 0.0000 14.0898
#
#
#
# Elastic Compliance Matrix: (Units=1/GPa)
#
#
# Indices 1 2 3 4 5 6 
#
# 1 0.006547 -0.000860 -0.000820 0.000000 0.000000 0.000000
# 2 -0.000860 0.013706 -0.004960 0.000000 0.000000 0.000000
# 3 -0.000820 -0.004960 0.021660 0.000000 0.000000 0.000000
# 4 0.000000 0.000000 0.000000 0.036696 0.000000 0.000000
# 5 0.000000 0.000000 0.000000 0.000000 0.023975 0.000000
# 6 0.000000 0.000000 0.000000 0.000000 0.000000 0.070973
#
#
# Mechanical properties :
#
#
# Convention : Reuss Voigt Hill
#
# Bulk Modulus (GPa) = 34.92618 40.95687 37.94152
# Shear Modulus (GPa) = 25.46052 33.02662 29.24357
#
# Velocity S-wave (km/s) = 3.36330 3.83058 3.60452
# Velocity P-wave (km/s) = 5.53170 6.14501 5.84640
#
# Compressibility (1/GPa) = 0.02863181
#
# Stress axis : x y z
#
# Youngs Moduli (GPa) = 152.74249 72.95894 46.16878
#
# Poissons Ratio (x) = 0.06278 0.03786
# Poissons Ratio (y) = 0.13143 0.22900
# Poissons Ratio (z) = 0.12525 0.36188
#
# Static dielectric constant tensor:
#      x y z
#    x 1.856890 0.000000 0.000000 
#    y 0.000000 1.573430 0.000000 
#    z 0.000000 0.000000 1.892740 
# 
# From -- ./inp_files/19616.got.cif
#   From: 2010.05.17/outbox.cif.g08.bks.cpg/sg54_10_cif.got.tgz:19616.got - 2010.06.03 13:09:01.
