data_PCOD9421324
_publ_section_title
;
Structure prediction by ZEFSAII (Michael W. Deem and Ramdas Pophale) SiO2 
 PCOD9421324
Probable space group: P C C A
;
_chemical_formula_sum "Si O2"
_cell_formula_units_Z 40
_cell_length_a 25.507007
_cell_length_b 5.897369
_cell_length_c 11.771117
_cell_angle_alpha 90.000000
_cell_angle_beta 90.000000
_cell_angle_gamma 90.000000
_cell_volume 1770.661239
_symmetry_space_group_name_H-M "P C C A"
_symmetry_group_IT_number 54
_symmetry_cell_setting 'orthorhombic'
loop_
_space_group_symop_operation_xyz
x,y,z
1/2-x,-y,z
1/2+x,-y,1/2-z
-x,y,1/2-z
-x,-y,-z
1/2+x,y,-z
1/2-x,y,1/2+z
x,-y,1/2+z
loop_
_atom_site_type_symbol
_atom_site_label
_atom_site_fract_x
_atom_site_fract_y
_atom_site_fract_z
Si Si1 0.750000 0.500000 0.928601
Si Si2 0.299853 0.107931 0.229761
Si Si3 0.000000 0.420496 0.250000
Si Si4 0.098223 0.328050 0.729308
Si Si5 0.650144 0.716832 0.430290
Si Si6 0.548512 0.067808 0.924542
O O1 0.725591 0.696209 0.848794
O O2 0.800167 0.603286 0.993288
O O3 0.351472 0.211307 0.287712
O O4 0.250000 0.000000 0.295580
O O5 0.324035 0.911709 0.148998
O O6 0.950703 0.564906 0.203436
O O7 0.974785 0.260680 0.343657
O O8 0.124864 0.522972 0.650913
O O9 0.069878 0.142470 0.649359
O O10 0.599777 0.832706 0.486878
O O11 0.500000 0.000000 0.000000
#
# Coordination Sequence:
#
# PCOD9421324 Si02
#       6
#     4   8   4   8   8   8
#     4   8  12  22  40  64  98 124 158 212 260 306
#     4   8  13  23  41  67  98 125 158 209 261 311
#     4  10  20  32  48  70 102 144 180 220 270 316
#     4   9  17  30  46  68 102 132 168 216 261 317
#     4   8  15  25  42  67  97 129 163 209 258 309
#     4  10  20  33  49  72 106 139 177 219 264 325
#
# _framework density 22.590430000000001
#
# number of rings (size 3 to 8) (size 9 to 14) (size 15 to 20)
#    0.000    3.200    0.000    0.600    0.000    3.200 
#    0.000    0.000    0.000    0.000    0.000    0.000 
#    0.000 1656.000    0.000    0.000    0.000    3.800 
#
# Total GULP energy -222699.937829 kJ/mol
# GULP energy per Si atom -5567.498446 kJ/mol
# Density = 2.253901 g / cm^3
# Si number density = 22.590430 Si / 1000 Ang^3
#
#
#
# Elastic Constant Matrix: (Units=GPa)
#
#
# Indices 1 2 3 4 5 6 
#
# 1 251.7065 89.8320 47.4325 0.0000 0.0000 0.0000
# 2 89.8320 118.4045 23.2804 0.0000 0.0000 0.0000
# 3 47.4325 23.2804 35.1870 0.0000 0.0000 0.0000
# 4 0.0000 0.0000 0.0000 -1.4290 0.0000 0.0000
# 5 0.0000 0.0000 0.0000 0.0000 9.5780 0.0000
# 6 0.0000 0.0000 0.0000 0.0000 0.0000 88.8449
#
#
#
# Elastic Compliance Matrix: (Units=1/GPa)
#
#
# Indices 1 2 3 4 5 6 
#
# 1 0.006468 -0.003671 -0.006291 0.000000 0.000000 0.000000
# 2 -0.003671 0.011791 -0.002854 0.000000 0.000000 0.000000
# 3 -0.006291 -0.002854 0.038788 0.000000 0.000000 0.000000
# 4 0.000000 0.000000 0.000000 -0.699814 0.000000 0.000000
# 5 0.000000 0.000000 0.000000 0.000000 0.104406 0.000000
# 6 0.000000 0.000000 0.000000 0.000000 0.000000 0.011256
#
#
# Mechanical properties :
#
#
# Convention : Reuss Voigt Hill
#
# Bulk Modulus (GPa) = 31.82929 80.70974 56.26951
# Shear Modulus (GPa) = -10.18327 35.71565 12.76619
#
# Velocity S-wave (km/s) = -2.12546 3.98050 2.37979
# Velocity P-wave (km/s) = 2.84550 7.54525 5.70209
#
# Compressibility (1/GPa) = 0.03141761
#
# Stress axis : x y z
#
# Youngs Moduli (GPa) = 154.59893 84.80698 25.78134
#
# Poissons Ratio (x) = 0.31129 0.16219
# Poissons Ratio (y) = 0.56746 0.07357
# Poissons Ratio (z) = 0.97257 0.24200
#
# Static dielectric constant tensor:
#      x y z
#    x 1.871190 0.000000 0.000000 
#    y 0.000000 1.885440 0.000000 
#    z 0.000000 0.000000 2.027610 
# 
# From -- ./inp_files/10436.got.cif
#   From: 2010.05.17/outbox.cif.g08.bks.cpg/sg54_6_cif.got.tgz:10436.got - 2010.06.03 13:09:01.
