data_PCOD9421671
_publ_section_title
;
Structure prediction by ZEFSAII (Michael W. Deem and Ramdas Pophale) SiO2 
 PCOD9421671
Probable space group: P C C A
;
_chemical_formula_sum "Si O2"
_cell_formula_units_Z 48
_cell_length_a 17.791846
_cell_length_b 7.993454
_cell_length_c 16.178402
_cell_angle_alpha 90.000000
_cell_angle_beta 90.000000
_cell_angle_gamma 90.000000
_cell_volume 2300.864871
_symmetry_space_group_name_H-M "P C C A"
_symmetry_group_IT_number 54
_symmetry_cell_setting 'orthorhombic'
loop_
_space_group_symop_operation_xyz
x,y,z
1/2-x,-y,z
1/2+x,-y,1/2-z
-x,y,1/2-z
-x,-y,-z
1/2+x,y,-z
1/2-x,y,1/2+z
x,-y,1/2+z
loop_
_atom_site_type_symbol
_atom_site_label
_atom_site_fract_x
_atom_site_fract_y
_atom_site_fract_z
Si Si1 0.313474 0.897202 0.290643
Si Si2 0.570258 0.294461 0.813219
Si Si3 0.928236 0.048967 0.908370
Si Si4 0.899454 0.089523 0.570569
Si Si5 0.199087 0.657907 0.369716
Si Si6 0.084798 0.337627 0.714398
O O1 0.356553 0.763950 0.236622
O O2 0.260329 0.801779 0.354508
O O3 0.250000 0.000000 0.240953
O O4 0.372894 0.006233 0.342969
O O5 0.500000 0.290562 0.750000
O O6 0.580167 0.488499 0.837170
O O7 0.560615 0.142404 0.877200
O O8 0.895787 0.174535 0.839944
O O9 0.011736 0.116437 0.926381
O O10 0.883790 0.032454 0.993900
O O11 0.856842 0.265295 0.562833
O O12 0.250000 0.500000 0.388934
O O13 0.145574 0.635582 0.288259
O O14 0.000000 0.310371 0.750000
#
# Coordination Sequence:
#
# PCOD9421671 Si02
#       6
#     8   8   8   8   8   8
#     4  10  20  37  61  86 121 167 215 255 318 383
#     4  11  21  37  63  97 123 163 212 274 316 372
#     4  11  21  40  64  91 133 162 215 271 329 370
#     4  10  22  39  60  94 124 175 211 261 326 395
#     4  11  21  40  65  92 126 169 216 261 317 396
#     4  11  22  39  66 100 121 160 219 276 314 375
#
# _framework density 20.861723000000001
#
# number of rings (size 3 to 8) (size 9 to 14) (size 15 to 20)
#    0.000    1.333    5.000    2.500    0.000    0.000 
#    3.000    9.167    0.000    0.000    0.000    0.000 
#    0.000    0.000    0.000    0.000    0.000    0.000 
#
# Total GULP energy -267558.483324 kJ/mol
# GULP energy per Si atom -5574.135069 kJ/mol
# Density = 2.081424 g / cm^3
# Si number density = 20.861723 Si / 1000 Ang^3
#
#
#
# Elastic Constant Matrix: (Units=GPa)
#
#
# Indices 1 2 3 4 5 6 
#
# 1 84.9274 33.0842 27.2044 0.0000 0.0000 0.0000
# 2 33.0842 118.2349 29.1279 0.0000 0.0000 0.0000
# 3 27.2044 29.1279 53.6797 0.0000 0.0000 0.0000
# 4 0.0000 0.0000 0.0000 21.1648 0.0000 0.0000
# 5 0.0000 0.0000 0.0000 0.0000 18.9927 0.0000
# 6 0.0000 0.0000 0.0000 0.0000 0.0000 35.6077
#
#
#
# Elastic Compliance Matrix: (Units=1/GPa)
#
#
# Indices 1 2 3 4 5 6 
#
# 1 0.014736 -0.002636 -0.006038 0.000000 0.000000 0.000000
# 2 -0.002636 0.010234 -0.004218 0.000000 0.000000 0.000000
# 3 -0.006038 -0.004218 0.023977 0.000000 0.000000 0.000000
# 4 0.000000 0.000000 0.000000 0.047248 0.000000 0.000000
# 5 0.000000 0.000000 0.000000 0.000000 0.052652 0.000000
# 6 0.000000 0.000000 0.000000 0.000000 0.000000 0.028084
#
#
# Mechanical properties :
#
#
# Convention : Reuss Voigt Hill
#
# Bulk Modulus (GPa) = 43.16812 48.40835 45.78824
# Shear Modulus (GPa) = 23.76032 26.31474 25.03753
#
# Velocity S-wave (km/s) = 3.37849 3.55546 3.46810
# Velocity P-wave (km/s) = 5.99636 6.33323 6.16709
#
# Compressibility (1/GPa) = 0.02316524
#
# Stress axis : x y z
#
# Youngs Moduli (GPa) = 67.86293 97.71042 41.70604
#
# Poissons Ratio (x) = 0.25755 0.25180
# Poissons Ratio (y) = 0.17888 0.17590
# Poissons Ratio (z) = 0.40973 0.41210
#
# Static dielectric constant tensor:
#      x y z
#    x 1.761400 0.000000 0.000000 
#    y 0.000000 1.849420 0.000000 
#    z 0.000000 0.000000 1.783230 
# 
# From -- ./inp_files/14121.got.cif
#   From: 2010.05.17/outbox.cif.g08.bks.cpg/sg54_8_cif.got.tgz:14121.got - 2010.06.03 13:09:01.
