data_PCOD9421018
_publ_section_title
;
Structure prediction by ZEFSAII (Michael W. Deem and Ramdas Pophale) SiO2 
 PCOD9421018
Probable space group: P C C A
;
_chemical_formula_sum "Si O2"
_cell_formula_units_Z 48
_cell_length_a 23.160596
_cell_length_b 12.209787
_cell_length_c 8.651592
_cell_angle_alpha 90.000000
_cell_angle_beta 90.000000
_cell_angle_gamma 90.000000
_cell_volume 2446.548610
_symmetry_space_group_name_H-M "P C C A"
_symmetry_group_IT_number 54
_symmetry_cell_setting 'orthorhombic'
loop_
_space_group_symop_operation_xyz
x,y,z
1/2-x,-y,z
1/2+x,-y,1/2-z
-x,y,1/2-z
-x,-y,-z
1/2+x,y,-z
1/2-x,y,1/2+z
x,-y,1/2+z
loop_
_atom_site_type_symbol
_atom_site_label
_atom_site_fract_x
_atom_site_fract_y
_atom_site_fract_z
Si Si1 0.716529 0.262238 0.231567
Si Si2 0.348050 0.341797 0.738081
Si Si3 0.274288 0.887565 0.493806
Si Si4 0.958228 0.939571 0.378839
Si Si5 0.110100 0.117196 0.329422
Si Si6 0.181958 0.469160 0.944499
O O1 0.782361 0.297721 0.263108
O O2 0.698518 0.193355 0.379687
O O3 0.684732 0.373243 0.184977
O O4 0.722501 0.179362 0.087724
O O5 0.388288 0.236459 0.750595
O O6 0.349081 0.422926 0.883432
O O7 0.350842 0.416084 0.587251
O O8 0.323723 0.914360 0.368850
O O9 0.250000 0.000000 0.560763
O O10 0.919681 0.874119 0.501578
O O11 0.000000 0.884490 0.250000
O O12 0.920019 0.027611 0.281324
O O13 0.000000 0.000000 0.500000
O O14 0.250000 0.500000 0.979604
#
# Coordination Sequence:
#
# PCOD9421018 Si02
#       6
#     8   8   8   8   8   8
#     4  10  20  34  49  71 120 177 213 233 282 325
#     4  10  21  34  52  84 116 161 209 257 276 341
#     4  11  23  33  49  84 134 171 197 237 289 358
#     4   9  20  44  68  87 111 150 197 260 322 378
#     4  10  23  37  60  93 122 151 206 250 309 371
#     4  10  19  34  55  73 119 176 225 245 275 327
#
# _framework density 19.619475999999999
#
# number of rings (size 3 to 8) (size 9 to 14) (size 15 to 20)
#    0.000    2.000    1.667    2.000   11.667    0.000 
#    3.000    0.000    0.000    0.000    0.000   15.167 
#    0.000    0.000    0.000    0.000    0.000    0.000 
#
# Total GULP energy -267603.755727 kJ/mol
# GULP energy per Si atom -5575.078244 kJ/mol
# Density = 1.957482 g / cm^3
# Si number density = 19.619476 Si / 1000 Ang^3
#
#
#
# Elastic Constant Matrix: (Units=GPa)
#
#
# Indices 1 2 3 4 5 6 
#
# 1 28.3354 26.6933 14.8730 0.0000 0.0000 0.0000
# 2 26.6933 87.3331 38.3432 0.0000 0.0000 0.0000
# 3 14.8730 38.3432 98.5307 0.0000 0.0000 0.0000
# 4 0.0000 0.0000 0.0000 42.4061 0.0000 0.0000
# 5 0.0000 0.0000 0.0000 0.0000 29.8200 0.0000
# 6 0.0000 0.0000 0.0000 0.0000 0.0000 9.7826
#
#
#
# Elastic Compliance Matrix: (Units=1/GPa)
#
#
# Indices 1 2 3 4 5 6 
#
# 1 0.049863 -0.014396 -0.001925 0.000000 0.000000 0.000000
# 2 -0.014396 0.017966 -0.004818 0.000000 0.000000 0.000000
# 3 -0.001925 -0.004818 0.012315 0.000000 0.000000 0.000000
# 4 0.000000 0.000000 0.000000 0.023582 0.000000 0.000000
# 5 0.000000 0.000000 0.000000 0.000000 0.033535 0.000000
# 6 0.000000 0.000000 0.000000 0.000000 0.000000 0.102222
#
#
# Mechanical properties :
#
#
# Convention : Reuss Voigt Hill
#
# Bulk Modulus (GPa) = 26.40871 41.55758 33.98314
# Shear Modulus (GPa) = 16.98477 25.35438 21.16958
#
# Velocity S-wave (km/s) = 2.94549 3.59877 3.28839
# Velocity P-wave (km/s) = 5.00575 6.20451 5.63709
#
# Compressibility (1/GPa) = 0.03786630
#
# Stress axis : x y z
#
# Youngs Moduli (GPa) = 20.05495 55.66097 81.20340
#
# Poissons Ratio (x) = 0.80127 0.15629
# Poissons Ratio (y) = 0.28870 0.39128
# Poissons Ratio (z) = 0.03860 0.26820
#
# Static dielectric constant tensor:
#      x y z
#    x 1.709820 0.000000 0.000000 
#    y 0.000000 1.726050 0.000000 
#    z 0.000000 0.000000 1.789350 
# 
# From -- ./inp_files/5145.got.cif
#   From: 2010.05.17/outbox.cif.g08.bks.cpg/sg54_3_cif.got.tgz:5145.got - 2010.06.03 13:09:01.
