data_PCOD9421891
_publ_section_title
;
Structure prediction by ZEFSAII (Michael W. Deem and Ramdas Pophale) SiO2 
 PCOD9421891
Probable space group: P C C A
;
_chemical_formula_sum "Si O2"
_cell_formula_units_Z 52
_cell_length_a 22.263797
_cell_length_b 8.261732
_cell_length_c 14.180755
_cell_angle_alpha 90.000000
_cell_angle_beta 90.000000
_cell_angle_gamma 90.000000
_cell_volume 2608.372965
_symmetry_space_group_name_H-M "P C C A"
_symmetry_group_IT_number 54
_symmetry_cell_setting 'orthorhombic'
loop_
_space_group_symop_operation_xyz
x,y,z
1/2-x,-y,z
1/2+x,-y,1/2-z
-x,y,1/2-z
-x,-y,-z
1/2+x,y,-z
1/2-x,y,1/2+z
x,-y,1/2+z
loop_
_atom_site_type_symbol
_atom_site_label
_atom_site_fract_x
_atom_site_fract_y
_atom_site_fract_z
Si Si1 0.500000 0.715350 0.250000
Si Si2 0.835922 0.497614 0.886673
Si Si3 0.203704 0.276215 0.289057
Si Si4 0.750000 0.500000 0.046682
Si Si5 0.000000 0.802739 0.250000
Si Si6 0.478151 0.474905 0.104676
Si Si7 0.294737 0.868423 0.643878
Si Si8 0.602416 0.952699 0.257863
O O1 0.518624 0.597187 0.166688
O O2 0.553250 0.823077 0.290309
O O3 0.815404 0.590526 0.791163
O O4 0.907194 0.510799 0.891513
O O5 0.814953 0.308872 0.891540
O O6 0.801422 0.569963 0.977146
O O7 0.222880 0.365748 0.383522
O O8 0.258485 0.180198 0.239644
O O9 0.149077 0.150535 0.304649
O O10 0.014996 0.694280 0.159144
O O11 0.058395 0.907464 0.279033
O O12 0.500000 0.500000 0.000000
O O13 0.250000 0.000000 0.594615
O O14 0.355103 0.967266 0.664700
#
# Coordination Sequence:
#
# PCOD9421891 Si02
#       8
#     4   8   8   4   4   8   8   8
#     4  10  22  42  64  94 124 176 218 266 322 384
#     4  12  22  42  65  95 135 173 215 277 327 389
#     4  11  22  42  66  94 130 173 218 269 325 401
#     4  12  24  36  70  98 126 164 226 262 326 392
#     4  10  22  44  70  92 132 180 222 268 330 388
#     4  11  25  41  68  98 128 173 227 270 322 392
#     4  10  20  39  66  89 129 172 209 267 338 381
#     4  10  21  39  69  90 129 177 212 265 336 382
#
# _framework density 19.9358
#
# number of rings (size 3 to 8) (size 9 to 14) (size 15 to 20)
#    0.000    1.231    6.154    0.000    2.154    1.231 
#    0.000    6.923    3.385    0.000    0.000    0.000 
#    0.000    0.000    0.000    0.000    0.000    0.000 
#
# Total GULP energy -289588.806980 kJ/mol
# GULP energy per Si atom -5569.015519 kJ/mol
# Density = 1.989043 g / cm^3
# Si number density = 19.935800 Si / 1000 Ang^3
#
#
#
# Elastic Constant Matrix: (Units=GPa)
#
#
# Indices 1 2 3 4 5 6 
#
# 1 107.2060 48.8447 29.0266 0.0000 0.0000 0.0000
# 2 48.8447 112.4449 43.7236 0.0000 0.0000 0.0000
# 3 29.0266 43.7236 107.0403 0.0000 0.0000 0.0000
# 4 0.0000 0.0000 0.0000 7.4939 0.0000 0.0000
# 5 0.0000 0.0000 0.0000 0.0000 19.9157 0.0000
# 6 0.0000 0.0000 0.0000 0.0000 0.0000 46.5797
#
#
#
# Elastic Compliance Matrix: (Units=1/GPa)
#
#
# Indices 1 2 3 4 5 6 
#
# 1 0.011783 -0.004608 -0.001313 0.000000 0.000000 0.000000
# 2 -0.004608 0.012374 -0.003805 0.000000 0.000000 0.000000
# 3 -0.001313 -0.003805 0.011253 0.000000 0.000000 0.000000
# 4 0.000000 0.000000 0.000000 0.133443 0.000000 0.000000
# 5 0.000000 0.000000 0.000000 0.000000 0.050212 0.000000
# 6 0.000000 0.000000 0.000000 0.000000 0.000000 0.021469
#
#
# Mechanical properties :
#
#
# Convention : Reuss Voigt Hill
#
# Bulk Modulus (GPa) = 62.66466 63.32010 62.99238
# Shear Modulus (GPa) = 18.84632 28.47095 23.65864
#
# Velocity S-wave (km/s) = 3.07799 3.78316 3.44865
# Velocity P-wave (km/s) = 6.64331 7.13541 6.89375
#
# Compressibility (1/GPa) = 0.01595796
#
# Stress axis : x y z
#
# Youngs Moduli (GPa) = 84.87035 80.81206 88.86791
#
# Poissons Ratio (x) = 0.37236 0.11669
# Poissons Ratio (y) = 0.39106 0.33816
# Poissons Ratio (z) = 0.11144 0.30750
#
# Static dielectric constant tensor:
#      x y z
#    x 1.714280 0.000000 0.000000 
#    y 0.000000 1.786740 0.000000 
#    z 0.000000 0.000000 1.652280 
# 
# From -- ./inp_files/14936.got.cif
#   From: 2010.05.17/outbox.cif.g08.bks.cpg/sg54_8_cif.got.tgz:14936.got - 2010.06.03 13:09:01.
