data_PCOD9421346
_publ_section_title
;
Structure prediction by ZEFSAII (Michael W. Deem and Ramdas Pophale) SiO2 
 PCOD9421346
Probable space group: P C C A
;
_chemical_formula_sum "Si O2"
_cell_formula_units_Z 56
_cell_length_a 15.632229
_cell_length_b 19.487423
_cell_length_c 9.385128
_cell_angle_alpha 90.000000
_cell_angle_beta 90.000000
_cell_angle_gamma 90.000000
_cell_volume 2859.008989
_symmetry_space_group_name_H-M "P C C A"
_symmetry_group_IT_number 54
_symmetry_cell_setting 'orthorhombic'
loop_
_space_group_symop_operation_xyz
x,y,z
1/2-x,-y,z
1/2+x,-y,1/2-z
-x,y,1/2-z
-x,-y,-z
1/2+x,y,-z
1/2-x,y,1/2+z
x,-y,1/2+z
loop_
_atom_site_type_symbol
_atom_site_label
_atom_site_fract_x
_atom_site_fract_y
_atom_site_fract_z
Si Si1 0.442699 0.462791 0.885809
Si Si2 0.834444 0.085243 0.858753
Si Si3 0.671705 0.638655 0.985833
Si Si4 0.500000 0.160785 0.250000
Si Si5 0.164925 0.594222 0.334424
Si Si6 0.250000 0.000000 0.896453
Si Si7 0.629002 0.737804 0.592910
Si Si8 0.739480 0.231719 0.366175
O O1 0.500000 0.454568 0.750000
O O2 0.410758 0.390024 0.938633
O O3 0.367475 0.517932 0.860721
O O4 0.500000 0.500000 0.000000
O O5 0.776898 0.152240 0.888204
O O6 0.816781 0.036507 0.994667
O O7 0.930164 0.113741 0.831637
O O8 0.800149 0.050254 0.712742
O O9 0.750694 0.612803 0.078931
O O10 0.675473 0.719085 0.954974
O O11 0.679444 0.602978 0.832647
O O12 0.444719 0.210095 0.355852
O O13 0.103576 0.658126 0.381191
O O14 0.668510 0.748617 0.434598
O O15 0.708887 0.752349 0.704129
#
# Coordination Sequence:
#
# PCOD9421346 Si02
#       8
#     8   8   8   4   8   4   8   8
#     4  12  25  38  56  82 118 158 192 251 309 354
#     4  10  20  37  61  89 120 157 193 238 288 347
#     4  10  22  39  59  85 110 154 203 247 289 358
#     4  10  20  32  60  90 120 154 192 244 292 344
#     4  10  22  38  60  81 115 154 203 247 296 356
#     4  10  22  38  62  90 120 160 196 228 278 372
#     4   9  19  35  61  87 112 154 201 246 291 347
#     4   9  18  37  62  81 113 150 197 240 283 353
#
# _framework density 19.587208
#
# number of rings (size 3 to 8) (size 9 to 14) (size 15 to 20)
#    0.000    2.000    1.429    2.143    3.000    2.857 
#    0.000    0.000    0.000   10.286    0.000    0.000 
#    0.000    0.000    0.000    0.000    0.000    0.000 
#
# Total GULP energy -312142.616077 kJ/mol
# GULP energy per Si atom -5573.975287 kJ/mol
# Density = 1.954263 g / cm^3
# Si number density = 19.587208 Si / 1000 Ang^3
#
#
#
# Elastic Constant Matrix: (Units=GPa)
#
#
# Indices 1 2 3 4 5 6 
#
# 1 53.4047 14.0647 21.7916 0.0000 0.0000 0.0000
# 2 14.0647 90.1523 20.9241 0.0000 0.0000 0.0000
# 3 21.7916 20.9241 87.6777 0.0000 0.0000 0.0000
# 4 0.0000 0.0000 0.0000 23.9956 0.0000 0.0000
# 5 0.0000 0.0000 0.0000 0.0000 11.6364 0.0000
# 6 0.0000 0.0000 0.0000 0.0000 0.0000 40.7003
#
#
#
# Elastic Compliance Matrix: (Units=1/GPa)
#
#
# Indices 1 2 3 4 5 6 
#
# 1 0.021247 -0.002212 -0.004753 0.000000 0.000000 0.000000
# 2 -0.002212 0.011973 -0.002308 0.000000 0.000000 0.000000
# 3 -0.004753 -0.002308 0.013137 0.000000 0.000000 0.000000
# 4 0.000000 0.000000 0.000000 0.041674 0.000000 0.000000
# 5 0.000000 0.000000 0.000000 0.000000 0.085937 0.000000
# 6 0.000000 0.000000 0.000000 0.000000 0.000000 0.024570
#
#
# Mechanical properties :
#
#
# Convention : Reuss Voigt Hill
#
# Bulk Modulus (GPa) = 35.95460 38.31063 37.13261
# Shear Modulus (GPa) = 22.08930 26.89674 24.49302
#
# Velocity S-wave (km/s) = 3.36183 3.70966 3.54002
# Velocity P-wave (km/s) = 5.78491 6.16038 5.97559
#
# Compressibility (1/GPa) = 0.02781285
#
# Stress axis : x y z
#
# Youngs Moduli (GPa) = 47.06593 83.52143 76.11844
#
# Poissons Ratio (x) = 0.18472 0.36178
# Poissons Ratio (y) = 0.10409 0.17566
# Poissons Ratio (z) = 0.22370 0.19274
#
# Static dielectric constant tensor:
#      x y z
#    x 1.721980 0.000000 0.000000 
#    y 0.000000 1.711600 0.000000 
#    z 0.000000 0.000000 1.646660 
# 
# From -- ./inp_files/3697.got.cif
#   From: 2010.05.17/outbox.cif.g08.bks.cpg/sg54_2_cif.got.tgz:3697.got - 2010.06.03 13:09:01.
