data_PCOD9421109
_publ_section_title
;
Structure prediction by ZEFSAII (Michael W. Deem and Ramdas Pophale) SiO2 
 PCOD9421109
Probable space group: P C C A
;
_chemical_formula_sum "Si O2"
_cell_formula_units_Z 60
_cell_length_a 5.618682
_cell_length_b 19.612590
_cell_length_c 26.810046
_cell_angle_alpha 90.000000
_cell_angle_beta 90.000000
_cell_angle_gamma 90.000000
_cell_volume 2954.384130
_symmetry_space_group_name_H-M "P C C A"
_symmetry_group_IT_number 54
_symmetry_cell_setting 'orthorhombic'
loop_
_space_group_symop_operation_xyz
x,y,z
1/2-x,-y,z
1/2+x,-y,1/2-z
-x,y,1/2-z
-x,-y,-z
1/2+x,y,-z
1/2-x,y,1/2+z
x,-y,1/2+z
loop_
_atom_site_type_symbol
_atom_site_label
_atom_site_fract_x
_atom_site_fract_y
_atom_site_fract_z
Si Si1 0.233454 0.731089 0.870148
Si Si2 0.242167 0.131339 0.811540
Si Si3 0.460994 0.379541 0.693281
Si Si4 0.250000 0.500000 0.354246
Si Si5 0.092906 0.611230 0.120647
Si Si6 0.812630 0.394469 0.480717
Si Si7 0.262075 0.237821 0.982144
Si Si8 0.753530 0.920162 0.800522
O O1 0.277622 0.792591 0.832256
O O2 0.049764 0.681159 0.842548
O O3 0.458157 0.682693 0.882657
O O4 0.162739 0.759522 0.924133
O O5 0.498328 0.099616 0.827044
O O6 0.247957 0.122368 0.751352
O O7 0.996135 0.095002 0.827628
O O8 0.500000 0.360700 0.750000
O O9 0.603927 0.447568 0.679675
O O10 0.192883 0.393808 0.676428
O O11 0.416198 0.451465 0.386888
O O12 0.294701 0.604838 0.078976
O O13 0.562832 0.423578 0.500988
O O14 0.788011 0.315645 0.499110
O O15 0.494333 0.207671 0.010531
O O16 0.750000 0.000000 0.787131
#
# Coordination Sequence:
#
# PCOD9421109 Si02
#       8
#     8   8   8   4   8   8   8   8
#     4  11  24  36  60  96 124 155 200 264 314 365
#     4  10  21  32  58  90 126 158 211 243 294 356
#     4  11  26  41  65  79 117 162 208 258 320 367
#     4  10  26  42  60  86 104 160 218 262 304 382
#     4  11  23  42  64  84 121 156 207 261 323 375
#     4  10  19  36  65  89 115 156 193 243 324 385
#     4  10  19  35  60  85 121 164 193 238 320 383
#     4  10  20  39  60  83 128 178 207 244 291 351
#
# _framework density 20.308802
#
# number of rings (size 3 to 8) (size 9 to 14) (size 15 to 20)
#    0.000    1.600    2.667    4.000    7.467    2.667 
#    0.000    0.667    0.000    0.000    0.000    0.000 
#    0.000   18.133    0.000    0.000    0.000    0.000 
#
# Total GULP energy -334675.919463 kJ/mol
# GULP energy per Si atom -5577.931991 kJ/mol
# Density = 2.026258 g / cm^3
# Si number density = 20.308802 Si / 1000 Ang^3
#
#
#
# Elastic Constant Matrix: (Units=GPa)
#
#
# Indices 1 2 3 4 5 6 
#
# 1 144.8093 23.3452 20.6713 0.0000 0.0000 0.0000
# 2 23.3452 74.6828 26.1749 0.0000 0.0000 0.0000
# 3 20.6713 26.1749 82.7988 0.0000 0.0000 0.0000
# 4 0.0000 0.0000 0.0000 -23.0445 0.0000 0.0000
# 5 0.0000 0.0000 0.0000 0.0000 8.0369 0.0000
# 6 0.0000 0.0000 0.0000 0.0000 0.0000 -4.6619
#
#
#
# Elastic Compliance Matrix: (Units=1/GPa)
#
#
# Indices 1 2 3 4 5 6 
#
# 1 0.007386 -0.001870 -0.001253 0.000000 0.000000 0.000000
# 2 -0.001870 0.015532 -0.004443 0.000000 0.000000 0.000000
# 3 -0.001253 -0.004443 0.013795 0.000000 0.000000 0.000000
# 4 0.000000 0.000000 0.000000 -0.043394 0.000000 0.000000
# 5 0.000000 0.000000 0.000000 0.000000 0.124426 0.000000
# 6 0.000000 0.000000 0.000000 0.000000 0.000000 -0.214505
#
#
# Mechanical properties :
#
#
# Convention : Reuss Voigt Hill
#
# Bulk Modulus (GPa) = 46.33716 49.18596 47.76156
# Shear Modulus (GPa) = -67.17246 11.53941 -27.81652
#
# Velocity S-wave (km/s) = -5.75737 2.38628 -3.70493
# Velocity P-wave (km/s) = 4.61851 5.64482 2.29493
#
# Compressibility (1/GPa) = 0.02158095
#
# Stress axis : x y z
#
# Youngs Moduli (GPa) = 135.39323 64.38467 72.49068
#
# Poissons Ratio (x) = 0.12038 0.09082
# Poissons Ratio (y) = 0.25314 0.32209
# Poissons Ratio (z) = 0.16963 0.28607
#
# Static dielectric constant tensor:
#      x y z
#    x 1.842980 0.000000 0.000000 
#    y 0.000000 1.671750 0.000000 
#    z 0.000000 0.000000 1.717770 
# 
# From -- ./inp_files/25503.got.cif
#   From: 2010.05.17/outbox.cif.g08.bks.cpg/sg54_13_cif.got.tgz:25503.got - 2010.06.03 13:09:01.
