data_PCOD9421525
_publ_section_title
;
Structure prediction by ZEFSAII (Michael W. Deem and Ramdas Pophale) SiO2 
 PCOD9421525
Probable space group: P C C A
;
_chemical_formula_sum "Si O2"
_cell_formula_units_Z 40
_cell_length_a 8.967881
_cell_length_b 10.560290
_cell_length_c 19.479203
_cell_angle_alpha 90.000000
_cell_angle_beta 90.000000
_cell_angle_gamma 90.000000
_cell_volume 1844.747222
_symmetry_space_group_name_H-M "P C C A"
_symmetry_group_IT_number 54
_symmetry_cell_setting 'orthorhombic'
loop_
_space_group_symop_operation_xyz
x,y,z
1/2-x,-y,z
1/2+x,-y,1/2-z
-x,y,1/2-z
-x,-y,-z
1/2+x,y,-z
1/2-x,y,1/2+z
x,-y,1/2+z
loop_
_atom_site_type_symbol
_atom_site_label
_atom_site_fract_x
_atom_site_fract_y
_atom_site_fract_z
Si Si1 0.647554 0.123548 0.960622
Si Si2 0.177972 0.638791 0.751359
Si Si3 0.419061 0.974375 0.890296
Si Si4 0.699305 0.642032 0.898960
Si Si5 0.062223 0.269685 0.823429
O O1 0.739521 0.251275 0.950075
O O2 0.750000 0.000000 0.948107
O O3 0.511379 0.099522 0.908313
O O4 0.589844 0.104653 0.037955
O O5 0.250000 0.500000 0.761112
O O6 0.227223 0.678192 0.674655
O O7 0.260643 0.718000 0.811400
O O8 0.000000 0.637540 0.750000
O O9 0.485246 0.875205 0.836823
O O10 0.250000 0.000000 0.870618
O O11 0.750000 0.500000 0.916545
O O12 0.522514 0.650360 0.882006
O O13 0.000000 0.312709 0.750000
#
# Coordination Sequence:
#
# PCOD9421525 Si02
#       5
#     8   8   8   8   8
#     4  10  20  40  66  82 119 169 202 252 315 368
#     4  10  20  36  58  86 121 163 200 250 317 370
#     4  10  22  39  60  87 120 161 212 249 310 372
#     4  10  20  38  63  89 118 159 209 254 309 370
#     4  10  21  40  58  86 126 159 202 256 304 371
#
# _framework density 21.683187
#
# number of rings (size 3 to 8) (size 9 to 14) (size 15 to 20)
#    0.000    2.000    2.000    3.000    2.800    0.000 
#    7.200    2.000    0.000    0.000    0.000    0.000 
#    0.000    0.000    0.000    0.000    0.000    0.000 
#
# Total GULP energy -222970.182788 kJ/mol
# GULP energy per Si atom -5574.254570 kJ/mol
# Density = 2.163383 g / cm^3
# Si number density = 21.683187 Si / 1000 Ang^3
#
#
#
# Elastic Constant Matrix: (Units=GPa)
#
#
# Indices 1 2 3 4 5 6 
#
# 1 120.3295 26.9243 4.9779 0.0000 0.0000 0.0000
# 2 26.9243 103.8606 25.4003 0.0000 0.0000 0.0000
# 3 4.9779 25.4003 22.6646 0.0000 0.0000 0.0000
# 4 0.0000 0.0000 0.0000 20.9769 0.0000 0.0000
# 5 0.0000 0.0000 0.0000 0.0000 19.5037 0.0000
# 6 0.0000 0.0000 0.0000 0.0000 0.0000 29.9625
#
#
#
# Elastic Compliance Matrix: (Units=1/GPa)
#
#
# Indices 1 2 3 4 5 6 
#
# 1 0.008834 -0.002501 0.000863 0.000000 0.000000 0.000000
# 2 -0.002501 0.013972 -0.015109 0.000000 0.000000 0.000000
# 3 0.000863 -0.015109 0.060865 0.000000 0.000000 0.000000
# 4 0.000000 0.000000 0.000000 0.047672 0.000000 0.000000
# 5 0.000000 0.000000 0.000000 0.000000 0.051272 0.000000
# 6 0.000000 0.000000 0.000000 0.000000 0.000000 0.033375
#
#
# Mechanical properties :
#
#
# Convention : Reuss Voigt Hill
#
# Bulk Modulus (GPa) = 19.92969 40.16218 30.04594
# Shear Modulus (GPa) = 18.78218 26.72543 22.75380
#
# Velocity S-wave (km/s) = 2.94634 3.51457 3.24292
# Velocity P-wave (km/s) = 4.55914 5.91879 5.28289
#
# Compressibility (1/GPa) = 0.05017640
#
# Stress axis : x y z
#
# Youngs Moduli (GPa) = 113.19290 71.57318 16.42988
#
# Poissons Ratio (x) = 0.17902 -0.01417
# Poissons Ratio (y) = 0.28312 0.24824
# Poissons Ratio (z) = -0.09766 1.08138
#
# Static dielectric constant tensor:
#      x y z
#    x 1.929950 0.000000 0.000000 
#    y 0.000000 1.793950 0.000000 
#    z 0.000000 0.000000 1.815030 
# 
# From -- ./inp_files/20294.got.cif
#   From: 2010.05.17/outbox.cif.g08.bks.cpg/sg54_11_cif.got.tgz:20294.got - 2010.06.03 13:09:01.
