data_PCOD9421283
_publ_section_title
;
Structure prediction by ZEFSAII (Michael W. Deem and Ramdas Pophale) SiO2 
 PCOD9421283
Probable space group: P C C A
;
_chemical_formula_sum "Si O2"
_cell_formula_units_Z 52
_cell_length_a 17.796817
_cell_length_b 7.921407
_cell_length_c 17.714800
_cell_angle_alpha 90.000000
_cell_angle_beta 90.000000
_cell_angle_gamma 90.000000
_cell_volume 2497.358647
_symmetry_space_group_name_H-M "P C C A"
_symmetry_group_IT_number 54
_symmetry_cell_setting 'orthorhombic'
loop_
_space_group_symop_operation_xyz
x,y,z
1/2-x,-y,z
1/2+x,-y,1/2-z
-x,y,1/2-z
-x,-y,-z
1/2+x,y,-z
1/2-x,y,1/2+z
x,-y,1/2+z
loop_
_atom_site_type_symbol
_atom_site_label
_atom_site_fract_x
_atom_site_fract_y
_atom_site_fract_z
Si Si1 0.069569 0.165146 0.213993
Si Si2 0.307502 0.149689 0.841149
Si Si3 0.186098 0.721927 0.586058
Si Si4 0.660638 0.371429 0.359454
Si Si5 0.471938 0.866532 0.608788
Si Si6 0.750000 0.500000 0.718219
Si Si7 0.882717 0.039961 0.528966
O O1 0.125965 0.132841 0.281449
O O2 0.121505 0.234298 0.146954
O O3 0.000000 0.268646 0.250000
O O4 0.033028 0.000828 0.175983
O O5 0.272829 0.335713 0.829583
O O6 0.250000 0.000000 0.823046
O O7 0.341112 0.101124 0.922101
O O8 0.269256 0.752613 0.620611
O O9 0.171715 0.521843 0.580219
O O10 0.172659 0.829340 0.511655
O O11 0.578906 0.291370 0.366010
O O12 0.683467 0.445337 0.277058
O O13 0.557753 0.856484 0.580774
O O14 0.428066 0.945864 0.537107
#
# Coordination Sequence:
#
# PCOD9421283 Si02
#       7
#     8   8   8   8   8   4   8
#     4  11  20  38  63  91 126 174 214 274 337 398
#     4  12  24  42  68  96 138 172 221 281 344 391
#     4   9  21  39  64  91 128 169 232 267 337 403
#     4  10  19  40  70  91 121 174 231 281 315 404
#     4  10  22  38  64  90 132 169 224 264 330 410
#     4  10  22  46  66 104 128 168 236 288 332 392
#     4  10  23  41  57  97 131 174 209 272 339 402
#
# _framework density 20.821999000000002
#
# number of rings (size 3 to 8) (size 9 to 14) (size 15 to 20)
#    0.000    1.846    4.615    0.923    2.154    1.846 
#    2.769    2.308    0.000    0.000    0.000    0.000 
#    0.000    0.000    0.000    0.000    0.000    0.000 
#
# Total GULP energy -289974.534468 kJ/mol
# GULP energy per Si atom -5576.433355 kJ/mol
# Density = 2.077461 g / cm^3
# Si number density = 20.821999 Si / 1000 Ang^3
#
#
#
# Elastic Constant Matrix: (Units=GPa)
#
#
# Indices 1 2 3 4 5 6 
#
# 1 81.8861 38.9483 49.0380 0.0000 0.0000 0.0000
# 2 38.9483 92.8581 57.1271 0.0000 0.0000 0.0000
# 3 49.0380 57.1271 96.4545 0.0000 0.0000 0.0000
# 4 0.0000 0.0000 0.0000 28.4897 0.0000 0.0000
# 5 0.0000 0.0000 0.0000 0.0000 31.9085 0.0000
# 6 0.0000 0.0000 0.0000 0.0000 0.0000 22.6801
#
#
#
# Elastic Compliance Matrix: (Units=1/GPa)
#
#
# Indices 1 2 3 4 5 6 
#
# 1 0.018086 -0.003035 -0.007397 0.000000 0.000000 0.000000
# 2 -0.003035 0.017452 -0.008793 0.000000 0.000000 0.000000
# 3 -0.007397 -0.008793 0.019336 0.000000 0.000000 0.000000
# 4 0.000000 0.000000 0.000000 0.035100 0.000000 0.000000
# 5 0.000000 0.000000 0.000000 0.000000 0.031340 0.000000
# 6 0.000000 0.000000 0.000000 0.000000 0.000000 0.044091
#
#
# Mechanical properties :
#
#
# Convention : Reuss Voigt Hill
#
# Bulk Modulus (GPa) = 60.89079 62.38062 61.63571
# Shear Modulus (GPa) = 23.88573 25.02136 24.45354
#
# Velocity S-wave (km/s) = 3.39062 3.47028 3.43068
# Velocity P-wave (km/s) = 6.68097 6.78831 6.73486
#
# Compressibility (1/GPa) = 0.01642285
#
# Stress axis : x y z
#
# Youngs Moduli (GPa) = 55.29281 57.30105 51.71613
#
# Poissons Ratio (x) = 0.17390 0.38256
# Poissons Ratio (y) = 0.16781 0.45475
# Poissons Ratio (z) = 0.40902 0.50386
#
# Static dielectric constant tensor:
#      x y z
#    x 1.791870 0.000000 0.000000 
#    y 0.000000 1.780440 0.000000 
#    z 0.000000 0.000000 1.763030 
# 
# From -- ./inp_files/18615.got.cif
#   From: 2010.05.17/outbox.cif.g08.bks.cpg/sg54_10_cif.got.tgz:18615.got - 2010.06.03 13:09:01.
