data_PCOD9421107
_publ_section_title
;
Structure prediction by ZEFSAII (Michael W. Deem and Ramdas Pophale) SiO2 
 PCOD9421107
Probable space group: P C C A
;
_chemical_formula_sum "Si O2"
_cell_formula_units_Z 64
_cell_length_a 8.839526
_cell_length_b 16.853287
_cell_length_c 22.752437
_cell_angle_alpha 90.000000
_cell_angle_beta 90.000000
_cell_angle_gamma 90.000000
_cell_volume 3389.545863
_symmetry_space_group_name_H-M "P C C A"
_symmetry_group_IT_number 54
_symmetry_cell_setting 'orthorhombic'
loop_
_space_group_symop_operation_xyz
x,y,z
1/2-x,-y,z
1/2+x,-y,1/2-z
-x,y,1/2-z
-x,-y,-z
1/2+x,y,-z
1/2-x,y,1/2+z
x,-y,1/2+z
loop_
_atom_site_type_symbol
_atom_site_label
_atom_site_fract_x
_atom_site_fract_y
_atom_site_fract_z
Si Si1 0.826425 0.748859 0.627479
Si Si2 0.173029 0.921127 0.077567
Si Si3 0.665110 0.762618 0.986916
Si Si4 0.093902 0.148291 0.172224
Si Si5 0.339313 0.161785 0.273383
Si Si6 0.413943 0.351894 0.513232
Si Si7 0.589431 0.990165 0.658834
Si Si8 0.312792 0.582546 0.416931
O O1 0.815615 0.766377 0.557732
O O2 0.704900 0.794490 0.666598
O O3 0.804469 0.654436 0.629175
O O4 0.986859 0.780053 0.651849
O O5 0.294933 0.881929 0.121244
O O6 0.032560 0.949159 0.116846
O O7 0.250000 0.000000 0.050779
O O8 0.131757 0.850582 0.034145
O O9 0.810394 0.718159 0.959064
O O10 0.530436 0.700846 0.975394
O O11 0.202643 0.168402 0.226860
O O12 0.981662 0.072781 0.180375
O O13 0.500000 0.192594 0.250000
O O14 0.367281 0.069531 0.288844
O O15 0.301452 0.400013 0.471531
O O16 0.517826 0.406449 0.555304
O O17 0.750000 0.000000 0.626339
O O18 0.250000 0.500000 0.392934
#
# Coordination Sequence:
#
# PCOD9421107 Si02
#       8
#     8   8   8   8   8   8   8   8
#     4  10  23  39  57  89 113 155 193 233 307 348
#     4  10  22  38  55  83 120 159 203 236 289 347
#     4  10  20  38  58  81 127 160 191 238 280 364
#     4  11  23  39  57  86 113 149 202 257 294 347
#     4  12  25  39  63  83 111 147 201 261 298 339
#     4   8  18  32  57  84 112 156 196 231 283 334
#     4  11  24  36  58  85 112 150 198 254 307 328
#     4  10  19  35  59  89 123 151 192 238 290 353
#
# _framework density 18.881585999999999
#
# number of rings (size 3 to 8) (size 9 to 14) (size 15 to 20)
#    0.000    2.000    2.500    2.250    5.250    0.000 
#    2.250    1.875    0.000    1.500    0.000    0.000 
#    0.000    0.000    0.000    0.000    0.000    0.000 
#
# Total GULP energy -356874.593972 kJ/mol
# GULP energy per Si atom -5576.165531 kJ/mol
# Density = 1.883861 g / cm^3
# Si number density = 18.881586 Si / 1000 Ang^3
#
#
#
# Elastic Constant Matrix: (Units=GPa)
#
#
# Indices 1 2 3 4 5 6 
#
# 1 106.9825 19.6129 10.7845 0.0000 0.0000 0.0000
# 2 19.6129 102.2609 23.1390 0.0000 0.0000 0.0000
# 3 10.7845 23.1390 47.0075 0.0000 0.0000 0.0000
# 4 0.0000 0.0000 0.0000 17.5159 0.0000 0.0000
# 5 0.0000 0.0000 0.0000 0.0000 21.0228 0.0000
# 6 0.0000 0.0000 0.0000 0.0000 0.0000 28.0612
#
#
#
# Elastic Compliance Matrix: (Units=1/GPa)
#
#
# Indices 1 2 3 4 5 6 
#
# 1 0.009779 -0.001539 -0.001486 0.000000 0.000000 0.000000
# 2 -0.001539 0.011247 -0.005183 0.000000 0.000000 0.000000
# 3 -0.001486 -0.005183 0.024165 0.000000 0.000000 0.000000
# 4 0.000000 0.000000 0.000000 0.057091 0.000000 0.000000
# 5 0.000000 0.000000 0.000000 0.000000 0.047567 0.000000
# 6 0.000000 0.000000 0.000000 0.000000 0.000000 0.035636
#
#
# Mechanical properties :
#
#
# Convention : Reuss Voigt Hill
#
# Bulk Modulus (GPa) = 34.75223 40.36931 37.56077
# Shear Modulus (GPa) = 23.64124 26.83427 25.23775
#
# Velocity S-wave (km/s) = 3.54231 3.77395 3.65997
# Velocity P-wave (km/s) = 5.93093 6.35743 6.14788
#
# Compressibility (1/GPa) = 0.02877513
#
# Stress axis : x y z
#
# Youngs Moduli (GPa) = 102.25657 88.91312 41.38148
#
# Poissons Ratio (x) = 0.13687 0.06149
# Poissons Ratio (y) = 0.15741 0.21448
# Poissons Ratio (z) = 0.15194 0.46084
#
# Static dielectric constant tensor:
#      x y z
#    x 1.740740 0.000000 0.000000 
#    y 0.000000 1.702780 0.000000 
#    z 0.000000 0.000000 1.663330 
# 
# From -- ./inp_files/23657.got.cif
#   From: 2010.05.17/outbox.cif.g08.bks.cpg/sg54_12_cif.got.tgz:23657.got - 2010.06.03 13:09:01.
