data_PCOD9421496
_publ_section_title
;
Structure prediction by ZEFSAII (Michael W. Deem and Ramdas Pophale) SiO2 
 PCOD9421496
Probable space group: P C C A
;
_chemical_formula_sum "Si O2"
_cell_formula_units_Z 32
_cell_length_a 4.954297
_cell_length_b 13.417695
_cell_length_c 25.476953
_cell_angle_alpha 90.000000
_cell_angle_beta 90.000000
_cell_angle_gamma 90.000000
_cell_volume 1693.586720
_symmetry_space_group_name_H-M "P C C A"
_symmetry_group_IT_number 54
_symmetry_cell_setting 'orthorhombic'
loop_
_space_group_symop_operation_xyz
x,y,z
1/2-x,-y,z
1/2+x,-y,1/2-z
-x,y,1/2-z
-x,-y,-z
1/2+x,y,-z
1/2-x,y,1/2+z
x,-y,1/2+z
loop_
_atom_site_type_symbol
_atom_site_label
_atom_site_fract_x
_atom_site_fract_y
_atom_site_fract_z
Si Si1 0.264337 0.120184 0.467988
Si Si2 0.250000 0.500000 0.212628
Si Si3 0.534033 0.292931 0.812613
Si Si4 0.046732 0.813548 0.354773
Si Si5 0.250000 0.000000 0.286238
O O1 0.462549 0.148905 0.515834
O O2 0.389873 0.162895 0.415028
O O3 0.250000 0.000000 0.462728
O O4 0.500000 0.468731 0.250000
O O5 0.352279 0.595644 0.181158
O O6 0.500000 0.277305 0.750000
O O7 0.242702 0.275731 0.837268
O O8 0.744286 0.216194 0.838858
O O9 0.140982 0.909689 0.321471
O O10 0.500000 0.967113 0.250000
#
# Coordination Sequence:
#
# PCOD9421496 Si02
#       5
#     8   4   8   8   4
#     4  10  21  38  58  79 107 144 193 245 277 313
#     4  10  20  36  56  80 110 148 190 234 272 312
#     4  11  22  36  57  82 116 148 186 227 271 334
#     4  12  22  37  55  83 111 152 185 224 279 333
#     4  12  24  34  48  76 118 152 178 206 262 340
#
# _framework density 18.894811000000001
#
# number of rings (size 3 to 8) (size 9 to 14) (size 15 to 20)
#    0.000    1.000    1.250    9.000    0.000    0.000 
#    0.000    0.000    0.000    0.000    0.000   17.500 
#    0.000    0.000    0.000    0.000    0.000    0.000 
#
# Total GULP energy -178862.589493 kJ/mol
# GULP energy per Si atom -5589.455922 kJ/mol
# Density = 1.885181 g / cm^3
# Si number density = 18.894811 Si / 1000 Ang^3
#
#
#
# Elastic Constant Matrix: (Units=GPa)
#
#
# Indices 1 2 3 4 5 6 
#
# 1 71.9026 -12.5681 8.3425 0.0000 0.0000 0.0000
# 2 -12.5681 58.0916 7.8112 0.0000 0.0000 0.0000
# 3 8.3425 7.8112 91.3153 0.0000 0.0000 0.0000
# 4 0.0000 0.0000 0.0000 -1.0633 0.0000 0.0000
# 5 0.0000 0.0000 0.0000 0.0000 24.7368 0.0000
# 6 0.0000 0.0000 0.0000 0.0000 0.0000 30.5851
#
#
#
# Elastic Compliance Matrix: (Units=1/GPa)
#
#
# Indices 1 2 3 4 5 6 
#
# 1 0.014691 0.003398 -0.001633 0.000000 0.000000 0.000000
# 2 0.003398 0.018200 -0.001867 0.000000 0.000000 0.000000
# 3 -0.001633 -0.001867 0.011260 0.000000 0.000000 0.000000
# 4 0.000000 0.000000 0.000000 -0.940429 0.000000 0.000000
# 5 0.000000 0.000000 0.000000 0.000000 0.040426 0.000000
# 6 0.000000 0.000000 0.000000 0.000000 0.000000 0.032696
#
#
# Mechanical properties :
#
#
# Convention : Reuss Voigt Hill
#
# Bulk Modulus (GPa) = 22.75463 25.38675 24.07069
# Shear Modulus (GPa) = -6.18580 25.36662 9.59041
#
# Velocity S-wave (km/s) = -1.81133 3.66801 2.25537
# Velocity P-wave (km/s) = 2.77387 5.60394 4.42145
#
# Compressibility (1/GPa) = 0.04394711
#
# Stress axis : x y z
#
# Youngs Moduli (GPa) = 68.06846 54.94375 88.81011
#
# Poissons Ratio (x) = -0.18670 0.14501
# Poissons Ratio (y) = -0.23129 0.16584
# Poissons Ratio (z) = 0.11114 0.10260
#
# Static dielectric constant tensor:
#      x y z
#    x 1.477500 0.000000 0.000000 
#    y 0.000000 1.672230 0.000000 
#    z 0.000000 0.000000 1.648850 
# 
# From -- ./inp_files/19531.got.cif
#   From: 2010.05.17/outbox.cif.g08.bks.cpg/sg54_10_cif.got.tgz:19531.got - 2010.06.03 13:09:01.
