data_PCOD9421119
_publ_section_title
;
Structure prediction by ZEFSAII (Michael W. Deem and Ramdas Pophale) SiO2 
 PCOD9421119
Probable space group: P C C A
;
_chemical_formula_sum "Si O2"
_cell_formula_units_Z 64
_cell_length_a 16.321028
_cell_length_b 8.697287
_cell_length_c 21.430220
_cell_angle_alpha 90.000000
_cell_angle_beta 90.000000
_cell_angle_gamma 90.000000
_cell_volume 3041.991112
_symmetry_space_group_name_H-M "P C C A"
_symmetry_group_IT_number 54
_symmetry_cell_setting 'orthorhombic'
loop_
_space_group_symop_operation_xyz
x,y,z
1/2-x,-y,z
1/2+x,-y,1/2-z
-x,y,1/2-z
-x,-y,-z
1/2+x,y,-z
1/2-x,y,1/2+z
x,-y,1/2+z
loop_
_atom_site_type_symbol
_atom_site_label
_atom_site_fract_x
_atom_site_fract_y
_atom_site_fract_z
Si Si1 0.449907 0.684637 0.024222
Si Si2 0.297151 0.656248 0.358406
Si Si3 0.965594 0.109008 0.690088
Si Si4 0.148252 0.834426 0.416728
Si Si5 0.385742 0.109902 0.003503
Si Si6 0.840106 0.574590 0.510711
Si Si7 0.172191 0.109214 0.253643
Si Si8 0.399428 0.100223 0.623304
O O1 0.433143 0.741820 0.094332
O O2 0.379522 0.735362 0.975297
O O3 0.525795 0.802075 0.004645
O O4 0.421148 0.503797 0.020084
O O5 0.250000 0.500000 0.342178
O O6 0.234449 0.777491 0.390726
O O7 0.357434 0.605653 0.415045
O O8 0.326710 0.738955 0.296056
O O9 0.903971 0.987624 0.720907
O O10 0.000000 0.199424 0.750000
O O11 0.032666 0.009947 0.653889
O O12 0.915232 0.199698 0.638752
O O13 0.136094 0.008835 0.442066
O O14 0.375395 0.996662 0.061868
O O15 0.328443 0.254544 0.015909
O O16 0.750000 0.500000 0.505615
O O17 0.163139 0.132915 0.179418
O O18 0.250000 0.000000 0.265317
#
# Coordination Sequence:
#
# PCOD9421119 Si02
#       8
#     8   8   8   8   8   8   8   8
#     4  11  20  40  64  94 129 163 199 260 319 379
#     4  11  23  41  62  89 125 164 215 260 308 376
#     4  10  19  35  62  90 121 151 208 266 301 356
#     4  11  18  39  66  92 117 158 216 261 305 368
#     4  11  22  37  68  94 124 165 206 262 313 369
#     4  11  24  39  58  95 128 164 206 255 317 377
#     4  11  23  38  63  90 118 166 210 257 303 368
#     4  10  22  39  60  96 124 156 208 259 314 365
#
# _framework density 21.038851999999999
#
# number of rings (size 3 to 8) (size 9 to 14) (size 15 to 20)
#    0.000    1.250    6.250    1.875    0.000    1.000 
#    0.000    1.875    0.000    0.750    0.000    0.000 
#    0.000    0.000    0.000    0.000    0.000    0.000 
#
# Total GULP energy -356269.784792 kJ/mol
# GULP energy per Si atom -5566.715387 kJ/mol
# Density = 2.099097 g / cm^3
# Si number density = 21.038852 Si / 1000 Ang^3
#
#
#
# Elastic Constant Matrix: (Units=GPa)
#
#
# Indices 1 2 3 4 5 6 
#
# 1 40.3903 5.7450 6.6374 0.0000 0.0000 0.0000
# 2 5.7450 55.4177 7.3021 0.0000 0.0000 0.0000
# 3 6.6374 7.3021 83.7834 0.0000 0.0000 0.0000
# 4 0.0000 0.0000 0.0000 17.8766 0.0000 0.0000
# 5 0.0000 0.0000 0.0000 0.0000 30.8706 0.0000
# 6 0.0000 0.0000 0.0000 0.0000 0.0000 17.2459
#
#
#
# Elastic Compliance Matrix: (Units=1/GPa)
#
#
# Indices 1 2 3 4 5 6 
#
# 1 0.025395 -0.002395 -0.001803 0.000000 0.000000 0.000000
# 2 -0.002395 0.018480 -0.001421 0.000000 0.000000 0.000000
# 3 -0.001803 -0.001421 0.012202 0.000000 0.000000 0.000000
# 4 0.000000 0.000000 0.000000 0.055939 0.000000 0.000000
# 5 0.000000 0.000000 0.000000 0.000000 0.032393 0.000000
# 6 0.000000 0.000000 0.000000 0.000000 0.000000 0.057985
#
#
# Mechanical properties :
#
#
# Convention : Reuss Voigt Hill
#
# Bulk Modulus (GPa) = 22.30169 24.32897 23.31533
# Shear Modulus (GPa) = 21.87418 23.85906 22.86662
#
# Velocity S-wave (km/s) = 3.22794 3.37122 3.30036
# Velocity P-wave (km/s) = 4.95137 5.17131 5.06253
#
# Compressibility (1/GPa) = 0.04483966
#
# Stress axis : x y z
#
# Youngs Moduli (GPa) = 39.37725 54.11170 81.95231
#
# Poissons Ratio (x) = 0.12960 0.14777
# Poissons Ratio (y) = 0.09431 0.11645
# Poissons Ratio (z) = 0.07100 0.07689
#
# Static dielectric constant tensor:
#      x y z
#    x 1.866240 0.000000 0.000000 
#    y 0.000000 1.868960 0.000000 
#    z 0.000000 0.000000 1.786390 
# 
# From -- ./inp_files/21983.got.cif
#   From: 2010.05.17/outbox.cif.g08.bks.cpg/sg54_11_cif.got.tgz:21983.got - 2010.06.03 13:09:01.
