data_PCOD9421846
_publ_section_title
;
Structure prediction by ZEFSAII (Michael W. Deem and Ramdas Pophale) SiO2 
 PCOD9421846
Probable space group: P C C A
;
_chemical_formula_sum "Si O2"
_cell_formula_units_Z 52
_cell_length_a 18.202652
_cell_length_b 9.524253
_cell_length_c 13.663954
_cell_angle_alpha 90.000000
_cell_angle_beta 90.000000
_cell_angle_gamma 90.000000
_cell_volume 2368.874107
_symmetry_space_group_name_H-M "P C C A"
_symmetry_group_IT_number 54
_symmetry_cell_setting 'orthorhombic'
loop_
_space_group_symop_operation_xyz
x,y,z
1/2-x,-y,z
1/2+x,-y,1/2-z
-x,y,1/2-z
-x,-y,-z
1/2+x,y,-z
1/2-x,y,1/2+z
x,-y,1/2+z
loop_
_atom_site_type_symbol
_atom_site_label
_atom_site_fract_x
_atom_site_fract_y
_atom_site_fract_z
Si Si1 0.481693 0.271926 0.451626
Si Si2 0.118372 0.852533 0.599008
Si Si3 0.147121 0.830521 0.087510
Si Si4 0.047454 0.452543 0.384267
Si Si5 0.000000 0.770927 0.750000
Si Si6 0.296923 0.632045 0.431109
Si Si7 0.258579 0.665408 0.204792
O O1 0.414980 0.176689 0.490084
O O2 0.560162 0.199197 0.433237
O O3 0.467950 0.385053 0.366144
O O4 0.488386 0.376529 0.546269
O O5 0.046762 0.857030 0.671573
O O6 0.176053 0.739195 0.642072
O O7 0.155055 0.004472 0.600993
O O8 0.182620 0.744013 0.177013
O O9 0.194420 0.769245 0.997016
O O10 0.123648 0.439004 0.437431
O O11 0.055227 0.342765 0.296715
O O12 0.250000 0.500000 0.465487
O O13 0.274154 0.672319 0.321066
O O14 0.250000 0.500000 0.183514
#
# Coordination Sequence:
#
# PCOD9421846 Si02
#       7
#     8   8   8   8   4   8   8
#     4   9  21  36  67  96 128 167 226 274 337 398
#     4  11  23  44  67 100 136 183 214 283 355 409
#     4  11  24  43  69 101 140 178 222 279 345 417
#     4   9  18  35  63  96 122 165 218 283 318 389
#     4  10  20  38  70  90 134 168 224 272 344 396
#     4  10  22  41  67  98 131 178 233 278 332 401
#     4  11  25  43  70  96 132 179 232 280 333 403
#
# _framework density 21.951356000000001
#
# number of rings (size 3 to 8) (size 9 to 14) (size 15 to 20)
#    0.000    1.846    1.538    1.385   10.769    0.000 
#    0.000    6.923    0.000    0.000    0.000    0.000 
#    0.000    0.000    0.000    0.000    0.000    0.000 
#
# Total GULP energy -289751.000647 kJ/mol
# GULP energy per Si atom -5572.134628 kJ/mol
# Density = 2.190139 g / cm^3
# Si number density = 21.951356 Si / 1000 Ang^3
#
#
#
# Elastic Constant Matrix: (Units=GPa)
#
#
# Indices 1 2 3 4 5 6 
#
# 1 51.4441 55.5020 29.7555 0.0000 0.0000 0.0000
# 2 55.5020 163.0655 44.3726 0.0000 0.0000 0.0000
# 3 29.7555 44.3726 82.9392 0.0000 0.0000 0.0000
# 4 0.0000 0.0000 0.0000 -12.8038 0.0000 0.0000
# 5 0.0000 0.0000 0.0000 0.0000 27.7701 0.0000
# 6 0.0000 0.0000 0.0000 0.0000 0.0000 32.9479
#
#
#
# Elastic Compliance Matrix: (Units=1/GPa)
#
#
# Indices 1 2 3 4 5 6 
#
# 1 0.033871 -0.009623 -0.007004 0.000000 0.000000 0.000000
# 2 -0.009623 0.009911 -0.001850 0.000000 0.000000 0.000000
# 3 -0.007004 -0.001850 0.015559 0.000000 0.000000 0.000000
# 4 0.000000 0.000000 0.000000 -0.078102 0.000000 0.000000
# 5 0.000000 0.000000 0.000000 0.000000 0.036010 0.000000
# 6 0.000000 0.000000 0.000000 0.000000 0.000000 0.030351
#
#
# Mechanical properties :
#
#
# Convention : Reuss Voigt Hill
#
# Bulk Modulus (GPa) = 44.66501 61.85653 53.26077
# Shear Modulus (GPa) = 54.33758 20.77077 37.55418
#
# Velocity S-wave (km/s) = 4.98070 3.07940 4.14066
# Velocity P-wave (km/s) = 7.31218 6.39404 6.86847
#
# Compressibility (1/GPa) = 0.02238889
#
# Stress axis : x y z
#
# Youngs Moduli (GPa) = 29.52344 100.89507 64.26950
#
# Poissons Ratio (x) = 0.97090 0.45011
# Poissons Ratio (y) = 0.28410 0.11891
# Poissons Ratio (z) = 0.20677 0.18668
#
# Static dielectric constant tensor:
#      x y z
#    x 1.888430 0.000000 0.000000 
#    y 0.000000 1.916830 0.000000 
#    z 0.000000 0.000000 1.998320 
# 
# From -- ./inp_files/14601.got.cif
#   From: 2010.05.17/outbox.cif.g08.bks.cpg/sg54_8_cif.got.tgz:14601.got - 2010.06.03 13:09:01.
