data_PCOD9421936
_publ_section_title
;
Structure prediction by ZEFSAII (Michael W. Deem and Ramdas Pophale) SiO2 
 PCOD9421936
Probable space group: P C C A
;
_chemical_formula_sum "Si O2"
_cell_formula_units_Z 32
_cell_length_a 8.827230
_cell_length_b 7.790020
_cell_length_c 21.993736
_cell_angle_alpha 90.000000
_cell_angle_beta 90.000000
_cell_angle_gamma 90.000000
_cell_volume 1512.383822
_symmetry_space_group_name_H-M "P C C A"
_symmetry_group_IT_number 54
_symmetry_cell_setting 'orthorhombic'
loop_
_space_group_symop_operation_xyz
x,y,z
1/2-x,-y,z
1/2+x,-y,1/2-z
-x,y,1/2-z
-x,-y,-z
1/2+x,y,-z
1/2-x,y,1/2+z
x,-y,1/2+z
loop_
_atom_site_type_symbol
_atom_site_label
_atom_site_fract_x
_atom_site_fract_y
_atom_site_fract_z
Si Si1 0.653663 0.266770 0.601364
Si Si2 0.124738 0.126903 0.529223
Si Si3 0.490165 0.605238 0.875492
Si Si4 0.750000 0.000000 0.190855
Si Si5 0.500000 0.239163 0.250000
O O1 0.682188 0.221639 0.531382
O O2 0.813851 0.340447 0.623698
O O3 0.518844 0.404505 0.607360
O O4 0.637143 0.102417 0.644875
O O5 0.069797 0.269650 0.576360
O O6 0.250000 0.000000 0.556558
O O7 0.000000 0.000000 0.500000
O O8 0.544864 0.644523 0.807707
O O9 0.642570 0.121154 0.230855
#
# Coordination Sequence:
#
# PCOD9421936 Si02
#       5
#     8   8   8   4   4
#     4  10  20  41  62  87 123 170 201 260 337 379
#     4  12  21  38  64  92 123 160 209 256 319 388
#     4  10  22  38  63  90 129 161 211 263 319 386
#     4  10  20  40  64  84 120 170 212 258 322 398
#     4  10  22  40  60  92 118 168 208 254 320 392
#
# _framework density 21.158647999999999
#
# number of rings (size 3 to 8) (size 9 to 14) (size 15 to 20)
#    0.000    1.500    3.750    2.250    1.750    1.000 
#    0.000    0.000    0.000    0.000    0.000    0.000 
#    0.000    0.000    0.000    0.000    0.000    0.000 
#
# Total GULP energy -178547.569371 kJ/mol
# GULP energy per Si atom -5579.611543 kJ/mol
# Density = 2.111049 g / cm^3
# Si number density = 21.158648 Si / 1000 Ang^3
#
#
#
# Elastic Constant Matrix: (Units=GPa)
#
#
# Indices 1 2 3 4 5 6 
#
# 1 43.7140 30.8623 19.0985 0.0000 0.0000 0.0000
# 2 30.8623 122.0512 56.3637 0.0000 0.0000 0.0000
# 3 19.0985 56.3637 134.5338 0.0000 0.0000 0.0000
# 4 0.0000 0.0000 0.0000 -13.8439 0.0000 0.0000
# 5 0.0000 0.0000 0.0000 0.0000 30.6321 0.0000
# 6 0.0000 0.0000 0.0000 0.0000 0.0000 28.9280
#
#
#
# Elastic Compliance Matrix: (Units=1/GPa)
#
#
# Indices 1 2 3 4 5 6 
#
# 1 0.028016 -0.006506 -0.001251 0.000000 0.000000 0.000000
# 2 -0.006506 0.011670 -0.003965 0.000000 0.000000 0.000000
# 3 -0.001251 -0.003965 0.009272 0.000000 0.000000 0.000000
# 4 0.000000 0.000000 0.000000 -0.072234 0.000000 0.000000
# 5 0.000000 0.000000 0.000000 0.000000 0.032646 0.000000
# 6 0.000000 0.000000 0.000000 0.000000 0.000000 0.034569
#
#
# Mechanical properties :
#
#
# Convention : Reuss Voigt Hill
#
# Bulk Modulus (GPa) = 39.19771 56.99423 48.09597
# Shear Modulus (GPa) = 65.88595 22.07487 43.98041
#
# Velocity S-wave (km/s) = 5.58629 3.23352 4.56411
# Velocity P-wave (km/s) = 7.75723 6.39812 7.11023
#
# Compressibility (1/GPa) = 0.02551170
#
# Stress axis : x y z
#
# Youngs Moduli (GPa) = 35.69357 85.69142 107.85091
#
# Poissons Ratio (x) = 0.55755 0.13495
# Poissons Ratio (y) = 0.23224 0.42768
# Poissons Ratio (z) = 0.04466 0.33981
#
# Static dielectric constant tensor:
#      x y z
#    x 1.784810 0.000000 0.000000 
#    y 0.000000 1.690360 0.000000 
#    z 0.000000 0.000000 1.802630 
# 
# From -- ./inp_files/20077.got.cif
#   From: 2010.05.17/outbox.cif.g08.bks.cpg/sg54_11_cif.got.tgz:20077.got - 2010.06.03 13:09:01.
