data_PCOD9421978
_publ_section_title
;
Structure prediction by ZEFSAII (Michael W. Deem and Ramdas Pophale) SiO2 
 PCOD9421978
Probable space group: P C C A
;
_chemical_formula_sum "Si O2"
_cell_formula_units_Z 56
_cell_length_a 9.243433
_cell_length_b 14.665873
_cell_length_c 21.320763
_cell_angle_alpha 90.000000
_cell_angle_beta 90.000000
_cell_angle_gamma 90.000000
_cell_volume 2890.306903
_symmetry_space_group_name_H-M "P C C A"
_symmetry_group_IT_number 54
_symmetry_cell_setting 'orthorhombic'
loop_
_space_group_symop_operation_xyz
x,y,z
1/2-x,-y,z
1/2+x,-y,1/2-z
-x,y,1/2-z
-x,-y,-z
1/2+x,y,-z
1/2-x,y,1/2+z
x,-y,1/2+z
loop_
_atom_site_type_symbol
_atom_site_label
_atom_site_fract_x
_atom_site_fract_y
_atom_site_fract_z
Si Si1 0.399260 0.642442 0.812369
Si Si2 0.949151 0.749438 0.420663
Si Si3 0.750000 0.500000 0.609011
Si Si4 0.503650 0.875478 0.039288
Si Si5 0.750000 0.000000 0.500312
Si Si6 0.456022 0.401440 0.977769
Si Si7 0.132293 0.277378 0.109267
Si Si8 0.842323 0.407448 0.272156
O O1 0.500000 0.641281 0.750000
O O2 0.453450 0.718531 0.861548
O O3 0.378466 0.547535 0.851175
O O4 0.239418 0.647210 0.783133
O O5 0.004581 0.823332 0.471270
O O6 0.924253 0.659515 0.462507
O O7 0.787111 0.771220 0.398656
O O8 0.820441 0.580593 0.567926
O O9 0.655197 0.928242 0.039939
O O10 0.484437 0.801390 0.094093
O O11 0.371060 0.946284 0.039266
O O12 0.587228 0.352442 0.942343
O O13 0.500000 0.500000 0.000000
O O14 0.141348 0.336740 0.171548
O O15 0.750000 0.500000 0.286634
O O16 0.000000 0.434304 0.250000
#
# Coordination Sequence:
#
# PCOD9421978 Si02
#       8
#     8   8   4   8   4   8   8   8
#     4  12  25  40  58  82 123 177 226 275 303 354
#     4  11  23  40  59  92 132 161 212 267 323 387
#     4  12  24  38  52  82 116 168 242 270 308 364
#     4  10  22  41  67 104 129 159 196 261 341 414
#     4  10  20  40  72 100 134 150 192 250 344 436
#     4  11  23  36  55  81 118 172 212 263 323 361
#     4  11  24  38  60  86 131 164 211 273 316 378
#     4  12  27  42  59  85 124 183 240 276 301 354
#
# _framework density 19.375105999999999
#
# number of rings (size 3 to 8) (size 9 to 14) (size 15 to 20)
#    0.000    0.857    5.000    2.143    6.000    1.143 
#    0.000    0.000    0.000    0.000    0.000   15.000 
#    0.000    0.000    0.000    0.000    0.000    0.000 
#
# Total GULP energy -312333.658667 kJ/mol
# GULP energy per Si atom -5577.386762 kJ/mol
# Density = 1.933101 g / cm^3
# Si number density = 19.375106 Si / 1000 Ang^3
#
#
#
# Elastic Constant Matrix: (Units=GPa)
#
#
# Indices 1 2 3 4 5 6 
#
# 1 104.3393 27.8915 32.9508 0.0000 0.0000 0.0000
# 2 27.8915 80.4838 29.0222 0.0000 0.0000 0.0000
# 3 32.9508 29.0222 93.1894 0.0000 0.0000 0.0000
# 4 0.0000 0.0000 0.0000 15.8105 0.0000 0.0000
# 5 0.0000 0.0000 0.0000 0.0000 34.2880 0.0000
# 6 0.0000 0.0000 0.0000 0.0000 0.0000 30.7110
#
#
#
# Elastic Compliance Matrix: (Units=1/GPa)
#
#
# Indices 1 2 3 4 5 6 
#
# 1 0.011320 -0.002793 -0.003133 0.000000 0.000000 0.000000
# 2 -0.002793 0.014686 -0.003586 0.000000 0.000000 0.000000
# 3 -0.003133 -0.003586 0.012955 0.000000 0.000000 0.000000
# 4 0.000000 0.000000 0.000000 0.063249 0.000000 0.000000
# 5 0.000000 0.000000 0.000000 0.000000 0.029165 0.000000
# 6 0.000000 0.000000 0.000000 0.000000 0.000000 0.032562
#
#
# Mechanical properties :
#
#
# Convention : Reuss Voigt Hill
#
# Bulk Modulus (GPa) = 50.15719 50.86016 50.50867
# Shear Modulus (GPa) = 26.37035 28.70510 27.53772
#
# Velocity S-wave (km/s) = 3.69323 3.85326 3.77410
# Velocity P-wave (km/s) = 6.64306 6.79000 6.71693
#
# Compressibility (1/GPa) = 0.01993732
#
# Stress axis : x y z
#
# Youngs Moduli (GPa) = 88.33812 68.09217 77.18824
#
# Poissons Ratio (x) = 0.19020 0.24181
# Poissons Ratio (y) = 0.24676 0.27680
# Poissons Ratio (z) = 0.27674 0.24418
#
# Static dielectric constant tensor:
#      x y z
#    x 1.807780 0.000000 0.000000 
#    y 0.000000 1.708760 0.000000 
#    z 0.000000 0.000000 1.733650 
# 
# From -- ./inp_files/20593.got.cif
#   From: 2010.05.17/outbox.cif.g08.bks.cpg/sg54_11_cif.got.tgz:20593.got - 2010.06.03 13:09:01.
