data_PCOD9421276
_publ_section_title
;
Structure prediction by ZEFSAII (Michael W. Deem and Ramdas Pophale) SiO2 
 PCOD9421276
Probable space group: P C C A
;
_chemical_formula_sum "Si O2"
_cell_formula_units_Z 48
_cell_length_a 11.968193
_cell_length_b 7.546859
_cell_length_c 23.001200
_cell_angle_alpha 90.000000
_cell_angle_beta 90.000000
_cell_angle_gamma 90.000000
_cell_volume 2077.520483
_symmetry_space_group_name_H-M "P C C A"
_symmetry_group_IT_number 54
_symmetry_cell_setting 'orthorhombic'
loop_
_space_group_symop_operation_xyz
x,y,z
1/2-x,-y,z
1/2+x,-y,1/2-z
-x,y,1/2-z
-x,-y,-z
1/2+x,y,-z
1/2-x,y,1/2+z
x,-y,1/2+z
loop_
_atom_site_type_symbol
_atom_site_label
_atom_site_fract_x
_atom_site_fract_y
_atom_site_fract_z
Si Si1 0.169504 0.262837 0.442567
Si Si2 0.502656 0.418437 0.851646
Si Si3 0.118014 0.290339 0.575572
Si Si4 0.381540 0.135499 0.405985
Si Si5 0.274829 0.289874 0.675819
Si Si6 0.163879 0.333051 0.792537
O O1 0.137605 0.309204 0.507685
O O2 0.303721 0.280277 0.438552
O O3 0.099477 0.348606 0.390342
O O4 0.143997 0.055810 0.431230
O O5 0.578270 0.522976 0.898163
O O6 0.589985 0.279368 0.823048
O O7 0.452052 0.560734 0.806215
O O8 0.220789 0.224686 0.615575
O O9 0.011584 0.166936 0.586426
O O10 0.341931 0.177908 0.340545
O O11 0.250000 0.500000 0.677758
O O12 0.203083 0.238260 0.732753
O O13 0.250000 0.500000 0.800285
#
# Coordination Sequence:
#
# PCOD9421276 Si02
#       6
#     8   8   8   8   8   8
#     4  11  22  40  60  91 128 164 212 263 319 388
#     4  10  21  39  64  97 123 163 208 267 325 377
#     4  10  22  39  63  91 120 165 208 261 326 377
#     4  10  23  39  63  87 124 170 212 258 318 386
#     4   9  21  38  64  96 126 157 207 271 317 379
#     4  10  19  40  66  92 122 163 214 253 319 380
#
# _framework density 23.104467
#
# number of rings (size 3 to 8) (size 9 to 14) (size 15 to 20)
#    0.000    2.000    1.667    1.000    2.333   10.667 
#    9.000    0.000   14.667    0.000    0.000    0.000 
#    0.000    0.000    0.000    0.000    0.000    0.000 
#
# Total GULP energy -267391.593924 kJ/mol
# GULP energy per Si atom -5570.658207 kJ/mol
# Density = 2.305188 g / cm^3
# Si number density = 23.104467 Si / 1000 Ang^3
#
#
#
# Elastic Constant Matrix: (Units=GPa)
#
#
# Indices 1 2 3 4 5 6 
#
# 1 107.3125 12.3218 53.1039 0.0000 0.0000 0.0000
# 2 12.3218 17.3055 15.6958 0.0000 0.0000 0.0000
# 3 53.1039 15.6958 162.9077 0.0000 0.0000 0.0000
# 4 0.0000 0.0000 0.0000 -53.2443 0.0000 0.0000
# 5 0.0000 0.0000 0.0000 0.0000 -6.9659 0.0000
# 6 0.0000 0.0000 0.0000 0.0000 0.0000 18.7337
#
#
#
# Elastic Compliance Matrix: (Units=1/GPa)
#
#
# Indices 1 2 3 4 5 6 
#
# 1 0.011532 -0.005261 -0.003252 0.000000 0.000000 0.000000
# 2 -0.005261 0.065718 -0.004617 0.000000 0.000000 0.000000
# 3 -0.003252 -0.004617 0.007643 0.000000 0.000000 0.000000
# 4 0.000000 0.000000 0.000000 -0.018781 0.000000 0.000000
# 5 0.000000 0.000000 0.000000 0.000000 -0.143557 0.000000
# 6 0.000000 0.000000 0.000000 0.000000 0.000000 0.053380
#
#
# Mechanical properties :
#
#
# Convention : Reuss Voigt Hill
#
# Bulk Modulus (GPa) = 17.05516 49.97430 33.51473
# Shear Modulus (GPa) = 229.98763 5.46498 117.72631
#
# Velocity S-wave (km/s) = 9.98792 1.53963 7.14595
# Velocity P-wave (km/s) = 11.84944 4.98370 9.08973
#
# Compressibility (1/GPa) = 0.05863330
#
# Stress axis : x y z
#
# Youngs Moduli (GPa) = 86.71466 15.21644 130.83152
#
# Poissons Ratio (x) = 0.08006 0.42550
# Poissons Ratio (y) = 0.45623 0.60402
# Poissons Ratio (z) = 0.28202 0.07025
#
# Static dielectric constant tensor:
#      x y z
#    x 2.038790 0.000000 0.000000 
#    y 0.000000 1.906050 0.000000 
#    z 0.000000 0.000000 1.912630 
# 
# From -- ./inp_files/24058.got.cif
#   From: 2010.05.17/outbox.cif.g08.bks.cpg/sg54_13_cif.got.tgz:24058.got - 2010.06.03 13:09:01.
