data_PCOD9421060
_publ_section_title
;
Structure prediction by ZEFSAII (Michael W. Deem and Ramdas Pophale) SiO2 
 PCOD9421060
Probable space group: P C C A
;
_chemical_formula_sum "Si O2"
_cell_formula_units_Z 64
_cell_length_a 5.525248
_cell_length_b 22.267955
_cell_length_c 27.157830
_cell_angle_alpha 90.000000
_cell_angle_beta 90.000000
_cell_angle_gamma 90.000000
_cell_volume 3341.390061
_symmetry_space_group_name_H-M "P C C A"
_symmetry_group_IT_number 54
_symmetry_cell_setting 'orthorhombic'
loop_
_space_group_symop_operation_xyz
x,y,z
1/2-x,-y,z
1/2+x,-y,1/2-z
-x,y,1/2-z
-x,-y,-z
1/2+x,y,-z
1/2-x,y,1/2+z
x,-y,1/2+z
loop_
_atom_site_type_symbol
_atom_site_label
_atom_site_fract_x
_atom_site_fract_y
_atom_site_fract_z
Si Si1 0.140720 0.195440 0.802844
Si Si2 0.126620 0.275361 0.024178
Si Si3 0.171460 0.413192 0.987499
Si Si4 0.855215 0.263644 0.875121
Si Si5 0.509330 0.312222 0.695688
Si Si6 0.752203 0.065038 0.218555
Si Si7 0.830205 0.625688 0.119128
Si Si8 0.503010 0.462482 0.305105
O O1 0.328819 0.251197 0.802246
O O2 0.255240 0.129544 0.807566
O O3 0.000000 0.197667 0.750000
O O4 0.977311 0.205689 0.851468
O O5 0.158551 0.259458 0.081793
O O6 0.371636 0.252873 0.997246
O O7 0.134099 0.347575 0.013900
O O8 0.243943 0.405862 0.930624
O O9 0.405006 0.441075 0.012714
O O10 0.746132 0.293463 0.826031
O O11 0.048656 0.311102 0.895921
O O12 0.500000 0.338157 0.750000
O O13 0.620434 0.357927 0.656902
O O14 0.500000 0.065739 0.250000
O O15 0.000000 0.064770 0.250000
O O16 0.750000 0.000000 0.191723
O O17 0.007499 0.584801 0.150885
O O18 0.750000 0.500000 0.307539
O O19 0.500000 0.434800 0.250000
O O20 0.250000 0.500000 0.310194
#
# Coordination Sequence:
#
# PCOD9421060 Si02
#       8
#     8   8   8   8   8   8   8   8
#     4  10  20  33  46  76 120 156 180 230 275 326
#     4  10  19  35  52  75 108 140 179 223 264 325
#     4  10  19  35  56  83 106 137 171 223 271 321
#     4  11  22  33  53  83 111 150 180 217 282 338
#     4  11  22  32  50  80 118 148 180 220 276 339
#     4   9  18  32  52  72  99 153 208 236 265 313
#     4  11  24  35  61  83 104 144 187 221 273 339
#     4  10  25  45  62  81 108 142 180 228 271 316
#
# _framework density 19.153704999999999
#
# number of rings (size 3 to 8) (size 9 to 14) (size 15 to 20)
#    0.000    1.750    3.750    1.875    7.000    0.500 
#    0.000    0.000    0.000    2.250    0.000    0.000 
#    0.000    1.000    0.000    0.125    0.000    0.000 
#
# Total GULP energy -356889.915614 kJ/mol
# GULP energy per Si atom -5576.404931 kJ/mol
# Density = 1.911011 g / cm^3
# Si number density = 19.153705 Si / 1000 Ang^3
#
#
#
# Elastic Constant Matrix: (Units=GPa)
#
#
# Indices 1 2 3 4 5 6 
#
# 1 100.9455 9.8680 15.5083 0.0000 0.0000 0.0000
# 2 9.8680 54.7540 19.2804 0.0000 0.0000 0.0000
# 3 15.5083 19.2804 87.1005 0.0000 0.0000 0.0000
# 4 0.0000 0.0000 0.0000 4.5259 0.0000 0.0000
# 5 0.0000 0.0000 0.0000 0.0000 24.6819 0.0000
# 6 0.0000 0.0000 0.0000 0.0000 0.0000 23.4046
#
#
#
# Elastic Compliance Matrix: (Units=1/GPa)
#
#
# Indices 1 2 3 4 5 6 
#
# 1 0.010271 -0.001309 -0.001539 0.000000 0.000000 0.000000
# 2 -0.001309 0.019974 -0.004188 0.000000 0.000000 0.000000
# 3 -0.001539 -0.004188 0.012682 0.000000 0.000000 0.000000
# 4 0.000000 0.000000 0.000000 0.220953 0.000000 0.000000
# 5 0.000000 0.000000 0.000000 0.000000 0.040515 0.000000
# 6 0.000000 0.000000 0.000000 0.000000 0.000000 0.042727
#
#
# Mechanical properties :
#
#
# Convention : Reuss Voigt Hill
#
# Bulk Modulus (GPa) = 34.65694 36.90151 35.77923
# Shear Modulus (GPa) = 13.48389 23.73203 18.60796
#
# Velocity S-wave (km/s) = 2.65615 3.52381 3.12028
# Velocity P-wave (km/s) = 5.24788 5.98866 5.63047
#
# Compressibility (1/GPa) = 0.02885425
#
# Stress axis : x y z
#
# Youngs Moduli (GPa) = 97.36402 50.06440 78.85113
#
# Poissons Ratio (x) = 0.06554 0.12135
# Poissons Ratio (y) = 0.12746 0.33026
# Poissons Ratio (z) = 0.14984 0.20969
#
# Static dielectric constant tensor:
#      x y z
#    x 2.001820 0.000000 0.000000 
#    y 0.000000 1.704040 0.000000 
#    z 0.000000 0.000000 1.684050 
# 
# From -- ./inp_files/23048.got.cif
#   From: 2010.05.17/outbox.cif.g08.bks.cpg/sg54_12_cif.got.tgz:23048.got - 2010.06.03 13:09:01.
