data_PCOD9421919
_publ_section_title
;
Structure prediction by ZEFSAII (Michael W. Deem and Ramdas Pophale) SiO2 
 PCOD9421919
Probable space group: P C C A
;
_chemical_formula_sum "Si O2"
_cell_formula_units_Z 52
_cell_length_a 23.960957
_cell_length_b 5.291433
_cell_length_c 17.961256
_cell_angle_alpha 90.000000
_cell_angle_beta 90.000000
_cell_angle_gamma 90.000000
_cell_volume 2277.268108
_symmetry_space_group_name_H-M "P C C A"
_symmetry_group_IT_number 54
_symmetry_cell_setting 'orthorhombic'
loop_
_space_group_symop_operation_xyz
x,y,z
1/2-x,-y,z
1/2+x,-y,1/2-z
-x,y,1/2-z
-x,-y,-z
1/2+x,y,-z
1/2-x,y,1/2+z
x,-y,1/2+z
loop_
_atom_site_type_symbol
_atom_site_label
_atom_site_fract_x
_atom_site_fract_y
_atom_site_fract_z
Si Si1 0.141440 0.191962 0.309396
Si Si2 0.399612 0.655493 0.158311
Si Si3 0.000000 0.462420 0.250000
Si Si4 0.549236 0.168653 0.125580
Si Si5 0.750000 0.000000 0.132743
Si Si6 0.750000 0.500000 0.533090
Si Si7 0.576713 0.138813 0.425779
Si Si8 0.870942 0.476220 0.043293
O O1 0.141155 0.305179 0.227331
O O2 0.147361 0.400817 0.373363
O O3 0.085077 0.046398 0.333425
O O4 0.194128 0.010388 0.319236
O O5 0.459616 0.696513 0.197946
O O6 0.403098 0.372581 0.126966
O O7 0.394462 0.877347 0.098092
O O8 0.964785 0.634494 0.192648
O O9 0.489559 0.110142 0.087843
O O10 0.587585 0.294379 0.061207
O O11 0.747561 0.243326 0.080279
O O12 0.687394 0.501267 0.497680
O O13 0.593610 0.251626 0.505589
#
# Coordination Sequence:
#
# PCOD9421919 Si02
#       8
#     8   8   4   8   4   4   8   8
#     4  11  22  40  69  91 125 169 220 267 319 378
#     4  11  23  42  60  92 130 169 205 254 319 385
#     4  10  20  40  60  96 124 176 202 260 318 394
#     4  11  21  39  64  93 130 163 214 258 326 378
#     4  10  22  38  64  98 118 156 222 280 308 362
#     4  10  22  42  64  90 126 162 218 266 322 374
#     4  11  27  39  62  94 137 164 207 259 326 390
#     4  11  24  42  64  95 122 170 214 268 313 378
#
# _framework density 22.834375999999999
#
# number of rings (size 3 to 8) (size 9 to 14) (size 15 to 20)
#    0.000    1.231    3.077    3.231    4.308    1.231 
#    0.000    1.538    0.000    0.000    0.000    0.000 
#    0.000    0.000    0.000    0.000    0.000    0.000 
#
# Total GULP energy -290424.991762 kJ/mol
# GULP energy per Si atom -5585.095995 kJ/mol
# Density = 2.278240 g / cm^3
# Si number density = 22.834376 Si / 1000 Ang^3
#
#
#
# Elastic Constant Matrix: (Units=GPa)
#
#
# Indices 1 2 3 4 5 6 
#
# 1 117.2966 14.8241 9.4833 0.0000 0.0000 0.0000
# 2 14.8241 80.1180 16.2627 0.0000 0.0000 0.0000
# 3 9.4833 16.2627 90.7039 0.0000 0.0000 0.0000
# 4 0.0000 0.0000 0.0000 39.6024 0.0000 0.0000
# 5 0.0000 0.0000 0.0000 0.0000 14.4398 0.0000
# 6 0.0000 0.0000 0.0000 0.0000 0.0000 26.4426
#
#
#
# Elastic Compliance Matrix: (Units=1/GPa)
#
#
# Indices 1 2 3 4 5 6 
#
# 1 0.008766 -0.001490 -0.000649 0.000000 0.000000 0.000000
# 2 -0.001490 0.013206 -0.002212 0.000000 0.000000 0.000000
# 3 -0.000649 -0.002212 0.011489 0.000000 0.000000 0.000000
# 4 0.000000 0.000000 0.000000 0.025251 0.000000 0.000000
# 5 0.000000 0.000000 0.000000 0.000000 0.069253 0.000000
# 6 0.000000 0.000000 0.000000 0.000000 0.000000 0.037818
#
#
# Mechanical properties :
#
#
# Convention : Reuss Voigt Hill
#
# Bulk Modulus (GPa) = 40.38966 41.02876 40.70921
# Shear Modulus (GPa) = 27.36128 32.60017 29.98073
#
# Velocity S-wave (km/s) = 3.46533 3.78256 3.62742
# Velocity P-wave (km/s) = 5.80843 6.08967 5.95071
#
# Compressibility (1/GPa) = 0.02475881
#
# Stress axis : x y z
#
# Youngs Moduli (GPa) = 114.07417 75.72128 87.03691
#
# Poissons Ratio (x) = 0.11284 0.05652
# Poissons Ratio (y) = 0.16999 0.19253
# Poissons Ratio (z) = 0.07407 0.16750
#
# Static dielectric constant tensor:
#      x y z
#    x 1.940000 0.000000 0.000000 
#    y 0.000000 1.863320 0.000000 
#    z 0.000000 0.000000 1.889820 
# 
# From -- ./inp_files/19222.got.cif
#   From: 2010.05.17/outbox.cif.g08.bks.cpg/sg54_10_cif.got.tgz:19222.got - 2010.06.03 13:09:01.
