data_PCOD9421949
_publ_section_title
;
Structure prediction by ZEFSAII (Michael W. Deem and Ramdas Pophale) SiO2 
 PCOD9421949
Probable space group: P C C A
;
_chemical_formula_sum "Si O2"
_cell_formula_units_Z 48
_cell_length_a 15.020896
_cell_length_b 5.322689
_cell_length_c 24.383486
_cell_angle_alpha 90.000000
_cell_angle_beta 90.000000
_cell_angle_gamma 90.000000
_cell_volume 1949.497693
_symmetry_space_group_name_H-M "P C C A"
_symmetry_group_IT_number 54
_symmetry_cell_setting 'orthorhombic'
loop_
_space_group_symop_operation_xyz
x,y,z
1/2-x,-y,z
1/2+x,-y,1/2-z
-x,y,1/2-z
-x,-y,-z
1/2+x,y,-z
1/2-x,y,1/2+z
x,-y,1/2+z
loop_
_atom_site_type_symbol
_atom_site_label
_atom_site_fract_x
_atom_site_fract_y
_atom_site_fract_z
Si Si1 0.750000 0.500000 0.528871
Si Si2 0.250000 0.000000 0.033909
Si Si3 0.423738 0.130348 0.099748
Si Si4 0.305030 0.263665 0.863912
Si Si5 0.901437 0.069153 0.769605
Si Si6 0.999134 0.360780 0.375945
Si Si7 0.654994 0.428740 0.784787
O O1 0.785959 0.255082 0.496388
O O2 0.814127 0.645979 0.571735
O O3 0.169108 0.878397 0.068276
O O4 0.400727 0.113562 0.164833
O O5 0.487239 0.372026 0.094237
O O6 0.473732 0.873009 0.086153
O O7 0.250000 0.500000 0.839959
O O8 0.408384 0.279152 0.848431
O O9 0.250000 0.000000 0.861258
O O10 0.874549 0.340028 0.747343
O O11 0.000000 0.011664 0.750000
O O12 0.836778 0.840560 0.756262
O O13 0.923132 0.382459 0.328649
O O14 0.750000 0.500000 0.810078
#
# Coordination Sequence:
#
# PCOD9421949 Si02
#       7
#     4   4   8   8   8   8   8
#     4  10  22  40  62  84 128 166 222 264 320 366
#     4  12  22  40  60  94 126 168 202 270 310 402
#     4  10  23  35  62  92 125 160 207 252 328 368
#     4  10  20  40  66  83 119 178 216 266 328 357
#     4  10  21  38  61  88 126 167 198 249 307 378
#     4  10  21  37  61  96 122 162 220 260 310 387
#     4  10  21  36  65  97 132 168 206 256 329 379
#
# _framework density 24.621725999999999
#
# number of rings (size 3 to 8) (size 9 to 14) (size 15 to 20)
#    0.500    1.333    0.833    3.000    9.333    0.000 
#    0.000    5.000    0.000   40.000    0.000    0.000 
#    0.000    0.000    0.000    0.000    0.000    0.000 
#
# Total GULP energy -267610.096151 kJ/mol
# GULP energy per Si atom -5575.210336 kJ/mol
# Density = 2.456569 g / cm^3
# Si number density = 24.621726 Si / 1000 Ang^3
#
#
#
# Elastic Constant Matrix: (Units=GPa)
#
#
# Indices 1 2 3 4 5 6 
#
# 1 165.3646 66.4957 4.4286 0.0000 0.0000 0.0000
# 2 66.4957 271.4594 12.9924 0.0000 0.0000 0.0000
# 3 4.4286 12.9924 34.4270 0.0000 0.0000 0.0000
# 4 0.0000 0.0000 0.0000 13.3749 0.0000 0.0000
# 5 0.0000 0.0000 0.0000 0.0000 -10.4702 0.0000
# 6 0.0000 0.0000 0.0000 0.0000 0.0000 13.7137
#
#
#
# Elastic Compliance Matrix: (Units=1/GPa)
#
#
# Indices 1 2 3 4 5 6 
#
# 1 0.006710 -0.001632 -0.000247 0.000000 0.000000 0.000000
# 2 -0.001632 0.004148 -0.001356 0.000000 0.000000 0.000000
# 3 -0.000247 -0.001356 0.029590 0.000000 0.000000 0.000000
# 4 0.000000 0.000000 0.000000 0.074767 0.000000 0.000000
# 5 0.000000 0.000000 0.000000 0.000000 -0.095509 0.000000
# 6 0.000000 0.000000 0.000000 0.000000 0.000000 0.072920
#
#
# Mechanical properties :
#
#
# Convention : Reuss Voigt Hill
#
# Bulk Modulus (GPa) = 29.42971 71.00938 50.21954
# Shear Modulus (GPa) = 45.28089 29.14599 37.21344
#
# Velocity S-wave (km/s) = 4.29308 3.44430 3.89190
# Velocity P-wave (km/s) = 6.04589 6.68733 6.37468
#
# Compressibility (1/GPa) = 0.03397926
#
# Stress axis : x y z
#
# Youngs Moduli (GPa) = 149.03015 241.05664 33.79471
#
# Poissons Ratio (x) = 0.39336 0.00836
# Poissons Ratio (y) = 0.24319 0.04581
# Poissons Ratio (z) = 0.03686 0.32679
#
# Static dielectric constant tensor:
#      x y z
#    x 1.925610 0.000000 0.000000 
#    y 0.000000 2.173220 0.000000 
#    z 0.000000 0.000000 2.197010 
# 
# From -- ./inp_files/28196.got.cif
#   From: 2010.05.17/outbox.cif.g08.bks.cpg/sg54_15_cif.got.tgz:28196.got - 2010.06.03 13:09:01.
