data_PCOD9421502
_publ_section_title
;
Structure prediction by ZEFSAII (Michael W. Deem and Ramdas Pophale) SiO2 
 PCOD9421502
Probable space group: P C C A
;
_chemical_formula_sum "Si O2"
_cell_formula_units_Z 40
_cell_length_a 8.901088
_cell_length_b 10.624356
_cell_length_c 22.539171
_cell_angle_alpha 90.000000
_cell_angle_beta 90.000000
_cell_angle_gamma 90.000000
_cell_volume 2131.491709
_symmetry_space_group_name_H-M "P C C A"
_symmetry_group_IT_number 54
_symmetry_cell_setting 'orthorhombic'
loop_
_space_group_symop_operation_xyz
x,y,z
1/2-x,-y,z
1/2+x,-y,1/2-z
-x,y,1/2-z
-x,-y,-z
1/2+x,y,-z
1/2-x,y,1/2+z
x,-y,1/2+z
loop_
_atom_site_type_symbol
_atom_site_label
_atom_site_fract_x
_atom_site_fract_y
_atom_site_fract_z
Si Si1 0.250000 0.500000 0.855486
Si Si2 0.995214 0.310558 0.683035
Si Si3 0.858237 0.143169 0.034697
Si Si4 0.968160 0.107928 0.578312
Si Si5 0.750000 0.500000 0.364609
Si Si6 0.997668 0.405057 0.444603
O O1 0.339187 0.610004 0.821642
O O2 0.376792 0.445736 0.897968
O O3 0.999291 0.197970 0.634414
O O4 0.000000 0.261144 0.750000
O O5 0.131152 0.411324 0.670442
O O6 0.683451 0.164705 0.047840
O O7 0.954374 0.267817 0.037643
O O8 0.917754 0.038863 0.081752
O O9 0.893260 0.100289 0.967574
O O10 0.657061 0.588670 0.409220
O O11 0.000000 0.500000 0.500000
#
# Coordination Sequence:
#
# PCOD9421502 Si02
#       6
#     4   8   8   8   4   8
#     4  10  20  36  56  86 116 159 195 250 312 346
#     4  11  22  41  62  85 121 164 211 248 300 368
#     4  10  21  38  61  89 124 150 203 247 317 372
#     4  10  22  38  63  87 118 167 193 252 311 369
#     4  10  24  36  56  90 120 153 203 246 316 352
#     4  11  21  33  58  90 124 152 191 255 305 373
#
# _framework density 18.766200000000001
#
# number of rings (size 3 to 8) (size 9 to 14) (size 15 to 20)
#    0.000    1.600    2.000    3.600    5.600    0.000 
#    0.000    0.000    8.800    0.000    0.000    0.000 
#    0.000    0.000    0.000    0.000    0.000    0.000 
#
# Total GULP energy -222850.418054 kJ/mol
# GULP energy per Si atom -5571.260451 kJ/mol
# Density = 1.872349 g / cm^3
# Si number density = 18.766200 Si / 1000 Ang^3
#
#
#
# Elastic Constant Matrix: (Units=GPa)
#
#
# Indices 1 2 3 4 5 6 
#
# 1 92.0913 23.8189 40.4334 0.0000 0.0000 0.0000
# 2 23.8189 110.6901 44.1392 0.0000 0.0000 0.0000
# 3 40.4334 44.1392 109.0812 0.0000 0.0000 0.0000
# 4 0.0000 0.0000 0.0000 21.4489 0.0000 0.0000
# 5 0.0000 0.0000 0.0000 0.0000 11.0177 0.0000
# 6 0.0000 0.0000 0.0000 0.0000 0.0000 25.3048
#
#
#
# Elastic Compliance Matrix: (Units=1/GPa)
#
#
# Indices 1 2 3 4 5 6 
#
# 1 0.013071 -0.001050 -0.004420 0.000000 0.000000 0.000000
# 2 -0.001050 0.010857 -0.004004 0.000000 0.000000 0.000000
# 3 -0.004420 -0.004004 0.012426 0.000000 0.000000 0.000000
# 4 0.000000 0.000000 0.000000 0.046622 0.000000 0.000000
# 5 0.000000 0.000000 0.000000 0.000000 0.090763 0.000000
# 6 0.000000 0.000000 0.000000 0.000000 0.000000 0.039518
#
#
# Mechanical properties :
#
#
# Convention : Reuss Voigt Hill
#
# Bulk Modulus (GPa) = 57.45273 58.73840 58.09556
# Shear Modulus (GPa) = 21.00768 25.11902 23.06335
#
# Velocity S-wave (km/s) = 3.34944 3.66255 3.50949
# Velocity P-wave (km/s) = 6.75572 7.01810 6.88816
#
# Compressibility (1/GPa) = 0.01740561
#
# Stress axis : x y z
#
# Youngs Moduli (GPa) = 76.50459 92.10803 80.47587
#
# Poissons Ratio (x) = 0.09672 0.35572
# Poissons Ratio (y) = 0.08034 0.32222
# Poissons Ratio (z) = 0.33816 0.36879
#
# Static dielectric constant tensor:
#      x y z
#    x 1.717180 0.000000 0.000000 
#    y 0.000000 1.712200 0.000000 
#    z 0.000000 0.000000 1.628310 
# 
# From -- ./inp_files/20339.got.cif
#   From: 2010.05.17/outbox.cif.g08.bks.cpg/sg54_11_cif.got.tgz:20339.got - 2010.06.03 13:09:01.
