data_PCOD9421552
_publ_section_title
;
Structure prediction by ZEFSAII (Michael W. Deem and Ramdas Pophale) SiO2 
 PCOD9421552
Probable space group: P C C A
;
_chemical_formula_sum "Si O2"
_cell_formula_units_Z 48
_cell_length_a 12.122162
_cell_length_b 13.748520
_cell_length_c 13.824844
_cell_angle_alpha 90.000000
_cell_angle_beta 90.000000
_cell_angle_gamma 90.000000
_cell_volume 2304.073202
_symmetry_space_group_name_H-M "P C C A"
_symmetry_group_IT_number 54
_symmetry_cell_setting 'orthorhombic'
loop_
_space_group_symop_operation_xyz
x,y,z
1/2-x,-y,z
1/2+x,-y,1/2-z
-x,y,1/2-z
-x,-y,-z
1/2+x,y,-z
1/2-x,y,1/2+z
x,-y,1/2+z
loop_
_atom_site_type_symbol
_atom_site_label
_atom_site_fract_x
_atom_site_fract_y
_atom_site_fract_z
Si Si1 0.295680 0.894605 0.793804
Si Si2 0.391726 0.777329 0.624049
Si Si3 0.391247 0.269727 0.804421
Si Si4 0.281174 0.611432 0.143990
Si Si5 0.450241 0.732209 0.030407
Si Si6 0.789985 0.105023 0.482337
O O1 0.380236 0.849320 0.715949
O O2 0.199089 0.814040 0.800368
O O3 0.250000 0.000000 0.762988
O O4 0.326814 0.907350 0.906221
O O5 0.327190 0.678373 0.647248
O O6 0.509137 0.749025 0.578818
O O7 0.317649 0.830157 0.541039
O O8 0.500000 0.233153 0.750000
O O9 0.346831 0.360637 0.742343
O O10 0.440347 0.293654 0.908995
O O11 0.250000 0.500000 0.135485
O O12 0.359271 0.651241 0.056808
O O13 0.390712 0.833465 0.063262
O O14 0.750000 0.000000 0.448583
#
# Coordination Sequence:
#
# PCOD9421552 Si02
#       6
#     8   8   8   8   8   8
#     4  10  20  37  55  86 131 168 212 258 307 364
#     4  10  20  36  60  85 125 163 208 263 312 370
#     4   9  18  37  62  83 113 162 207 256 311 369
#     4   9  20  38  63  88 117 156 208 262 319 384
#     4  10  20  37  63  87 123 162 206 256 318 372
#     4  10  21  37  56  89 128 168 214 257 305 369
#
# _framework density 20.832671999999999
#
# number of rings (size 3 to 8) (size 9 to 14) (size 15 to 20)
#    0.000    2.333    1.667    1.500    0.000    2.000 
#    6.000    0.833   22.000    0.000    0.000    0.000 
#    0.000    0.000    0.000    0.000    0.000    0.000 
#
# Total GULP energy -267326.699829 kJ/mol
# GULP energy per Si atom -5569.306246 kJ/mol
# Density = 2.078526 g / cm^3
# Si number density = 20.832672 Si / 1000 Ang^3
#
#
#
# Elastic Constant Matrix: (Units=GPa)
#
#
# Indices 1 2 3 4 5 6 
#
# 1 72.0810 49.4711 16.7298 0.0000 0.0000 0.0000
# 2 49.4711 166.1166 37.4927 0.0000 0.0000 0.0000
# 3 16.7298 37.4927 97.6260 0.0000 0.0000 0.0000
# 4 0.0000 0.0000 0.0000 24.4023 0.0000 0.0000
# 5 0.0000 0.0000 0.0000 0.0000 29.5433 0.0000
# 6 0.0000 0.0000 0.0000 0.0000 0.0000 15.7025
#
#
#
# Elastic Compliance Matrix: (Units=1/GPa)
#
#
# Indices 1 2 3 4 5 6 
#
# 1 0.017544 -0.004978 -0.001095 0.000000 0.000000 0.000000
# 2 -0.004978 0.008003 -0.002221 0.000000 0.000000 0.000000
# 3 -0.001095 -0.002221 0.011284 0.000000 0.000000 0.000000
# 4 0.000000 0.000000 0.000000 0.040980 0.000000 0.000000
# 5 0.000000 0.000000 0.000000 0.000000 0.033849 0.000000
# 6 0.000000 0.000000 0.000000 0.000000 0.000000 0.063684
#
#
# Mechanical properties :
#
#
# Convention : Reuss Voigt Hill
#
# Bulk Modulus (GPa) = 49.39587 60.35676 54.87631
# Shear Modulus (GPa) = 25.16645 29.40497 27.28571
#
# Velocity S-wave (km/s) = 3.47944 3.76105 3.62298
# Velocity P-wave (km/s) = 6.31698 6.92067 6.62571
#
# Compressibility (1/GPa) = 0.02024461
#
# Stress axis : x y z
#
# Youngs Moduli (GPa) = 57.00087 124.94630 88.62397
#
# Poissons Ratio (x) = 0.62193 0.09702
# Poissons Ratio (y) = 0.28372 0.19681
# Poissons Ratio (z) = 0.06240 0.27747
#
# Static dielectric constant tensor:
#      x y z
#    x 1.770320 0.000000 0.000000 
#    y 0.000000 1.698150 0.000000 
#    z 0.000000 0.000000 1.864870 
# 
# From -- ./inp_files/12626.got.cif
#   From: 2010.05.17/outbox.cif.g08.bks.cpg/sg54_7_cif.got.tgz:12626.got - 2010.06.03 13:09:01.
