data_PCOD9421304
_publ_section_title
;
Structure prediction by ZEFSAII (Michael W. Deem and Ramdas Pophale) SiO2 
 PCOD9421304
Probable space group: P C C A
;
_chemical_formula_sum "Si O2"
_cell_formula_units_Z 60
_cell_length_a 15.029148
_cell_length_b 9.775051
_cell_length_c 17.595671
_cell_angle_alpha 90.000000
_cell_angle_beta 90.000000
_cell_angle_gamma 90.000000
_cell_volume 2584.992136
_symmetry_space_group_name_H-M "P C C A"
_symmetry_group_IT_number 54
_symmetry_cell_setting 'orthorhombic'
loop_
_space_group_symop_operation_xyz
x,y,z
1/2-x,-y,z
1/2+x,-y,1/2-z
-x,y,1/2-z
-x,-y,-z
1/2+x,y,-z
1/2-x,y,1/2+z
x,-y,1/2+z
loop_
_atom_site_type_symbol
_atom_site_label
_atom_site_fract_x
_atom_site_fract_y
_atom_site_fract_z
Si Si1 0.600156 0.143475 0.863705
Si Si2 0.750000 0.500000 0.875601
Si Si3 0.280435 0.273817 0.511377
Si Si4 0.533958 0.618542 0.164747
Si Si5 0.004778 0.089260 0.923239
Si Si6 0.196501 0.700027 0.756134
Si Si7 0.796746 0.137885 0.637409
Si Si8 0.036595 0.386225 0.944560
O O1 0.671886 0.169942 0.929930
O O2 0.523026 0.260520 0.875148
O O3 0.646678 0.173884 0.783950
O O4 0.558953 0.994026 0.867725
O O5 0.724670 0.620879 0.935907
O O6 0.695741 0.410988 0.812654
O O7 0.245546 0.190019 0.439397
O O8 0.362622 0.356564 0.471847
O O9 0.500000 0.622279 0.250000
O O10 0.637591 0.650963 0.173335
O O11 0.526725 0.466387 0.133785
O O12 0.103144 0.103443 0.887815
O O13 0.982881 0.245450 0.942758
O O14 0.000000 0.000000 0.000000
O O15 0.287235 0.750873 0.794923
O O16 0.750000 0.000000 0.662879
O O17 0.000000 0.500000 0.000000
#
# Coordination Sequence:
#
# PCOD9421304 Si02
#       8
#     8   4   8   8   8   8   8   8
#     4  10  19  45  68  93 131 187 228 283 354 422
#     4  10  24  42  62  94 138 180 230 278 360 414
#     4  10  22  41  64  96 135 172 232 285 346 411
#     4  10  21  39  64  94 132 173 224 280 351 419
#     4  11  21  41  68  99 137 177 231 288 344 412
#     4  10  24  41  68  92 141 191 225 284 366 429
#     4  11  24  42  66 103 137 178 239 289 353 421
#     4  11  21  37  65  98 129 162 228 283 336 400
#
# _framework density 23.210902999999998
#
# number of rings (size 3 to 8) (size 9 to 14) (size 15 to 20)
#    0.000    1.600    4.000    0.800    5.600    0.000 
#    0.000    8.667    0.000    0.000    0.000    0.000 
#    0.000    0.000    0.000    0.000    0.000    0.000 
#
# Total GULP energy -334513.608237 kJ/mol
# GULP energy per Si atom -5575.226804 kJ/mol
# Density = 2.315807 g / cm^3
# Si number density = 23.210903 Si / 1000 Ang^3
#
#
#
# Elastic Constant Matrix: (Units=GPa)
#
#
# Indices 1 2 3 4 5 6 
#
# 1 42.0643 39.1923 9.6827 0.0000 0.0000 0.0000
# 2 39.1923 152.0879 51.6565 0.0000 0.0000 0.0000
# 3 9.6827 51.6565 65.0312 0.0000 0.0000 0.0000
# 4 0.0000 0.0000 0.0000 37.0688 0.0000 0.0000
# 5 0.0000 0.0000 0.0000 0.0000 25.1370 0.0000
# 6 0.0000 0.0000 0.0000 0.0000 0.0000 32.0403
#
#
#
# Elastic Compliance Matrix: (Units=1/GPa)
#
#
# Indices 1 2 3 4 5 6 
#
# 1 0.031558 -0.008952 0.002412 0.000000 0.000000 0.000000
# 2 -0.008952 0.011544 -0.007837 0.000000 0.000000 0.000000
# 3 0.002412 -0.007837 0.021243 0.000000 0.000000 0.000000
# 4 0.000000 0.000000 0.000000 0.026977 0.000000 0.000000
# 5 0.000000 0.000000 0.000000 0.000000 0.039782 0.000000
# 6 0.000000 0.000000 0.000000 0.000000 0.000000 0.031211
#
#
# Mechanical properties :
#
#
# Convention : Reuss Voigt Hill
#
# Bulk Modulus (GPa) = 28.09619 51.13850 39.61735
# Shear Modulus (GPa) = 24.63881 29.42599 27.03240
#
# Velocity S-wave (km/s) = 3.26163 3.56443 3.41639
# Velocity P-wave (km/s) = 5.12985 6.24661 5.71557
#
# Compressibility (1/GPa) = 0.03559201
#
# Stress axis : x y z
#
# Youngs Moduli (GPa) = 31.68728 86.62775 47.07415
#
# Poissons Ratio (x) = 0.77545 -0.11353
# Poissons Ratio (y) = 0.28365 0.36890
# Poissons Ratio (z) = -0.07642 0.67887
#
# Static dielectric constant tensor:
#      x y z
#    x 2.023120 0.000000 0.000000 
#    y 0.000000 1.924390 0.000000 
#    z 0.000000 0.000000 2.017940 
# 
# From -- ./inp_files/18669.got.cif
#   From: 2010.05.17/outbox.cif.g08.bks.cpg/sg54_10_cif.got.tgz:18669.got - 2010.06.03 13:09:01.
