data_PCOD9421289
_publ_section_title
;
Structure prediction by ZEFSAII (Michael W. Deem and Ramdas Pophale) SiO2 
 PCOD9421289
Probable space group: P C C A
;
_chemical_formula_sum "Si O2"
_cell_formula_units_Z 60
_cell_length_a 17.292003
_cell_length_b 8.213932
_cell_length_c 20.113885
_cell_angle_alpha 90.000000
_cell_angle_beta 90.000000
_cell_angle_gamma 90.000000
_cell_volume 2856.882430
_symmetry_space_group_name_H-M "P C C A"
_symmetry_group_IT_number 54
_symmetry_cell_setting 'orthorhombic'
loop_
_space_group_symop_operation_xyz
x,y,z
1/2-x,-y,z
1/2+x,-y,1/2-z
-x,y,1/2-z
-x,-y,-z
1/2+x,y,-z
1/2-x,y,1/2+z
x,-y,1/2+z
loop_
_atom_site_type_symbol
_atom_site_label
_atom_site_fract_x
_atom_site_fract_y
_atom_site_fract_z
Si Si1 0.883324 0.565073 0.803382
Si Si2 0.750000 0.000000 0.617675
Si Si3 0.196707 0.854481 0.650002
Si Si4 0.693245 0.353837 0.567709
Si Si5 0.170713 0.328891 0.584034
Si Si6 0.093913 0.987681 0.301207
Si Si7 0.559602 0.637520 0.172425
Si Si8 0.064831 0.079334 0.648096
O O1 0.826605 0.719853 0.797263
O O2 0.838634 0.454742 0.855754
O O3 0.904745 0.516410 0.728409
O O4 0.968650 0.601495 0.834003
O O5 0.771170 0.830061 0.578528
O O6 0.675915 0.968215 0.664378
O O7 0.250886 0.773542 0.595190
O O8 0.250000 0.000000 0.676929
O O9 0.114551 0.922540 0.625199
O O10 0.750000 0.500000 0.590351
O O11 0.673718 0.387526 0.490672
O O12 0.613572 0.364635 0.608681
O O13 0.097943 0.215145 0.600096
O O14 0.088961 0.913215 0.226877
O O15 0.026652 0.917972 0.348442
O O16 0.068527 0.178435 0.298801
#
# Coordination Sequence:
#
# PCOD9421289 Si02
#       8
#     8   4   8   8   8   8   8   8
#     4  11  20  41  64  98 129 167 221 287 324 412
#     4  10  26  40  70  94 132 180 234 264 356 420
#     4  10  20  34  61  88 123 168 212 274 322 373
#     4  11  26  48  63  95 140 183 221 287 345 415
#     4  11  26  38  62  99 131 173 232 273 340 406
#     4  10  19  41  65 103 132 171 222 285 339 403
#     4  10  22  40  70  93 135 176 218 274 359 396
#     4  10  20  37  67  93 135 168 221 285 333 390
#
# _framework density 21.001912999999998
#
# number of rings (size 3 to 8) (size 9 to 14) (size 15 to 20)
#    0.000    1.600    2.667    2.000    5.600    5.867 
#    0.000    4.000    0.000    0.000    0.000    0.000 
#    0.000    0.000    0.000    0.000    0.000    0.000 
#
# Total GULP energy -334314.944077 kJ/mol
# GULP energy per Si atom -5571.915735 kJ/mol
# Density = 2.095411 g / cm^3
# Si number density = 21.001913 Si / 1000 Ang^3
#
#
#
# Elastic Constant Matrix: (Units=GPa)
#
#
# Indices 1 2 3 4 5 6 
#
# 1 139.7194 13.6422 41.6424 0.0000 0.0000 0.0000
# 2 13.6422 51.6607 18.5402 0.0000 0.0000 0.0000
# 3 41.6424 18.5402 64.4270 0.0000 0.0000 0.0000
# 4 0.0000 0.0000 0.0000 21.9576 0.0000 0.0000
# 5 0.0000 0.0000 0.0000 0.0000 25.6329 0.0000
# 6 0.0000 0.0000 0.0000 0.0000 0.0000 23.8244
#
#
#
# Elastic Compliance Matrix: (Units=1/GPa)
#
#
# Indices 1 2 3 4 5 6 
#
# 1 0.008870 -0.000318 -0.005641 0.000000 0.000000 0.000000
# 2 -0.000318 0.021598 -0.006010 0.000000 0.000000 0.000000
# 3 -0.005641 -0.006010 0.020897 0.000000 0.000000 0.000000
# 4 0.000000 0.000000 0.000000 0.045542 0.000000 0.000000
# 5 0.000000 0.000000 0.000000 0.000000 0.039012 0.000000
# 6 0.000000 0.000000 0.000000 0.000000 0.000000 0.041974
#
#
# Mechanical properties :
#
#
# Convention : Reuss Voigt Hill
#
# Bulk Modulus (GPa) = 36.46082 44.82852 40.64467
# Shear Modulus (GPa) = 23.69966 26.41513 25.05740
#
# Velocity S-wave (km/s) = 3.36289 3.55032 3.45788
# Velocity P-wave (km/s) = 5.69887 6.18043 5.94453
#
# Compressibility (1/GPa) = 0.02742670
#
# Stress axis : x y z
#
# Youngs Moduli (GPa) = 112.74446 46.30097 47.85312
#
# Poissons Ratio (x) = 0.01471 0.26996
# Poissons Ratio (y) = 0.03581 0.28759
# Poissons Ratio (z) = 0.63605 0.27827
#
# Static dielectric constant tensor:
#      x y z
#    x 1.756440 0.000000 0.000000 
#    y 0.000000 1.969770 0.000000 
#    z 0.000000 0.000000 1.740840 
# 
# From -- ./inp_files/18666.got.cif
#   From: 2010.05.17/outbox.cif.g08.bks.cpg/sg54_10_cif.got.tgz:18666.got - 2010.06.03 13:09:01.
