data_PCOD9421447
_publ_section_title
;
Structure prediction by ZEFSAII (Michael W. Deem and Ramdas Pophale) SiO2 
 PCOD9421447
Probable space group: P C C A
;
_chemical_formula_sum "Si O2"
_cell_formula_units_Z 64
_cell_length_a 14.076144
_cell_length_b 22.682162
_cell_length_c 8.245457
_cell_angle_alpha 90.000000
_cell_angle_beta 90.000000
_cell_angle_gamma 90.000000
_cell_volume 2632.587896
_symmetry_space_group_name_H-M "P C C A"
_symmetry_group_IT_number 54
_symmetry_cell_setting 'orthorhombic'
loop_
_space_group_symop_operation_xyz
x,y,z
1/2-x,-y,z
1/2+x,-y,1/2-z
-x,y,1/2-z
-x,-y,-z
1/2+x,y,-z
1/2-x,y,1/2+z
x,-y,1/2+z
loop_
_atom_site_type_symbol
_atom_site_label
_atom_site_fract_x
_atom_site_fract_y
_atom_site_fract_z
Si Si1 0.114530 0.736934 0.914109
Si Si2 0.227518 0.066617 0.711313
Si Si3 0.383086 0.121067 0.911732
Si Si4 0.937515 0.893709 0.084061
Si Si5 0.430748 0.462967 0.879521
Si Si6 0.563845 0.242334 0.084506
Si Si7 0.220244 0.691818 0.237714
Si Si8 0.388694 0.578545 0.704410
O O1 0.170593 0.707723 0.765897
O O2 0.114711 0.808213 0.902341
O O3 0.173498 0.714836 0.071296
O O4 0.004028 0.726154 0.954210
O O5 0.177369 0.103052 0.570156
O O6 0.154677 0.069444 0.865577
O O7 0.250000 0.000000 0.667333
O O8 0.325538 0.096648 0.761282
O O9 0.486172 0.092187 0.944365
O O10 0.912257 0.825601 0.049332
O O11 0.000000 0.894307 0.250000
O O12 0.500000 0.432278 0.750000
O O13 0.374862 0.513824 0.782834
O O14 0.500000 0.500000 0.000000
O O15 0.378606 0.423324 0.009290
O O16 0.500000 0.241784 0.250000
O O17 0.660187 0.273998 0.126254
O O18 0.189079 0.624458 0.262077
O O19 0.500000 0.595572 0.750000
#
# Coordination Sequence:
#
# PCOD9421447 Si02
#       8
#     8   8   8   8   8   8   8   8
#     4  10  20  35  57  83 109 144 187 237 298 370
#     4  11  21  34  54  80 107 141 189 238 284 344
#     4  10  20  37  57  76 108 147 183 230 291 355
#     4   8  16  32  53  75 104 145 183 219 282 361
#     4   7  13  27  49  79 112 145 189 231 276 340
#     4   8  15  31  55  78 103 143 187 227 288 365
#     4  11  20  34  57  84 113 144 192 250 304 364
#     4   9  16  30  55  84 112 150 194 241 292 346
#
# _framework density 24.310680000000001
#
# number of rings (size 3 to 8) (size 9 to 14) (size 15 to 20)
#    0.000    3.000    0.000    5.250    0.000    0.500 
#    0.000    6.250    0.000    6.750    0.000    1.750 
#    0.000    0.000    0.000    1.125    0.000    0.250 
#
# Total GULP energy -357560.951631 kJ/mol
# GULP energy per Si atom -5586.889869 kJ/mol
# Density = 2.425535 g / cm^3
# Si number density = 24.310680 Si / 1000 Ang^3
#
#
#
# Elastic Constant Matrix: (Units=GPa)
#
#
# Indices 1 2 3 4 5 6 
#
# 1 111.3368 26.7454 31.7404 0.0000 0.0000 0.0000
# 2 26.7454 46.2095 8.0229 0.0000 0.0000 0.0000
# 3 31.7404 8.0229 77.0603 0.0000 0.0000 0.0000
# 4 0.0000 0.0000 0.0000 6.8064 0.0000 0.0000
# 5 0.0000 0.0000 0.0000 0.0000 44.2361 0.0000
# 6 0.0000 0.0000 0.0000 0.0000 0.0000 6.5524
#
#
#
# Elastic Compliance Matrix: (Units=1/GPa)
#
#
# Indices 1 2 3 4 5 6 
#
# 1 0.011607 -0.005996 -0.004157 0.000000 0.000000 0.000000
# 2 -0.005996 0.025137 -0.000147 0.000000 0.000000 0.000000
# 3 -0.004157 -0.000147 0.014704 0.000000 0.000000 0.000000
# 4 0.000000 0.000000 0.000000 0.146920 0.000000 0.000000
# 5 0.000000 0.000000 0.000000 0.000000 0.022606 0.000000
# 6 0.000000 0.000000 0.000000 0.000000 0.000000 0.152617
#
#
# Mechanical properties :
#
#
# Convention : Reuss Voigt Hill
#
# Bulk Modulus (GPa) = 32.41715 40.84710 36.63213
# Shear Modulus (GPa) = 12.36171 22.72549 17.54360
#
# Velocity S-wave (km/s) = 2.25742 3.06076 2.68925
# Velocity P-wave (km/s) = 4.48977 5.41568 4.97432
#
# Compressibility (1/GPa) = 0.03084787
#
# Stress axis : x y z
#
# Youngs Moduli (GPa) = 86.15341 39.78233 68.00761
#
# Poissons Ratio (x) = 0.23855 0.28268
# Poissons Ratio (y) = 0.51661 0.01001
# Poissons Ratio (z) = 0.35811 0.00585
#
# Static dielectric constant tensor:
#      x y z
#    x 1.947030 0.000000 0.000000 
#    y 0.000000 1.926240 0.000000 
#    z 0.000000 0.000000 2.036360 
# 
# From -- ./inp_files/3748.got.cif
#   From: 2010.05.17/outbox.cif.g08.bks.cpg/sg54_2_cif.got.tgz:3748.got - 2010.06.03 13:09:01.
