data_PCOD9421780
_publ_section_title
;
Structure prediction by ZEFSAII (Michael W. Deem and Ramdas Pophale) SiO2 
 PCOD9421780
Probable space group: P C C A
;
_chemical_formula_sum "Si O2"
_cell_formula_units_Z 64
_cell_length_a 14.668972
_cell_length_b 8.763373
_cell_length_c 22.338328
_cell_angle_alpha 90.000000
_cell_angle_beta 90.000000
_cell_angle_gamma 90.000000
_cell_volume 2871.584763
_symmetry_space_group_name_H-M "P C C A"
_symmetry_group_IT_number 54
_symmetry_cell_setting 'orthorhombic'
loop_
_space_group_symop_operation_xyz
x,y,z
1/2-x,-y,z
1/2+x,-y,1/2-z
-x,y,1/2-z
-x,-y,-z
1/2+x,y,-z
1/2-x,y,1/2+z
x,-y,1/2+z
loop_
_atom_site_type_symbol
_atom_site_label
_atom_site_fract_x
_atom_site_fract_y
_atom_site_fract_z
Si Si1 0.166474 0.596640 0.904198
Si Si2 0.403751 0.039170 0.472406
Si Si3 0.246812 0.682198 0.156293
Si Si4 0.948224 0.815717 0.311812
Si Si5 0.154971 0.916880 0.849474
Si Si6 0.908413 0.140527 0.278187
Si Si7 0.970749 0.667435 0.071994
Si Si8 0.172567 0.249730 0.528272
O O1 0.250000 0.500000 0.879263
O O2 0.097084 0.978496 0.904727
O O3 0.077865 0.493685 0.917330
O O4 0.199670 0.667490 0.967203
O O5 0.403186 0.222031 0.466007
O O6 0.500000 0.000000 0.500000
O O7 0.348264 0.735916 0.359433
O O8 0.338792 0.928716 0.510870
O O9 0.250000 0.500000 0.161021
O O10 0.153217 0.745357 0.185494
O O11 0.335025 0.755945 0.188205
O O12 0.235720 0.725586 0.085887
O O13 0.000000 0.788760 0.250000
O O14 0.008863 0.740725 0.363408
O O15 0.936918 0.998341 0.319833
O O16 0.133223 0.942209 0.780387
O O17 0.250000 0.000000 0.861450
O O18 0.000000 0.216308 0.250000
O O19 0.071923 0.678336 0.043248
#
# Coordination Sequence:
#
# PCOD9421780 Si02
#       8
#     8   8   8   8   8   8   8   8
#     4  11  23  38  60  91 128 170 213 270 339 407
#     4   9  18  37  63  92 124 166 220 270 330 411
#     4  11  24  42  66  97 133 174 225 289 353 420
#     4  10  22  42  66  94 131 177 227 286 346 415
#     4  11  23  41  63  91 128 172 221 274 336 409
#     4  11  25  45  69  95 129 178 233 289 350 418
#     4  10  20  38  63  92 126 169 220 278 341 405
#     4   9  21  41  61  88 127 170 214 270 342 413
#
# _framework density 22.287344000000001
#
# number of rings (size 3 to 8) (size 9 to 14) (size 15 to 20)
#    0.000    1.750    0.000    4.125    0.000    5.000 
#    0.000   32.500    0.000    0.000    0.000    0.000 
#    0.000    0.000    0.000    0.000    0.000    0.000 
#
# Total GULP energy -357354.880607 kJ/mol
# GULP energy per Si atom -5583.670009 kJ/mol
# Density = 2.223662 g / cm^3
# Si number density = 22.287344 Si / 1000 Ang^3
#
#
#
# Elastic Constant Matrix: (Units=GPa)
#
#
# Indices 1 2 3 4 5 6 
#
# 1 120.6346 58.5608 50.2158 0.0000 0.0000 0.0000
# 2 58.5608 84.8231 20.0749 0.0000 0.0000 0.0000
# 3 50.2158 20.0749 89.6148 0.0000 0.0000 0.0000
# 4 0.0000 0.0000 0.0000 32.4974 0.0000 0.0000
# 5 0.0000 0.0000 0.0000 0.0000 11.1848 0.0000
# 6 0.0000 0.0000 0.0000 0.0000 0.0000 34.7338
#
#
#
# Elastic Compliance Matrix: (Units=1/GPa)
#
#
# Indices 1 2 3 4 5 6 
#
# 1 0.015473 -0.009113 -0.006629 0.000000 0.000000 0.000000
# 2 -0.009113 0.017817 0.001115 0.000000 0.000000 0.000000
# 3 -0.006629 0.001115 0.014623 0.000000 0.000000 0.000000
# 4 0.000000 0.000000 0.000000 0.030772 0.000000 0.000000
# 5 0.000000 0.000000 0.000000 0.000000 0.089407 0.000000
# 6 0.000000 0.000000 0.000000 0.000000 0.000000 0.028790
#
#
# Mechanical properties :
#
#
# Convention : Reuss Voigt Hill
#
# Bulk Modulus (GPa) = 53.59074 61.41951 57.50512
# Shear Modulus (GPa) = 21.51875 26.76460 24.14167
#
# Velocity S-wave (km/s) = 3.11064 3.46914 3.29477
# Velocity P-wave (km/s) = 6.08268 6.60791 6.35073
#
# Compressibility (1/GPa) = 0.01865994
#
# Stress axis : x y z
#
# Youngs Moduli (GPa) = 64.62958 56.12607 68.38366
#
# Poissons Ratio (x) = 0.51150 0.45329
# Poissons Ratio (y) = 0.58900 -0.07628
# Poissons Ratio (z) = 0.42841 -0.06261
#
# Static dielectric constant tensor:
#      x y z
#    x 1.871080 0.000000 0.000000 
#    y 0.000000 1.831380 0.000000 
#    z 0.000000 0.000000 1.797520 
# 
# From -- ./inp_files/24546.got.cif
#   From: 2010.05.17/outbox.cif.g08.bks.cpg/sg54_13_cif.got.tgz:24546.got - 2010.06.03 13:09:01.
