data_PCOD9421084
_publ_section_title
;
Structure prediction by ZEFSAII (Michael W. Deem and Ramdas Pophale) SiO2 
 PCOD9421084
Probable space group: P C C A
;
_chemical_formula_sum "Si O2"
_cell_formula_units_Z 40
_cell_length_a 23.806021
_cell_length_b 7.903862
_cell_length_c 9.615732
_cell_angle_alpha 90.000000
_cell_angle_beta 90.000000
_cell_angle_gamma 90.000000
_cell_volume 1809.291371
_symmetry_space_group_name_H-M "P C C A"
_symmetry_group_IT_number 54
_symmetry_cell_setting 'orthorhombic'
loop_
_space_group_symop_operation_xyz
x,y,z
1/2-x,-y,z
1/2+x,-y,1/2-z
-x,y,1/2-z
-x,-y,-z
1/2+x,y,-z
1/2-x,y,1/2+z
x,-y,1/2+z
loop_
_atom_site_type_symbol
_atom_site_label
_atom_site_fract_x
_atom_site_fract_y
_atom_site_fract_z
Si Si1 0.459564 0.956850 0.625990
Si Si2 0.144456 0.297538 0.619298
Si Si3 0.311001 0.002499 0.950335
Si Si4 0.818096 0.496413 0.130021
Si Si5 0.638656 0.172410 0.799520
O O1 0.500000 0.905860 0.750000
O O2 0.413783 0.806786 0.602743
O O3 0.500000 0.000000 0.500000
O O4 0.424973 0.129581 0.659224
O O5 0.188253 0.166590 0.551230
O O6 0.151619 0.460016 0.517422
O O7 0.160764 0.347761 0.775568
O O8 0.352117 0.031717 0.822266
O O9 0.250000 0.000000 0.885822
O O10 0.326825 0.857776 0.058866
O O11 0.750000 0.500000 0.116995
O O12 0.839588 0.337735 0.222796
#
# Coordination Sequence:
#
# PCOD9421084 Si02
#       5
#     8   8   8   8   8
#     4  11  23  45  68  90 122 164 216 276 316 350
#     4  10  24  39  60  93 124 166 211 250 310 382
#     4  10  19  35  57  88 120 157 202 250 305 369
#     4  11  22  40  61  92 134 166 194 249 318 389
#     4  10  22  37  60  91 120 159 208 251 304 378
#
# _framework density 22.108104999999998
#
# number of rings (size 3 to 8) (size 9 to 14) (size 15 to 20)
#    0.000    1.600    0.000    6.000    0.000   11.200 
#    0.000    5.000    0.000    0.000    0.000    0.000 
#    0.000    0.000    0.000    0.000    0.000    0.000 
#
# Total GULP energy -223220.297182 kJ/mol
# GULP energy per Si atom -5580.507430 kJ/mol
# Density = 2.205779 g / cm^3
# Si number density = 22.108105 Si / 1000 Ang^3
#
#
#
# Elastic Constant Matrix: (Units=GPa)
#
#
# Indices 1 2 3 4 5 6 
#
# 1 137.2453 22.7756 34.8690 0.0000 0.0000 0.0000
# 2 22.7756 76.2024 14.4813 0.0000 0.0000 0.0000
# 3 34.8690 14.4813 132.4539 0.0000 0.0000 0.0000
# 4 0.0000 0.0000 0.0000 36.8896 0.0000 0.0000
# 5 0.0000 0.0000 0.0000 0.0000 43.7405 0.0000
# 6 0.0000 0.0000 0.0000 0.0000 0.0000 29.0120
#
#
#
# Elastic Compliance Matrix: (Units=1/GPa)
#
#
# Indices 1 2 3 4 5 6 
#
# 1 0.008114 -0.002062 -0.001911 0.000000 0.000000 0.000000
# 2 -0.002062 0.013925 -0.000980 0.000000 0.000000 0.000000
# 3 -0.001911 -0.000980 0.008160 0.000000 0.000000 0.000000
# 4 0.000000 0.000000 0.000000 0.027108 0.000000 0.000000
# 5 0.000000 0.000000 0.000000 0.000000 0.022862 0.000000
# 6 0.000000 0.000000 0.000000 0.000000 0.000000 0.034468
#
#
# Mechanical properties :
#
#
# Convention : Reuss Voigt Hill
#
# Bulk Modulus (GPa) = 49.27402 54.46151 51.86777
# Shear Modulus (GPa) = 38.07875 40.18015 39.12945
#
# Velocity S-wave (km/s) = 4.15467 4.26777 4.21160
# Velocity P-wave (km/s) = 6.73433 6.99806 6.86746
#
# Compressibility (1/GPa) = 0.02029467
#
# Stress axis : x y z
#
# Youngs Moduli (GPa) = 123.24660 71.81115 122.55109
#
# Poissons Ratio (x) = 0.14808 0.23414
# Poissons Ratio (y) = 0.25414 0.12006
# Poissons Ratio (z) = 0.23547 0.07035
#
# Static dielectric constant tensor:
#      x y z
#    x 1.934020 0.000000 0.000000 
#    y 0.000000 2.018470 0.000000 
#    z 0.000000 0.000000 1.841530 
# 
# From -- ./inp_files/5020.got.cif
#   From: 2010.05.17/outbox.cif.g08.bks.cpg/sg54_3_cif.got.tgz:5020.got - 2010.06.03 13:09:01.
