data_PCOD9421848
_publ_section_title
;
Structure prediction by ZEFSAII (Michael W. Deem and Ramdas Pophale) SiO2 
 PCOD9421848
Probable space group: P C C A
;
_chemical_formula_sum "Si O2"
_cell_formula_units_Z 44
_cell_length_a 26.138609
_cell_length_b 9.147019
_cell_length_c 8.890456
_cell_angle_alpha 90.000000
_cell_angle_beta 90.000000
_cell_angle_gamma 90.000000
_cell_volume 2125.622265
_symmetry_space_group_name_H-M "P C C A"
_symmetry_group_IT_number 54
_symmetry_cell_setting 'orthorhombic'
loop_
_space_group_symop_operation_xyz
x,y,z
1/2-x,-y,z
1/2+x,-y,1/2-z
-x,y,1/2-z
-x,-y,-z
1/2+x,y,-z
1/2-x,y,1/2+z
x,-y,1/2+z
loop_
_atom_site_type_symbol
_atom_site_label
_atom_site_fract_x
_atom_site_fract_y
_atom_site_fract_z
Si Si1 0.332099 0.704126 0.471010
Si Si2 0.309408 0.446632 0.287580
Si Si3 0.000000 0.011972 0.250000
Si Si4 0.146803 0.833695 0.455577
Si Si5 0.699801 0.075675 0.742403
Si Si6 0.427667 0.921561 0.500568
O O1 0.341737 0.588580 0.337452
O O2 0.314330 0.616347 0.618314
O O3 0.290479 0.812492 0.394742
O O4 0.380187 0.809758 0.505103
O O5 0.250000 0.500000 0.312055
O O6 0.334747 0.320907 0.391514
O O7 0.036366 0.105635 0.358053
O O8 0.962621 0.915850 0.353015
O O9 0.172855 0.851179 0.617622
O O10 0.166817 0.947238 0.329847
O O11 0.091406 0.908474 0.485187
O O12 0.750000 0.000000 0.800620
#
# Coordination Sequence:
#
# PCOD9421848 Si02
#       6
#     8   8   4   8   8   8
#     4  11  24  41  61  86 125 164 211 252 308 363
#     4  12  25  41  60  88 128 176 211 246 290 359
#     4  10  20  38  70  96 120 140 202 260 328 390
#     4  11  22  39  63  90 127 161 210 253 307 365
#     4  11  22  37  58  87 120 162 209 258 296 352
#     4  10  21  40  66  96 117 156 195 262 321 371
#
# _framework density 20.699822000000001
#
# number of rings (size 3 to 8) (size 9 to 14) (size 15 to 20)
#    0.000    1.091    0.000    8.727    0.000    4.364 
#    0.000    1.818    0.000   18.545    0.000    0.000 
#    0.000    0.000    0.000    0.000    0.000    0.000 
#
# Total GULP energy -245419.607257 kJ/mol
# GULP energy per Si atom -5577.718347 kJ/mol
# Density = 2.065271 g / cm^3
# Si number density = 20.699822 Si / 1000 Ang^3
#
#
#
# Elastic Constant Matrix: (Units=GPa)
#
#
# Indices 1 2 3 4 5 6 
#
# 1 77.3678 34.3684 38.4175 0.0000 0.0000 0.0000
# 2 34.3684 116.9321 45.3872 0.0000 0.0000 0.0000
# 3 38.4175 45.3872 128.3771 0.0000 0.0000 0.0000
# 4 0.0000 0.0000 0.0000 26.5261 0.0000 0.0000
# 5 0.0000 0.0000 0.0000 0.0000 44.3227 0.0000
# 6 0.0000 0.0000 0.0000 0.0000 0.0000 16.9766
#
#
#
# Elastic Compliance Matrix: (Units=1/GPa)
#
#
# Indices 1 2 3 4 5 6 
#
# 1 0.016237 -0.003345 -0.003676 0.000000 0.000000 0.000000
# 2 -0.003345 0.010601 -0.002747 0.000000 0.000000 0.000000
# 3 -0.003676 -0.002747 0.009861 0.000000 0.000000 0.000000
# 4 0.000000 0.000000 0.000000 0.037699 0.000000 0.000000
# 5 0.000000 0.000000 0.000000 0.000000 0.022562 0.000000
# 6 0.000000 0.000000 0.000000 0.000000 0.000000 0.058905
#
#
# Mechanical properties :
#
#
# Convention : Reuss Voigt Hill
#
# Bulk Modulus (GPa) = 58.26820 62.11367 60.19093
# Shear Modulus (GPa) = 27.60570 31.19867 29.40218
#
# Velocity S-wave (km/s) = 3.65584 3.88647 3.77292
# Velocity P-wave (km/s) = 6.78457 7.08601 6.93693
#
# Compressibility (1/GPa) = 0.01716202
#
# Stress axis : x y z
#
# Youngs Moduli (GPa) = 61.58856 94.32645 101.41104
#
# Poissons Ratio (x) = 0.31556 0.37281
# Poissons Ratio (y) = 0.20604 0.27858
# Poissons Ratio (z) = 0.22641 0.25911
#
# Static dielectric constant tensor:
#      x y z
#    x 2.868600 0.000000 0.000000 
#    y 0.000000 1.807860 0.000000 
#    z 0.000000 0.000000 1.775710 
# 
# From -- ./inp_files/5770.got.cif
#   From: 2010.05.17/outbox.cif.g08.bks.cpg/sg54_3_cif.got.tgz:5770.got - 2010.06.03 13:09:01.
