data_PCOD9421757
_publ_section_title
;
Structure prediction by ZEFSAII (Michael W. Deem and Ramdas Pophale) SiO2 
 PCOD9421757
Probable space group: P C C A
;
_chemical_formula_sum "Si O2"
_cell_formula_units_Z 36
_cell_length_a 18.747448
_cell_length_b 5.274363
_cell_length_c 15.256628
_cell_angle_alpha 90.000000
_cell_angle_beta 90.000000
_cell_angle_gamma 90.000000
_cell_volume 1508.588285
_symmetry_space_group_name_H-M "P C C A"
_symmetry_group_IT_number 54
_symmetry_cell_setting 'orthorhombic'
loop_
_space_group_symop_operation_xyz
x,y,z
1/2-x,-y,z
1/2+x,-y,1/2-z
-x,y,1/2-z
-x,-y,-z
1/2+x,y,-z
1/2-x,y,1/2+z
x,-y,1/2+z
loop_
_atom_site_type_symbol
_atom_site_label
_atom_site_fract_x
_atom_site_fract_y
_atom_site_fract_z
Si Si1 0.545914 0.952030 0.586152
Si Si2 0.831334 0.391138 0.839224
Si Si3 0.083690 0.458194 0.331178
Si Si4 0.166083 0.361918 0.983429
Si Si5 0.250000 0.000000 0.580477
O O1 0.532185 0.685782 0.635647
O O2 0.623441 0.890886 0.545338
O O3 0.500000 0.000000 0.500000
O O4 0.548007 0.187602 0.652126
O O5 0.750000 0.500000 0.821868
O O6 0.882548 0.466500 0.760747
O O7 0.863280 0.510548 0.928278
O O8 0.815041 0.092709 0.857768
O O9 0.150673 0.468753 0.399552
O O10 0.238867 0.240360 0.017700
#
# Coordination Sequence:
#
# PCOD9421757 Si02
#       5
#     8   8   8   8   4
#     4  10  22  43  66  87 125 166 216 268 317 373
#     4  10  22  37  61  94 132 165 208 262 317 394
#     4  10  23  39  66  89 122 166 214 259 320 376
#     4   9  22  36  66  87 133 161 213 253 328 371
#     4  10  20  38  60  94 136 170 200 266 320 390
#
# _framework density 23.863368999999999
#
# number of rings (size 3 to 8) (size 9 to 14) (size 15 to 20)
#    1.333    0.889    0.000    2.000    6.222    5.333 
#    0.000    1.111    0.000    0.000    0.000    0.000 
#    0.000    0.000    0.000    0.000    0.000    0.000 
#
# Total GULP energy -200411.602966 kJ/mol
# GULP energy per Si atom -5566.988971 kJ/mol
# Density = 2.380905 g / cm^3
# Si number density = 23.863369 Si / 1000 Ang^3
#
#
#
# Elastic Constant Matrix: (Units=GPa)
#
#
# Indices 1 2 3 4 5 6 
#
# 1 30.5124 6.6551 13.4523 0.0000 0.0000 0.0000
# 2 6.6551 139.2969 28.9452 0.0000 0.0000 0.0000
# 3 13.4523 28.9452 145.1748 0.0000 0.0000 0.0000
# 4 0.0000 0.0000 0.0000 9.1408 0.0000 0.0000
# 5 0.0000 0.0000 0.0000 0.0000 30.2971 0.0000
# 6 0.0000 0.0000 0.0000 0.0000 0.0000 15.2925
#
#
#
# Elastic Compliance Matrix: (Units=1/GPa)
#
#
# Indices 1 2 3 4 5 6 
#
# 1 0.034308 -0.001021 -0.002976 0.000000 0.000000 0.000000
# 2 -0.001021 0.007520 -0.001405 0.000000 0.000000 0.000000
# 3 -0.002976 -0.001405 0.007444 0.000000 0.000000 0.000000
# 4 0.000000 0.000000 0.000000 0.109400 0.000000 0.000000
# 5 0.000000 0.000000 0.000000 0.000000 0.033006 0.000000
# 6 0.000000 0.000000 0.000000 0.000000 0.000000 0.065391
#
#
# Mechanical properties :
#
#
# Convention : Reuss Voigt Hill
#
# Bulk Modulus (GPa) = 25.99457 45.89881 35.94669
# Shear Modulus (GPa) = 17.81294 28.67484 23.24389
#
# Velocity S-wave (km/s) = 2.73510 3.47021 3.12435
# Velocity P-wave (km/s) = 4.57068 5.94409 5.30204
#
# Compressibility (1/GPa) = 0.03846958
#
# Stress axis : x y z
#
# Youngs Moduli (GPa) = 29.14769 132.98641 134.33571
#
# Poissons Ratio (x) = 0.13575 0.39972
# Poissons Ratio (y) = 0.02975 0.18870
# Poissons Ratio (z) = 0.08673 0.18680
#
# Static dielectric constant tensor:
#      x y z
#    x 2.094270 0.000000 0.000000 
#    y 0.000000 2.008070 0.000000 
#    z 0.000000 0.000000 1.865170 
# 
# From -- ./inp_files/14473.got.cif
#   From: 2010.05.17/outbox.cif.g08.bks.cpg/sg54_8_cif.got.tgz:14473.got - 2010.06.03 13:09:01.
