data_PCOD9421394
_publ_section_title
;
Structure prediction by ZEFSAII (Michael W. Deem and Ramdas Pophale) SiO2 
 PCOD9421394
Probable space group: P C C A
;
_chemical_formula_sum "Si O2"
_cell_formula_units_Z 64
_cell_length_a 9.553409
_cell_length_b 15.255345
_cell_length_c 21.518976
_cell_angle_alpha 90.000000
_cell_angle_beta 90.000000
_cell_angle_gamma 90.000000
_cell_volume 3136.187402
_symmetry_space_group_name_H-M "P C C A"
_symmetry_group_IT_number 54
_symmetry_cell_setting 'orthorhombic'
loop_
_space_group_symop_operation_xyz
x,y,z
1/2-x,-y,z
1/2+x,-y,1/2-z
-x,y,1/2-z
-x,-y,-z
1/2+x,y,-z
1/2-x,y,1/2+z
x,-y,1/2+z
loop_
_atom_site_type_symbol
_atom_site_label
_atom_site_fract_x
_atom_site_fract_y
_atom_site_fract_z
Si Si1 0.253749 0.734858 0.829893
Si Si2 0.524985 0.585200 0.169486
Si Si3 0.450364 0.148025 0.011517
Si Si4 0.771244 0.682331 0.808322
Si Si5 0.279274 0.906660 0.913756
Si Si6 0.113215 0.442519 0.036283
Si Si7 0.987345 0.390045 0.678509
Si Si8 0.687523 0.747332 0.441556
O O1 0.129012 0.665724 0.839983
O O2 0.259737 0.739134 0.753743
O O3 0.248105 0.824627 0.867943
O O4 0.389275 0.680638 0.853152
O O5 0.392281 0.614206 0.211583
O O6 0.451981 0.569617 0.103488
O O7 0.577319 0.486661 0.181332
O O8 0.560449 0.103250 0.060034
O O9 0.343128 0.216661 0.043672
O O10 0.335702 0.095018 0.970224
O O11 0.561765 0.191451 0.964694
O O12 0.647802 0.623510 0.839193
O O13 0.822383 0.737949 0.866980
O O14 0.250000 0.000000 0.882126
O O15 0.250000 0.500000 0.036095
O O16 0.159706 0.343229 0.020759
O O17 0.000000 0.500000 0.000000
O O18 0.000000 0.363408 0.750000
#
# Coordination Sequence:
#
# PCOD9421394 Si02
#       8
#     8   8   8   8   8   8   8   8
#     4  11  23  37  59  88 118 156 200 247 302 365
#     4  11  21  35  55  82 117 157 198 241 289 346
#     4  10  22  39  65  89 111 149 200 252 306 366
#     4  10  20  36  58  84 121 161 198 238 292 355
#     4  11  23  42  65  90 118 151 197 256 316 373
#     4  11  23  35  50  78 119 163 203 246 297 356
#     4  10  20  34  54  81 114 153 197 240 280 336
#     4  10  20  38  60  86 119 156 198 246 299 357
#
# _framework density 20.406943999999999
#
# number of rings (size 3 to 8) (size 9 to 14) (size 15 to 20)
#    0.000    1.500    0.000    6.750    0.000    6.000 
#    0.000    0.000    0.000   18.000    0.000    0.000 
#    0.000    0.000    0.000    0.000    0.000    0.000 
#
# Total GULP energy -356334.669271 kJ/mol
# GULP energy per Si atom -5567.729207 kJ/mol
# Density = 2.036050 g / cm^3
# Si number density = 20.406944 Si / 1000 Ang^3
#
#
#
# Elastic Constant Matrix: (Units=GPa)
#
#
# Indices 1 2 3 4 5 6 
#
# 1 140.0768 46.7796 20.7671 0.0000 0.0000 0.0000
# 2 46.7796 107.8416 16.4346 0.0000 0.0000 0.0000
# 3 20.7671 16.4346 47.8311 0.0000 0.0000 0.0000
# 4 0.0000 0.0000 0.0000 21.5107 0.0000 0.0000
# 5 0.0000 0.0000 0.0000 0.0000 13.8194 0.0000
# 6 0.0000 0.0000 0.0000 0.0000 0.0000 21.0921
#
#
#
# Elastic Compliance Matrix: (Units=1/GPa)
#
#
# Indices 1 2 3 4 5 6 
#
# 1 0.008644 -0.003353 -0.002601 0.000000 0.000000 0.000000
# 2 -0.003353 0.011086 -0.002353 0.000000 0.000000 0.000000
# 3 -0.002601 -0.002353 0.022845 0.000000 0.000000 0.000000
# 4 0.000000 0.000000 0.000000 0.046488 0.000000 0.000000
# 5 0.000000 0.000000 0.000000 0.000000 0.072362 0.000000
# 6 0.000000 0.000000 0.000000 0.000000 0.000000 0.047411
#
#
# Mechanical properties :
#
#
# Convention : Reuss Voigt Hill
#
# Bulk Modulus (GPa) = 38.52060 51.52357 45.02208
# Shear Modulus (GPa) = 21.35790 25.40233 23.38011
#
# Velocity S-wave (km/s) = 3.23863 3.53198 3.38848
# Velocity P-wave (km/s) = 5.73604 6.47581 6.11712
#
# Compressibility (1/GPa) = 0.02596014
#
# Stress axis : x y z
#
# Youngs Moduli (GPa) = 115.68124 90.20290 43.77380
#
# Poissons Ratio (x) = 0.30249 0.11385
# Poissons Ratio (y) = 0.38793 0.10301
# Poissons Ratio (z) = 0.30088 0.21226
#
# Static dielectric constant tensor:
#      x y z
#    x 1.566540 0.000000 0.000000 
#    y 0.000000 1.920440 0.000000 
#    z 0.000000 0.000000 1.837730 
# 
# From -- ./inp_files/23697.got.cif
#   From: 2010.05.17/outbox.cif.g08.bks.cpg/sg54_12_cif.got.tgz:23697.got - 2010.06.03 13:09:01.
