data_PCOD9421073
_publ_section_title
;
Structure prediction by ZEFSAII (Michael W. Deem and Ramdas Pophale) SiO2 
 PCOD9421073
Probable space group: P C C A
;
_chemical_formula_sum "Si O2"
_cell_formula_units_Z 56
_cell_length_a 17.643125
_cell_length_b 9.711251
_cell_length_c 18.452591
_cell_angle_alpha 90.000000
_cell_angle_beta 90.000000
_cell_angle_gamma 90.000000
_cell_volume 3161.608176
_symmetry_space_group_name_H-M "P C C A"
_symmetry_group_IT_number 54
_symmetry_cell_setting 'orthorhombic'
loop_
_space_group_symop_operation_xyz
x,y,z
1/2-x,-y,z
1/2+x,-y,1/2-z
-x,y,1/2-z
-x,-y,-z
1/2+x,y,-z
1/2-x,y,1/2+z
x,-y,1/2+z
loop_
_atom_site_type_symbol
_atom_site_label
_atom_site_fract_x
_atom_site_fract_y
_atom_site_fract_z
Si Si1 0.578494 0.351086 0.846272
Si Si2 0.333643 0.630647 0.447153
Si Si3 0.674550 0.665121 0.492238
Si Si4 0.671798 0.559387 0.212217
Si Si5 0.966611 0.158670 0.080052
Si Si6 0.933124 0.143729 0.564051
Si Si7 0.972577 0.381207 0.672326
O O1 0.625473 0.352993 0.771535
O O2 0.516475 0.230997 0.857479
O O3 0.529357 0.493330 0.849544
O O4 0.637564 0.338229 0.912784
O O5 0.355523 0.475029 0.469355
O O6 0.265096 0.663337 0.501618
O O7 0.305546 0.630869 0.363611
O O8 0.402283 0.735809 0.446164
O O9 0.646960 0.795201 0.538717
O O10 0.750000 0.500000 0.244066
O O11 0.610503 0.445126 0.187419
O O12 0.933910 0.008272 0.097567
O O13 0.020887 0.140704 0.011003
O O14 0.969710 0.258371 0.615655
O O15 0.000000 0.328088 0.750000
#
# Coordination Sequence:
#
# PCOD9421073 Si02
#       7
#     8   8   8   8   8   8   8
#     4  10  21  36  57  85 111 146 188 233 287 330
#     4  11  19  34  55  85 111 145 190 229 283 337
#     4  10  20  34  57  82 112 143 188 232 281 340
#     4  11  20  34  56  84 118 142 181 236 289 335
#     4  10  21  34  58  81 109 149 189 240 272 339
#     4  10  19  37  53  81 113 145 190 231 285 331
#     4  10  19  35  56  81 110 147 185 231 282 338
#
# _framework density 17.712505
#
# number of rings (size 3 to 8) (size 9 to 14) (size 15 to 20)
#    0.000    1.714    4.286    0.857    2.000    2.857 
#    2.571    0.000    0.000    0.000    0.000    0.000 
#    0.000    0.000    0.000    0.000    0.000    0.000 
#
# Total GULP energy -311977.889216 kJ/mol
# GULP energy per Si atom -5571.033736 kJ/mol
# Density = 1.767219 g / cm^3
# Si number density = 17.712505 Si / 1000 Ang^3
#
#
#
# Elastic Constant Matrix: (Units=GPa)
#
#
# Indices 1 2 3 4 5 6 
#
# 1 70.2038 16.7074 -5.6943 0.0000 0.0000 0.0000
# 2 16.7074 61.0887 8.0747 0.0000 0.0000 0.0000
# 3 -5.6943 8.0747 48.8504 0.0000 0.0000 0.0000
# 4 0.0000 0.0000 0.0000 13.4616 0.0000 0.0000
# 5 0.0000 0.0000 0.0000 0.0000 24.4989 0.0000
# 6 0.0000 0.0000 0.0000 0.0000 0.0000 11.5576
#
#
#
# Elastic Compliance Matrix: (Units=1/GPa)
#
#
# Indices 1 2 3 4 5 6 
#
# 1 0.015545 -0.004591 0.002571 0.000000 0.000000 0.000000
# 2 -0.004591 0.018091 -0.003526 0.000000 0.000000 0.000000
# 3 0.002571 -0.003526 0.021353 0.000000 0.000000 0.000000
# 4 0.000000 0.000000 0.000000 0.074285 0.000000 0.000000
# 5 0.000000 0.000000 0.000000 0.000000 0.040818 0.000000
# 6 0.000000 0.000000 0.000000 0.000000 0.000000 0.086523
#
#
# Mechanical properties :
#
#
# Convention : Reuss Voigt Hill
#
# Bulk Modulus (GPa) = 22.78010 24.25758 23.51884
# Shear Modulus (GPa) = 17.70906 20.64063 19.17484
#
# Velocity S-wave (km/s) = 3.16540 3.41737 3.29380
# Velocity P-wave (km/s) = 5.12334 5.41259 5.26995
#
# Compressibility (1/GPa) = 0.04389796
#
# Stress axis : x y z
#
# Youngs Moduli (GPa) = 64.32746 55.27494 46.83156
#
# Poissons Ratio (x) = 0.25379 -0.12040
# Poissons Ratio (y) = 0.29535 0.16511
# Poissons Ratio (z) = -0.16539 0.19488
#
# Static dielectric constant tensor:
#      x y z
#    x 1.626020 0.000000 0.000000 
#    y 0.000000 1.618800 0.000000 
#    z 0.000000 0.000000 1.617650 
# 
# From -- ./inp_files/18877.got.cif
#   From: 2010.05.17/outbox.cif.g08.bks.cpg/sg54_10_cif.got.tgz:18877.got - 2010.06.03 13:09:01.
