data_PCOD9421645
_publ_section_title
;
Structure prediction by ZEFSAII (Michael W. Deem and Ramdas Pophale) SiO2 
 PCOD9421645
Probable space group: P C C A
;
_chemical_formula_sum "Si O2"
_cell_formula_units_Z 48
_cell_length_a 8.615821
_cell_length_b 14.281461
_cell_length_c 20.557854
_cell_angle_alpha 90.000000
_cell_angle_beta 90.000000
_cell_angle_gamma 90.000000
_cell_volume 2529.572221
_symmetry_space_group_name_H-M "P C C A"
_symmetry_group_IT_number 54
_symmetry_cell_setting 'orthorhombic'
loop_
_space_group_symop_operation_xyz
x,y,z
1/2-x,-y,z
1/2+x,-y,1/2-z
-x,y,1/2-z
-x,-y,-z
1/2+x,y,-z
1/2-x,y,1/2+z
x,-y,1/2+z
loop_
_atom_site_type_symbol
_atom_site_label
_atom_site_fract_x
_atom_site_fract_y
_atom_site_fract_z
Si Si1 0.180000 0.909301 0.100245
Si Si2 0.026430 0.143702 0.012443
Si Si3 0.497423 0.744130 0.672379
Si Si4 0.753587 0.249566 0.070623
Si Si5 0.924356 0.530796 0.320832
Si Si6 0.589638 0.447441 0.558583
O O1 0.330501 0.886774 0.056525
O O2 0.116771 0.823526 0.143221
O O3 0.250000 0.000000 0.137084
O O4 0.039050 0.919922 0.047197
O O5 0.877497 0.167773 0.056425
O O6 0.104485 0.233435 0.975980
O O7 0.500000 0.753440 0.750000
O O8 0.670104 0.751136 0.640706
O O9 0.440918 0.638730 0.656426
O O10 0.852782 0.340961 0.052743
O O11 0.750000 0.500000 0.313403
O O12 0.000000 0.523467 0.250000
O O13 0.996884 0.463903 0.375161
O O14 0.750000 0.500000 0.566857
O O15 0.500000 0.500000 0.500000
#
# Coordination Sequence:
#
# PCOD9421645 Si02
#       6
#     8   8   8   8   8   8
#     4  10  20  38  63  91 118 154 197 252 309 368
#     4   9  20  35  62  88 121 152 193 243 312 375
#     4  10  23  42  60  81 122 162 202 251 299 355
#     4  10  20  37  57  87 120 157 193 246 304 358
#     4  11  25  42  61  85 120 167 209 246 297 367
#     4  12  23  35  58  90 124 158 206 256 301 352
#
# _framework density 18.975539999999999
#
# number of rings (size 3 to 8) (size 9 to 14) (size 15 to 20)
#    0.000    1.667    1.667    2.500    9.333    0.000 
#    0.000    2.500    0.000    0.000    0.000    0.000 
#    0.000    0.000    0.000    0.000    0.000    0.000 
#
# Total GULP energy -267249.916929 kJ/mol
# GULP energy per Si atom -5567.706603 kJ/mol
# Density = 1.893235 g / cm^3
# Si number density = 18.975540 Si / 1000 Ang^3
#
#
#
# Elastic Constant Matrix: (Units=GPa)
#
#
# Indices 1 2 3 4 5 6 
#
# 1 125.3575 17.7019 35.9023 0.0000 0.0000 0.0000
# 2 17.7019 51.8057 9.9200 0.0000 0.0000 0.0000
# 3 35.9023 9.9200 65.9665 0.0000 0.0000 0.0000
# 4 0.0000 0.0000 0.0000 -11.7430 0.0000 0.0000
# 5 0.0000 0.0000 0.0000 0.0000 14.8893 0.0000
# 6 0.0000 0.0000 0.0000 0.0000 0.0000 27.9730
#
#
#
# Elastic Compliance Matrix: (Units=1/GPa)
#
#
# Indices 1 2 3 4 5 6 
#
# 1 0.009727 -0.002378 -0.004936 0.000000 0.000000 0.000000
# 2 -0.002378 0.020457 -0.001782 0.000000 0.000000 0.000000
# 3 -0.004936 -0.001782 0.018114 0.000000 0.000000 0.000000
# 4 0.000000 0.000000 0.000000 -0.085157 0.000000 0.000000
# 5 0.000000 0.000000 0.000000 0.000000 0.067162 0.000000
# 6 0.000000 0.000000 0.000000 0.000000 0.000000 0.035749
#
#
# Mechanical properties :
#
#
# Convention : Reuss Voigt Hill
#
# Bulk Modulus (GPa) = 33.21767 41.13088 37.17427
# Shear Modulus (GPa) = 53.03441 18.19757 35.61599
#
# Velocity S-wave (km/s) = 5.29240 3.10013 4.33707
# Velocity P-wave (km/s) = 7.40875 5.87684 6.68681
#
# Compressibility (1/GPa) = 0.03010446
#
# Stress axis : x y z
#
# Youngs Moduli (GPa) = 102.80933 48.88353 55.20696
#
# Poissons Ratio (x) = 0.11626 0.27251
# Poissons Ratio (y) = 0.24452 0.09837
# Poissons Ratio (z) = 0.50748 0.08710
#
# Static dielectric constant tensor:
#      x y z
#    x 1.625140 0.000000 0.000000 
#    y 0.000000 1.705700 0.000000 
#    z 0.000000 0.000000 1.664330 
# 
# From -- ./inp_files/20399.got.cif
#   From: 2010.05.17/outbox.cif.g08.bks.cpg/sg54_11_cif.got.tgz:20399.got - 2010.06.03 13:09:01.
