data_PCOD9421266
_publ_section_title
;
Structure prediction by ZEFSAII (Michael W. Deem and Ramdas Pophale) SiO2 
 PCOD9421266
Probable space group: P C C A
;
_chemical_formula_sum "Si O2"
_cell_formula_units_Z 40
_cell_length_a 15.063469
_cell_length_b 8.843065
_cell_length_c 12.834080
_cell_angle_alpha 90.000000
_cell_angle_beta 90.000000
_cell_angle_gamma 90.000000
_cell_volume 1709.592317
_symmetry_space_group_name_H-M "P C C A"
_symmetry_group_IT_number 54
_symmetry_cell_setting 'orthorhombic'
loop_
_space_group_symop_operation_xyz
x,y,z
1/2-x,-y,z
1/2+x,-y,1/2-z
-x,y,1/2-z
-x,-y,-z
1/2+x,y,-z
1/2-x,y,1/2+z
x,-y,1/2+z
loop_
_atom_site_type_symbol
_atom_site_label
_atom_site_fract_x
_atom_site_fract_y
_atom_site_fract_z
Si Si1 0.692347 0.734983 0.447633
Si Si2 0.000000 0.507930 0.250000
Si Si3 0.897639 0.063435 0.278672
Si Si4 0.250000 0.000000 0.894683
Si Si5 0.150154 0.445534 0.871909
Si Si6 0.870089 0.273927 0.831177
O O1 0.636854 0.806964 0.354775
O O2 0.719596 0.865376 0.529192
O O3 0.636228 0.613109 0.512078
O O4 0.785659 0.679555 0.398881
O O5 0.918864 0.439815 0.184193
O O6 0.955199 0.617457 0.338123
O O7 0.000000 0.082964 0.250000
O O8 0.830954 0.050797 0.180597
O O9 0.889038 0.902892 0.340497
O O10 0.250000 0.500000 0.869955
O O11 0.149515 0.305803 0.790651
#
# Coordination Sequence:
#
# PCOD9421266 Si02
#       6
#     8   4   8   4   8   8
#     4  12  22  37  66  98 132 173 223 266 335 399
#     4   8  20  42  68  88 132 174 220 272 330 378
#     4  12  22  37  61  99 141 175 218 274 332 398
#     4  12  20  38  60  90 136 172 212 268 326 388
#     4  10  22  42  70  94 131 177 220 273 334 389
#     4  10  19  39  64  90 133 175 215 278 324 385
#
# _framework density 23.397392
#
# number of rings (size 3 to 8) (size 9 to 14) (size 15 to 20)
#    1.200    0.000    7.000    0.000    0.000    3.200 
#    0.000    1.000    8.800    0.000    0.000    0.000 
#    0.000    0.000    0.000    0.000    0.000    0.000 
#
# Total GULP energy -223257.847636 kJ/mol
# GULP energy per Si atom -5581.446191 kJ/mol
# Density = 2.334414 g / cm^3
# Si number density = 23.397392 Si / 1000 Ang^3
#
#
#
# Elastic Constant Matrix: (Units=GPa)
#
#
# Indices 1 2 3 4 5 6 
#
# 1 131.5348 21.1540 73.0554 0.0000 0.0000 0.0000
# 2 21.1540 37.4426 27.8814 0.0000 0.0000 0.0000
# 3 73.0554 27.8814 121.0163 0.0000 0.0000 0.0000
# 4 0.0000 0.0000 0.0000 -294.2684 0.0000 0.0000
# 5 0.0000 0.0000 0.0000 0.0000 14.6674 0.0000
# 6 0.0000 0.0000 0.0000 0.0000 0.0000 21.7002
#
#
#
# Elastic Compliance Matrix: (Units=1/GPa)
#
#
# Indices 1 2 3 4 5 6 
#
# 1 0.011517 -0.001605 -0.006583 0.000000 0.000000 0.000000
# 2 -0.001605 0.032462 -0.006510 0.000000 0.000000 0.000000
# 3 -0.006583 -0.006510 0.013737 0.000000 0.000000 0.000000
# 4 0.000000 0.000000 0.000000 -0.003398 0.000000 0.000000
# 5 0.000000 0.000000 0.000000 0.000000 0.068179 0.000000
# 6 0.000000 0.000000 0.000000 0.000000 0.000000 0.046082
#
#
# Mechanical properties :
#
#
# Convention : Reuss Voigt Hill
#
# Bulk Modulus (GPa) = 35.31033 59.35283 47.33158
# Shear Modulus (GPa) = 24.10634 -40.38662 -8.14014
#
# Velocity S-wave (km/s) = 3.21331 -4.15916 -1.86725
# Velocity P-wave (km/s) = 5.37508 1.53542 3.95278
#
# Compressibility (1/GPa) = 0.02832032
#
# Stress axis : x y z
#
# Youngs Moduli (GPa) = 86.83028 30.80521 72.79548
#
# Poissons Ratio (x) = 0.04944 0.47919
# Poissons Ratio (y) = 0.13935 0.47392
# Poissons Ratio (z) = 0.57158 0.20055
#
# Static dielectric constant tensor:
#      x y z
#    x 1.970260 0.000000 0.000000 
#    y 0.000000 2.010100 0.000000 
#    z 0.000000 0.000000 1.852500 
# 
# From -- ./inp_files/8253.got.cif
#   From: 2010.05.17/outbox.cif.g08.bks.cpg/sg54_5_cif.got.tgz:8253.got - 2010.06.03 13:09:01.
