data_PCOD9421164
_publ_section_title
;
Structure prediction by ZEFSAII (Michael W. Deem and Ramdas Pophale) SiO2 
 PCOD9421164
Probable space group: P C C A
;
_chemical_formula_sum "Si O2"
_cell_formula_units_Z 44
_cell_length_a 13.887477
_cell_length_b 8.854486
_cell_length_c 18.336202
_cell_angle_alpha 90.000000
_cell_angle_beta 90.000000
_cell_angle_gamma 90.000000
_cell_volume 2254.738045
_symmetry_space_group_name_H-M "P C C A"
_symmetry_group_IT_number 54
_symmetry_cell_setting 'orthorhombic'
loop_
_space_group_symop_operation_xyz
x,y,z
1/2-x,-y,z
1/2+x,-y,1/2-z
-x,y,1/2-z
-x,-y,-z
1/2+x,y,-z
1/2-x,y,1/2+z
x,-y,1/2+z
loop_
_atom_site_type_symbol
_atom_site_label
_atom_site_fract_x
_atom_site_fract_y
_atom_site_fract_z
Si Si1 0.601964 0.201677 0.981663
Si Si2 0.000000 0.244375 0.250000
Si Si3 0.704331 0.349906 0.499942
Si Si4 0.534293 0.430383 0.604892
Si Si5 0.038754 0.769239 0.101149
Si Si6 0.636937 0.975000 0.331181
O O1 0.543893 0.347599 0.948451
O O2 0.622006 0.095717 0.912476
O O3 0.703815 0.247563 0.016182
O O4 0.534510 0.144561 0.046904
O O5 0.028522 0.345711 0.318689
O O6 0.088822 0.140205 0.225008
O O7 0.750000 0.500000 0.464904
O O8 0.637340 0.402577 0.566747
O O9 0.635381 0.265451 0.444183
O O10 0.508754 0.605931 0.615391
O O11 0.074188 0.871611 0.167338
O O12 0.750000 0.000000 0.318738
#
# Coordination Sequence:
#
# PCOD9421164 Si02
#       6
#     8   4   8   8   8   8
#     4  10  19  36  61  93 127 144 187 255 317 360
#     4  10  26  48  52  78 126 166 208 246 292 362
#     4  11  17  33  63  99 120 141 193 258 311 359
#     4  10  21  37  62  84 119 162 197 249 298 355
#     4  11  20  34  63  96 116 154 198 251 311 359
#     4  11  23  41  63  85 124 167 200 244 308 377
#
# _framework density 19.514461000000001
#
# number of rings (size 3 to 8) (size 9 to 14) (size 15 to 20)
#    0.000    1.455    5.455    1.636    0.000    0.727 
#    3.273    1.818    0.000    0.000    0.000    0.000 
#    0.000    0.000    0.000    0.000    0.000    0.000 
#
# Total GULP energy -245601.744856 kJ/mol
# GULP energy per Si atom -5581.857838 kJ/mol
# Density = 1.947005 g / cm^3
# Si number density = 19.514461 Si / 1000 Ang^3
#
#
#
# Elastic Constant Matrix: (Units=GPa)
#
#
# Indices 1 2 3 4 5 6 
#
# 1 146.8271 38.9897 41.2776 0.0000 0.0000 0.0000
# 2 38.9897 79.9746 33.4923 0.0000 0.0000 0.0000
# 3 41.2776 33.4923 70.8638 0.0000 0.0000 0.0000
# 4 0.0000 0.0000 0.0000 24.2986 0.0000 0.0000
# 5 0.0000 0.0000 0.0000 0.0000 14.6406 0.0000
# 6 0.0000 0.0000 0.0000 0.0000 0.0000 27.9492
#
#
#
# Elastic Compliance Matrix: (Units=1/GPa)
#
#
# Indices 1 2 3 4 5 6 
#
# 1 0.008557 -0.002599 -0.003756 0.000000 0.000000 0.000000
# 2 -0.002599 0.016379 -0.006227 0.000000 0.000000 0.000000
# 3 -0.003756 -0.006227 0.019243 0.000000 0.000000 0.000000
# 4 0.000000 0.000000 0.000000 0.041155 0.000000 0.000000
# 5 0.000000 0.000000 0.000000 0.000000 0.068303 0.000000
# 6 0.000000 0.000000 0.000000 0.000000 0.000000 0.035779
#
#
# Mechanical properties :
#
#
# Convention : Reuss Voigt Hill
#
# Bulk Modulus (GPa) = 52.59265 58.35384 55.47324
# Shear Modulus (GPa) = 22.63290 25.63808 24.13549
#
# Velocity S-wave (km/s) = 3.40928 3.62857 3.52063
# Velocity P-wave (km/s) = 6.51972 6.89370 6.70932
#
# Compressibility (1/GPa) = 0.01901406
#
# Stress axis : x y z
#
# Youngs Moduli (GPa) = 116.86698 61.05430 51.96776
#
# Poissons Ratio (x) = 0.15866 0.19519
# Poissons Ratio (y) = 0.30370 0.32363
# Poissons Ratio (z) = 0.43896 0.38021
#
# Static dielectric constant tensor:
#      x y z
#    x 1.668520 0.000000 0.000000 
#    y 0.000000 1.743430 0.000000 
#    z 0.000000 0.000000 1.647450 
# 
# From -- ./inp_files/17935.got.cif
#   From: 2010.05.17/outbox.cif.g08.bks.cpg/sg54_9_cif.got.tgz:17935.got - 2010.06.03 13:09:01.
