data_PCOD9421550
_publ_section_title
;
Structure prediction by ZEFSAII (Michael W. Deem and Ramdas Pophale) SiO2 
 PCOD9421550
Probable space group: P C C A
;
_chemical_formula_sum "Si O2"
_cell_formula_units_Z 44
_cell_length_a 25.149977
_cell_length_b 5.213646
_cell_length_c 16.243656
_cell_angle_alpha 90.000000
_cell_angle_beta 90.000000
_cell_angle_gamma 90.000000
_cell_volume 2129.918156
_symmetry_space_group_name_H-M "P C C A"
_symmetry_group_IT_number 54
_symmetry_cell_setting 'orthorhombic'
loop_
_space_group_symop_operation_xyz
x,y,z
1/2-x,-y,z
1/2+x,-y,1/2-z
-x,y,1/2-z
-x,-y,-z
1/2+x,y,-z
1/2-x,y,1/2+z
x,-y,1/2+z
loop_
_atom_site_type_symbol
_atom_site_label
_atom_site_fract_x
_atom_site_fract_y
_atom_site_fract_z
Si Si1 0.634113 0.519343 0.552594
Si Si2 0.105071 0.008368 0.546980
Si Si3 0.118672 0.576041 0.256321
Si Si4 0.703485 0.151733 0.346837
Si Si5 0.055989 0.922331 0.705718
Si Si6 0.250000 0.500000 0.014285
O O1 0.606871 0.769604 0.513790
O O2 0.625118 0.498823 0.649290
O O3 0.697273 0.551435 0.537382
O O4 0.613334 0.270923 0.502948
O O5 0.055402 0.999265 0.609164
O O6 0.155531 0.993671 0.610555
O O7 0.173874 0.638599 0.209421
O O8 0.086941 0.347131 0.212786
O O9 0.086592 0.843204 0.249966
O O10 0.734077 0.275337 0.423495
O O11 0.750000 0.000000 0.299911
O O12 0.000000 0.892276 0.750000
#
# Coordination Sequence:
#
# PCOD9421550 Si02
#       6
#     8   8   8   8   8   4
#     4  11  22  40  58  93 135 162 207 259 327 367
#     4  10  21  40  63  86 124 171 204 259 314 388
#     4  11  25  40  63  99 130 159 213 282 310 369
#     4  10  20  37  60  88 126 169 218 240 302 384
#     4  11  23  46  69  91 119 170 223 269 324 387
#     4  10  20  36  60  84 126 178 204 234 306 396
#
# _framework density 20.658073000000002
#
# number of rings (size 3 to 8) (size 9 to 14) (size 15 to 20)
#    0.000    1.455    1.818    4.909    2.545    0.727 
#    6.545    5.455    0.000    0.000    0.000    0.000 
#    0.000    0.000    0.000    0.000    0.000    0.000 
#
# Total GULP energy -245741.505266 kJ/mol
# GULP energy per Si atom -5585.034211 kJ/mol
# Density = 2.061105 g / cm^3
# Si number density = 20.658073 Si / 1000 Ang^3
#
#
#
# Elastic Constant Matrix: (Units=GPa)
#
#
# Indices 1 2 3 4 5 6 
#
# 1 17.7718 25.4812 -2.8675 0.0000 0.0000 0.0000
# 2 25.4812 103.3748 7.0220 0.0000 0.0000 0.0000
# 3 -2.8675 7.0220 82.2332 0.0000 0.0000 0.0000
# 4 0.0000 0.0000 0.0000 27.6175 0.0000 0.0000
# 5 0.0000 0.0000 0.0000 0.0000 -0.4725 0.0000
# 6 0.0000 0.0000 0.0000 0.0000 0.0000 21.1737
#
#
#
# Elastic Compliance Matrix: (Units=1/GPa)
#
#
# Indices 1 2 3 4 5 6 
#
# 1 0.089030 -0.022285 0.005008 0.000000 0.000000 0.000000
# 2 -0.022285 0.015308 -0.002084 0.000000 0.000000 0.000000
# 3 0.005008 -0.002084 0.012513 0.000000 0.000000 0.000000
# 4 0.000000 0.000000 0.000000 0.036209 0.000000 0.000000
# 5 0.000000 0.000000 0.000000 0.000000 -2.116410 0.000000
# 6 0.000000 0.000000 0.000000 0.000000 0.000000 0.047228
#
#
# Mechanical properties :
#
#
# Convention : Reuss Voigt Hill
#
# Bulk Modulus (GPa) = 12.79968 29.18346 20.99157
# Shear Modulus (GPa) = -2.70072 21.24667 9.27297
#
# Velocity S-wave (km/s) = -1.14463 3.21049 2.12097
# Velocity P-wave (km/s) = 2.11247 5.28210 4.02263
#
# Compressibility (1/GPa) = 0.07812693
#
# Stress axis : x y z
#
# Youngs Moduli (GPa) = 11.23218 65.32389 79.91597
#
# Poissons Ratio (x) = 1.45577 -0.40018
# Poissons Ratio (y) = 0.25031 0.16657
# Poissons Ratio (z) = -0.05625 0.13616
#
# Static dielectric constant tensor:
#      x y z
#    x 1.793340 0.000000 0.000000 
#    y 0.000000 1.774660 0.000000 
#    z 0.000000 0.000000 1.714150 
# 
# From -- ./inp_files/15070.got.cif
#   From: 2010.05.17/outbox.cif.g08.bks.cpg/sg54_8_cif.got.tgz:15070.got - 2010.06.03 13:09:01.
