data_PCOD9421887
_publ_section_title
;
Structure prediction by ZEFSAII (Michael W. Deem and Ramdas Pophale) SiO2 
 PCOD9421887
Probable space group: P C C A
;
_chemical_formula_sum "Si O2"
_cell_formula_units_Z 64
_cell_length_a 12.309659
_cell_length_b 14.540445
_cell_length_c 18.463787
_cell_angle_alpha 90.000000
_cell_angle_beta 90.000000
_cell_angle_gamma 90.000000
_cell_volume 3304.794824
_symmetry_space_group_name_H-M "P C C A"
_symmetry_group_IT_number 54
_symmetry_cell_setting 'orthorhombic'
loop_
_space_group_symop_operation_xyz
x,y,z
1/2-x,-y,z
1/2+x,-y,1/2-z
-x,y,1/2-z
-x,-y,-z
1/2+x,y,-z
1/2-x,y,1/2+z
x,-y,1/2+z
loop_
_atom_site_type_symbol
_atom_site_label
_atom_site_fract_x
_atom_site_fract_y
_atom_site_fract_z
Si Si1 0.623079 0.994361 0.540115
Si Si2 0.552267 0.329660 0.327655
Si Si3 0.758822 0.608984 0.879036
Si Si4 0.283422 0.666785 0.965657
Si Si5 0.467768 0.800640 0.947076
Si Si6 0.500740 0.657351 0.163855
Si Si7 0.940970 0.514484 0.077939
Si Si8 0.115435 0.811138 0.914448
O O1 0.629050 0.079547 0.596404
O O2 0.750000 0.000000 0.506481
O O3 0.500000 0.000000 0.500000
O O4 0.605206 0.890516 0.566955
O O5 0.500000 0.330409 0.250000
O O6 0.681167 0.337916 0.324257
O O7 0.513484 0.242745 0.373853
O O8 0.515508 0.420232 0.372106
O O9 0.750000 0.500000 0.871512
O O10 0.881017 0.637294 0.864996
O O11 0.724784 0.638102 0.960388
O O12 0.391784 0.724225 0.984025
O O13 0.331995 0.574282 0.931398
O O14 0.216017 0.740503 0.919516
O O15 0.564758 0.813183 0.004269
O O16 0.500000 0.643066 0.250000
O O17 0.572161 0.581851 0.119609
O O18 0.537058 0.759544 0.141447
O O19 0.000000 0.500000 0.000000
#
# Coordination Sequence:
#
# PCOD9421887 Si02
#       8
#     8   8   8   8   8   8   8   8
#     4  10  21  39  67 102 134 166 218 279 342 396
#     4  11  23  39  63  91 125 164 220 270 316 390
#     4  12  23  38  63  83 127 178 209 266 324 381
#     4  11  21  35  64  93 121 162 215 260 326 375
#     4  10  20  39  65  93 123 163 210 273 324 385
#     4  12  26  42  58  90 133 173 214 265 329 391
#     4  11  21  39  60  88 124 166 217 261 313 380
#     4  11  22  39  63  94 127 167 212 269 326 396
#
# _framework density 19.365801000000001
#
# number of rings (size 3 to 8) (size 9 to 14) (size 15 to 20)
#    0.000    1.000    6.250    1.125    1.750    2.000 
#    0.000    0.625    0.000    0.000    0.000    0.000 
#    0.000    0.000    0.000    0.000    0.000    0.000 
#
# Total GULP energy -356414.418765 kJ/mol
# GULP energy per Si atom -5568.975293 kJ/mol
# Density = 1.932172 g / cm^3
# Si number density = 19.365801 Si / 1000 Ang^3
#
#
#
# Elastic Constant Matrix: (Units=GPa)
#
#
# Indices 1 2 3 4 5 6 
#
# 1 85.6008 40.5296 4.2410 0.0000 0.0000 0.0000
# 2 40.5296 136.2309 36.2726 0.0000 0.0000 0.0000
# 3 4.2410 36.2726 86.7581 0.0000 0.0000 0.0000
# 4 0.0000 0.0000 0.0000 11.2289 0.0000 0.0000
# 5 0.0000 0.0000 0.0000 0.0000 21.0477 0.0000
# 6 0.0000 0.0000 0.0000 0.0000 0.0000 35.8986
#
#
#
# Elastic Compliance Matrix: (Units=1/GPa)
#
#
# Indices 1 2 3 4 5 6 
#
# 1 0.013701 -0.004386 0.001164 0.000000 0.000000 0.000000
# 2 -0.004386 0.009664 -0.003826 0.000000 0.000000 0.000000
# 3 0.001164 -0.003826 0.013069 0.000000 0.000000 0.000000
# 4 0.000000 0.000000 0.000000 0.089056 0.000000 0.000000
# 5 0.000000 0.000000 0.000000 0.000000 0.047511 0.000000
# 6 0.000000 0.000000 0.000000 0.000000 0.000000 0.027856
#
#
# Mechanical properties :
#
#
# Convention : Reuss Voigt Hill
#
# Bulk Modulus (GPa) = 44.76673 52.29736 48.53204
# Shear Modulus (GPa) = 22.48201 28.80481 25.64341
#
# Velocity S-wave (km/s) = 3.41091 3.86087 3.64285
# Velocity P-wave (km/s) = 6.21925 6.85119 6.54285
#
# Compressibility (1/GPa) = 0.02233802
#
# Stress axis : x y z
#
# Youngs Moduli (GPa) = 72.98653 103.47592 76.51682
#
# Poissons Ratio (x) = 0.45386 -0.08907
# Poissons Ratio (y) = 0.32013 0.29276
# Poissons Ratio (z) = -0.08496 0.39590
#
# Static dielectric constant tensor:
#      x y z
#    x 1.719260 0.000000 0.000000 
#    y 0.000000 1.717270 0.000000 
#    z 0.000000 0.000000 1.667240 
# 
# From -- ./inp_files/17470.got.cif
#   From: 2010.05.17/outbox.cif.g08.bks.cpg/sg54_9_cif.got.tgz:17470.got - 2010.06.03 13:09:01.
