data_PCOD9421199
_publ_section_title
;
Structure prediction by ZEFSAII (Michael W. Deem and Ramdas Pophale) SiO2 
 PCOD9421199
Probable space group: P C C A
;
_chemical_formula_sum "Si O2"
_cell_formula_units_Z 60
_cell_length_a 14.861761
_cell_length_b 12.682180
_cell_length_c 17.179320
_cell_angle_alpha 90.000000
_cell_angle_beta 90.000000
_cell_angle_gamma 90.000000
_cell_volume 3237.950127
_symmetry_space_group_name_H-M "P C C A"
_symmetry_group_IT_number 54
_symmetry_cell_setting 'orthorhombic'
loop_
_space_group_symop_operation_xyz
x,y,z
1/2-x,-y,z
1/2+x,-y,1/2-z
-x,y,1/2-z
-x,-y,-z
1/2+x,y,-z
1/2-x,y,1/2+z
x,-y,1/2+z
loop_
_atom_site_type_symbol
_atom_site_label
_atom_site_fract_x
_atom_site_fract_y
_atom_site_fract_z
Si Si1 0.750000 0.000000 0.000132
Si Si2 0.558509 0.027234 0.923449
Si Si3 0.002746 0.828042 0.340757
Si Si4 0.496416 0.548775 0.158884
Si Si5 0.186157 0.600486 0.919027
Si Si6 0.931455 0.348983 0.940971
Si Si7 0.307267 0.212458 0.428222
Si Si8 0.575593 0.270682 0.931845
O O1 0.757741 0.896935 0.054085
O O2 0.660907 0.001521 0.947386
O O3 0.523698 0.948610 0.857754
O O4 0.550303 0.151725 0.907227
O O5 0.500000 0.000000 0.000000
O O6 0.101172 0.806084 0.379061
O O7 0.000000 0.804468 0.250000
O O8 0.931855 0.752757 0.385602
O O9 0.500000 0.525718 0.250000
O O10 0.596574 0.579398 0.130548
O O11 0.464958 0.448085 0.108925
O O12 0.429587 0.646015 0.137823
O O13 0.250000 0.500000 0.915545
O O14 0.241500 0.702243 0.891270
O O15 0.154697 0.621649 0.008009
O O16 0.003878 0.317882 0.006965
O O17 0.337575 0.257080 0.513232
#
# Coordination Sequence:
#
# PCOD9421199 Si02
#       8
#     4   8   8   8   8   8   8   8
#     4  10  20  34  62  90 110 150 208 246 294 342
#     4  11  19  38  62  89 117 156 201 251 290 351
#     4  11  22  38  60  88 122 160 192 238 312 364
#     4  11  23  38  57  84 121 160 188 237 312 364
#     4  11  21  36  60  86 110 147 208 252 285 347
#     4  10  19  37  60  80 109 152 198 240 281 351
#     4  10  20  35  58  87 111 149 201 251 285 347
#     4   9  19  36  59  81 110 147 201 234 281 350
#
# _framework density 18.530242000000001
#
# number of rings (size 3 to 8) (size 9 to 14) (size 15 to 20)
#    0.000    1.600    4.000    5.200    1.867    0.533 
#    0.000    8.000    0.000    0.000    0.000    0.000 
#    0.000    0.000    0.000    0.000    0.000    0.000 
#
# Total GULP energy -334678.519353 kJ/mol
# GULP energy per Si atom -5577.975323 kJ/mol
# Density = 1.848807 g / cm^3
# Si number density = 18.530242 Si / 1000 Ang^3
#
#
#
# Elastic Constant Matrix: (Units=GPa)
#
#
# Indices 1 2 3 4 5 6 
#
# 1 70.7173 45.6962 30.7083 0.0000 0.0000 0.0000
# 2 45.6962 131.4850 27.8571 0.0000 0.0000 0.0000
# 3 30.7083 27.8571 76.2941 0.0000 0.0000 0.0000
# 4 0.0000 0.0000 0.0000 10.0836 0.0000 0.0000
# 5 0.0000 0.0000 0.0000 0.0000 31.0138 0.0000
# 6 0.0000 0.0000 0.0000 0.0000 0.0000 33.6648
#
#
#
# Elastic Compliance Matrix: (Units=1/GPa)
#
#
# Indices 1 2 3 4 5 6 
#
# 1 0.020595 -0.005854 -0.006152 0.000000 0.000000 0.000000
# 2 -0.005854 0.009907 -0.001261 0.000000 0.000000 0.000000
# 3 -0.006152 -0.001261 0.016044 0.000000 0.000000 0.000000
# 4 0.000000 0.000000 0.000000 0.099171 0.000000 0.000000
# 5 0.000000 0.000000 0.000000 0.000000 0.032244 0.000000
# 6 0.000000 0.000000 0.000000 0.000000 0.000000 0.029705
#
#
# Mechanical properties :
#
#
# Convention : Reuss Voigt Hill
#
# Bulk Modulus (GPa) = 49.97111 54.11328 52.04219
# Shear Modulus (GPa) = 20.75804 26.56809 23.66307
#
# Velocity S-wave (km/s) = 3.35061 3.79062 3.57739
# Velocity P-wave (km/s) = 6.48033 6.95877 6.72381
#
# Compressibility (1/GPa) = 0.02001156
#
# Stress axis : x y z
#
# Youngs Moduli (GPa) = 48.55511 100.93690 62.32938
#
# Poissons Ratio (x) = 0.59091 0.38345
# Poissons Ratio (y) = 0.28425 0.07860
# Poissons Ratio (z) = 0.29871 0.12729
#
# Static dielectric constant tensor:
#      x y z
#    x 1.664390 0.000000 0.000000 
#    y 0.000000 1.625410 0.000000 
#    z 0.000000 0.000000 1.628990 
# 
# From -- ./inp_files/18213.got.cif
#   From: 2010.05.17/outbox.cif.g08.bks.cpg/sg54_10_cif.got.tgz:18213.got - 2010.06.03 13:09:01.
