data_PCOD9421712
_publ_section_title
;
Structure prediction by ZEFSAII (Michael W. Deem and Ramdas Pophale) SiO2 
 PCOD9421712
Probable space group: P C C A
;
_chemical_formula_sum "Si O2"
_cell_formula_units_Z 48
_cell_length_a 9.682586
_cell_length_b 8.933303
_cell_length_c 28.706783
_cell_angle_alpha 90.000000
_cell_angle_beta 90.000000
_cell_angle_gamma 90.000000
_cell_volume 2483.064232
_symmetry_space_group_name_H-M "P C C A"
_symmetry_group_IT_number 54
_symmetry_cell_setting 'orthorhombic'
loop_
_space_group_symop_operation_xyz
x,y,z
1/2-x,-y,z
1/2+x,-y,1/2-z
-x,y,1/2-z
-x,-y,-z
1/2+x,y,-z
1/2-x,y,1/2+z
x,-y,1/2+z
loop_
_atom_site_type_symbol
_atom_site_label
_atom_site_fract_x
_atom_site_fract_y
_atom_site_fract_z
Si Si1 0.500000 0.795135 0.250000
Si Si2 0.305941 0.840655 0.557885
Si Si3 0.538104 0.260428 0.000837
Si Si4 0.594093 0.464921 0.571078
Si Si5 0.336194 0.277991 0.159613
Si Si6 0.461531 0.572095 0.171013
Si Si7 0.250000 0.000000 0.715150
O O1 0.536061 0.680228 0.207634
O O2 0.366022 0.900561 0.241453
O O3 0.183444 0.776078 0.524404
O O4 0.447802 0.860160 0.529033
O O5 0.338413 0.741783 0.603564
O O6 0.250000 0.000000 0.574518
O O7 0.553690 0.394222 0.038513
O O8 0.436058 0.322862 0.961225
O O9 0.750000 0.500000 0.583701
O O10 0.516055 0.430781 0.618596
O O11 0.446249 0.394685 0.180821
O O12 0.189384 0.353858 0.169873
O O13 0.335464 0.117049 0.183488
#
# Coordination Sequence:
#
# PCOD9421712 Si02
#       7
#     4   8   8   8   8   8   4
#     4  10  24  46  70  96 124 164 208 274 330 402
#     4  12  22  38  59  88 127 174 214 257 310 376
#     4  11  23  36  59  89 124 168 215 257 306 373
#     4  11  21  36  59  86 125 160 205 267 320 360
#     4  10  20  37  68  92 119 167 215 260 309 387
#     4  10  21  40  64  92 123 159 214 266 317 382
#     4  10  22  46  68  96 130 164 210 264 342 394
#
# _framework density 19.330953999999998
#
# number of rings (size 3 to 8) (size 9 to 14) (size 15 to 20)
#    0.000    1.333    5.833    0.500    0.000    0.667 
#    9.000    0.000    1.833    0.000    0.000    0.000 
#    0.000    0.000    0.000    0.000    0.000    0.000 
#
# Total GULP energy -267209.734318 kJ/mol
# GULP energy per Si atom -5566.869465 kJ/mol
# Density = 1.928696 g / cm^3
# Si number density = 19.330954 Si / 1000 Ang^3
#
#
#
# Elastic Constant Matrix: (Units=GPa)
#
#
# Indices 1 2 3 4 5 6 
#
# 1 40.7043 23.3935 16.8803 0.0000 0.0000 0.0000
# 2 23.3935 104.4195 56.9168 0.0000 0.0000 0.0000
# 3 16.8803 56.9168 82.0088 0.0000 0.0000 0.0000
# 4 0.0000 0.0000 0.0000 37.9749 0.0000 0.0000
# 5 0.0000 0.0000 0.0000 0.0000 27.0667 0.0000
# 6 0.0000 0.0000 0.0000 0.0000 0.0000 22.4266
#
#
#
# Elastic Compliance Matrix: (Units=1/GPa)
#
#
# Indices 1 2 3 4 5 6 
#
# 1 0.028467 -0.005121 -0.002305 0.000000 0.000000 0.000000
# 2 -0.005121 0.016325 -0.010276 0.000000 0.000000 0.000000
# 3 -0.002305 -0.010276 0.019800 0.000000 0.000000 0.000000
# 4 0.000000 0.000000 0.000000 0.026333 0.000000 0.000000
# 5 0.000000 0.000000 0.000000 0.000000 0.036946 0.000000
# 6 0.000000 0.000000 0.000000 0.000000 0.000000 0.044590
#
#
# Mechanical properties :
#
#
# Convention : Reuss Voigt Hill
#
# Bulk Modulus (GPa) = 34.26149 46.83486 40.54817
# Shear Modulus (GPa) = 22.97844 26.15645 24.56745
#
# Velocity S-wave (km/s) = 3.45147 3.68242 3.56882
# Velocity P-wave (km/s) = 5.80049 6.50852 6.16468
#
# Compressibility (1/GPa) = 0.02918729
#
# Stress axis : x y z
#
# Youngs Moduli (GPa) = 35.12896 61.25430 50.50399
#
# Poissons Ratio (x) = 0.31367 0.11643
# Poissons Ratio (y) = 0.17989 0.51899
# Poissons Ratio (z) = 0.08099 0.62947
#
# Static dielectric constant tensor:
#      x y z
#    x 1.680720 0.000000 0.000000 
#    y 0.000000 1.718630 0.000000 
#    z 0.000000 0.000000 1.678390 
# 
# From -- ./inp_files/26202.got.cif
#   From: 2010.05.17/outbox.cif.g08.bks.cpg/sg54_14_cif.got.tgz:26202.got - 2010.06.03 13:09:01.
