data_PCOD9421727
_publ_section_title
;
Structure prediction by ZEFSAII (Michael W. Deem and Ramdas Pophale) SiO2 
 PCOD9421727
Probable space group: P C C A
;
_chemical_formula_sum "Si O2"
_cell_formula_units_Z 32
_cell_length_a 9.923331
_cell_length_b 15.113088
_cell_length_c 9.288387
_cell_angle_alpha 90.000000
_cell_angle_beta 90.000000
_cell_angle_gamma 90.000000
_cell_volume 1392.999597
_symmetry_space_group_name_H-M "P C C A"
_symmetry_group_IT_number 54
_symmetry_cell_setting 'orthorhombic'
loop_
_space_group_symop_operation_xyz
x,y,z
1/2-x,-y,z
1/2+x,-y,1/2-z
-x,y,1/2-z
-x,-y,-z
1/2+x,y,-z
1/2-x,y,1/2+z
x,-y,1/2+z
loop_
_atom_site_type_symbol
_atom_site_label
_atom_site_fract_x
_atom_site_fract_y
_atom_site_fract_z
Si Si1 0.750000 0.000000 0.500408
Si Si2 0.849140 0.123039 0.751969
Si Si3 0.725369 0.694562 0.249908
Si Si4 0.823803 0.586199 0.503494
Si Si5 0.500000 0.394597 0.250000
O O1 0.672249 0.934894 0.608848
O O2 0.835411 0.939423 0.391486
O O3 0.736590 0.200303 0.759503
O O4 0.000000 0.159945 0.750000
O O5 0.629249 0.650654 0.131364
O O6 0.875014 0.663951 0.197087
O O7 0.724422 0.645473 0.402701
O O8 0.750000 0.500000 0.564011
O O9 0.935502 0.556598 0.386397
#
# Coordination Sequence:
#
# PCOD9421727 Si02
#       5
#     4   8   8   8   4
#     4  10  24  34  62  90 114 158 188 248 288 358
#     4  11  20  40  59  86 121 151 196 237 299 343
#     4  10  20  38  59  81 116 158 189 244 287 344
#     4  10  20  38  58  85 118 154 198 238 288 343
#     4   8  22  38  54  86 116 156 184 254 282 324
#
# _framework density 22.972010000000001
#
# number of rings (size 3 to 8) (size 9 to 14) (size 15 to 20)
#    1.500    0.500    1.250    3.000    0.000    1.000 
#    0.000    0.000    0.000    6.000    0.000    0.000 
#    0.000    0.000    0.000    0.000    0.000    0.000 
#
# Total GULP energy -178308.950881 kJ/mol
# GULP energy per Si atom -5572.154715 kJ/mol
# Density = 2.291972 g / cm^3
# Si number density = 22.972010 Si / 1000 Ang^3
#
#
#
# Elastic Constant Matrix: (Units=GPa)
#
#
# Indices 1 2 3 4 5 6 
#
# 1 34.4226 -0.9634 8.0311 0.0000 0.0000 0.0000
# 2 -0.9634 132.9232 48.2411 0.0000 0.0000 0.0000
# 3 8.0311 48.2411 156.0557 0.0000 0.0000 0.0000
# 4 0.0000 0.0000 0.0000 23.5927 0.0000 0.0000
# 5 0.0000 0.0000 0.0000 0.0000 19.9586 0.0000
# 6 0.0000 0.0000 0.0000 0.0000 0.0000 -12.5860
#
#
#
# Elastic Compliance Matrix: (Units=1/GPa)
#
#
# Indices 1 2 3 4 5 6 
#
# 1 0.029491 0.000861 -0.001784 0.000000 0.000000 0.000000
# 2 0.000861 0.008499 -0.002672 0.000000 0.000000 0.000000
# 3 -0.001784 -0.002672 0.007326 0.000000 0.000000 0.000000
# 4 0.000000 0.000000 0.000000 0.042386 0.000000 0.000000
# 5 0.000000 0.000000 0.000000 0.000000 0.050104 0.000000
# 6 0.000000 0.000000 0.000000 0.000000 0.000000 -0.079453
#
#
# Mechanical properties :
#
#
# Convention : Reuss Voigt Hill
#
# Bulk Modulus (GPa) = 26.22818 48.22434 37.22626
# Shear Modulus (GPa) = 63.89788 24.06590 43.98189
#
# Velocity S-wave (km/s) = 5.27977 3.24020 4.38035
# Velocity P-wave (km/s) = 6.97210 5.91919 6.46711
#
# Compressibility (1/GPa) = 0.03812693
#
# Stress axis : x y z
#
# Youngs Moduli (GPa) = 33.90867 117.66145 136.50699
#
# Poissons Ratio (x) = -0.10133 0.24352
# Poissons Ratio (y) = -0.02920 0.36469
# Poissons Ratio (z) = 0.06049 0.31434
#
# Static dielectric constant tensor:
#      x y z
#    x 1.953540 0.000000 0.000000 
#    y 0.000000 1.831490 0.000000 
#    z 0.000000 0.000000 1.845130 
# 
# From -- ./inp_files/3336.got.cif
#   From: 2010.05.17/outbox.cif.g08.bks.cpg/sg54_2_cif.got.tgz:3336.got - 2010.06.03 13:09:01.
