data_PCOD9421489
_publ_section_title
;
Structure prediction by ZEFSAII (Michael W. Deem and Ramdas Pophale) SiO2 
 PCOD9421489
Probable space group: P C C A
;
_chemical_formula_sum "Si O2"
_cell_formula_units_Z 32
_cell_length_a 8.938056
_cell_length_b 13.765531
_cell_length_c 13.196299
_cell_angle_alpha 90.000000
_cell_angle_beta 90.000000
_cell_angle_gamma 90.000000
_cell_volume 1623.634187
_symmetry_space_group_name_H-M "P C C A"
_symmetry_group_IT_number 54
_symmetry_cell_setting 'orthorhombic'
loop_
_space_group_symop_operation_xyz
x,y,z
1/2-x,-y,z
1/2+x,-y,1/2-z
-x,y,1/2-z
-x,-y,-z
1/2+x,y,-z
1/2-x,y,1/2+z
x,-y,1/2+z
loop_
_atom_site_type_symbol
_atom_site_label
_atom_site_fract_x
_atom_site_fract_y
_atom_site_fract_z
Si Si1 0.750000 0.500000 0.991587
Si Si2 0.684274 0.097725 0.917525
Si Si3 0.996750 0.399066 0.633315
Si Si4 0.000000 0.012443 0.750000
Si Si5 0.508387 0.824893 0.600961
O O1 0.653722 0.573242 0.921031
O O2 0.631314 0.447751 0.064857
O O3 0.829797 0.160726 0.895051
O O4 0.750000 0.000000 0.970074
O O5 0.604163 0.055655 0.817966
O O6 0.570152 0.152960 0.989491
O O7 0.000000 0.433286 0.750000
O O8 0.961351 0.284320 0.633143
O O9 0.925484 0.089738 0.672241
#
# Coordination Sequence:
#
# PCOD9421489 Si02
#       5
#     4   8   8   4   8
#     4  10  24  42  70  94 126 162 200 266 322 382
#     4  10  22  37  58  84 124 165 206 252 298 358
#     4  11  22  44  67  96 127 161 209 256 322 376
#     4  10  20  36  54  86 120 162 202 244 302 354
#     4  11  22  39  60  89 121 162 206 256 296 367
#
# _framework density 19.708874000000002
#
# number of rings (size 3 to 8) (size 9 to 14) (size 15 to 20)
#    0.000    1.500    1.250    5.250    0.000    9.000 
#    4.500    0.000    5.500    0.000    0.000    0.000 
#    0.000    0.000    0.000    0.000    0.000    0.000 
#
# Total GULP energy -178545.819088 kJ/mol
# GULP energy per Si atom -5579.556846 kJ/mol
# Density = 1.966402 g / cm^3
# Si number density = 19.708874 Si / 1000 Ang^3
#
#
#
# Elastic Constant Matrix: (Units=GPa)
#
#
# Indices 1 2 3 4 5 6 
#
# 1 84.6895 23.0632 61.8027 0.0000 0.0000 0.0000
# 2 23.0632 50.4378 35.5817 0.0000 0.0000 0.0000
# 3 61.8027 35.5817 148.2107 0.0000 0.0000 0.0000
# 4 0.0000 0.0000 0.0000 2.4904 0.0000 0.0000
# 5 0.0000 0.0000 0.0000 0.0000 29.2306 0.0000
# 6 0.0000 0.0000 0.0000 0.0000 0.0000 20.0606
#
#
#
# Elastic Compliance Matrix: (Units=1/GPa)
#
#
# Indices 1 2 3 4 5 6 
#
# 1 0.017451 -0.003426 -0.006454 0.000000 0.000000 0.000000
# 2 -0.003426 0.024542 -0.004463 0.000000 0.000000 0.000000
# 3 -0.006454 -0.004463 0.010510 0.000000 0.000000 0.000000
# 4 0.000000 0.000000 0.000000 0.401548 0.000000 0.000000
# 5 0.000000 0.000000 0.000000 0.000000 0.034211 0.000000
# 6 0.000000 0.000000 0.000000 0.000000 0.000000 0.049849
#
#
# Mechanical properties :
#
#
# Convention : Reuss Voigt Hill
#
# Bulk Modulus (GPa) = 41.99014 58.24813 50.11914
# Shear Modulus (GPa) = 8.69964 21.21567 14.95766
#
# Velocity S-wave (km/s) = 2.10325 3.28449 2.75786
# Velocity P-wave (km/s) = 5.22012 6.63342 5.96875
#
# Compressibility (1/GPa) = 0.02381511
#
# Stress axis : x y z
#
# Youngs Moduli (GPa) = 57.30308 40.74704 95.14706
#
# Poissons Ratio (x) = 0.13962 0.61411
# Poissons Ratio (y) = 0.19634 0.42465
# Poissons Ratio (z) = 0.36986 0.18186
#
# Static dielectric constant tensor:
#      x y z
#    x 1.732950 0.000000 0.000000 
#    y 0.000000 1.673360 0.000000 
#    z 0.000000 0.000000 1.723700 
# 
# From -- ./inp_files/6737.got.cif
#   From: 2010.05.17/outbox.cif.g08.bks.cpg/sg54_4_cif.got.tgz:6737.got - 2010.06.03 13:09:01.
