data_PCOD9421207
_publ_section_title
;
Structure prediction by ZEFSAII (Michael W. Deem and Ramdas Pophale) SiO2 
 PCOD9421207
Probable space group: P C C A
;
_chemical_formula_sum "Si O2"
_cell_formula_units_Z 64
_cell_length_a 13.690413
_cell_length_b 9.316704
_cell_length_c 22.857976
_cell_angle_alpha 90.000000
_cell_angle_beta 90.000000
_cell_angle_gamma 90.000000
_cell_volume 2915.523994
_symmetry_space_group_name_H-M "P C C A"
_symmetry_group_IT_number 54
_symmetry_cell_setting 'orthorhombic'
loop_
_space_group_symop_operation_xyz
x,y,z
1/2-x,-y,z
1/2+x,-y,1/2-z
-x,y,1/2-z
-x,-y,-z
1/2+x,y,-z
1/2-x,y,1/2+z
x,-y,1/2+z
loop_
_atom_site_type_symbol
_atom_site_label
_atom_site_fract_x
_atom_site_fract_y
_atom_site_fract_z
Si Si1 0.057715 0.195524 0.347520
Si Si2 0.884253 0.260805 0.628380
Si Si3 0.716393 0.159434 0.562534
Si Si4 0.977550 0.499187 0.819436
Si Si5 0.699719 0.136296 0.934103
Si Si6 0.452784 0.053753 0.110798
Si Si7 0.749106 0.164315 0.730820
Si Si8 0.304054 0.696356 0.652801
O O1 0.109322 0.186485 0.411830
O O2 0.997473 0.337997 0.336722
O O3 0.150152 0.192274 0.304619
O O4 0.989751 0.056880 0.339935
O O5 0.788037 0.278860 0.589538
O O6 0.944795 0.400058 0.645592
O O7 0.840998 0.192747 0.688000
O O8 0.952299 0.146922 0.593841
O O9 0.741196 0.155833 0.494147
O O10 0.750000 0.000000 0.584856
O O11 0.000000 0.480028 0.750000
O O12 0.870293 0.443711 0.838127
O O13 0.593550 0.060362 0.935895
O O14 0.721647 0.277189 0.896573
O O15 0.750000 0.000000 0.901817
O O16 0.384029 0.179461 0.136267
O O17 0.756863 0.267020 0.785588
O O18 0.750000 0.000000 0.750055
#
# Coordination Sequence:
#
# PCOD9421207 Si02
#       8
#     8   8   8   8   8   8   8   8
#     4  11  23  39  62  95 119 161 219 263 301 380
#     4  10  19  37  61  90 119 161 200 260 317 371
#     4  10  19  39  65  94 126 152 209 270 323 360
#     4  11  24  41  58  87 126 167 208 252 314 381
#     4   9  20  38  61  93 124 162 203 261 327 380
#     4  10  19  38  62  94 120 153 214 257 306 376
#     4  11  19  35  63  92 123 158 204 263 327 368
#     4  10  22  41  59  85 129 167 199 252 331 385
#
# _framework density 21.951457999999999
#
# number of rings (size 3 to 8) (size 9 to 14) (size 15 to 20)
#    0.000    1.750    3.750    1.875    0.000    4.500 
#    6.750    2.500    2.750    0.000    0.000    0.000 
#    0.000    0.000    0.000    0.000    0.000    0.000 
#
# Total GULP energy -356707.486551 kJ/mol
# GULP energy per Si atom -5573.554477 kJ/mol
# Density = 2.190150 g / cm^3
# Si number density = 21.951458 Si / 1000 Ang^3
#
#
#
# Elastic Constant Matrix: (Units=GPa)
#
#
# Indices 1 2 3 4 5 6 
#
# 1 48.0528 25.5610 7.9905 0.0000 0.0000 0.0000
# 2 25.5610 100.0644 9.7672 0.0000 0.0000 0.0000
# 3 7.9905 9.7672 76.9927 0.0000 0.0000 0.0000
# 4 0.0000 0.0000 0.0000 15.5923 0.0000 0.0000
# 5 0.0000 0.0000 0.0000 0.0000 17.1734 0.0000
# 6 0.0000 0.0000 0.0000 0.0000 0.0000 29.5477
#
#
#
# Elastic Compliance Matrix: (Units=1/GPa)
#
#
# Indices 1 2 3 4 5 6 
#
# 1 0.024315 -0.006040 -0.001757 0.000000 0.000000 0.000000
# 2 -0.006040 0.011619 -0.000847 0.000000 0.000000 0.000000
# 3 -0.001757 -0.000847 0.013278 0.000000 0.000000 0.000000
# 4 0.000000 0.000000 0.000000 0.064134 0.000000 0.000000
# 5 0.000000 0.000000 0.000000 0.000000 0.058230 0.000000
# 6 0.000000 0.000000 0.000000 0.000000 0.000000 0.033844
#
#
# Mechanical properties :
#
#
# Convention : Reuss Voigt Hill
#
# Bulk Modulus (GPa) = 31.32426 34.63860 32.98143
# Shear Modulus (GPa) = 21.42707 24.58209 23.00458
#
# Velocity S-wave (km/s) = 3.12767 3.35003 3.24076
# Velocity P-wave (km/s) = 5.22913 5.54775 5.39079
#
# Compressibility (1/GPa) = 0.03192413
#
# Stress axis : x y z
#
# Youngs Moduli (GPa) = 41.12616 86.06528 75.31199
#
# Poissons Ratio (x) = 0.51981 0.13235
# Poissons Ratio (y) = 0.24839 0.06380
# Poissons Ratio (z) = 0.07227 0.07291
#
# Static dielectric constant tensor:
#      x y z
#    x 1.967130 0.000000 0.000000 
#    y 0.000000 1.814280 0.000000 
#    z 0.000000 0.000000 1.831830 
# 
# From -- ./inp_files/24527.got.cif
#   From: 2010.05.17/outbox.cif.g08.bks.cpg/sg54_13_cif.got.tgz:24527.got - 2010.06.03 13:09:01.
