data_PCOD9421010
_publ_section_title
;
Structure prediction by ZEFSAII (Michael W. Deem and Ramdas Pophale) SiO2 
 PCOD9421010
Probable space group: P C C A
;
_chemical_formula_sum "Si O2"
_cell_formula_units_Z 48
_cell_length_a 23.872778
_cell_length_b 4.985092
_cell_length_c 20.382640
_cell_angle_alpha 90.000000
_cell_angle_beta 90.000000
_cell_angle_gamma 90.000000
_cell_volume 2425.697112
_symmetry_space_group_name_H-M "P C C A"
_symmetry_group_IT_number 54
_symmetry_cell_setting 'orthorhombic'
loop_
_space_group_symop_operation_xyz
x,y,z
1/2-x,-y,z
1/2+x,-y,1/2-z
-x,y,1/2-z
-x,-y,-z
1/2+x,y,-z
1/2-x,y,1/2+z
x,-y,1/2+z
loop_
_atom_site_type_symbol
_atom_site_label
_atom_site_fract_x
_atom_site_fract_y
_atom_site_fract_z
Si Si1 0.953085 0.631753 0.936365
Si Si2 0.902212 0.878968 0.493151
Si Si3 0.067326 0.244824 0.372835
Si Si4 0.636114 0.415487 0.819947
Si Si5 0.812154 0.093181 0.875852
Si Si6 0.561596 0.739048 0.715688
O O1 0.948667 0.333185 0.965795
O O2 0.912139 0.612219 0.874300
O O3 0.007167 0.780498 0.907954
O O4 0.926584 0.823661 0.990796
O O5 0.889233 0.800279 0.567992
O O6 0.851344 0.888471 0.440897
O O7 0.063104 0.546154 0.347001
O O8 0.073532 0.036852 0.312430
O O9 0.661828 0.116515 0.822259
O O10 0.605635 0.583789 0.762496
O O11 0.684283 0.612563 0.845530
O O12 0.750000 0.000000 0.892222
O O13 0.500000 0.740774 0.750000
#
# Coordination Sequence:
#
# PCOD9421010 Si02
#       6
#     8   8   8   8   8   8
#     4  10  19  34  54  80 117 154 188 234 275 346
#     4  10  21  35  55  85 114 144 194 239 293 344
#     4  12  22  34  55  81 123 164 189 221 286 346
#     4  10  21  37  57  86 115 148 198 243 282 340
#     4  10  21  39  65  84 106 143 194 260 309 335
#     4  12  24  36  55  82 124 165 197 222 273 358
#
# _framework density 19.788126999999999
#
# number of rings (size 3 to 8) (size 9 to 14) (size 15 to 20)
#    0.000    1.333    1.667    5.000    4.667    0.000 
#    0.000    0.000    0.000    6.000    0.000    0.000 
#    0.000    0.000    0.000    0.000    0.000    0.000 
#
# Total GULP energy -267388.572287 kJ/mol
# GULP energy per Si atom -5570.595256 kJ/mol
# Density = 1.974309 g / cm^3
# Si number density = 19.788127 Si / 1000 Ang^3
#
#
#
# Elastic Constant Matrix: (Units=GPa)
#
#
# Indices 1 2 3 4 5 6 
#
# 1 51.9521 12.7662 25.7153 0.0000 0.0000 0.0000
# 2 12.7662 89.6106 8.5855 0.0000 0.0000 0.0000
# 3 25.7153 8.5855 58.7611 0.0000 0.0000 0.0000
# 4 0.0000 0.0000 0.0000 14.1623 0.0000 0.0000
# 5 0.0000 0.0000 0.0000 0.0000 7.3241 0.0000
# 6 0.0000 0.0000 0.0000 0.0000 0.0000 24.0616
#
#
#
# Elastic Compliance Matrix: (Units=1/GPa)
#
#
# Indices 1 2 3 4 5 6 
#
# 1 0.025138 -0.002563 -0.010627 0.000000 0.000000 0.000000
# 2 -0.002563 0.011579 -0.000570 0.000000 0.000000 0.000000
# 3 -0.010627 -0.000570 0.021752 0.000000 0.000000 0.000000
# 4 0.000000 0.000000 0.000000 0.070610 0.000000 0.000000
# 5 0.000000 0.000000 0.000000 0.000000 0.136536 0.000000
# 6 0.000000 0.000000 0.000000 0.000000 0.000000 0.041560
#
#
# Mechanical properties :
#
#
# Convention : Reuss Voigt Hill
#
# Bulk Modulus (GPa) = 32.31071 32.71755 32.51413
# Shear Modulus (GPa) = 14.49225 19.32670 16.90948
#
# Velocity S-wave (km/s) = 2.70917 3.12858 2.92640
# Velocity P-wave (km/s) = 5.11370 5.44247 5.28065
#
# Compressibility (1/GPa) = 0.03094949
#
# Stress axis : x y z
#
# Youngs Moduli (GPa) = 39.77990 86.36201 45.97310
#
# Poissons Ratio (x) = 0.22136 0.48854
# Poissons Ratio (y) = 0.10196 0.02621
# Poissons Ratio (z) = 0.42273 0.04924
#
# Static dielectric constant tensor:
#      x y z
#    x 1.728070 0.000000 0.000000 
#    y 0.000000 1.700440 0.000000 
#    z 0.000000 0.000000 1.760010 
# 
# From -- ./inp_files/19172.got.cif
#   From: 2010.05.17/outbox.cif.g08.bks.cpg/sg54_10_cif.got.tgz:19172.got - 2010.06.03 13:09:01.
