data_PCOD9421421
_publ_section_title
;
Structure prediction by ZEFSAII (Michael W. Deem and Ramdas Pophale) SiO2 
 PCOD9421421
Probable space group: P C C A
;
_chemical_formula_sum "Si O2"
_cell_formula_units_Z 48
_cell_length_a 13.629073
_cell_length_b 11.377566
_cell_length_c 17.232622
_cell_angle_alpha 90.000000
_cell_angle_beta 90.000000
_cell_angle_gamma 90.000000
_cell_volume 2672.188207
_symmetry_space_group_name_H-M "P C C A"
_symmetry_group_IT_number 54
_symmetry_cell_setting 'orthorhombic'
loop_
_space_group_symop_operation_xyz
x,y,z
1/2-x,-y,z
1/2+x,-y,1/2-z
-x,y,1/2-z
-x,-y,-z
1/2+x,y,-z
1/2-x,y,1/2+z
x,-y,1/2+z
loop_
_atom_site_type_symbol
_atom_site_label
_atom_site_fract_x
_atom_site_fract_y
_atom_site_fract_z
Si Si1 0.886798 0.213194 0.746486
Si Si2 0.228685 0.636217 0.376354
Si Si3 0.365733 0.968908 0.886643
Si Si4 0.888746 0.757319 0.992900
Si Si5 0.402316 0.791856 0.443243
Si Si6 0.781233 0.136795 0.903671
O O1 0.822249 0.306702 0.698712
O O2 0.884700 0.096235 0.693576
O O3 0.839374 0.181868 0.828774
O O4 0.000000 0.252177 0.750000
O O5 0.250000 0.500000 0.366821
O O6 0.157445 0.660996 0.449859
O O7 0.326257 0.709999 0.397776
O O8 0.250000 0.000000 0.892608
O O9 0.423707 0.089698 0.895220
O O10 0.391453 0.876314 0.954322
O O11 0.815927 0.787338 0.922497
O O12 0.997295 0.729318 0.965248
O O13 0.349191 0.840222 0.520992
O O14 0.750000 0.000000 0.897297
#
# Coordination Sequence:
#
# PCOD9421421 Si02
#       6
#     8   8   8   8   8   8
#     4  11  24  38  58  86 117 161 197 231 300 364
#     4  10  23  44  61  78 117 164 204 251 285 336
#     4  11  17  37  56  87 128 154 175 237 300 364
#     4  10  20  34  62  89 116 148 191 237 302 351
#     4  11  20  37  60  90 120 150 193 242 302 351
#     4  11  20  33  55  89 122 146 185 236 287 362
#
# _framework density 17.962807999999999
#
# number of rings (size 3 to 8) (size 9 to 14) (size 15 to 20)
#    0.000    1.333    6.667    3.000    2.333    0.667 
#    0.000    5.833    0.000    0.000    0.000    0.000 
#    0.000    0.000    0.000    0.000    0.000    0.000 
#
# Total GULP energy -268037.810773 kJ/mol
# GULP energy per Si atom -5584.121058 kJ/mol
# Density = 1.792192 g / cm^3
# Si number density = 17.962808 Si / 1000 Ang^3
#
#
#
# Elastic Constant Matrix: (Units=GPa)
#
#
# Indices 1 2 3 4 5 6 
#
# 1 109.9503 31.1495 39.6855 0.0000 0.0000 0.0000
# 2 31.1495 108.9958 55.7834 0.0000 0.0000 0.0000
# 3 39.6855 55.7834 95.1267 0.0000 0.0000 0.0000
# 4 0.0000 0.0000 0.0000 8.3238 0.0000 0.0000
# 5 0.0000 0.0000 0.0000 0.0000 17.3784 0.0000
# 6 0.0000 0.0000 0.0000 0.0000 0.0000 10.1805
#
#
#
# Elastic Compliance Matrix: (Units=1/GPa)
#
#
# Indices 1 2 3 4 5 6 
#
# 1 0.010801 -0.001115 -0.003852 0.000000 0.000000 0.000000
# 2 -0.001115 0.013224 -0.007289 0.000000 0.000000 0.000000
# 3 -0.003852 -0.007289 0.016394 0.000000 0.000000 0.000000
# 4 0.000000 0.000000 0.000000 0.120137 0.000000 0.000000
# 5 0.000000 0.000000 0.000000 0.000000 0.057543 0.000000
# 6 0.000000 0.000000 0.000000 0.000000 0.000000 0.098227
#
#
# Mechanical properties :
#
#
# Convention : Reuss Voigt Hill
#
# Bulk Modulus (GPa) = 62.87107 63.03439 62.95273
# Shear Modulus (GPa) = 14.44494 19.67351 17.05923
#
# Velocity S-wave (km/s) = 2.83884 3.31302 3.08506
# Velocity P-wave (km/s) = 6.76920 7.05710 6.91465
#
# Compressibility (1/GPa) = 0.01590557
#
# Stress axis : x y z
#
# Youngs Moduli (GPa) = 92.58062 75.61935 60.99811
#
# Poissons Ratio (x) = 0.08435 0.23497
# Poissons Ratio (y) = 0.10327 0.44464
# Poissons Ratio (z) = 0.35663 0.55122
#
# Static dielectric constant tensor:
#      x y z
#    x 1.666210 0.000000 0.000000 
#    y 0.000000 1.591810 0.000000 
#    z 0.000000 0.000000 1.609850 
# 
# From -- ./inp_files/13422.got.cif
#   From: 2010.05.17/outbox.cif.g08.bks.cpg/sg54_7_cif.got.tgz:13422.got - 2010.06.03 13:09:01.
