data_PCOD9421832
_publ_section_title
;
Structure prediction by ZEFSAII (Michael W. Deem and Ramdas Pophale) SiO2 
 PCOD9421832
Probable space group: P C C A
;
_chemical_formula_sum "Si O2"
_cell_formula_units_Z 48
_cell_length_a 18.769073
_cell_length_b 5.014487
_cell_length_c 20.934025
_cell_angle_alpha 90.000000
_cell_angle_beta 90.000000
_cell_angle_gamma 90.000000
_cell_volume 1970.253337
_symmetry_space_group_name_H-M "P C C A"
_symmetry_group_IT_number 54
_symmetry_cell_setting 'orthorhombic'
loop_
_space_group_symop_operation_xyz
x,y,z
1/2-x,-y,z
1/2+x,-y,1/2-z
-x,y,1/2-z
-x,-y,-z
1/2+x,y,-z
1/2-x,y,1/2+z
x,-y,1/2+z
loop_
_atom_site_type_symbol
_atom_site_label
_atom_site_fract_x
_atom_site_fract_y
_atom_site_fract_z
Si Si1 0.750000 0.000000 0.366083
Si Si2 0.000000 0.061846 0.250000
Si Si3 0.074738 0.080100 0.875590
Si Si4 0.704892 0.737627 0.171409
Si Si5 0.330245 0.374708 0.069292
Si Si6 0.861362 0.636808 0.799721
Si Si7 0.937509 0.601871 0.544563
O O1 0.813665 0.928681 0.413626
O O2 0.709661 0.798070 0.320419
O O3 0.038391 0.902350 0.306390
O O4 0.063404 0.224049 0.215101
O O5 0.145951 0.899643 0.868567
O O6 0.035736 0.879002 0.924363
O O7 0.079535 0.372778 0.903881
O O8 0.750000 0.500000 0.138451
O O9 0.665205 0.568145 0.227973
O O10 0.750000 0.000000 0.193210
O O11 0.250000 0.500000 0.066491
O O12 0.369050 0.461793 0.135919
O O13 0.371488 0.387501 0.004183
O O14 0.000000 0.500000 0.500000
#
# Coordination Sequence:
#
# PCOD9421832 Si02
#       7
#     4   4   8   8   8   8   8
#     4  10  20  38  68 100 134 182 244 298 358 442
#     4  10  24  46  70 100 152 192 248 314 370 452
#     4  11  27  46  69 106 138 194 240 297 377 440
#     4  11  22  41  68  97 139 180 231 298 361 434
#     4  10  24  41  69 101 138 188 242 307 362 438
#     4  10  21  40  65 103 136 188 246 300 371 431
#     4  12  27  47  72 102 146 192 245 304 371 444
#
# _framework density 24.362348999999998
#
# number of rings (size 3 to 8) (size 9 to 14) (size 15 to 20)
#    0.000    1.333    0.833    4.000    7.000    2.667 
#    3.000    0.000    0.000    0.000    0.000    0.000 
#    0.000    0.000    0.000    0.000    0.000    0.000 
#
# Total GULP energy -267464.251742 kJ/mol
# GULP energy per Si atom -5572.171911 kJ/mol
# Density = 2.430690 g / cm^3
# Si number density = 24.362349 Si / 1000 Ang^3
#
#
#
# Elastic Constant Matrix: (Units=GPa)
#
#
# Indices 1 2 3 4 5 6 
#
# 1 69.1873 9.6643 32.6922 0.0000 0.0000 0.0000
# 2 9.6643 86.3630 28.0679 0.0000 0.0000 0.0000
# 3 32.6922 28.0679 123.1237 0.0000 0.0000 0.0000
# 4 0.0000 0.0000 0.0000 252.3058 0.0000 0.0000
# 5 0.0000 0.0000 0.0000 0.0000 40.8549 0.0000
# 6 0.0000 0.0000 0.0000 0.0000 0.0000 15.0148
#
#
#
# Elastic Compliance Matrix: (Units=1/GPa)
#
#
# Indices 1 2 3 4 5 6 
#
# 1 0.016544 -0.000458 -0.004288 0.000000 0.000000 0.000000
# 2 -0.000458 0.012518 -0.002732 0.000000 0.000000 0.000000
# 3 -0.004288 -0.002732 0.009883 0.000000 0.000000 0.000000
# 4 0.000000 0.000000 0.000000 0.003963 0.000000 0.000000
# 5 0.000000 0.000000 0.000000 0.000000 0.024477 0.000000
# 6 0.000000 0.000000 0.000000 0.000000 0.000000 0.066601
#
#
# Mechanical properties :
#
#
# Convention : Reuss Voigt Hill
#
# Bulk Modulus (GPa) = 41.68580 46.61365 44.14972
# Shear Modulus (GPa) = 31.85943 75.51842 53.68893
#
# Velocity S-wave (km/s) = 3.62018 5.57363 4.69952
# Velocity P-wave (km/s) = 5.88406 7.78431 6.89991
#
# Compressibility (1/GPa) = 0.02398898
#
# Stress axis : x y z
#
# Youngs Moduli (GPa) = 60.44558 79.88367 101.17929
#
# Poissons Ratio (x) = 0.03655 0.43390
# Poissons Ratio (y) = 0.02766 0.27644
# Poissons Ratio (z) = 0.25922 0.21826
#
# Static dielectric constant tensor:
#      x y z
#    x 1.964970 0.000000 0.000000 
#    y 0.000000 2.406880 0.000000 
#    z 0.000000 0.000000 2.070200 
# 
# From -- ./inp_files/22112.got.cif
#   From: 2010.05.17/outbox.cif.g08.bks.cpg/sg54_12_cif.got.tgz:22112.got - 2010.06.03 13:09:01.
