data_PCOD9421981
_publ_section_title
;
Structure prediction by ZEFSAII (Michael W. Deem and Ramdas Pophale) SiO2 
 PCOD9421981
Probable space group: P C C A
;
_chemical_formula_sum "Si O2"
_cell_formula_units_Z 32
_cell_length_a 9.888100
_cell_length_b 6.482407
_cell_length_c 26.173582
_cell_angle_alpha 90.000000
_cell_angle_beta 90.000000
_cell_angle_gamma 90.000000
_cell_volume 1677.692284
_symmetry_space_group_name_H-M "P C C A"
_symmetry_group_IT_number 54
_symmetry_cell_setting 'orthorhombic'
loop_
_space_group_symop_operation_xyz
x,y,z
1/2-x,-y,z
1/2+x,-y,1/2-z
-x,y,1/2-z
-x,-y,-z
1/2+x,y,-z
1/2-x,y,1/2+z
x,-y,1/2+z
loop_
_atom_site_type_symbol
_atom_site_label
_atom_site_fract_x
_atom_site_fract_y
_atom_site_fract_z
Si Si1 0.250000 0.500000 0.473880
Si Si2 0.112982 0.870322 0.032875
Si Si3 0.394090 0.392324 0.794279
Si Si4 0.750000 0.000000 0.675822
Si Si5 0.433968 0.686227 0.886895
O O1 0.340439 0.659574 0.505452
O O2 0.147755 0.616993 0.436687
O O3 0.060546 0.805218 0.089013
O O4 0.250000 0.000000 0.036055
O O5 0.000000 0.000000 0.000000
O O6 0.250000 0.500000 0.784042
O O7 0.500000 0.436949 0.750000
O O8 0.355215 0.150766 0.795922
O O9 0.447642 0.492452 0.847878
O O10 0.660307 0.847618 0.642175
#
# Coordination Sequence:
#
# PCOD9421981 Si02
#       5
#     4   8   8   4   8
#     4  12  22  42  68  92 134 182 216 268 320 394
#     4  12  26  40  66  99 136 175 226 266 320 388
#     4  10  23  44  69  93 127 166 216 268 334 390
#     4  10  20  40  72  90 126 170 216 264 336 394
#     4  11  22  41  67  93 131 175 215 265 331 385
#
# _framework density 19.073819
#
# number of rings (size 3 to 8) (size 9 to 14) (size 15 to 20)
#    0.000    1.000    6.250    2.250    0.000    4.000 
#    6.750    0.000    0.000    0.000    0.000    0.000 
#    0.000    0.000    0.000    0.000    0.000    0.000 
#
# Total GULP energy -178459.694627 kJ/mol
# GULP energy per Si atom -5576.865457 kJ/mol
# Density = 1.903041 g / cm^3
# Si number density = 19.073819 Si / 1000 Ang^3
#
#
#
# Elastic Constant Matrix: (Units=GPa)
#
#
# Indices 1 2 3 4 5 6 
#
# 1 110.0630 28.0835 44.0237 0.0000 0.0000 0.0000
# 2 28.0835 87.1472 18.8796 0.0000 0.0000 0.0000
# 3 44.0237 18.8796 76.0464 0.0000 0.0000 0.0000
# 4 0.0000 0.0000 0.0000 31.0841 0.0000 0.0000
# 5 0.0000 0.0000 0.0000 0.0000 46.0987 0.0000
# 6 0.0000 0.0000 0.0000 0.0000 0.0000 34.0474
#
#
#
# Elastic Compliance Matrix: (Units=1/GPa)
#
#
# Indices 1 2 3 4 5 6 
#
# 1 0.012344 -0.002568 -0.006509 0.000000 0.000000 0.000000
# 2 -0.002568 0.012661 -0.001657 0.000000 0.000000 0.000000
# 3 -0.006509 -0.001657 0.017329 0.000000 0.000000 0.000000
# 4 0.000000 0.000000 0.000000 0.032171 0.000000 0.000000
# 5 0.000000 0.000000 0.000000 0.000000 0.021693 0.000000
# 6 0.000000 0.000000 0.000000 0.000000 0.000000 0.029371
#
#
# Mechanical properties :
#
#
# Convention : Reuss Voigt Hill
#
# Bulk Modulus (GPa) = 47.92035 50.58113 49.25074
# Shear Modulus (GPa) = 32.46931 34.39736 33.43334
#
# Velocity S-wave (km/s) = 4.13037 4.25123 4.19123
# Velocity P-wave (km/s) = 6.92277 7.11853 7.02133
#
# Compressibility (1/GPa) = 0.02086796
#
# Stress axis : x y z
#
# Youngs Moduli (GPa) = 81.00893 78.98093 57.70651
#
# Poissons Ratio (x) = 0.20282 0.37559
# Poissons Ratio (y) = 0.20803 0.09560
# Poissons Ratio (z) = 0.52726 0.13085
#
# Static dielectric constant tensor:
#      x y z
#    x 1.646160 0.000000 0.000000 
#    y 0.000000 1.764070 0.000000 
#    z 0.000000 0.000000 1.643700 
# 
# From -- ./inp_files/20892.got.cif
#   From: 2010.05.17/outbox.cif.g08.bks.cpg/sg54_11_cif.got.tgz:20892.got - 2010.06.03 13:09:01.
