data_PCOD9421291
_publ_section_title
;
Structure prediction by ZEFSAII (Michael W. Deem and Ramdas Pophale) SiO2 
 PCOD9421291
Probable space group: P C C A
;
_chemical_formula_sum "Si O2"
_cell_formula_units_Z 64
_cell_length_a 12.281043
_cell_length_b 14.379330
_cell_length_c 17.692576
_cell_angle_alpha 90.000000
_cell_angle_beta 90.000000
_cell_angle_gamma 90.000000
_cell_volume 3124.388082
_symmetry_space_group_name_H-M "P C C A"
_symmetry_group_IT_number 54
_symmetry_cell_setting 'orthorhombic'
loop_
_space_group_symop_operation_xyz
x,y,z
1/2-x,-y,z
1/2+x,-y,1/2-z
-x,y,1/2-z
-x,-y,-z
1/2+x,y,-z
1/2-x,y,1/2+z
x,-y,1/2+z
loop_
_atom_site_type_symbol
_atom_site_label
_atom_site_fract_x
_atom_site_fract_y
_atom_site_fract_z
Si Si1 0.695011 0.899708 0.137446
Si Si2 0.966481 0.959732 0.918859
Si Si3 0.289628 0.644926 0.095078
Si Si4 0.560486 0.326982 0.169440
Si Si5 0.738433 0.754540 0.752768
Si Si6 0.920887 0.843233 0.365910
Si Si7 0.720847 0.828240 0.479044
Si Si8 0.433367 0.530773 0.573602
O O1 0.570826 0.907049 0.111425
O O2 0.693591 0.829618 0.207565
O O3 0.750000 0.000000 0.155026
O O4 0.761651 0.860732 0.064641
O O5 0.860390 0.897475 0.934391
O O6 0.950483 0.049336 0.866195
O O7 0.000000 0.000000 0.000000
O O8 0.282230 0.697753 0.175645
O O9 0.319763 0.722928 0.033093
O O10 0.171690 0.601169 0.071710
O O11 0.376713 0.563323 0.102607
O O12 0.500000 0.335338 0.250000
O O13 0.685726 0.314722 0.191403
O O14 0.516854 0.232561 0.129251
O O15 0.521708 0.415833 0.123855
O O16 0.641634 0.815552 0.789845
O O17 0.836689 0.831222 0.435365
O O18 0.500000 0.500000 0.500000
#
# Coordination Sequence:
#
# PCOD9421291 Si02
#       8
#     8   8   8   8   8   8   8   8
#     4  12  24  39  64 104 135 179 244 281 323 413
#     4  12  23  38  64  99 134 179 232 288 333 394
#     4  10  24  47  67  98 143 172 211 292 356 394
#     4  10  19  41  71  98 127 175 222 260 342 422
#     4  10  23  42  70  92 137 188 214 273 342 420
#     4  10  20  41  64  91 133 186 221 271 348 395
#     4  11  22  41  66  92 140 183 224 287 349 387
#     4  11  23  42  76 102 128 169 231 284 338 416
#
# _framework density 20.484010999999999
#
# number of rings (size 3 to 8) (size 9 to 14) (size 15 to 20)
#    0.000    1.250    6.250    1.125    1.750    3.000 
#    0.000    7.500    0.000    0.000    0.000    0.000 
#    0.000    0.000    0.000    0.000    0.000    0.000 
#
# Total GULP energy -357214.100128 kJ/mol
# GULP energy per Si atom -5581.470315 kJ/mol
# Density = 2.043739 g / cm^3
# Si number density = 20.484011 Si / 1000 Ang^3
#
#
#
# Elastic Constant Matrix: (Units=GPa)
#
#
# Indices 1 2 3 4 5 6 
#
# 1 48.7702 38.0649 44.8748 0.0000 0.0000 0.0000
# 2 38.0649 149.0057 66.7257 0.0000 0.0000 0.0000
# 3 44.8748 66.7257 87.8569 0.0000 0.0000 0.0000
# 4 0.0000 0.0000 0.0000 42.0448 0.0000 0.0000
# 5 0.0000 0.0000 0.0000 0.0000 24.7152 0.0000
# 6 0.0000 0.0000 0.0000 0.0000 0.0000 19.9651
#
#
#
# Elastic Compliance Matrix: (Units=1/GPa)
#
#
# Indices 1 2 3 4 5 6 
#
# 1 0.038929 -0.001577 -0.018686 0.000000 0.000000 0.000000
# 2 -0.001577 0.010234 -0.006967 0.000000 0.000000 0.000000
# 3 -0.018686 -0.006967 0.026218 0.000000 0.000000 0.000000
# 4 0.000000 0.000000 0.000000 0.023784 0.000000 0.000000
# 5 0.000000 0.000000 0.000000 0.000000 0.040461 0.000000
# 6 0.000000 0.000000 0.000000 0.000000 0.000000 0.050087
#
#
# Mechanical properties :
#
#
# Convention : Reuss Voigt Hill
#
# Bulk Modulus (GPa) = 47.80026 64.99597 56.39811
# Shear Modulus (GPa) = 19.90874 26.40950 23.15912
#
# Velocity S-wave (km/s) = 3.12094 3.59454 3.36608
# Velocity P-wave (km/s) = 6.03101 7.00190 6.53451
#
# Compressibility (1/GPa) = 0.02092039
#
# Stress axis : x y z
#
# Youngs Moduli (GPa) = 25.68802 97.71484 38.14224
#
# Poissons Ratio (x) = 0.15410 0.71272
# Poissons Ratio (y) = 0.04051 0.26573
# Poissons Ratio (z) = 0.48000 0.68077
#
# Static dielectric constant tensor:
#      x y z
#    x 1.729170 0.000000 0.000000 
#    y 0.000000 1.756770 0.000000 
#    z 0.000000 0.000000 1.753190 
# 
# From -- ./inp_files/17451.got.cif
#   From: 2010.05.17/outbox.cif.g08.bks.cpg/sg54_9_cif.got.tgz:17451.got - 2010.06.03 13:09:01.
