data_PCOD9421965
_publ_section_title
;
Structure prediction by ZEFSAII (Michael W. Deem and Ramdas Pophale) SiO2 
 PCOD9421965
Probable space group: P C C A
;
_chemical_formula_sum "Si O2"
_cell_formula_units_Z 32
_cell_length_a 9.017217
_cell_length_b 8.983115
_cell_length_c 15.957080
_cell_angle_alpha 90.000000
_cell_angle_beta 90.000000
_cell_angle_gamma 90.000000
_cell_volume 1292.566521
_symmetry_space_group_name_H-M "P C C A"
_symmetry_group_IT_number 54
_symmetry_cell_setting 'orthorhombic'
loop_
_space_group_symop_operation_xyz
x,y,z
1/2-x,-y,z
1/2+x,-y,1/2-z
-x,y,1/2-z
-x,-y,-z
1/2+x,y,-z
1/2-x,y,1/2+z
x,-y,1/2+z
loop_
_atom_site_type_symbol
_atom_site_label
_atom_site_fract_x
_atom_site_fract_y
_atom_site_fract_z
Si Si1 0.068025 0.831360 0.014255
Si Si2 0.395931 0.736475 0.826582
Si Si3 0.863702 0.242897 0.382103
Si Si4 0.750000 0.000000 0.755187
Si Si5 0.750000 0.500000 0.764831
O O1 0.977561 0.745256 0.086770
O O2 0.235856 0.803803 0.047714
O O3 0.021635 0.758958 0.926982
O O4 0.000000 0.000000 0.000000
O O5 0.500000 0.678365 0.750000
O O6 0.354354 0.903084 0.802789
O O7 0.263426 0.630087 0.805963
O O8 0.839885 0.111518 0.314886
O O9 0.837874 0.397761 0.334089
#
# Coordination Sequence:
#
# PCOD9421965 Si02
#       5
#     8   8   8   4   4
#     4  12  23  43  72 102 137 182 237 303 357 415
#     4  11  22  44  70  95 142 185 236 294 356 426
#     4  11  23  44  67  99 144 177 231 292 354 429
#     4  10  20  40  68  98 134 178 234 300 344 414
#     4  10  24  46  64  96 142 190 226 284 352 426
#
# _framework density 24.756947
#
# number of rings (size 3 to 8) (size 9 to 14) (size 15 to 20)
#    0.000    1.000    7.500    0.000    3.500    2.000 
#    4.500    2.500    0.000    0.000    0.000    0.000 
#    0.000    0.000    0.000    0.000    0.000    0.000 
#
# Total GULP energy -178194.948053 kJ/mol
# GULP energy per Si atom -5568.592127 kJ/mol
# Density = 2.470060 g / cm^3
# Si number density = 24.756947 Si / 1000 Ang^3
#
#
#
# Elastic Constant Matrix: (Units=GPa)
#
#
# Indices 1 2 3 4 5 6 
#
# 1 39.6852 14.3225 27.0213 0.0000 0.0000 0.0000
# 2 14.3225 110.1251 28.0268 0.0000 0.0000 0.0000
# 3 27.0213 28.0268 42.1217 0.0000 0.0000 0.0000
# 4 0.0000 0.0000 0.0000 26.8696 0.0000 0.0000
# 5 0.0000 0.0000 0.0000 0.0000 39.7905 0.0000
# 6 0.0000 0.0000 0.0000 0.0000 0.0000 1965.0597
#
#
#
# Elastic Compliance Matrix: (Units=1/GPa)
#
#
# Indices 1 2 3 4 5 6 
#
# 1 0.045036 0.001800 -0.030089 0.000000 0.000000 0.000000
# 2 0.001800 0.011004 -0.008477 0.000000 0.000000 0.000000
# 3 -0.030089 -0.008477 0.048683 0.000000 0.000000 0.000000
# 4 0.000000 0.000000 0.000000 0.037217 0.000000 0.000000
# 5 0.000000 0.000000 0.000000 0.000000 0.025132 0.000000
# 6 0.000000 0.000000 0.000000 0.000000 0.000000 0.000509
#
#
# Mechanical properties :
#
#
# Convention : Reuss Voigt Hill
#
# Bulk Modulus (GPa) = 32.05882 36.74148 34.40015
# Shear Modulus (GPa) = 19.88017 414.51470 217.19744
#
# Velocity S-wave (km/s) = 2.83682 12.95365 9.37669
# Velocity P-wave (km/s) = 4.86905 15.44677 11.45230
#
# Compressibility (1/GPa) = 0.03119266
#
# Stress axis : x y z
#
# Youngs Moduli (GPa) = 22.20461 90.87833 20.54108
#
# Poissons Ratio (x) = -0.16362 0.61805
# Poissons Ratio (y) = -0.03998 0.17412
# Poissons Ratio (z) = 0.66811 0.77034
#
# Static dielectric constant tensor:
#      x y z
#    x 1.397590 0.000000 0.000000 
#    y 0.000000 2.128620 0.000000 
#    z 0.000000 0.000000 1.888070 
# 
# From -- ./inp_files/12254.got.cif
#   From: 2010.05.17/outbox.cif.g08.bks.cpg/sg54_7_cif.got.tgz:12254.got - 2010.06.03 13:09:01.
