data_PCOD9421142
_publ_section_title
;
Structure prediction by ZEFSAII (Michael W. Deem and Ramdas Pophale) SiO2 
 PCOD9421142
Probable space group: P C C A
;
_chemical_formula_sum "Si O2"
_cell_formula_units_Z 40
_cell_length_a 8.533707
_cell_length_b 12.956274
_cell_length_c 14.062602
_cell_angle_alpha 90.000000
_cell_angle_beta 90.000000
_cell_angle_gamma 90.000000
_cell_volume 1554.832239
_symmetry_space_group_name_H-M "P C C A"
_symmetry_group_IT_number 54
_symmetry_cell_setting 'orthorhombic'
loop_
_space_group_symop_operation_xyz
x,y,z
1/2-x,-y,z
1/2+x,-y,1/2-z
-x,y,1/2-z
-x,-y,-z
1/2+x,y,-z
1/2-x,y,1/2+z
x,-y,1/2+z
loop_
_atom_site_type_symbol
_atom_site_label
_atom_site_fract_x
_atom_site_fract_y
_atom_site_fract_z
Si Si1 0.681409 0.888006 0.867738
Si Si2 0.836926 0.825074 0.147011
Si Si3 0.348244 0.593655 0.898643
Si Si4 0.996549 0.218012 0.360643
Si Si5 0.381659 0.560472 0.106318
O O1 0.500710 0.865566 0.898606
O O2 0.671807 0.873720 0.752353
O O3 0.827112 0.816092 0.899563
O O4 0.750000 0.000000 0.890233
O O5 0.854496 0.701005 0.154773
O O6 0.660627 0.830719 0.101327
O O7 0.250000 0.500000 0.858254
O O8 0.513114 0.539451 0.909412
O O9 0.302788 0.605558 0.009687
O O10 0.987063 0.342868 0.361583
O O11 0.000000 0.186521 0.250000
O O12 0.250000 0.500000 0.165713
#
# Coordination Sequence:
#
# PCOD9421142 Si02
#       5
#     8   8   8   8   8
#     4  10  23  39  60  87 118 153 202 259 314 358
#     4  10  21  37  60  88 116 155 202 249 299 364
#     4  10  19  36  57  86 119 162 199 231 292 369
#     4  10  21  38  57  92 118 154 202 248 302 363
#     4  10  20  35  59  84 122 163 194 237 293 363
#
# _framework density 25.726247999999998
#
# number of rings (size 3 to 8) (size 9 to 14) (size 15 to 20)
#    0.000    2.000    2.000    1.200    8.400    0.000 
#   10.800    0.000    0.000    2.400    0.000    0.000 
#    0.000    0.000    0.000    0.000    0.000    0.000 
#
# Total GULP energy -222687.952474 kJ/mol
# GULP energy per Si atom -5567.198812 kJ/mol
# Density = 2.566769 g / cm^3
# Si number density = 25.726248 Si / 1000 Ang^3
#
#
#
# Elastic Constant Matrix: (Units=GPa)
#
#
# Indices 1 2 3 4 5 6 
#
# 1 249.0699 51.5891 20.5593 0.0000 0.0000 0.0000
# 2 51.5891 126.2644 -10.6115 0.0000 0.0000 0.0000
# 3 20.5593 -10.6115 65.3837 0.0000 0.0000 0.0000
# 4 0.0000 0.0000 0.0000 50.2271 0.0000 0.0000
# 5 0.0000 0.0000 0.0000 0.0000 15.3290 0.0000
# 6 0.0000 0.0000 0.0000 0.0000 0.0000 51.6671
#
#
#
# Elastic Compliance Matrix: (Units=1/GPa)
#
#
# Indices 1 2 3 4 5 6 
#
# 1 0.004579 -0.002019 -0.001768 0.000000 0.000000 0.000000
# 2 -0.002019 0.008920 0.002083 0.000000 0.000000 0.000000
# 3 -0.001768 0.002083 0.016188 0.000000 0.000000 0.000000
# 4 0.000000 0.000000 0.000000 0.019910 0.000000 0.000000
# 5 0.000000 0.000000 0.000000 0.000000 0.065236 0.000000
# 6 0.000000 0.000000 0.000000 0.000000 0.000000 0.019355
#
#
# Mechanical properties :
#
#
# Convention : Reuss Voigt Hill
#
# Bulk Modulus (GPa) = 38.05390 62.64353 50.34872
# Shear Modulus (GPa) = 34.16337 48.72338 41.44337
#
# Velocity S-wave (km/s) = 3.64807 4.35664 4.01800
# Velocity P-wave (km/s) = 5.70688 7.05053 6.41399
#
# Compressibility (1/GPa) = 0.02627851
#
# Stress axis : x y z
#
# Youngs Moduli (GPa) = 218.38178 112.10699 61.77351
#
# Poissons Ratio (x) = 0.22640 0.10919
# Poissons Ratio (y) = 0.44102 -0.12866
# Poissons Ratio (z) = 0.38602 -0.23349
#
# Static dielectric constant tensor:
#      x y z
#    x 2.713530 0.000000 0.000000 
#    y 0.000000 2.000250 0.000000 
#    z 0.000000 0.000000 2.111070 
# 
# From -- ./inp_files/16326.got.cif
#   From: 2010.05.17/outbox.cif.g08.bks.cpg/sg54_9_cif.got.tgz:16326.got - 2010.06.03 13:09:01.
