data_PCOD9421558
_publ_section_title
;
Structure prediction by ZEFSAII (Michael W. Deem and Ramdas Pophale) SiO2 
 PCOD9421558
Probable space group: P C C A
;
_chemical_formula_sum "Si O2"
_cell_formula_units_Z 60
_cell_length_a 14.271725
_cell_length_b 22.432115
_cell_length_c 8.785833
_cell_angle_alpha 90.000000
_cell_angle_beta 90.000000
_cell_angle_gamma 90.000000
_cell_volume 2812.740299
_symmetry_space_group_name_H-M "P C C A"
_symmetry_group_IT_number 54
_symmetry_cell_setting 'orthorhombic'
loop_
_space_group_symop_operation_xyz
x,y,z
1/2-x,-y,z
1/2+x,-y,1/2-z
-x,y,1/2-z
-x,-y,-z
1/2+x,y,-z
1/2-x,y,1/2+z
x,-y,1/2+z
loop_
_atom_site_type_symbol
_atom_site_label
_atom_site_fract_x
_atom_site_fract_y
_atom_site_fract_z
Si Si1 0.532635 0.561432 0.925702
Si Si2 0.866430 0.632310 0.996789
Si Si3 0.499530 0.869382 0.924731
Si Si4 0.250000 0.000000 0.847800
Si Si5 0.300597 0.179629 0.078301
Si Si6 0.341231 0.923007 0.107454
Si Si7 0.725318 0.569573 0.789289
Si Si8 0.648855 0.235759 0.124206
O O1 0.500000 0.560472 0.750000
O O2 0.474282 0.612294 0.009630
O O3 0.643241 0.570602 0.917191
O O4 0.500000 0.500000 0.000000
O O5 0.817851 0.595752 0.135058
O O6 0.863824 0.700565 0.047841
O O7 0.810466 0.610245 0.848723
O O8 0.500000 0.894022 0.750000
O O9 0.606352 0.856185 0.966230
O O10 0.437131 0.808803 0.912402
O O11 0.444875 0.906565 0.052370
O O12 0.171723 0.971128 0.739182
O O13 0.293737 0.950217 0.955875
O O14 0.224576 0.133519 0.149106
O O15 0.335911 0.230368 0.195349
O O16 0.244035 0.209187 0.943742
O O17 0.750000 0.500000 0.769060
#
# Coordination Sequence:
#
# PCOD9421558 Si02
#       8
#     8   8   8   4   8   8   8   8
#     4  10  22  37  56  79 110 147 185 227 281 348
#     4  11  23  37  58  86 112 145 193 239 293 348
#     4   9  19  36  61  81 113 153 198 232 294 354
#     4  10  20  36  60  86 130 150 202 244 282 334
#     4  10  20  39  62  81 115 153 196 236 300 349
#     4  10  20  38  58  88 117 164 190 243 289 343
#     4  11  22  37  58  78 111 149 186 229 285 356
#     4  10  21  37  59  86 112 145 192 248 290 347
#
# _framework density 21.331512
#
# number of rings (size 3 to 8) (size 9 to 14) (size 15 to 20)
#    0.000    1.867    1.333    3.600    1.867    5.867 
#    0.000   13.333    0.000    4.800    0.000    0.000 
#    0.000    0.000    0.000    0.000    0.000    0.000 
#
# Total GULP energy -335138.241406 kJ/mol
# GULP energy per Si atom -5585.637357 kJ/mol
# Density = 2.128296 g / cm^3
# Si number density = 21.331512 Si / 1000 Ang^3
#
#
#
# Elastic Constant Matrix: (Units=GPa)
#
#
# Indices 1 2 3 4 5 6 
#
# 1 56.3015 -16.7841 -5.4630 0.0000 0.0000 0.0000
# 2 -16.7841 46.4197 11.8019 0.0000 0.0000 0.0000
# 3 -5.4630 11.8019 30.2024 0.0000 0.0000 0.0000
# 4 0.0000 0.0000 0.0000 16.8206 0.0000 0.0000
# 5 0.0000 0.0000 0.0000 0.0000 23.8469 0.0000
# 6 0.0000 0.0000 0.0000 0.0000 0.0000 23.9587
#
#
#
# Elastic Compliance Matrix: (Units=1/GPa)
#
#
# Indices 1 2 3 4 5 6 
#
# 1 0.019928 0.006983 0.000876 0.000000 0.000000 0.000000
# 2 0.006983 0.026366 -0.009040 0.000000 0.000000 0.000000
# 3 0.000876 -0.009040 0.036801 0.000000 0.000000 0.000000
# 4 0.000000 0.000000 0.000000 0.059451 0.000000 0.000000
# 5 0.000000 0.000000 0.000000 0.000000 0.041934 0.000000
# 6 0.000000 0.000000 0.000000 0.000000 0.000000 0.041738
#
#
# Mechanical properties :
#
#
# Convention : Reuss Voigt Hill
#
# Bulk Modulus (GPa) = 12.38655 12.44815 12.41735
# Shear Modulus (GPa) = 19.57018 22.48316 21.02667
#
# Velocity S-wave (km/s) = 3.03220 3.25004 3.14301
# Velocity P-wave (km/s) = 4.25185 4.46452 4.35948
#
# Compressibility (1/GPa) = 0.08073273
#
# Stress axis : x y z
#
# Youngs Moduli (GPa) = 50.18029 37.92815 27.17339
#
# Poissons Ratio (x) = -0.26484 -0.02380
# Poissons Ratio (y) = -0.35040 0.24564
# Poissons Ratio (z) = -0.04396 0.34286
#
# Static dielectric constant tensor:
#      x y z
#    x 1.768450 0.000000 0.000000 
#    y 0.000000 1.778800 0.000000 
#    z 0.000000 0.000000 1.767920 
# 
# From -- ./inp_files/3730.got.cif
#   From: 2010.05.17/outbox.cif.g08.bks.cpg/sg54_2_cif.got.tgz:3730.got - 2010.06.03 13:09:01.
