data_PCOD9421349
_publ_section_title
;
Structure prediction by ZEFSAII (Michael W. Deem and Ramdas Pophale) SiO2 
 PCOD9421349
Probable space group: P C C A
;
_chemical_formula_sum "Si O2"
_cell_formula_units_Z 36
_cell_length_a 5.386528
_cell_length_b 16.161681
_cell_length_c 21.656911
_cell_angle_alpha 90.000000
_cell_angle_beta 90.000000
_cell_angle_gamma 90.000000
_cell_volume 1885.349907
_symmetry_space_group_name_H-M "P C C A"
_symmetry_group_IT_number 54
_symmetry_cell_setting 'orthorhombic'
loop_
_space_group_symop_operation_xyz
x,y,z
1/2-x,-y,z
1/2+x,-y,1/2-z
-x,y,1/2-z
-x,-y,-z
1/2+x,y,-z
1/2-x,y,1/2+z
x,-y,1/2+z
loop_
_atom_site_type_symbol
_atom_site_label
_atom_site_fract_x
_atom_site_fract_y
_atom_site_fract_z
Si Si1 0.500000 0.444578 0.750000
Si Si2 0.750000 0.000000 0.040489
Si Si3 0.321640 0.184126 0.927203
Si Si4 0.250000 0.500000 0.459579
Si Si5 0.823157 0.748731 0.430448
Si Si6 0.597108 0.586816 0.383532
O O1 0.750000 0.500000 0.738024
O O2 0.440881 0.393427 0.688226
O O3 0.759466 0.087428 0.074840
O O4 0.500000 0.000000 0.000000
O O5 0.591785 0.202761 0.900792
O O6 0.087990 0.233062 0.900694
O O7 0.343614 0.217263 0.998892
O O8 0.500000 0.500000 0.500000
O O9 0.325672 0.574243 0.413976
O O10 0.744609 0.653742 0.423618
O O11 0.750000 0.500000 0.383362
#
# Coordination Sequence:
#
# PCOD9421349 Si02
#       6
#     4   4   8   4   8   8
#     4  10  22  42  62  76  98 144 218 250 280 320
#     4  12  16  32  52  72 104 154 184 200 270 330
#     4  10  20  33  48  76 109 147 171 223 259 355
#     4  12  26  36  52  82 108 146 184 228 290 352
#     4  10  21  31  48  73 106 136 180 218 281 312
#     4  11  25  41  58  79 110 157 197 247 282 338
#
# _framework density 19.094597
#
# number of rings (size 3 to 8) (size 9 to 14) (size 15 to 20)
#    0.000    1.333    6.667    0.000    9.333    0.000 
#    0.000    0.000    0.000    0.000    0.000    0.000 
#    0.000    5.333    0.000    0.000    0.000    0.000 
#
# Total GULP energy -200532.708384 kJ/mol
# GULP energy per Si atom -5570.353011 kJ/mol
# Density = 1.905114 g / cm^3
# Si number density = 19.094597 Si / 1000 Ang^3
#
#
#
# Elastic Constant Matrix: (Units=GPa)
#
#
# Indices 1 2 3 4 5 6 
#
# 1 124.5637 -4.4356 1.9736 0.0000 0.0000 0.0000
# 2 -4.4356 91.6502 6.4135 0.0000 0.0000 0.0000
# 3 1.9736 6.4135 62.0238 0.0000 0.0000 0.0000
# 4 0.0000 0.0000 0.0000 4.6863 0.0000 0.0000
# 5 0.0000 0.0000 0.0000 0.0000 13.2519 0.0000
# 6 0.0000 0.0000 0.0000 0.0000 0.0000 36.5464
#
#
#
# Elastic Compliance Matrix: (Units=1/GPa)
#
#
# Indices 1 2 3 4 5 6 
#
# 1 0.008047 0.000410 -0.000299 0.000000 0.000000 0.000000
# 2 0.000410 0.011012 -0.001152 0.000000 0.000000 0.000000
# 3 -0.000299 -0.001152 0.016251 0.000000 0.000000 0.000000
# 4 0.000000 0.000000 0.000000 0.213389 0.000000 0.000000
# 5 0.000000 0.000000 0.000000 0.000000 0.075461 0.000000
# 6 0.000000 0.000000 0.000000 0.000000 0.000000 0.027363
#
#
# Mechanical properties :
#
#
# Convention : Reuss Voigt Hill
#
# Bulk Modulus (GPa) = 30.09271 31.79340 30.94306
# Shear Modulus (GPa) = 13.71067 29.18265 21.44666
#
# Velocity S-wave (km/s) = 2.68253 3.91361 3.35502
# Velocity P-wave (km/s) = 5.03872 6.09167 5.59004
#
# Compressibility (1/GPa) = 0.03323063
#
# Stress axis : x y z
#
# Youngs Moduli (GPa) = 124.26426 90.81406 61.53302
#
# Poissons Ratio (x) = -0.03727 0.01837
# Poissons Ratio (y) = -0.05099 0.07087
# Poissons Ratio (z) = 0.03709 0.10459
#
# Static dielectric constant tensor:
#      x y z
#    x 1.771350 0.000000 0.000000 
#    y 0.000000 1.764960 0.000000 
#    z 0.000000 0.000000 1.736930 
# 
# From -- ./inp_files/22808.got.cif
#   From: 2010.05.17/outbox.cif.g08.bks.cpg/sg54_12_cif.got.tgz:22808.got - 2010.06.03 13:09:01.
