data_PCOD9421228
_publ_section_title
;
Structure prediction by ZEFSAII (Michael W. Deem and Ramdas Pophale) SiO2 
 PCOD9421228
Probable space group: P C C A
;
_chemical_formula_sum "Si O2"
_cell_formula_units_Z 60
_cell_length_a 8.666335
_cell_length_b 12.874730
_cell_length_c 28.085034
_cell_angle_alpha 90.000000
_cell_angle_beta 90.000000
_cell_angle_gamma 90.000000
_cell_volume 3133.636065
_symmetry_space_group_name_H-M "P C C A"
_symmetry_group_IT_number 54
_symmetry_cell_setting 'orthorhombic'
loop_
_space_group_symop_operation_xyz
x,y,z
1/2-x,-y,z
1/2+x,-y,1/2-z
-x,y,1/2-z
-x,-y,-z
1/2+x,y,-z
1/2-x,y,1/2+z
x,-y,1/2+z
loop_
_atom_site_type_symbol
_atom_site_label
_atom_site_fract_x
_atom_site_fract_y
_atom_site_fract_z
Si Si1 0.999942 0.971079 0.320182
Si Si2 0.750000 0.000000 0.247709
Si Si3 0.937032 0.230225 0.858232
Si Si4 0.085517 0.558068 0.199235
Si Si5 0.424293 0.353679 0.050686
Si Si6 0.927408 0.467000 0.106505
Si Si7 0.935589 0.295434 0.449500
Si Si8 0.840073 0.903591 0.903102
O O1 0.858204 0.939646 0.284822
O O2 0.051835 0.857894 0.338255
O O3 0.945099 0.040673 0.363752
O O4 0.120554 0.036862 0.289304
O O5 0.902406 0.324476 0.822037
O O6 0.993415 0.281748 0.907278
O O7 0.783387 0.167650 0.874408
O O8 0.250000 0.500000 0.203090
O O9 0.000000 0.559017 0.250000
O O10 0.989276 0.496795 0.158607
O O11 0.475699 0.467342 0.067382
O O12 0.239920 0.338898 0.051620
O O13 0.488784 0.322435 0.999766
O O14 0.750000 0.500000 0.102290
O O15 0.965012 0.349590 0.092105
O O16 0.923700 0.173075 0.439060
O O17 0.750000 0.000000 0.926913
#
# Coordination Sequence:
#
# PCOD9421228 Si02
#       8
#     8   4   8   8   8   8   8   8
#     4  10  19  38  54  87 109 148 188 243 282 336
#     4  10  20  32  62  78 114 136 200 238 278 336
#     4   9  19  37  60  77 114 154 187 234 292 339
#     4  11  23  39  58  85 120 158 195 237 295 355
#     4  10  21  37  59  87 114 151 195 239 290 355
#     4  11  22  40  61  86 117 151 195 252 289 347
#     4  11  21  38  62  86 115 155 193 240 300 354
#     4   9  18  37  60  82 119 151 189 241 296 346
#
# _framework density 19.147086000000002
#
# number of rings (size 3 to 8) (size 9 to 14) (size 15 to 20)
#    0.000    1.867    2.000    4.400    1.867    0.000 
#    7.200    8.667    0.000    0.000    0.000    0.000 
#    0.000    0.000    0.000    0.000    0.000    0.000 
#
# Total GULP energy -334110.996072 kJ/mol
# GULP energy per Si atom -5568.516601 kJ/mol
# Density = 1.910351 g / cm^3
# Si number density = 19.147086 Si / 1000 Ang^3
#
#
#
# Elastic Constant Matrix: (Units=GPa)
#
#
# Indices 1 2 3 4 5 6 
#
# 1 75.3411 27.2055 25.1842 0.0000 0.0000 0.0000
# 2 27.2055 101.2011 46.9927 0.0000 0.0000 0.0000
# 3 25.1842 46.9927 105.8773 0.0000 0.0000 0.0000
# 4 0.0000 0.0000 0.0000 5.0223 0.0000 0.0000
# 5 0.0000 0.0000 0.0000 0.0000 22.6923 0.0000
# 6 0.0000 0.0000 0.0000 0.0000 0.0000 15.2995
#
#
#
# Elastic Compliance Matrix: (Units=1/GPa)
#
#
# Indices 1 2 3 4 5 6 
#
# 1 0.015116 -0.003016 -0.002257 0.000000 0.000000 0.000000
# 2 -0.003016 0.013048 -0.005074 0.000000 0.000000 0.000000
# 3 -0.002257 -0.005074 0.012234 0.000000 0.000000 0.000000
# 4 0.000000 0.000000 0.000000 0.199113 0.000000 0.000000
# 5 0.000000 0.000000 0.000000 0.000000 0.044068 0.000000
# 6 0.000000 0.000000 0.000000 0.000000 0.000000 0.065362
#
#
# Mechanical properties :
#
#
# Convention : Reuss Voigt Hill
#
# Bulk Modulus (GPa) = 50.74897 53.46494 52.10695
# Shear Modulus (GPa) = 13.29072 20.80529 17.04800
#
# Velocity S-wave (km/s) = 2.63751 3.29994 2.98714
# Velocity P-wave (km/s) = 5.98645 6.51946 6.25863
#
# Compressibility (1/GPa) = 0.01970483
#
# Stress axis : x y z
#
# Youngs Moduli (GPa) = 66.15338 76.63966 81.74050
#
# Poissons Ratio (x) = 0.23111 0.18450
# Poissons Ratio (y) = 0.19949 0.41475
# Poissons Ratio (z) = 0.14932 0.38887
#
# Static dielectric constant tensor:
#      x y z
#    x 1.698570 0.000000 0.000000 
#    y 0.000000 1.709890 0.000000 
#    z 0.000000 0.000000 1.662790 
# 
# From -- ./inp_files/27917.got.cif
#   From: 2010.05.17/outbox.cif.g08.bks.cpg/sg54_14_cif.got.tgz:27917.got - 2010.06.03 13:09:01.
