data_PCOD9421193
_publ_section_title
;
Structure prediction by ZEFSAII (Michael W. Deem and Ramdas Pophale) SiO2 
 PCOD9421193
Probable space group: P C C A
;
_chemical_formula_sum "Si O2"
_cell_formula_units_Z 56
_cell_length_a 22.321911
_cell_length_b 7.924292
_cell_length_c 14.428618
_cell_angle_alpha 90.000000
_cell_angle_beta 90.000000
_cell_angle_gamma 90.000000
_cell_volume 2552.211012
_symmetry_space_group_name_H-M "P C C A"
_symmetry_group_IT_number 54
_symmetry_cell_setting 'orthorhombic'
loop_
_space_group_symop_operation_xyz
x,y,z
1/2-x,-y,z
1/2+x,-y,1/2-z
-x,y,1/2-z
-x,-y,-z
1/2+x,y,-z
1/2-x,y,1/2+z
x,-y,1/2+z
loop_
_atom_site_type_symbol
_atom_site_label
_atom_site_fract_x
_atom_site_fract_y
_atom_site_fract_z
Si Si1 0.664584 0.340723 0.380550
Si Si2 0.918095 0.106304 0.988281
Si Si3 0.056184 0.452736 0.195362
Si Si4 0.870606 0.235175 0.169571
Si Si5 0.758579 0.702134 0.208274
Si Si6 0.341498 0.573622 0.945888
Si Si7 0.960109 0.261076 0.487317
O O1 0.638719 0.187348 0.439937
O O2 0.610457 0.420391 0.320805
O O3 0.709277 0.263246 0.305427
O O4 0.679859 0.493425 0.454521
O O5 0.936882 0.922653 0.955866
O O6 0.902923 0.110180 0.098110
O O7 0.975171 0.226918 0.969476
O O8 0.085036 0.293190 0.249578
O O9 0.031842 0.385148 0.098366
O O10 0.000000 0.524996 0.250000
O O11 0.803028 0.193110 0.201190
O O12 0.856539 0.407694 0.113330
O O13 0.750000 0.500000 0.220611
O O14 0.796304 0.695141 0.111367
O O15 0.404991 0.664883 0.955992
#
# Coordination Sequence:
#
# PCOD9421193 Si02
#       7
#     8   8   8   8   8   8   8
#     4  10  21  34  62  88 118 148 201 248 293 358
#     4  10  22  40  58  86 118 163 192 243 296 367
#     4  11  20  35  60  90 117 151 191 252 299 349
#     4  10  20  38  61  85 117 151 198 246 299 351
#     4  10  19  37  58  90 117 151 196 246 302 342
#     4   9  20  36  61  89 112 153 193 248 291 355
#     4  10  22  40  59  83 125 157 198 234 306 363
#
# _framework density 21.941759999999999
#
# number of rings (size 3 to 8) (size 9 to 14) (size 15 to 20)
#    0.000    2.000    4.286    0.000    2.000    4.571 
#    2.571    1.429    0.000    0.000    0.000    0.000 
#    0.000    0.000    0.000    0.000    0.000    0.000 
#
# Total GULP energy -312364.866070 kJ/mol
# GULP energy per Si atom -5577.944037 kJ/mol
# Density = 2.189182 g / cm^3
# Si number density = 21.941760 Si / 1000 Ang^3
#
#
#
# Elastic Constant Matrix: (Units=GPa)
#
#
# Indices 1 2 3 4 5 6 
#
# 1 88.4063 -1.2300 25.8559 0.0000 0.0000 0.0000
# 2 -1.2300 28.9572 -0.6521 0.0000 0.0000 0.0000
# 3 25.8559 -0.6521 62.1330 0.0000 0.0000 0.0000
# 4 0.0000 0.0000 0.0000 8.9110 0.0000 0.0000
# 5 0.0000 0.0000 0.0000 0.0000 36.9674 0.0000
# 6 0.0000 0.0000 0.0000 0.0000 0.0000 15.1378
#
#
#
# Elastic Compliance Matrix: (Units=1/GPa)
#
#
# Indices 1 2 3 4 5 6 
#
# 1 0.012884 0.000427 -0.005357 0.000000 0.000000 0.000000
# 2 0.000427 0.034556 0.000185 0.000000 0.000000 0.000000
# 3 -0.005357 0.000185 0.018326 0.000000 0.000000 0.000000
# 4 0.000000 0.000000 0.000000 0.112220 0.000000 0.000000
# 5 0.000000 0.000000 0.000000 0.000000 0.027051 0.000000
# 6 0.000000 0.000000 0.000000 0.000000 0.000000 0.066060
#
#
# Mechanical properties :
#
#
# Convention : Reuss Voigt Hill
#
# Bulk Modulus (GPa) = 17.76980 25.27157 21.52068
# Shear Modulus (GPa) = 16.70308 22.57142 19.63725
#
# Velocity S-wave (km/s) = 2.76206 3.21081 2.99485
# Velocity P-wave (km/s) = 4.27647 5.02875 4.66779
#
# Compressibility (1/GPa) = 0.05627526
#
# Stress axis : x y z
#
# Youngs Moduli (GPa) = 77.61492 28.93850 54.56803
#
# Poissons Ratio (x) = -0.01235 0.29233
# Poissons Ratio (y) = -0.03311 -0.01010
# Poissons Ratio (z) = 0.41579 -0.00536
#
# Static dielectric constant tensor:
#      x y z
#    x 1.867720 0.000000 0.000000 
#    y 0.000000 1.778350 0.000000 
#    z 0.000000 0.000000 1.885890 
# 
# From -- ./inp_files/14693.got.cif
#   From: 2010.05.17/outbox.cif.g08.bks.cpg/sg54_8_cif.got.tgz:14693.got - 2010.06.03 13:09:01.
