data_PCOD9421439
_publ_section_title
;
Structure prediction by ZEFSAII (Michael W. Deem and Ramdas Pophale) SiO2 
 PCOD9421439
Probable space group: P C C A
;
_chemical_formula_sum "Si O2"
_cell_formula_units_Z 32
_cell_length_a 12.833856
_cell_length_b 8.151631
_cell_length_c 14.461350
_cell_angle_alpha 90.000000
_cell_angle_beta 90.000000
_cell_angle_gamma 90.000000
_cell_volume 1512.901005
_symmetry_space_group_name_H-M "P C C A"
_symmetry_group_IT_number 54
_symmetry_cell_setting 'orthorhombic'
loop_
_space_group_symop_operation_xyz
x,y,z
1/2-x,-y,z
1/2+x,-y,1/2-z
-x,y,1/2-z
-x,-y,-z
1/2+x,y,-z
1/2-x,y,1/2+z
x,-y,1/2+z
loop_
_atom_site_type_symbol
_atom_site_label
_atom_site_fract_x
_atom_site_fract_y
_atom_site_fract_z
Si Si1 0.357027 0.047278 0.084519
Si Si2 0.336143 0.637987 0.699118
Si Si3 0.994346 0.760121 0.945328
Si Si4 0.565263 0.562350 0.616489
O O1 0.321989 0.176376 0.163152
O O2 0.250000 0.000000 0.035750
O O3 0.421899 0.884317 0.111779
O O4 0.431321 0.137791 0.012559
O O5 0.250000 0.500000 0.674071
O O6 0.447743 0.592399 0.653834
O O7 0.355115 0.631197 0.808900
O O8 0.066889 0.633722 0.890732
O O9 0.926013 0.648512 0.016621
#
# Coordination Sequence:
#
# PCOD9421439 Si02
#       4
#     8   8   8   8
#     4  10  20  35  55  81 112 145 181 228 283 329
#     4  10  20  35  55  80 112 148 183 221 275 339
#     4   9  19  37  59  81 108 142 184 233 277 325
#     4   9  19  37  58  80 107 144 188 228 274 332
#
# _framework density 21.151416000000001
#
# number of rings (size 3 to 8) (size 9 to 14) (size 15 to 20)
#    0.000    2.500    0.000    1.500    0.000    2.000 
#    0.000   31.250    0.000    0.000    0.000    0.000 
#    0.000    0.000    0.000    0.000    0.000    0.000 
#
# Total GULP energy -178283.006779 kJ/mol
# GULP energy per Si atom -5571.343962 kJ/mol
# Density = 2.110327 g / cm^3
# Si number density = 21.151416 Si / 1000 Ang^3
#
#
#
# Elastic Constant Matrix: (Units=GPa)
#
#
# Indices 1 2 3 4 5 6 
#
# 1 59.8960 40.1158 9.0717 0.0000 0.0000 0.0000
# 2 40.1158 137.5266 31.1176 0.0000 0.0000 0.0000
# 3 9.0717 31.1176 55.2286 0.0000 0.0000 0.0000
# 4 0.0000 0.0000 0.0000 2.1102 0.0000 0.0000
# 5 0.0000 0.0000 0.0000 0.0000 -1.6136 0.0000
# 6 0.0000 0.0000 0.0000 0.0000 0.0000 20.5886
#
#
#
# Elastic Compliance Matrix: (Units=1/GPa)
#
#
# Indices 1 2 3 4 5 6 
#
# 1 0.020749 -0.006053 0.000002 0.000000 0.000000 0.000000
# 2 -0.006053 0.010100 -0.004696 0.000000 0.000000 0.000000
# 3 0.000002 -0.004696 0.020752 0.000000 0.000000 0.000000
# 4 0.000000 0.000000 0.000000 0.473900 0.000000 0.000000
# 5 0.000000 0.000000 0.000000 0.000000 -0.619729 0.000000
# 6 0.000000 0.000000 0.000000 0.000000 0.000000 0.048571
#
#
# Mechanical properties :
#
#
# Convention : Reuss Voigt Hill
#
# Bulk Modulus (GPa) = 33.21469 45.91792 39.56631
# Shear Modulus (GPa) = -353.89367 15.70678 -169.09344
#
# Velocity S-wave (km/s) = -12.94904 2.72800 -8.95086
# Velocity P-wave (km/s) = 14.41641 5.62840 9.38493
#
# Compressibility (1/GPa) = 0.03010716
#
# Stress axis : x y z
#
# Youngs Moduli (GPa) = 48.19446 99.01465 48.18778
#
# Poissons Ratio (x) = 0.59933 -0.00011
# Poissons Ratio (y) = 0.29172 0.22630
# Poissons Ratio (z) = -0.00011 0.46499
#
# Static dielectric constant tensor:
#      x y z
#    x 1.800960 0.000000 0.000000 
#    y 0.000000 1.861590 0.000000 
#    z 0.000000 0.000000 1.772120 
# 
# From -- ./inp_files/12173.got.cif
#   From: 2010.05.17/outbox.cif.g08.bks.cpg/sg54_7_cif.got.tgz:12173.got - 2010.06.03 13:09:01.
