data_PCOD9421078
_publ_section_title
;
Structure prediction by ZEFSAII (Michael W. Deem and Ramdas Pophale) SiO2 
 PCOD9421078
Probable space group: P C C A
;
_chemical_formula_sum "Si O2"
_cell_formula_units_Z 40
_cell_length_a 5.303957
_cell_length_b 11.716026
_cell_length_c 24.385045
_cell_angle_alpha 90.000000
_cell_angle_beta 90.000000
_cell_angle_gamma 90.000000
_cell_volume 1515.318351
_symmetry_space_group_name_H-M "P C C A"
_symmetry_group_IT_number 54
_symmetry_cell_setting 'orthorhombic'
loop_
_space_group_symop_operation_xyz
x,y,z
1/2-x,-y,z
1/2+x,-y,1/2-z
-x,y,1/2-z
-x,-y,-z
1/2+x,y,-z
1/2-x,y,1/2+z
x,-y,1/2+z
loop_
_atom_site_type_symbol
_atom_site_label
_atom_site_fract_x
_atom_site_fract_y
_atom_site_fract_z
Si Si1 0.281558 0.790178 0.447098
Si Si2 0.386146 0.623029 0.810285
Si Si3 0.295808 0.127555 0.068677
Si Si4 0.506266 0.428229 0.426491
Si Si5 0.252102 0.128052 0.787830
O O1 0.558641 0.789036 0.420525
O O2 0.322750 0.862542 0.502396
O O3 0.073636 0.849112 0.409445
O O4 0.110819 0.677842 0.460763
O O5 0.250000 0.500000 0.811119
O O6 0.500000 0.626232 0.750000
O O7 0.561549 0.614833 0.864573
O O8 0.240585 0.743995 0.814975
O O9 0.250000 0.000000 0.085676
O O10 0.750000 0.500000 0.445923
O O11 0.250000 0.500000 0.423028
O O12 0.500000 0.127461 0.750000
O O13 0.000000 0.130002 0.750000
O O14 0.250000 0.000000 0.814599
#
# Coordination Sequence:
#
# PCOD9421078 Si02
#       5
#     8   8   8   8   8
#     4  10  19  35  57  83 115 152 188 231 296 349
#     4  10  20  36  62  86 111 151 204 250 298 356
#     4  10  19  36  61  88 117 152 196 242 282 350
#     4  11  24  40  56  81 119 153 193 252 303 352
#     4   9  18  33  53  78 109 140 176 231 295 355
#
# _framework density 26.397092000000001
#
# number of rings (size 3 to 8) (size 9 to 14) (size 15 to 20)
#    0.000    2.000    0.000    5.400    0.000    4.800 
#    0.000   15.000    0.000    6.000    0.000    0.000 
#    0.000    0.000    0.000    0.000    0.000    0.000 
#
# Total GULP energy -222722.489526 kJ/mol
# GULP energy per Si atom -5568.062238 kJ/mol
# Density = 2.633701 g / cm^3
# Si number density = 26.397092 Si / 1000 Ang^3
#
#
#
# Elastic Constant Matrix: (Units=GPa)
#
#
# Indices 1 2 3 4 5 6 
#
# 1 191.8812 32.4631 27.5664 0.0000 0.0000 0.0000
# 2 32.4631 203.5466 38.1278 0.0000 0.0000 0.0000
# 3 27.5664 38.1278 83.7135 0.0000 0.0000 0.0000
# 4 0.0000 0.0000 0.0000 -22.9658 0.0000 0.0000
# 5 0.0000 0.0000 0.0000 0.0000 -5.2925 0.0000
# 6 0.0000 0.0000 0.0000 0.0000 0.0000 50.9740
#
#
#
# Elastic Compliance Matrix: (Units=1/GPa)
#
#
# Indices 1 2 3 4 5 6 
#
# 1 0.005535 -0.000592 -0.001553 0.000000 0.000000 0.000000
# 2 -0.000592 0.005434 -0.002280 0.000000 0.000000 0.000000
# 3 -0.001553 -0.002280 0.013495 0.000000 0.000000 0.000000
# 4 0.000000 0.000000 0.000000 -0.043543 0.000000 0.000000
# 5 0.000000 0.000000 0.000000 0.000000 -0.188947 0.000000
# 6 0.000000 0.000000 0.000000 0.000000 0.000000 0.019618
#
#
# Mechanical properties :
#
#
# Convention : Reuss Voigt Hill
#
# Bulk Modulus (GPa) = 64.04318 75.05064 69.54691
# Shear Modulus (GPa) = -28.67754 29.94208 0.63227
#
# Velocity S-wave (km/s) = -3.29962 3.37158 0.48994
# Velocity P-wave (km/s) = 3.13009 6.60681 5.16950
#
# Compressibility (1/GPa) = 0.01561447
#
# Stress axis : x y z
#
# Youngs Moduli (GPa) = 180.67500 184.01303 74.09897
#
# Poissons Ratio (x) = 0.10890 0.11508
# Poissons Ratio (y) = 0.10693 0.16896
# Poissons Ratio (z) = 0.28059 0.41959
#
# Static dielectric constant tensor:
#      x y z
#    x 0.210530 0.000000 0.000000 
#    y 0.000000 3.377980 0.000000 
#    z 0.000000 0.000000 2.123720 
# 
# From -- ./inp_files/25155.got.cif
#   From: 2010.05.17/outbox.cif.g08.bks.cpg/sg54_13_cif.got.tgz:25155.got - 2010.06.03 13:09:01.
