data_PCOD9421651
_publ_section_title
;
Structure prediction by ZEFSAII (Michael W. Deem and Ramdas Pophale) SiO2 
 PCOD9421651
Probable space group: P C C A
;
_chemical_formula_sum "Si O2"
_cell_formula_units_Z 48
_cell_length_a 15.430469
_cell_length_b 8.922462
_cell_length_c 19.132057
_cell_angle_alpha 90.000000
_cell_angle_beta 90.000000
_cell_angle_gamma 90.000000
_cell_volume 2634.059006
_symmetry_space_group_name_H-M "P C C A"
_symmetry_group_IT_number 54
_symmetry_cell_setting 'orthorhombic'
loop_
_space_group_symop_operation_xyz
x,y,z
1/2-x,-y,z
1/2+x,-y,1/2-z
-x,y,1/2-z
-x,-y,-z
1/2+x,y,-z
1/2-x,y,1/2+z
x,-y,1/2+z
loop_
_atom_site_type_symbol
_atom_site_label
_atom_site_fract_x
_atom_site_fract_y
_atom_site_fract_z
Si Si1 0.490129 0.073507 0.575471
Si Si2 0.155131 0.572327 0.172025
Si Si3 0.845815 0.559147 0.679242
Si Si4 0.591070 0.882943 0.209448
Si Si5 0.007013 0.570051 0.576328
Si Si6 0.659092 0.072244 0.333576
O O1 0.568090 0.059694 0.631963
O O2 0.477090 0.252008 0.570271
O O3 0.500000 0.000000 0.500000
O O4 0.411094 0.992540 0.613425
O O5 0.250000 0.500000 0.161090
O O6 0.128658 0.532215 0.251348
O O7 0.160925 0.749869 0.164207
O O8 0.085146 0.503261 0.119675
O O9 0.750000 0.500000 0.659191
O O10 0.850420 0.734204 0.702720
O O11 0.917856 0.544582 0.619316
O O12 0.500000 0.841494 0.250000
O O13 0.633704 0.009298 0.257136
O O14 0.000000 0.500000 0.500000
O O15 0.750000 0.000000 0.352434
#
# Coordination Sequence:
#
# PCOD9421651 Si02
#       6
#     8   8   8   8   8   8
#     4  10  21  39  58  80 114 153 192 231 283 343
#     4  11  22  37  60  87 116 149 190 238 288 341
#     4  10  20  37  59  84 115 150 189 236 285 339
#     4   9  19  37  59  82 113 150 187 233 284 338
#     4  11  23  38  58  84 119 156 191 237 288 341
#     4  11  21  36  59  85 112 146 191 239 284 338
#
# _framework density 18.222826999999999
#
# number of rings (size 3 to 8) (size 9 to 14) (size 15 to 20)
#    0.000    1.667    0.000    7.500    0.000    6.000 
#    0.000    4.167    0.000    0.000    0.000    0.000 
#    0.000    0.000    0.000    0.000    0.000    0.000 
#
# Total GULP energy -268070.968163 kJ/mol
# GULP energy per Si atom -5584.811837 kJ/mol
# Density = 1.818135 g / cm^3
# Si number density = 18.222827 Si / 1000 Ang^3
#
#
#
# Elastic Constant Matrix: (Units=GPa)
#
#
# Indices 1 2 3 4 5 6 
#
# 1 95.2804 87.5470 56.9460 0.0000 0.0000 0.0000
# 2 87.5470 175.5239 86.7388 0.0000 0.0000 0.0000
# 3 56.9460 86.7388 152.0309 0.0000 0.0000 0.0000
# 4 0.0000 0.0000 0.0000 26.8463 0.0000 0.0000
# 5 0.0000 0.0000 0.0000 0.0000 5.9900 0.0000
# 6 0.0000 0.0000 0.0000 0.0000 0.0000 34.2159
#
#
#
# Elastic Compliance Matrix: (Units=1/GPa)
#
#
# Indices 1 2 3 4 5 6 
#
# 1 0.020040 -0.008754 -0.002512 0.000000 0.000000 0.000000
# 2 -0.008754 0.011758 -0.003429 0.000000 0.000000 0.000000
# 3 -0.002512 -0.003429 0.009475 0.000000 0.000000 0.000000
# 4 0.000000 0.000000 0.000000 0.037249 0.000000 0.000000
# 5 0.000000 0.000000 0.000000 0.000000 0.166945 0.000000
# 6 0.000000 0.000000 0.000000 0.000000 0.000000 0.029226
#
#
# Mechanical properties :
#
#
# Convention : Reuss Voigt Hill
#
# Bulk Modulus (GPa) = 84.15692 98.36652 91.26172
# Shear Modulus (GPa) = 16.23134 26.18401 21.20767
#
# Velocity S-wave (km/s) = 2.98772 3.79473 3.41515
# Velocity P-wave (km/s) = 7.62787 8.56137 8.10806
#
# Compressibility (1/GPa) = 0.01188256
#
# Stress axis : x y z
#
# Youngs Moduli (GPa) = 49.89917 85.04523 105.53985
#
# Poissons Ratio (x) = 0.74452 0.26510
# Poissons Ratio (y) = 0.43684 0.36195
# Poissons Ratio (z) = 0.12534 0.29166
#
# Static dielectric constant tensor:
#      x y z
#    x 1.626750 0.000000 0.000000 
#    y 0.000000 1.613680 0.000000 
#    z 0.000000 0.000000 1.609510 
# 
# From -- ./inp_files/21459.got.cif
#   From: 2010.05.17/outbox.cif.g08.bks.cpg/sg54_11_cif.got.tgz:21459.got - 2010.06.03 13:09:01.
