data_PCOD9421994
_publ_section_title
;
Structure prediction by ZEFSAII (Michael W. Deem and Ramdas Pophale) SiO2 
 PCOD9421994
Probable space group: P C C A
;
_chemical_formula_sum "Si O2"
_cell_formula_units_Z 64
_cell_length_a 24.389609
_cell_length_b 7.562342
_cell_length_c 14.351501
_cell_angle_alpha 90.000000
_cell_angle_beta 90.000000
_cell_angle_gamma 90.000000
_cell_volume 2647.027649
_symmetry_space_group_name_H-M "P C C A"
_symmetry_group_IT_number 54
_symmetry_cell_setting 'orthorhombic'
loop_
_space_group_symop_operation_xyz
x,y,z
1/2-x,-y,z
1/2+x,-y,1/2-z
-x,y,1/2-z
-x,-y,-z
1/2+x,y,-z
1/2-x,y,1/2+z
x,-y,1/2+z
loop_
_atom_site_type_symbol
_atom_site_label
_atom_site_fract_x
_atom_site_fract_y
_atom_site_fract_z
Si Si1 0.147742 0.265939 0.647724
Si Si2 0.991642 0.434287 0.640484
Si Si3 0.621887 0.448907 0.697645
Si Si4 0.159445 0.138415 0.198722
Si Si5 0.977451 0.775410 0.957312
Si Si6 0.740401 0.207793 0.940428
Si Si7 0.800940 0.211458 0.116669
Si Si8 0.408726 0.905140 0.486980
O O1 0.132823 0.400263 0.727836
O O2 0.208017 0.305211 0.606241
O O3 0.105681 0.248497 0.561794
O O4 0.146394 0.064671 0.685177
O O5 0.930009 0.507302 0.637675
O O6 0.989528 0.280461 0.564544
O O7 0.000000 0.389429 0.750000
O O8 0.028636 0.596929 0.602863
O O9 0.614655 0.263001 0.752810
O O10 0.673061 0.405498 0.631287
O O11 0.183103 0.239107 0.108545
O O12 0.207081 0.148722 0.278237
O O13 0.927287 0.913933 0.960276
O O14 0.035844 0.864696 0.929464
O O15 0.750000 0.000000 0.919197
O O16 0.749172 0.219148 0.050349
O O17 0.850923 0.094411 0.070007
#
# Coordination Sequence:
#
# PCOD9421994 Si02
#       8
#     8   8   8   8   8   8   8   8
#     4  10  21  38  68  91 125 175 219 272 334 398
#     4  11  23  39  62  96 135 179 219 278 336 393
#     4  10  22  40  64  95 132 170 218 277 329 392
#     4   9  21  39  67  92 129 171 215 278 328 404
#     4  10  22  39  63  92 136 175 223 274 331 401
#     4   9  19  39  67  92 125 173 218 272 342 390
#     4   9  20  39  66  91 131 166 217 275 333 394
#     4  10  20  41  61  93 129 174 224 272 328 402
#
# _framework density 24.178063999999999
#
# number of rings (size 3 to 8) (size 9 to 14) (size 15 to 20)
#    0.750    1.500    1.250    0.750    3.500    2.000 
#    0.000    1.250   22.000    0.000    0.000    0.000 
#    0.000    0.000    0.000    0.000    0.000    0.000 
#
# Total GULP energy -356883.522044 kJ/mol
# GULP energy per Si atom -5576.305032 kJ/mol
# Density = 2.412303 g / cm^3
# Si number density = 24.178064 Si / 1000 Ang^3
#
#
#
# Elastic Constant Matrix: (Units=GPa)
#
#
# Indices 1 2 3 4 5 6 
#
# 1 67.8259 13.1934 17.4532 0.0000 0.0000 0.0000
# 2 13.1934 69.8770 10.0283 0.0000 0.0000 0.0000
# 3 17.4532 10.0283 95.4604 0.0000 0.0000 0.0000
# 4 0.0000 0.0000 0.0000 22.2767 0.0000 0.0000
# 5 0.0000 0.0000 0.0000 0.0000 38.3837 0.0000
# 6 0.0000 0.0000 0.0000 0.0000 0.0000 30.1326
#
#
#
# Elastic Compliance Matrix: (Units=1/GPa)
#
#
# Indices 1 2 3 4 5 6 
#
# 1 0.015934 -0.002630 -0.002637 0.000000 0.000000 0.000000
# 2 -0.002630 0.014964 -0.001091 0.000000 0.000000 0.000000
# 3 -0.002637 -0.001091 0.011072 0.000000 0.000000 0.000000
# 4 0.000000 0.000000 0.000000 0.044890 0.000000 0.000000
# 5 0.000000 0.000000 0.000000 0.000000 0.026053 0.000000
# 6 0.000000 0.000000 0.000000 0.000000 0.000000 0.033187
#
#
# Mechanical properties :
#
#
# Convention : Reuss Voigt Hill
#
# Bulk Modulus (GPa) = 34.18343 34.94591 34.56467
# Shear Modulus (GPa) = 29.66181 30.99115 30.32648
#
# Velocity S-wave (km/s) = 3.50638 3.58409 3.54545
# Velocity P-wave (km/s) = 5.52828 5.62250 5.57559
#
# Compressibility (1/GPa) = 0.02925394
#
# Stress axis : x y z
#
# Youngs Moduli (GPa) = 62.75986 66.82696 90.31561
#
# Poissons Ratio (x) = 0.17575 0.23815
# Poissons Ratio (y) = 0.16506 0.09855
# Poissons Ratio (z) = 0.16549 0.07292
#
# Static dielectric constant tensor:
#      x y z
#    x 2.018610 0.000000 0.000000 
#    y 0.000000 1.937350 0.000000 
#    z 0.000000 0.000000 1.969570 
# 
# From -- ./inp_files/15002.got.cif
#   From: 2010.05.17/outbox.cif.g08.bks.cpg/sg54_8_cif.got.tgz:15002.got - 2010.06.03 13:09:01.
