data_PCOD9421339
_publ_section_title
;
Structure prediction by ZEFSAII (Michael W. Deem and Ramdas Pophale) SiO2 
 PCOD9421339
Probable space group: P C C A
;
_chemical_formula_sum "Si O2"
_cell_formula_units_Z 52
_cell_length_a 9.912062
_cell_length_b 12.362202
_cell_length_c 20.061579
_cell_angle_alpha 90.000000
_cell_angle_beta 90.000000
_cell_angle_gamma 90.000000
_cell_volume 2458.243831
_symmetry_space_group_name_H-M "P C C A"
_symmetry_group_IT_number 54
_symmetry_cell_setting 'orthorhombic'
loop_
_space_group_symop_operation_xyz
x,y,z
1/2-x,-y,z
1/2+x,-y,1/2-z
-x,y,1/2-z
-x,-y,-z
1/2+x,y,-z
1/2-x,y,1/2+z
x,-y,1/2+z
loop_
_atom_site_type_symbol
_atom_site_label
_atom_site_fract_x
_atom_site_fract_y
_atom_site_fract_z
Si Si1 0.876589 0.772640 0.642267
Si Si2 0.750000 0.000000 0.465905
Si Si3 0.155880 0.405766 0.248226
Si Si4 0.822787 0.769876 0.028370
Si Si5 0.314466 0.716734 0.119228
Si Si6 0.388048 0.988286 0.296156
Si Si7 0.944051 0.138710 0.885905
O O1 0.836588 0.702957 0.707126
O O2 0.789051 0.731129 0.580578
O O3 0.845936 0.899597 0.649854
O O4 0.036365 0.763861 0.632259
O O5 0.785027 0.107650 0.506137
O O6 0.619006 0.034088 0.422930
O O7 0.250000 0.500000 0.275540
O O8 0.196100 0.379145 0.172299
O O9 0.000000 0.440239 0.250000
O O10 0.966252 0.786282 0.065163
O O11 0.816146 0.700616 0.960641
O O12 0.188974 0.795654 0.135016
O O13 0.500000 0.935396 0.250000
O O14 0.250000 0.000000 0.255501
O O15 0.458736 0.092854 0.328090
#
# Coordination Sequence:
#
# PCOD9421339 Si02
#       7
#     8   4   8   8   8   8   8
#     4  11  23  42  63  90 134 169 209 270 327 380
#     4  10  20  32  56  80 130 170 224 252 310 374
#     4  10  24  47  72  95 121 166 214 278 339 392
#     4  11  20  37  59  93 127 176 216 266 316 385
#     4  10  22  39  66  91 127 165 217 264 326 384
#     4  12  25  37  56  88 134 179 223 262 312 380
#     4  11  22  35  56  88 129 175 219 261 310 385
#
# _framework density 21.153313000000001
#
# number of rings (size 3 to 8) (size 9 to 14) (size 15 to 20)
#    0.000    1.231    1.538    6.462    5.385    1.231 
#    0.000    0.769    0.000    4.615    0.000    0.000 
#    0.000    0.000    0.000    0.000    0.000    0.000 
#
# Total GULP energy -290282.343403 kJ/mol
# GULP energy per Si atom -5582.352758 kJ/mol
# Density = 2.110517 g / cm^3
# Si number density = 21.153313 Si / 1000 Ang^3
#
#
#
# Elastic Constant Matrix: (Units=GPa)
#
#
# Indices 1 2 3 4 5 6 
#
# 1 135.9562 40.3460 46.2637 0.0000 0.0000 0.0000
# 2 40.3460 44.8450 21.7621 0.0000 0.0000 0.0000
# 3 46.2637 21.7621 104.1802 0.0000 0.0000 0.0000
# 4 0.0000 0.0000 0.0000 262.2960 0.0000 0.0000
# 5 0.0000 0.0000 0.0000 0.0000 30.3528 0.0000
# 6 0.0000 0.0000 0.0000 0.0000 0.0000 21.3213
#
#
#
# Elastic Compliance Matrix: (Units=1/GPa)
#
#
# Indices 1 2 3 4 5 6 
#
# 1 0.010863 -0.008271 -0.003096 0.000000 0.000000 0.000000
# 2 -0.008271 0.031112 -0.002826 0.000000 0.000000 0.000000
# 3 -0.003096 -0.002826 0.011564 0.000000 0.000000 0.000000
# 4 0.000000 0.000000 0.000000 0.003812 0.000000 0.000000
# 5 0.000000 0.000000 0.000000 0.000000 0.032946 0.000000
# 6 0.000000 0.000000 0.000000 0.000000 0.000000 0.046901
#
#
# Mechanical properties :
#
#
# Convention : Reuss Voigt Hill
#
# Bulk Modulus (GPa) = 39.75761 55.74722 47.75241
# Shear Modulus (GPa) = 28.74060 74.56800 51.65430
#
# Velocity S-wave (km/s) = 3.69003 5.94371 4.94692
# Velocity P-wave (km/s) = 6.08201 8.57407 7.43322
#
# Compressibility (1/GPa) = 0.02515242
#
# Stress axis : x y z
#
# Youngs Moduli (GPa) = 92.05175 32.14234 86.47441
#
# Poissons Ratio (x) = 0.26585 0.26776
# Poissons Ratio (y) = 0.76136 0.24437
# Poissons Ratio (z) = 0.28503 0.09083
#
# Static dielectric constant tensor:
#      x y z
#    x 1.794190 0.000000 0.000000 
#    y 0.000000 1.734640 0.000000 
#    z 0.000000 0.000000 1.805780 
# 
# From -- ./inp_files/20467.got.cif
#   From: 2010.05.17/outbox.cif.g08.bks.cpg/sg54_11_cif.got.tgz:20467.got - 2010.06.03 13:09:01.
