data_PCOD9421664
_publ_section_title
;
Structure prediction by ZEFSAII (Michael W. Deem and Ramdas Pophale) SiO2 
 PCOD9421664
Probable space group: P C C A
;
_chemical_formula_sum "Si O2"
_cell_formula_units_Z 56
_cell_length_a 5.235964
_cell_length_b 13.811920
_cell_length_c 31.477560
_cell_angle_alpha 90.000000
_cell_angle_beta 90.000000
_cell_angle_gamma 90.000000
_cell_volume 2276.416719
_symmetry_space_group_name_H-M "P C C A"
_symmetry_group_IT_number 54
_symmetry_cell_setting 'orthorhombic'
loop_
_space_group_symop_operation_xyz
x,y,z
1/2-x,-y,z
1/2+x,-y,1/2-z
-x,y,1/2-z
-x,-y,-z
1/2+x,y,-z
1/2-x,y,1/2+z
x,-y,1/2+z
loop_
_atom_site_type_symbol
_atom_site_label
_atom_site_fract_x
_atom_site_fract_y
_atom_site_fract_z
Si Si1 0.764911 0.614634 0.898801
Si Si2 0.790130 0.700690 0.136508
Si Si3 0.027538 0.347547 0.985339
Si Si4 0.996389 0.932435 0.795939
Si Si5 0.623479 0.105362 0.611917
Si Si6 0.748611 0.390414 0.721241
Si Si7 0.892896 0.130244 0.479738
O O1 0.750000 0.500000 0.901830
O O2 0.562665 0.648004 0.863749
O O3 0.617509 0.652855 0.940734
O O4 0.049238 0.652987 0.888798
O O5 0.822853 0.806725 0.116214
O O6 0.720966 0.691683 0.185791
O O7 0.810840 0.393855 0.015715
O O8 0.100491 0.241690 0.003426
O O9 0.000000 0.878692 0.750000
O O10 0.980926 0.885034 0.842673
O O11 0.750000 0.000000 0.793631
O O12 0.250000 0.000000 0.797796
O O13 0.459366 0.122614 0.569658
O O14 0.750000 0.000000 0.608473
O O15 0.750000 0.500000 0.701358
O O16 0.500000 0.388677 0.750000
O O17 0.000000 0.378760 0.750000
O O18 0.119499 0.089278 0.508665
#
# Coordination Sequence:
#
# PCOD9421664 Si02
#       7
#     8   8   8   8   8   8   8
#     4  12  25  43  70 100 132 177 228 285 354 418
#     4  12  25  44  68 100 141 178 228 290 344 410
#     4  10  20  37  60  89 128 168 213 270 333 400
#     4   9  20  41  67  95 129 170 222 284 341 398
#     4  11  26  45  71 102 138 188 240 286 344 409
#     4  10  21  40  67  98 133 174 220 274 345 424
#     4  10  21  40  63  91 131 176 227 286 339 395
#
# _framework density 24.600064
#
# number of rings (size 3 to 8) (size 9 to 14) (size 15 to 20)
#    0.000    1.429    0.000    6.429    0.000    7.429 
#    0.000    5.714    0.000    0.000    0.000    0.000 
#    0.000    0.000    0.000    0.000    0.000    0.000 
#
# Total GULP energy -312835.064571 kJ/mol
# GULP energy per Si atom -5586.340439 kJ/mol
# Density = 2.454407 g / cm^3
# Si number density = 24.600064 Si / 1000 Ang^3
#
#
#
# Elastic Constant Matrix: (Units=GPa)
#
#
# Indices 1 2 3 4 5 6 
#
# 1 128.2565 17.3511 -11.2459 0.0000 0.0000 0.0000
# 2 17.3511 124.8994 10.7804 0.0000 0.0000 0.0000
# 3 -11.2459 10.7804 126.3705 0.0000 0.0000 0.0000
# 4 0.0000 0.0000 0.0000 41.5150 0.0000 0.0000
# 5 0.0000 0.0000 0.0000 0.0000 42.9192 0.0000
# 6 0.0000 0.0000 0.0000 0.0000 0.0000 7.6850
#
#
#
# Elastic Compliance Matrix: (Units=1/GPa)
#
#
# Indices 1 2 3 4 5 6 
#
# 1 0.008029 -0.001186 0.000816 0.000000 0.000000 0.000000
# 2 -0.001186 0.008241 -0.000809 0.000000 0.000000 0.000000
# 3 0.000816 -0.000809 0.008055 0.000000 0.000000 0.000000
# 4 0.000000 0.000000 0.000000 0.024088 0.000000 0.000000
# 5 0.000000 0.000000 0.000000 0.000000 0.023300 0.000000
# 6 0.000000 0.000000 0.000000 0.000000 0.000000 0.130123
#
#
# Mechanical properties :
#
#
# Convention : Reuss Voigt Hill
#
# Bulk Modulus (GPa) = 45.52231 45.92196 45.72214
# Shear Modulus (GPa) = 23.63902 42.59989 33.11946
#
# Velocity S-wave (km/s) = 3.10326 4.16588 3.67320
# Velocity P-wave (km/s) = 5.60227 6.46895 6.05115
#
# Compressibility (1/GPa) = 0.02196725
#
# Stress axis : x y z
#
# Youngs Moduli (GPa) = 124.55143 121.34511 124.14958
#
# Poissons Ratio (x) = 0.14389 -0.10126
# Poissons Ratio (y) = 0.14769 0.10038
# Poissons Ratio (z) = -0.10159 0.09811
#
# Static dielectric constant tensor:
#      x y z
#    x 2.071830 0.000000 0.000000 
#    y 0.000000 2.258350 0.000000 
#    z 0.000000 0.000000 2.011820 
# 
# From -- ./inp_files/27222.got.cif
#   From: 2010.05.17/outbox.cif.g08.bks.cpg/sg54_14_cif.got.tgz:27222.got - 2010.06.03 13:09:01.
