data_PCOD9421431
_publ_section_title
;
Structure prediction by ZEFSAII (Michael W. Deem and Ramdas Pophale) SiO2 
 PCOD9421431
Probable space group: P C C A
;
_chemical_formula_sum "Si O2"
_cell_formula_units_Z 40
_cell_length_a 13.776838
_cell_length_b 12.658511
_cell_length_c 10.746632
_cell_angle_alpha 90.000000
_cell_angle_beta 90.000000
_cell_angle_gamma 90.000000
_cell_volume 1874.150885
_symmetry_space_group_name_H-M "P C C A"
_symmetry_group_IT_number 54
_symmetry_cell_setting 'orthorhombic'
loop_
_space_group_symop_operation_xyz
x,y,z
1/2-x,-y,z
1/2+x,-y,1/2-z
-x,y,1/2-z
-x,-y,-z
1/2+x,y,-z
1/2-x,y,1/2+z
x,-y,1/2+z
loop_
_atom_site_type_symbol
_atom_site_label
_atom_site_fract_x
_atom_site_fract_y
_atom_site_fract_z
Si Si1 0.401764 0.409339 0.791188
Si Si2 0.354376 0.940045 0.815443
Si Si3 0.242524 0.254810 0.695529
Si Si4 0.851087 0.440341 0.935401
Si Si5 0.647354 0.937614 0.413700
O O1 0.500000 0.350312 0.750000
O O2 0.306150 0.337630 0.774472
O O3 0.393033 0.503026 0.688438
O O4 0.407710 0.444202 0.934540
O O5 0.325525 0.821613 0.776228
O O6 0.250000 0.000000 0.826880
O O7 0.402269 0.001630 0.700386
O O8 0.400655 0.940916 0.951410
O O9 0.176516 0.321110 0.601208
O O10 0.319583 0.179620 0.625018
O O11 0.750000 0.500000 0.961006
O O12 0.750000 0.000000 0.425899
#
# Coordination Sequence:
#
# PCOD9421431 Si02
#       5
#     8   8   8   8   8
#     4  11  22  35  50  73 103 134 165 209 263 305
#     4   8  14  25  43  74 101 120 152 204 245 277
#     4   9  17  29  51  74  95 128 170 207 241 291
#     4  10  20  35  53  72  96 130 174 214 246 294
#     4   8  14  24  42  71  99 120 152 202 245 279
#
# _framework density 21.342998000000001
#
# number of rings (size 3 to 8) (size 9 to 14) (size 15 to 20)
#    0.000    3.200    0.000    3.600    0.000    3.200 
#    0.000    0.000    0.000    0.000    0.000  112.000 
#    0.000    0.000    0.000    0.000    0.000    0.000 
#
# Total GULP energy -222841.060901 kJ/mol
# GULP energy per Si atom -5571.026523 kJ/mol
# Density = 2.129442 g / cm^3
# Si number density = 21.342998 Si / 1000 Ang^3
#
#
#
# Elastic Constant Matrix: (Units=GPa)
#
#
# Indices 1 2 3 4 5 6 
#
# 1 49.1944 11.3582 34.9651 0.0000 0.0000 0.0000
# 2 11.3582 95.1530 67.9935 0.0000 0.0000 0.0000
# 3 34.9651 67.9935 233.0320 0.0000 0.0000 0.0000
# 4 0.0000 0.0000 0.0000 -11.0714 0.0000 0.0000
# 5 0.0000 0.0000 0.0000 0.0000 23.9461 0.0000
# 6 0.0000 0.0000 0.0000 0.0000 0.0000 -28.4762
#
#
#
# Elastic Compliance Matrix: (Units=1/GPa)
#
#
# Indices 1 2 3 4 5 6 
#
# 1 0.022763 -0.000349 -0.003314 0.000000 0.000000 0.000000
# 2 -0.000349 0.013283 -0.003823 0.000000 0.000000 0.000000
# 3 -0.003314 -0.003823 0.005904 0.000000 0.000000 0.000000
# 4 0.000000 0.000000 0.000000 -0.090323 0.000000 0.000000
# 5 0.000000 0.000000 0.000000 0.000000 0.041761 0.000000
# 6 0.000000 0.000000 0.000000 0.000000 0.000000 -0.035117
#
#
# Mechanical properties :
#
#
# Convention : Reuss Voigt Hill
#
# Bulk Modulus (GPa) = 37.06745 67.33479 52.20112
# Shear Modulus (GPa) = -281.47418 14.41720 -133.52849
#
# Velocity S-wave (km/s) = -11.49642 2.60186 -7.91827
# Velocity P-wave (km/s) = 12.60231 6.37523 7.68683
#
# Compressibility (1/GPa) = 0.02697785
#
# Stress axis : x y z
#
# Youngs Moduli (GPa) = 43.93036 75.28362 169.37731
#
# Poissons Ratio (x) = 0.02631 0.56124
# Poissons Ratio (y) = 0.01535 0.64758
# Poissons Ratio (z) = 0.14557 0.28783
#
# Static dielectric constant tensor:
#      x y z
#    x 1.808360 0.000000 0.000000 
#    y 0.000000 1.782880 0.000000 
#    z 0.000000 0.000000 1.846580 
# 
# From -- ./inp_files/8201.got.cif
#   From: 2010.05.17/outbox.cif.g08.bks.cpg/sg54_5_cif.got.tgz:8201.got - 2010.06.03 13:09:01.
