data_PCOD9421793
_publ_section_title
;
Structure prediction by ZEFSAII (Michael W. Deem and Ramdas Pophale) SiO2 
 PCOD9421793
Probable space group: P C C A
;
_chemical_formula_sum "Si O2"
_cell_formula_units_Z 36
_cell_length_a 13.083686
_cell_length_b 10.620930
_cell_length_c 13.252340
_cell_angle_alpha 90.000000
_cell_angle_beta 90.000000
_cell_angle_gamma 90.000000
_cell_volume 1841.557268
_symmetry_space_group_name_H-M "P C C A"
_symmetry_group_IT_number 54
_symmetry_cell_setting 'orthorhombic'
loop_
_space_group_symop_operation_xyz
x,y,z
1/2-x,-y,z
1/2+x,-y,1/2-z
-x,y,1/2-z
-x,-y,-z
1/2+x,y,-z
1/2-x,y,1/2+z
x,-y,1/2+z
loop_
_atom_site_type_symbol
_atom_site_label
_atom_site_fract_x
_atom_site_fract_y
_atom_site_fract_z
Si Si1 0.330382 0.888838 0.747262
Si Si2 0.824107 0.390834 0.741321
Si Si3 0.997771 0.113216 0.578552
Si Si4 0.750000 0.500000 0.936100
Si Si5 0.434609 0.613377 0.954358
O O1 0.281675 0.750648 0.762620
O O2 0.400995 0.882252 0.647674
O O3 0.405086 0.907801 0.842628
O O4 0.250000 0.000000 0.739810
O O5 0.750000 0.500000 0.701202
O O6 0.827019 0.427202 0.859312
O O7 0.920449 0.393840 0.667036
O O8 0.979239 0.248291 0.525641
O O9 0.000000 0.000000 0.500000
O O10 0.679162 0.405413 0.998891
O O11 0.500000 0.500000 0.000000
#
# Coordination Sequence:
#
# PCOD9421793 Si02
#       5
#     8   8   8   4   8
#     4  10  22  42  64  86 128 170 205 261 321 373
#     4   9  21  39  60  90 123 155 205 252 309 371
#     4  10  24  42  60  95 126 162 217 262 314 381
#     4  10  20  38  64  92 124 158 208 258 310 374
#     4  11  22  40  65  92 126 162 208 260 315 377
#
# _framework density 19.548670999999999
#
# number of rings (size 3 to 8) (size 9 to 14) (size 15 to 20)
#    0.667    1.333    1.111    1.333    3.111    5.333 
#    4.000    0.000    0.000    0.000    0.000    0.000 
#    0.000    0.000    0.000    0.000    0.000    0.000 
#
# Total GULP energy -200608.310150 kJ/mol
# GULP energy per Si atom -5572.453060 kJ/mol
# Density = 1.950418 g / cm^3
# Si number density = 19.548671 Si / 1000 Ang^3
#
#
#
# Elastic Constant Matrix: (Units=GPa)
#
#
# Indices 1 2 3 4 5 6 
#
# 1 69.3961 74.2465 27.4877 0.0000 0.0000 0.0000
# 2 74.2465 218.7244 69.3424 0.0000 0.0000 0.0000
# 3 27.4877 69.3424 96.5841 0.0000 0.0000 0.0000
# 4 0.0000 0.0000 0.0000 21.7684 0.0000 0.0000
# 5 0.0000 0.0000 0.0000 0.0000 16.6302 0.0000
# 6 0.0000 0.0000 0.0000 0.0000 0.0000 43.2745
#
#
#
# Elastic Compliance Matrix: (Units=1/GPa)
#
#
# Indices 1 2 3 4 5 6 
#
# 1 0.022736 -0.007336 -0.001204 0.000000 0.000000 0.000000
# 2 -0.007336 0.008286 -0.003861 0.000000 0.000000 0.000000
# 3 -0.001204 -0.003861 0.013468 0.000000 0.000000 0.000000
# 4 0.000000 0.000000 0.000000 0.045938 0.000000 0.000000
# 5 0.000000 0.000000 0.000000 0.000000 0.060132 0.000000
# 6 0.000000 0.000000 0.000000 0.000000 0.000000 0.023108
#
#
# Mechanical properties :
#
#
# Convention : Reuss Voigt Hill
#
# Bulk Modulus (GPa) = 50.79135 80.76197 65.77666
# Shear Modulus (GPa) = 24.38627 30.57648 27.48137
#
# Velocity S-wave (km/s) = 3.53578 3.95919 3.75346
# Velocity P-wave (km/s) = 6.53509 7.89324 7.24605
#
# Compressibility (1/GPa) = 0.01968839
#
# Stress axis : x y z
#
# Youngs Moduli (GPa) = 43.98391 120.67992 74.24755
#
# Poissons Ratio (x) = 0.88532 0.08936
# Poissons Ratio (y) = 0.32267 0.28670
# Poissons Ratio (z) = 0.05294 0.46599
#
# Static dielectric constant tensor:
#      x y z
#    x 1.710920 0.000000 0.000000 
#    y 0.000000 1.660030 0.000000 
#    z 0.000000 0.000000 1.704980 
# 
# From -- ./inp_files/13094.got.cif
#   From: 2010.05.17/outbox.cif.g08.bks.cpg/sg54_7_cif.got.tgz:13094.got - 2010.06.03 13:09:01.
