data_PCOD9421215
_publ_section_title
;
Structure prediction by ZEFSAII (Michael W. Deem and Ramdas Pophale) SiO2 
 PCOD9421215
Probable space group: P C C A
;
_chemical_formula_sum "Si O2"
_cell_formula_units_Z 64
_cell_length_a 18.044164
_cell_length_b 12.059665
_cell_length_c 15.039726
_cell_angle_alpha 90.000000
_cell_angle_beta 90.000000
_cell_angle_gamma 90.000000
_cell_volume 3272.743234
_symmetry_space_group_name_H-M "P C C A"
_symmetry_group_IT_number 54
_symmetry_cell_setting 'orthorhombic'
loop_
_space_group_symop_operation_xyz
x,y,z
1/2-x,-y,z
1/2+x,-y,1/2-z
-x,y,1/2-z
-x,-y,-z
1/2+x,y,-z
1/2-x,y,1/2+z
x,-y,1/2+z
loop_
_atom_site_type_symbol
_atom_site_label
_atom_site_fract_x
_atom_site_fract_y
_atom_site_fract_z
Si Si1 0.929789 0.517430 0.367931
Si Si2 0.773795 0.617753 0.409742
Si Si3 0.435940 0.091694 0.508671
Si Si4 0.846151 0.280971 0.068770
Si Si5 0.835360 0.026674 0.125992
Si Si6 0.008365 0.658151 0.494411
Si Si7 0.083032 0.103639 0.213009
Si Si8 0.646842 0.348043 0.760976
O O1 0.855285 0.591447 0.371608
O O2 0.994994 0.601123 0.397961
O O3 0.913500 0.444092 0.280729
O O4 0.940625 0.422213 0.444822
O O5 0.750000 0.500000 0.451065
O O6 0.787429 0.702584 0.489465
O O7 0.713712 0.643296 0.333074
O O8 0.461651 0.217565 0.493172
O O9 0.409548 0.079838 0.609683
O O10 0.500000 0.000000 0.500000
O O11 0.375787 0.060086 0.436404
O O12 0.852487 0.150543 0.089583
O O13 0.824932 0.344004 0.159819
O O14 0.926362 0.329663 0.039154
O O15 0.866223 0.027284 0.225719
O O16 0.750000 0.000000 0.125951
O O17 0.106341 0.231136 0.225597
O O18 0.000000 0.090637 0.250000
#
# Coordination Sequence:
#
# PCOD9421215 Si02
#       8
#     8   8   8   8   8   8   8   8
#     4   9  19  34  59  91 128 154 207 260 310 379
#     4   9  20  36  54  87 125 163 198 259 325 381
#     4  12  21  40  71  94 125 173 219 267 334 384
#     4  10  21  38  60  87 128 165 219 262 307 393
#     4  11  26  41  60  98 131 164 223 275 326 392
#     4  10  19  37  63  97 120 167 216 267 311 385
#     4  11  22  41  66  95 121 169 229 272 315 399
#     4  10  20  35  62  89 122 166 211 257 318 380
#
# _framework density 19.55546
#
# number of rings (size 3 to 8) (size 9 to 14) (size 15 to 20)
#    0.000    1.750    3.750    0.750    1.750    2.000 
#    2.250    0.000    0.000   12.000    0.000    0.000 
#    0.000    0.000    0.000    0.000    0.000    0.000 
#
# Total GULP energy -356784.669861 kJ/mol
# GULP energy per Si atom -5574.760467 kJ/mol
# Density = 1.951095 g / cm^3
# Si number density = 19.555460 Si / 1000 Ang^3
#
#
#
# Elastic Constant Matrix: (Units=GPa)
#
#
# Indices 1 2 3 4 5 6 
#
# 1 86.5554 22.0398 35.9120 0.0000 0.0000 0.0000
# 2 22.0398 72.2372 48.8884 0.0000 0.0000 0.0000
# 3 35.9120 48.8884 116.0616 0.0000 0.0000 0.0000
# 4 0.0000 0.0000 0.0000 1730.0849 0.0000 0.0000
# 5 0.0000 0.0000 0.0000 0.0000 28.0583 0.0000
# 6 0.0000 0.0000 0.0000 0.0000 0.0000 16.6942
#
#
#
# Elastic Compliance Matrix: (Units=1/GPa)
#
#
# Indices 1 2 3 4 5 6 
#
# 1 0.013420 -0.001796 -0.003396 0.000000 0.000000 0.000000
# 2 -0.001796 0.019604 -0.007702 0.000000 0.000000 0.000000
# 3 -0.003396 -0.007702 0.012911 0.000000 0.000000 0.000000
# 4 0.000000 0.000000 0.000000 0.000578 0.000000 0.000000
# 5 0.000000 0.000000 0.000000 0.000000 0.035640 0.000000
# 6 0.000000 0.000000 0.000000 0.000000 0.000000 0.059901
#
#
# Mechanical properties :
#
#
# Convention : Reuss Voigt Hill
#
# Bulk Modulus (GPa) = 49.63564 54.28160 51.95862
# Shear Modulus (GPa) = 28.64403 366.16843 197.40623
#
# Velocity S-wave (km/s) = 3.83137 13.69864 10.05813
# Velocity P-wave (km/s) = 6.70892 16.67398 12.70888
#
# Compressibility (1/GPa) = 0.02014682
#
# Stress axis : x y z
#
# Youngs Moduli (GPa) = 74.51824 51.01073 77.45307
#
# Poissons Ratio (x) = 0.09163 0.26301
# Poissons Ratio (y) = 0.13385 0.59653
# Poissons Ratio (z) = 0.25304 0.39288
#
# Static dielectric constant tensor:
#      x y z
#    x 1.699440 0.000000 0.000000 
#    y 0.000000 1.693310 0.000000 
#    z 0.000000 0.000000 1.688950 
# 
# From -- ./inp_files/14337.got.cif
#   From: 2010.05.17/outbox.cif.g08.bks.cpg/sg54_8_cif.got.tgz:14337.got - 2010.06.03 13:09:01.
