data_PCOD9421608
_publ_section_title
;
Structure prediction by ZEFSAII (Michael W. Deem and Ramdas Pophale) SiO2 
 PCOD9421608
Probable space group: P C C A
;
_chemical_formula_sum "Si O2"
_cell_formula_units_Z 52
_cell_length_a 13.702362
_cell_length_b 19.870744
_cell_length_c 8.352737
_cell_angle_alpha 90.000000
_cell_angle_beta 90.000000
_cell_angle_gamma 90.000000
_cell_volume 2274.250884
_symmetry_space_group_name_H-M "P C C A"
_symmetry_group_IT_number 54
_symmetry_cell_setting 'orthorhombic'
loop_
_space_group_symop_operation_xyz
x,y,z
1/2-x,-y,z
1/2+x,-y,1/2-z
-x,y,1/2-z
-x,-y,-z
1/2+x,y,-z
1/2-x,y,1/2+z
x,-y,1/2+z
loop_
_atom_site_type_symbol
_atom_site_label
_atom_site_fract_x
_atom_site_fract_y
_atom_site_fract_z
Si Si1 0.000000 0.314625 0.750000
Si Si2 0.750000 0.000000 0.061605
Si Si3 0.664671 0.749708 0.931604
Si Si4 0.250000 0.500000 0.296655
Si Si5 0.367009 0.786742 0.209748
Si Si6 0.438285 0.640443 0.093861
Si Si7 0.393277 0.064133 0.694130
Si Si8 0.280032 0.597136 0.548412
O O1 0.910756 0.265261 0.790188
O O2 0.985256 0.355748 0.584279
O O3 0.837415 0.969145 0.955352
O O4 0.690333 0.946359 0.169713
O O5 0.756392 0.785886 0.854031
O O6 0.693675 0.673363 0.981078
O O7 0.629753 0.782162 0.096838
O O8 0.311732 0.548816 0.407705
O O9 0.186797 0.554783 0.201254
O O10 0.412603 0.718720 0.136730
O O11 0.410134 0.857420 0.156670
O O12 0.500000 0.617939 0.250000
O O13 0.337374 0.600029 0.072932
O O14 0.500000 0.036588 0.750000
#
# Coordination Sequence:
#
# PCOD9421608 Si02
#       8
#     4   4   8   4   8   8   8   8
#     4  12  24  36  64  98 128 172 212 256 348 424
#     4  10  24  44  66 104 138 196 246 284 348 416
#     4  11  22  39  64  95 134 170 216 280 354 416
#     4  10  20  36  64  84 112 164 230 262 322 412
#     4  11  22  41  66  98 133 174 222 283 341 414
#     4  11  22  41  62  92 130 164 208 271 344 406
#     4  11  23  43  72  98 144 188 239 298 346 412
#     4  10  21  39  62  85 119 168 213 271 334 406
#
# _framework density 22.864671999999999
#
# number of rings (size 3 to 8) (size 9 to 14) (size 15 to 20)
#    0.000    1.231    1.538    6.462    0.000    0.000 
#    0.000    0.769   11.846    0.000    0.000    0.000 
#    0.000    0.000    0.000    0.000    0.000    0.000 
#
# Total GULP energy -290082.707599 kJ/mol
# GULP energy per Si atom -5578.513608 kJ/mol
# Density = 2.281263 g / cm^3
# Si number density = 22.864672 Si / 1000 Ang^3
#
#
#
# Elastic Constant Matrix: (Units=GPa)
#
#
# Indices 1 2 3 4 5 6 
#
# 1 100.4313 -0.2571 17.0684 0.0000 0.0000 0.0000
# 2 -0.2571 68.3292 4.9964 0.0000 0.0000 0.0000
# 3 17.0684 4.9964 119.5665 0.0000 0.0000 0.0000
# 4 0.0000 0.0000 0.0000 19.8633 0.0000 0.0000
# 5 0.0000 0.0000 0.0000 0.0000 36.0053 0.0000
# 6 0.0000 0.0000 0.0000 0.0000 0.0000 5.7428
#
#
#
# Elastic Compliance Matrix: (Units=1/GPa)
#
#
# Indices 1 2 3 4 5 6 
#
# 1 0.010206 0.000145 -0.001463 0.000000 0.000000 0.000000
# 2 0.000145 0.014682 -0.000634 0.000000 0.000000 0.000000
# 3 -0.001463 -0.000634 0.008599 0.000000 0.000000 0.000000
# 4 0.000000 0.000000 0.000000 0.050344 0.000000 0.000000
# 5 0.000000 0.000000 0.000000 0.000000 0.027774 0.000000
# 6 0.000000 0.000000 0.000000 0.000000 0.000000 0.174133
#
#
# Mechanical properties :
#
#
# Convention : Reuss Voigt Hill
#
# Bulk Modulus (GPa) = 33.80309 36.88249 35.34279
# Shear Modulus (GPa) = 16.69437 30.09022 23.39229
#
# Velocity S-wave (km/s) = 2.70504 3.63163 3.20203
# Velocity P-wave (km/s) = 4.95705 5.80954 5.40014
#
# Compressibility (1/GPa) = 0.02958309
#
# Stress axis : x y z
#
# Youngs Moduli (GPa) = 97.98093 68.11085 116.29392
#
# Poissons Ratio (x) = -0.00990 0.17014
# Poissons Ratio (y) = -0.01424 0.07376
# Poissons Ratio (z) = 0.14335 0.04320
#
# Static dielectric constant tensor:
#      x y z
#    x 1.912990 0.000000 0.000000 
#    y 0.000000 1.841860 0.000000 
#    z 0.000000 0.000000 1.929630 
# 
# From -- ./inp_files/3663.got.cif
#   From: 2010.05.17/outbox.cif.g08.bks.cpg/sg54_2_cif.got.tgz:3663.got - 2010.06.03 13:09:01.
