data_PCOD9421611
_publ_section_title
;
Structure prediction by ZEFSAII (Michael W. Deem and Ramdas Pophale) SiO2 
 PCOD9421611
Probable space group: P C C A
;
_chemical_formula_sum "Si O2"
_cell_formula_units_Z 40
_cell_length_a 5.738947
_cell_length_b 11.708490
_cell_length_c 30.567100
_cell_angle_alpha 90.000000
_cell_angle_beta 90.000000
_cell_angle_gamma 90.000000
_cell_volume 2053.938053
_symmetry_space_group_name_H-M "P C C A"
_symmetry_group_IT_number 54
_symmetry_cell_setting 'orthorhombic'
loop_
_space_group_symop_operation_xyz
x,y,z
1/2-x,-y,z
1/2+x,-y,1/2-z
-x,y,1/2-z
-x,-y,-z
1/2+x,y,-z
1/2-x,y,1/2+z
x,-y,1/2+z
loop_
_atom_site_type_symbol
_atom_site_label
_atom_site_fract_x
_atom_site_fract_y
_atom_site_fract_z
Si Si1 0.217858 0.370986 0.664665
Si Si2 0.500000 0.290711 0.250000
Si Si3 0.098625 0.811905 0.808726
Si Si4 0.250000 0.000000 0.177054
Si Si5 0.536920 0.825741 0.618616
Si Si6 0.484026 0.868372 0.983659
O O1 0.250000 0.500000 0.650269
O O2 0.071502 0.368211 0.709443
O O3 0.444251 0.300115 0.680764
O O4 0.079054 0.297102 0.628697
O O5 0.707495 0.214861 0.228364
O O6 0.221634 0.834264 0.855390
O O7 0.939396 0.921872 0.798651
O O8 0.122331 0.911621 0.145738
O O9 0.545707 0.858525 0.568355
O O10 0.741301 0.819590 0.996159
O O11 0.500000 0.000000 0.000000
#
# Coordination Sequence:
#
# PCOD9421611 Si02
#       6
#     8   4   8   4   8   8
#     4  10  23  40  67  91 120 169 219 277 330 383
#     4  10  22  38  62  94 122 160 222 276 320 380
#     4  10  22  38  64  90 127 169 214 264 330 384
#     4  10  20  36  64  86 128 176 206 252 320 398
#     4  10  22  38  63  93 132 168 209 264 324 399
#     4  10  22  35  61 100 129 168 214 264 324 388
#
# _framework density 19.474785000000001
#
# number of rings (size 3 to 8) (size 9 to 14) (size 15 to 20)
#    0.000    2.000    0.000    2.400   14.000    2.400 
#    0.000    0.000  158.400    1.200    0.000    0.000 
#    0.000    0.000    0.000    0.000    0.000    0.000 
#
# Total GULP energy -223090.239172 kJ/mol
# GULP energy per Si atom -5577.255979 kJ/mol
# Density = 1.943046 g / cm^3
# Si number density = 19.474785 Si / 1000 Ang^3
#
#
#
# Elastic Constant Matrix: (Units=GPa)
#
#
# Indices 1 2 3 4 5 6 
#
# 1 104.9175 29.9701 17.5934 0.0000 0.0000 0.0000
# 2 29.9701 119.6980 23.9643 0.0000 0.0000 0.0000
# 3 17.5934 23.9643 120.2095 0.0000 0.0000 0.0000
# 4 0.0000 0.0000 0.0000 18.8858 0.0000 0.0000
# 5 0.0000 0.0000 0.0000 0.0000 62.0334 0.0000
# 6 0.0000 0.0000 0.0000 0.0000 0.0000 8.9431
#
#
#
# Elastic Compliance Matrix: (Units=1/GPa)
#
#
# Indices 1 2 3 4 5 6 
#
# 1 0.010390 -0.002392 -0.001044 0.000000 0.000000 0.000000
# 2 -0.002392 0.009253 -0.001494 0.000000 0.000000 0.000000
# 3 -0.001044 -0.001494 0.008769 0.000000 0.000000 0.000000
# 4 0.000000 0.000000 0.000000 0.052950 0.000000 0.000000
# 5 0.000000 0.000000 0.000000 0.000000 0.016120 0.000000
# 6 0.000000 0.000000 0.000000 0.000000 0.000000 0.111818
#
#
# Mechanical properties :
#
#
# Convention : Reuss Voigt Hill
#
# Bulk Modulus (GPa) = 53.90610 54.20895 54.05753
# Shear Modulus (GPa) = 22.18820 36.19227 29.19024
#
# Velocity S-wave (km/s) = 3.37906 4.31561 3.87573
# Velocity P-wave (km/s) = 6.55470 7.26144 6.91710
#
# Compressibility (1/GPa) = 0.01855078
#
# Stress axis : x y z
#
# Youngs Moduli (GPa) = 96.24906 108.07807 114.03193
#
# Poissons Ratio (x) = 0.25857 0.11901
# Poissons Ratio (y) = 0.23027 0.17041
# Poissons Ratio (z) = 0.10045 0.16151
#
# Static dielectric constant tensor:
#      x y z
#    x 1.797180 0.000000 0.000000 
#    y 0.000000 1.691810 0.000000 
#    z 0.000000 0.000000 1.653780 
# 
# From -- ./inp_files/27062.got.cif
#   From: 2010.05.17/outbox.cif.g08.bks.cpg/sg54_14_cif.got.tgz:27062.got - 2010.06.03 13:09:01.
