data_PCOD9421114
_publ_section_title
;
Structure prediction by ZEFSAII (Michael W. Deem and Ramdas Pophale) SiO2 
 PCOD9421114
Probable space group: P C C A
;
_chemical_formula_sum "Si O2"
_cell_formula_units_Z 64
_cell_length_a 25.750681
_cell_length_b 20.850555
_cell_length_c 5.596662
_cell_angle_alpha 90.000000
_cell_angle_beta 90.000000
_cell_angle_gamma 90.000000
_cell_volume 3004.937321
_symmetry_space_group_name_H-M "P C C A"
_symmetry_group_IT_number 54
_symmetry_cell_setting 'orthorhombic'
loop_
_space_group_symop_operation_xyz
x,y,z
1/2-x,-y,z
1/2+x,-y,1/2-z
-x,y,1/2-z
-x,-y,-z
1/2+x,y,-z
1/2-x,y,1/2+z
x,-y,1/2+z
loop_
_atom_site_type_symbol
_atom_site_label
_atom_site_fract_x
_atom_site_fract_y
_atom_site_fract_z
Si Si1 0.940861 0.524666 0.036181
Si Si2 0.725671 0.755965 0.878029
Si Si3 0.877239 0.861544 0.958224
Si Si4 0.764208 0.904135 0.903113
Si Si5 0.553467 0.210952 0.269008
Si Si6 0.449289 0.333775 0.580387
Si Si7 0.878018 0.739764 0.634702
Si Si8 0.559557 0.022832 0.952116
O O1 0.917468 0.507224 0.774962
O O2 0.943991 0.601094 0.067364
O O3 0.000000 0.500000 0.000000
O O4 0.757301 0.733259 0.114685
O O5 0.666983 0.735448 0.939901
O O6 0.736777 0.833170 0.874600
O O7 0.824698 0.900102 0.968830
O O8 0.863145 0.799186 0.802428
O O9 0.925475 0.905003 0.870940
O O10 0.898274 0.832959 0.203252
O O11 0.762116 0.932698 0.638029
O O12 0.500000 0.173166 0.250000
O O13 0.567095 0.239058 0.522575
O O14 0.547600 0.270527 0.086334
O O15 0.500000 0.340850 0.750000
O O16 0.395377 0.322964 0.724617
O O17 0.581421 0.983782 0.723355
O O18 0.500000 0.000000 0.000000
#
# Coordination Sequence:
#
# PCOD9421114 Si02
#       8
#     8   8   8   8   8   8   8   8
#     4  10  21  34  59  75 106 170 223 251 290 335
#     4  10  19  36  58  84 120 150 193 238 303 368
#     4  11  24  38  64  88 115 159 204 240 312 373
#     4  10  19  35  61  91 115 145 190 243 296 367
#     4  11  24  33  55  83 125 164 194 243 302 373
#     4  11  22  37  49  85 129 165 206 252 303 356
#     4  11  23  36  58  91 123 161 196 249 310 381
#     4  10  25  45  64  84 115 155 203 258 289 344
#
# _framework density 21.298280999999999
#
# number of rings (size 3 to 8) (size 9 to 14) (size 15 to 20)
#    0.000    1.500    5.000    1.500    8.750    1.000 
#    0.000    0.000    0.000    2.250    0.000    0.000 
#    0.000    3.000    0.000    0.000    0.000    0.000 
#
# Total GULP energy -356501.977678 kJ/mol
# GULP energy per Si atom -5570.343401 kJ/mol
# Density = 2.124981 g / cm^3
# Si number density = 21.298281 Si / 1000 Ang^3
#
#
#
# Elastic Constant Matrix: (Units=GPa)
#
#
# Indices 1 2 3 4 5 6 
#
# 1 66.1763 3.2678 -6.1894 0.0000 0.0000 0.0000
# 2 3.2678 50.0850 -9.0513 0.0000 0.0000 0.0000
# 3 -6.1894 -9.0513 108.6178 0.0000 0.0000 0.0000
# 4 0.0000 0.0000 0.0000 35.3268 0.0000 0.0000
# 5 0.0000 0.0000 0.0000 0.0000 30.3185 0.0000
# 6 0.0000 0.0000 0.0000 0.0000 0.0000 8.7403
#
#
#
# Elastic Compliance Matrix: (Units=1/GPa)
#
#
# Indices 1 2 3 4 5 6 
#
# 1 0.015228 -0.000850 0.000797 0.000000 0.000000 0.000000
# 2 -0.000850 0.020319 0.001645 0.000000 0.000000 0.000000
# 3 0.000797 0.001645 0.009389 0.000000 0.000000 0.000000
# 4 0.000000 0.000000 0.000000 0.028307 0.000000 0.000000
# 5 0.000000 0.000000 0.000000 0.000000 0.032983 0.000000
# 6 0.000000 0.000000 0.000000 0.000000 0.000000 0.114413
#
#
# Mechanical properties :
#
#
# Convention : Reuss Voigt Hill
#
# Bulk Modulus (GPa) = 20.78145 22.32593 21.55369
# Shear Modulus (GPa) = 21.41384 30.66726 26.04055
#
# Velocity S-wave (km/s) = 3.17429 3.79871 3.50045
# Velocity P-wave (km/s) = 4.81802 5.45395 5.14581
#
# Compressibility (1/GPa) = 0.04811984
#
# Stress axis : x y z
#
# Youngs Moduli (GPa) = 65.67012 49.21568 106.50686
#
# Poissons Ratio (x) = 0.04181 -0.08488
# Poissons Ratio (y) = 0.05579 -0.17518
# Poissons Ratio (z) = -0.05233 -0.08095
#
# Static dielectric constant tensor:
#      x y z
#    x 1.792140 0.000000 0.000000 
#    y 0.000000 1.780620 0.000000 
#    z 0.000000 0.000000 1.922380 
# 
# From -- ./inp_files/2020.got.cif
#   From: 2010.05.17/outbox.cif.g08.bks.cpg/sg54_2_cif.got.tgz:2020.got - 2010.06.03 13:09:01.
