data_PCOD9421775
_publ_section_title
;
Structure prediction by ZEFSAII (Michael W. Deem and Ramdas Pophale) SiO2 
 PCOD9421775
Probable space group: P C C A
;
_chemical_formula_sum "Si O2"
_cell_formula_units_Z 56
_cell_length_a 13.742898
_cell_length_b 15.499988
_cell_length_c 11.246811
_cell_angle_alpha 90.000000
_cell_angle_beta 90.000000
_cell_angle_gamma 90.000000
_cell_volume 2395.736679
_symmetry_space_group_name_H-M "P C C A"
_symmetry_group_IT_number 54
_symmetry_cell_setting 'orthorhombic'
loop_
_space_group_symop_operation_xyz
x,y,z
1/2-x,-y,z
1/2+x,-y,1/2-z
-x,y,1/2-z
-x,-y,-z
1/2+x,y,-z
1/2-x,y,1/2+z
x,-y,1/2+z
loop_
_atom_site_type_symbol
_atom_site_label
_atom_site_fract_x
_atom_site_fract_y
_atom_site_fract_z
Si Si1 0.454498 0.195806 0.134533
Si Si2 0.863912 0.975271 0.437997
Si Si3 0.131745 0.769918 0.799893
Si Si4 0.804972 0.325964 0.776998
Si Si5 0.864477 0.029715 0.186823
Si Si6 0.030526 0.703023 0.562162
Si Si7 0.198232 0.592368 0.487198
O O1 0.500000 0.153503 0.250000
O O2 0.380191 0.127362 0.078973
O O3 0.404722 0.284385 0.179513
O O4 0.535573 0.227937 0.043061
O O5 0.903551 0.009716 0.563673
O O6 0.750000 0.000000 0.441325
O O7 0.904606 0.014633 0.317592
O O8 0.243689 0.753827 0.775022
O O9 0.121288 0.868528 0.831043
O O10 0.081532 0.744365 0.676327
O O11 0.083004 0.705584 0.897183
O O12 0.803390 0.383938 0.655928
O O13 0.754266 0.360870 0.899294
O O14 0.750000 0.000000 0.192496
O O15 0.086142 0.615774 0.525988
O O16 0.250000 0.500000 0.491037
#
# Coordination Sequence:
#
# PCOD9421775 Si02
#       7
#     8   8   8   8   8   8   8
#     4  12  23  43  69 101 138 186 251 307 354 437
#     4  10  22  39  62  94 136 188 243 304 367 417
#     4  10  21  42  71  96 141 196 247 296 366 445
#     4  11  23  42  73 103 143 192 242 286 368 454
#     4  10  20  38  62  94 133 186 247 307 363 419
#     4  10  22  43  69 102 140 186 243 307 366 436
#     4  11  24  44  72 108 146 185 232 298 374 451
#
# _framework density 23.374858
#
# number of rings (size 3 to 8) (size 9 to 14) (size 15 to 20)
#    0.000    1.429    2.857    3.000    0.000    1.143 
#    5.143    4.286    3.143    0.000    0.000    0.000 
#    0.000    0.000    0.000    0.000    0.000    0.000 
#
# Total GULP energy -311777.962708 kJ/mol
# GULP energy per Si atom -5567.463620 kJ/mol
# Density = 2.332166 g / cm^3
# Si number density = 23.374858 Si / 1000 Ang^3
#
#
#
# Elastic Constant Matrix: (Units=GPa)
#
#
# Indices 1 2 3 4 5 6 
#
# 1 59.1144 21.3699 27.3908 0.0000 0.0000 0.0000
# 2 21.3699 90.4294 35.8352 0.0000 0.0000 0.0000
# 3 27.3908 35.8352 218.4368 0.0000 0.0000 0.0000
# 4 0.0000 0.0000 0.0000 17.6450 0.0000 0.0000
# 5 0.0000 0.0000 0.0000 0.0000 17.1520 0.0000
# 6 0.0000 0.0000 0.0000 0.0000 0.0000 34.7180
#
#
#
# Elastic Compliance Matrix: (Units=1/GPa)
#
#
# Indices 1 2 3 4 5 6 
#
# 1 0.019116 -0.003816 -0.001771 0.000000 0.000000 0.000000
# 2 -0.003816 0.012589 -0.001587 0.000000 0.000000 0.000000
# 3 -0.001771 -0.001587 0.005060 0.000000 0.000000 0.000000
# 4 0.000000 0.000000 0.000000 0.056673 0.000000 0.000000
# 5 0.000000 0.000000 0.000000 0.000000 0.058302 0.000000
# 6 0.000000 0.000000 0.000000 0.000000 0.000000 0.028804
#
#
# Mechanical properties :
#
#
# Convention : Reuss Voigt Hill
#
# Bulk Modulus (GPa) = 44.60599 59.68582 52.14590
# Shear Modulus (GPa) = 24.70788 32.79531 28.75159
#
# Velocity S-wave (km/s) = 3.25472 3.74975 3.51097
# Velocity P-wave (km/s) = 5.76616 6.65861 6.22839
#
# Compressibility (1/GPa) = 0.02241851
#
# Stress axis : x y z
#
# Youngs Moduli (GPa) = 52.31120 79.43539 197.61330
#
# Poissons Ratio (x) = 0.30310 0.35000
# Poissons Ratio (y) = 0.19960 0.31357
# Poissons Ratio (z) = 0.09265 0.12605
#
# Static dielectric constant tensor:
#      x y z
#    x 1.928810 0.000000 0.000000 
#    y 0.000000 1.844200 0.000000 
#    z 0.000000 0.000000 1.966850 
# 
# From -- ./inp_files/8410.got.cif
#   From: 2010.05.17/outbox.cif.g08.bks.cpg/sg54_5_cif.got.tgz:8410.got - 2010.06.03 13:09:01.
