data_PCOD9421359
_publ_section_title
;
Structure prediction by ZEFSAII (Michael W. Deem and Ramdas Pophale) SiO2 
 PCOD9421359
Probable space group: P C C A
;
_chemical_formula_sum "Si O2"
_cell_formula_units_Z 60
_cell_length_a 29.559313
_cell_length_b 11.739381
_cell_length_c 8.624151
_cell_angle_alpha 90.000000
_cell_angle_beta 90.000000
_cell_angle_gamma 90.000000
_cell_volume 2992.649713
_symmetry_space_group_name_H-M "P C C A"
_symmetry_group_IT_number 54
_symmetry_cell_setting 'orthorhombic'
loop_
_space_group_symop_operation_xyz
x,y,z
1/2-x,-y,z
1/2+x,-y,1/2-z
-x,y,1/2-z
-x,-y,-z
1/2+x,y,-z
1/2-x,y,1/2+z
x,-y,1/2+z
loop_
_atom_site_type_symbol
_atom_site_label
_atom_site_fract_x
_atom_site_fract_y
_atom_site_fract_z
Si Si1 0.948381 0.861812 0.300713
Si Si2 0.691117 0.889176 0.373787
Si Si3 0.079549 0.551083 0.403003
Si Si4 0.365366 0.773186 0.334296
Si Si5 0.453221 0.647811 0.199625
Si Si6 0.750000 0.000000 0.114768
Si Si7 0.102146 0.011898 0.961874
Si Si8 0.110967 0.346367 0.615812
O O1 0.931241 0.742240 0.372931
O O2 0.000000 0.859001 0.250000
O O3 0.935933 0.961738 0.422578
O O4 0.917946 0.893197 0.151322
O O5 0.674571 0.773554 0.291488
O O6 0.710634 0.959791 0.228671
O O7 0.729901 0.901224 0.503840
O O8 0.645991 0.941810 0.449013
O O9 0.049014 0.474378 0.288632
O O10 0.050773 0.631755 0.515409
O O11 0.101891 0.461228 0.520187
O O12 0.115597 0.615641 0.293990
O O13 0.408668 0.710517 0.261349
O O14 0.354546 0.721116 0.504151
O O15 0.381321 0.901571 0.367173
O O16 0.500000 0.704885 0.250000
#
# Coordination Sequence:
#
# PCOD9421359 Si02
#       8
#     8   8   8   8   8   4   8   8
#     4  11  23  35  51  79 114 168 220 238 281 343
#     4  11  20  40  57  88 112 153 189 233 303 350
#     4   9  19  37  53  75 110 155 209 263 302 327
#     4  10  21  36  53  83 119 149 195 239 289 354
#     4  10  20  33  54  80 115 161 210 252 297 340
#     4  10  22  36  68  82 110 156 192 232 294 390
#     4  11  21  38  54  75 123 163 189 254 285 333
#     4   9  21  36  55  77 110 153 201 256 292 342
#
# _framework density 20.049123000000002
#
# number of rings (size 3 to 8) (size 9 to 14) (size 15 to 20)
#    0.000    1.867    2.667    0.800    1.867    5.867 
#    0.000    0.000    0.000    0.000    0.000    0.000 
#    0.000   51.200    0.000    0.000    0.000    0.000 
#
# Total GULP energy -334295.840277 kJ/mol
# GULP energy per Si atom -5571.597338 kJ/mol
# Density = 2.000349 g / cm^3
# Si number density = 20.049123 Si / 1000 Ang^3
#
#
#
# Elastic Constant Matrix: (Units=GPa)
#
#
# Indices 1 2 3 4 5 6 
#
# 1 62.5262 14.0955 36.0443 0.0000 0.0000 0.0000
# 2 14.0955 45.7135 25.9271 0.0000 0.0000 0.0000
# 3 36.0443 25.9271 127.6342 0.0000 0.0000 0.0000
# 4 0.0000 0.0000 0.0000 31.3561 0.0000 0.0000
# 5 0.0000 0.0000 0.0000 0.0000 29.4750 0.0000
# 6 0.0000 0.0000 0.0000 0.0000 0.0000 13.5453
#
#
#
# Elastic Compliance Matrix: (Units=1/GPa)
#
#
# Indices 1 2 3 4 5 6 
#
# 1 0.019526 -0.003270 -0.004850 0.000000 0.000000 0.000000
# 2 -0.003270 0.025271 -0.004210 0.000000 0.000000 0.000000
# 3 -0.004850 -0.004210 0.010060 0.000000 0.000000 0.000000
# 4 0.000000 0.000000 0.000000 0.031892 0.000000 0.000000
# 5 0.000000 0.000000 0.000000 0.000000 0.033927 0.000000
# 6 0.000000 0.000000 0.000000 0.000000 0.000000 0.073826
#
#
# Mechanical properties :
#
#
# Convention : Reuss Voigt Hill
#
# Bulk Modulus (GPa) = 33.11559 43.11197 38.11378
# Shear Modulus (GPa) = 21.81225 25.52907 23.67066
#
# Velocity S-wave (km/s) = 3.30197 3.57224 3.43976
# Velocity P-wave (km/s) = 5.57588 6.21002 5.90148
#
# Compressibility (1/GPa) = 0.03019726
#
# Stress axis : x y z
#
# Youngs Moduli (GPa) = 51.21277 39.57030 99.40585
#
# Poissons Ratio (x) = 0.12940 0.48212
# Poissons Ratio (y) = 0.16747 0.41851
# Poissons Ratio (z) = 0.24838 0.16659
#
# Static dielectric constant tensor:
#      x y z
#    x 1.731040 0.000000 0.000000 
#    y 0.000000 1.751630 0.000000 
#    z 0.000000 0.000000 1.802020 
# 
# From -- ./inp_files/5574.got.cif
#   From: 2010.05.17/outbox.cif.g08.bks.cpg/sg54_3_cif.got.tgz:5574.got - 2010.06.03 13:09:01.
