data_PCOD9421336
_publ_section_title
;
Structure prediction by ZEFSAII (Michael W. Deem and Ramdas Pophale) SiO2 
 PCOD9421336
Probable space group: P C C A
;
_chemical_formula_sum "Si O2"
_cell_formula_units_Z 48
_cell_length_a 22.572120
_cell_length_b 6.228165
_cell_length_c 18.119417
_cell_angle_alpha 90.000000
_cell_angle_beta 90.000000
_cell_angle_gamma 90.000000
_cell_volume 2547.279966
_symmetry_space_group_name_H-M "P C C A"
_symmetry_group_IT_number 54
_symmetry_cell_setting 'orthorhombic'
loop_
_space_group_symop_operation_xyz
x,y,z
1/2-x,-y,z
1/2+x,-y,1/2-z
-x,y,1/2-z
-x,-y,-z
1/2+x,y,-z
1/2-x,y,1/2+z
x,-y,1/2+z
loop_
_atom_site_type_symbol
_atom_site_label
_atom_site_fract_x
_atom_site_fract_y
_atom_site_fract_z
Si Si1 0.819304 0.959022 0.013042
Si Si2 0.519390 0.098932 0.404776
Si Si3 0.398014 0.286115 0.375598
Si Si4 0.409808 0.344504 0.982739
Si Si5 0.434466 0.576991 0.721167
Si Si6 0.107494 0.281790 0.101843
O O1 0.855541 0.179998 0.023381
O O2 0.750000 0.000000 0.015744
O O3 0.841872 0.798777 0.078278
O O4 0.839923 0.860978 0.933640
O O5 0.449823 0.114776 0.392264
O O6 0.536292 0.211501 0.482068
O O7 0.548968 0.243133 0.339791
O O8 0.550470 0.871117 0.401148
O O9 0.418916 0.514902 0.409841
O O10 0.397734 0.320710 0.288421
O O11 0.397104 0.524297 0.044247
O O12 0.500000 0.503110 0.750000
O O13 0.396072 0.391900 0.681724
#
# Coordination Sequence:
#
# PCOD9421336 Si02
#       6
#     8   8   8   8   8   8
#     4  10  22  38  57  79 108 149 198 246 283 321
#     4   9  18  33  52  82 113 142 177 220 283 353
#     4  10  20  32  54  83 114 145 178 228 288 343
#     4   9  19  34  55  79 106 138 183 231 279 334
#     4   9  19  33  52  81 113 144 178 222 288 355
#     4   9  19  35  57  80 109 146 184 227 279 345
#
# _framework density 18.843630999999998
#
# number of rings (size 3 to 8) (size 9 to 14) (size 15 to 20)
#    0.000    2.667    0.000    0.500    0.000   17.333 
#    0.000    0.000    0.000   24.000    0.000    0.000 
#    0.000    0.000    0.000    0.000    0.000    0.000 
#
# Total GULP energy -267612.938851 kJ/mol
# GULP energy per Si atom -5575.269559 kJ/mol
# Density = 1.880074 g / cm^3
# Si number density = 18.843631 Si / 1000 Ang^3
#
#
#
# Elastic Constant Matrix: (Units=GPa)
#
#
# Indices 1 2 3 4 5 6 
#
# 1 108.6050 33.5292 55.6718 0.0000 0.0000 0.0000
# 2 33.5292 77.0641 39.1134 0.0000 0.0000 0.0000
# 3 55.6718 39.1134 118.1375 0.0000 0.0000 0.0000
# 4 0.0000 0.0000 0.0000 28.4038 0.0000 0.0000
# 5 0.0000 0.0000 0.0000 0.0000 13.6524 0.0000
# 6 0.0000 0.0000 0.0000 0.0000 0.0000 13.4076
#
#
#
# Elastic Compliance Matrix: (Units=1/GPa)
#
#
# Indices 1 2 3 4 5 6 
#
# 1 0.012688 -0.002988 -0.004990 0.000000 0.000000 0.000000
# 2 -0.002988 0.016301 -0.003989 0.000000 0.000000 0.000000
# 3 -0.004990 -0.003989 0.012137 0.000000 0.000000 0.000000
# 4 0.000000 0.000000 0.000000 0.035207 0.000000 0.000000
# 5 0.000000 0.000000 0.000000 0.000000 0.073247 0.000000
# 6 0.000000 0.000000 0.000000 0.000000 0.000000 0.074584
#
#
# Mechanical properties :
#
#
# Convention : Reuss Voigt Hill
#
# Bulk Modulus (GPa) = 58.16556 62.27061 60.21808
# Shear Modulus (GPa) = 19.69841 22.79225 21.24533
#
# Velocity S-wave (km/s) = 3.23671 3.48163 3.36140
# Velocity P-wave (km/s) = 6.70096 7.01997 6.86232
#
# Compressibility (1/GPa) = 0.01719230
#
# Stress axis : x y z
#
# Youngs Moduli (GPa) = 78.81487 61.34725 82.39332
#
# Poissons Ratio (x) = 0.18328 0.41114
# Poissons Ratio (y) = 0.23547 0.32866
# Poissons Ratio (z) = 0.39329 0.24471
#
# Static dielectric constant tensor:
#      x y z
#    x 1.636940 0.000000 0.000000 
#    y 0.000000 1.697060 0.000000 
#    z 0.000000 0.000000 1.688800 
# 
# From -- ./inp_files/19040.got.cif
#   From: 2010.05.17/outbox.cif.g08.bks.cpg/sg54_10_cif.got.tgz:19040.got - 2010.06.03 13:09:01.
