data_PCOD9421604
_publ_section_title
;
Structure prediction by ZEFSAII (Michael W. Deem and Ramdas Pophale) SiO2 
 PCOD9421604
Probable space group: P C C A
;
_chemical_formula_sum "Si O2"
_cell_formula_units_Z 60
_cell_length_a 23.204472
_cell_length_b 5.406294
_cell_length_c 19.394841
_cell_angle_alpha 90.000000
_cell_angle_beta 90.000000
_cell_angle_gamma 90.000000
_cell_volume 2433.086639
_symmetry_space_group_name_H-M "P C C A"
_symmetry_group_IT_number 54
_symmetry_cell_setting 'orthorhombic'
loop_
_space_group_symop_operation_xyz
x,y,z
1/2-x,-y,z
1/2+x,-y,1/2-z
-x,y,1/2-z
-x,-y,-z
1/2+x,y,-z
1/2-x,y,1/2+z
x,-y,1/2+z
loop_
_atom_site_type_symbol
_atom_site_label
_atom_site_fract_x
_atom_site_fract_y
_atom_site_fract_z
Si Si1 0.624831 0.508662 0.528697
Si Si2 0.174663 0.141528 0.557185
Si Si3 0.305719 0.116810 0.413645
Si Si4 0.473077 0.249158 0.532066
Si Si5 0.404388 0.115164 0.297980
Si Si6 0.315406 0.903201 0.192170
Si Si7 0.750000 0.500000 0.851223
Si Si8 0.956071 0.372853 0.154687
O O1 0.625242 0.332054 0.462652
O O2 0.686429 0.605722 0.555855
O O3 0.590487 0.745285 0.499950
O O4 0.590877 0.388642 0.592150
O O5 0.223653 0.298035 0.596918
O O6 0.191573 0.050702 0.481919
O O7 0.163215 0.936439 0.613652
O O8 0.360479 0.108237 0.363157
O O9 0.250000 0.000000 0.376392
O O10 0.500000 0.500000 0.500000
O O11 0.485602 0.300612 0.612748
O O12 0.500000 0.000000 0.500000
O O13 0.442878 0.366366 0.305930
O O14 0.360598 0.060459 0.235555
O O15 0.442282 0.867333 0.300893
O O16 0.301529 0.610323 0.195958
O O17 0.250000 0.000000 0.205732
#
# Coordination Sequence:
#
# PCOD9421604 Si02
#       8
#     8   8   8   8   8   8   4   8
#     4  10  21  35  60  91 126 162 207 261 329 388
#     4  11  20  37  57  88 116 164 214 263 313 383
#     4  11  21  36  55  90 130 159 204 262 326 381
#     4  10  20  36  63  93 128 163 206 263 324 396
#     4  11  23  40  61  92 126 165 209 262 332 392
#     4  10  23  39  60  86 120 172 221 261 316 401
#     4  10  22  40  58  82 122 164 230 264 316 392
#     4  10  21  39  60  93 125 157 210 267 325 389
#
# _framework density 24.660035000000001
#
# number of rings (size 3 to 8) (size 9 to 14) (size 15 to 20)
#    0.000    1.600    1.333    5.600    5.600    0.000 
#    0.000    0.000    0.000    0.800    0.000    0.000 
#    0.000    0.000    0.000    0.000    0.000    0.000 
#
# Total GULP energy -334205.830636 kJ/mol
# GULP energy per Si atom -5570.097177 kJ/mol
# Density = 2.460391 g / cm^3
# Si number density = 24.660035 Si / 1000 Ang^3
#
#
#
# Elastic Constant Matrix: (Units=GPa)
#
#
# Indices 1 2 3 4 5 6 
#
# 1 58.6093 16.1075 11.6890 0.0000 0.0000 0.0000
# 2 16.1075 133.6588 21.7805 0.0000 0.0000 0.0000
# 3 11.6890 21.7805 67.7868 0.0000 0.0000 0.0000
# 4 0.0000 0.0000 0.0000 9.7149 0.0000 0.0000
# 5 0.0000 0.0000 0.0000 0.0000 34.1342 0.0000
# 6 0.0000 0.0000 0.0000 0.0000 0.0000 40.4859
#
#
#
# Elastic Compliance Matrix: (Units=1/GPa)
#
#
# Indices 1 2 3 4 5 6 
#
# 1 0.018054 -0.001761 -0.002548 0.000000 0.000000 0.000000
# 2 -0.001761 0.008067 -0.002288 0.000000 0.000000 0.000000
# 3 -0.002548 -0.002288 0.015927 0.000000 0.000000 0.000000
# 4 0.000000 0.000000 0.000000 0.102934 0.000000 0.000000
# 5 0.000000 0.000000 0.000000 0.000000 0.029296 0.000000
# 6 0.000000 0.000000 0.000000 0.000000 0.000000 0.024700
#
#
# Mechanical properties :
#
#
# Convention : Reuss Voigt Hill
#
# Bulk Modulus (GPa) = 34.65642 39.91209 37.28425
# Shear Modulus (GPa) = 22.54392 30.89886 26.72139
#
# Velocity S-wave (km/s) = 3.02684 3.54360 3.29537
# Velocity P-wave (km/s) = 5.12834 5.74133 5.44347
#
# Compressibility (1/GPa) = 0.02885468
#
# Stress axis : x y z
#
# Youngs Moduli (GPa) = 55.38915 123.96475 62.78770
#
# Poissons Ratio (x) = 0.21825 0.15995
# Poissons Ratio (y) = 0.09752 0.14368
# Poissons Ratio (z) = 0.14110 0.28367
#
# Static dielectric constant tensor:
#      x y z
#    x 2.220530 0.000000 0.000000 
#    y 0.000000 2.186010 0.000000 
#    z 0.000000 0.000000 1.982500 
# 
# From -- ./inp_files/22344.got.cif
#   From: 2010.05.17/outbox.cif.g08.bks.cpg/sg54_12_cif.got.tgz:22344.got - 2010.06.03 13:09:01.
