data_PCOD9421410
_publ_section_title
;
Structure prediction by ZEFSAII (Michael W. Deem and Ramdas Pophale) SiO2 
 PCOD9421410
Probable space group: P C C A
;
_chemical_formula_sum "Si O2"
_cell_formula_units_Z 64
_cell_length_a 19.671107
_cell_length_b 10.725317
_cell_length_c 14.778091
_cell_angle_alpha 90.000000
_cell_angle_beta 90.000000
_cell_angle_gamma 90.000000
_cell_volume 3117.864767
_symmetry_space_group_name_H-M "P C C A"
_symmetry_group_IT_number 54
_symmetry_cell_setting 'orthorhombic'
loop_
_space_group_symop_operation_xyz
x,y,z
1/2-x,-y,z
1/2+x,-y,1/2-z
-x,y,1/2-z
-x,-y,-z
1/2+x,y,-z
1/2-x,y,1/2+z
x,-y,1/2+z
loop_
_atom_site_type_symbol
_atom_site_label
_atom_site_fract_x
_atom_site_fract_y
_atom_site_fract_z
Si Si1 0.432609 0.899764 0.187660
Si Si2 0.336134 0.328233 0.739394
Si Si3 0.004268 0.786834 0.978882
Si Si4 0.737618 0.351642 0.936299
Si Si5 0.942410 0.168312 0.826915
Si Si6 0.580931 0.580017 0.751888
Si Si7 0.644300 0.321365 0.556859
Si Si8 0.895248 0.395833 0.541449
O O1 0.500000 0.897532 0.250000
O O2 0.382682 0.791311 0.219464
O O3 0.458359 0.868017 0.086983
O O4 0.402929 0.039822 0.189608
O O5 0.274983 0.324283 0.668577
O O6 0.378434 0.455931 0.721210
O O7 0.319699 0.332261 0.845596
O O8 0.077913 0.763338 0.935382
O O9 0.019954 0.840857 0.077350
O O10 0.962972 0.658914 0.996630
O O11 0.750000 0.500000 0.945472
O O12 0.800336 0.283022 0.983260
O O13 0.668433 0.329152 0.993063
O O14 0.906810 0.302706 0.817840
O O15 0.000000 0.175355 0.750000
O O16 0.500000 0.550116 0.750000
O O17 0.601176 0.620772 0.649986
O O18 0.615150 0.456871 0.529881
#
# Coordination Sequence:
#
# PCOD9421410 Si02
#       8
#     8   8   8   8   8   8   8   8
#     4  11  22  38  61  95 127 160 202 262 307 368
#     4  11  22  38  64  91 120 166 204 256 312 365
#     4  12  20  36  63  93 117 169 202 262 298 373
#     4  10  23  39  57  88 124 168 196 252 311 371
#     4  10  22  37  56  95 133 161 198 249 316 368
#     4  10  20  34  58  94 127 155 201 253 307 363
#     4  10  24  38  56  95 129 156 207 257 311 366
#     4  10  20  35  57  88 128 156 202 249 305 367
#
# _framework density 20.526868
#
# number of rings (size 3 to 8) (size 9 to 14) (size 15 to 20)
#    0.000    1.500    5.000    1.125    5.250    2.500 
#    0.000    0.000    0.000    0.750    0.000    0.000 
#    0.000    0.000    0.000    0.000    0.000    0.000 
#
# Total GULP energy -357432.333778 kJ/mol
# GULP energy per Si atom -5584.880215 kJ/mol
# Density = 2.048015 g / cm^3
# Si number density = 20.526868 Si / 1000 Ang^3
#
#
#
# Elastic Constant Matrix: (Units=GPa)
#
#
# Indices 1 2 3 4 5 6 
#
# 1 71.2962 13.4357 29.4933 0.0000 0.0000 0.0000
# 2 13.4357 88.8678 19.0777 0.0000 0.0000 0.0000
# 3 29.4933 19.0777 107.0213 0.0000 0.0000 0.0000
# 4 0.0000 0.0000 0.0000 -8.7462 0.0000 0.0000
# 5 0.0000 0.0000 0.0000 0.0000 36.0322 0.0000
# 6 0.0000 0.0000 0.0000 0.0000 0.0000 -0.7794
#
#
#
# Elastic Compliance Matrix: (Units=1/GPa)
#
#
# Indices 1 2 3 4 5 6 
#
# 1 0.016029 -0.001534 -0.004144 0.000000 0.000000 0.000000
# 2 -0.001534 0.011847 -0.001689 0.000000 0.000000 0.000000
# 3 -0.004144 -0.001689 0.010787 0.000000 0.000000 0.000000
# 4 0.000000 0.000000 0.000000 -0.114336 0.000000 0.000000
# 5 0.000000 0.000000 0.000000 0.000000 0.027753 0.000000
# 6 0.000000 0.000000 0.000000 0.000000 0.000000 -1.283019
#
#
# Mechanical properties :
#
#
# Convention : Reuss Voigt Hill
#
# Bulk Modulus (GPa) = 41.78932 43.46652 42.62792
# Shear Modulus (GPa) = -3.82196 18.97990 7.57897
#
# Velocity S-wave (km/s) = -1.36601 3.04408 1.92360
# Velocity P-wave (km/s) = 4.23256 5.79454 5.07401
#
# Compressibility (1/GPa) = 0.02392956
#
# Stress axis : x y z
#
# Youngs Moduli (GPa) = 62.38578 84.40818 92.70362
#
# Poissons Ratio (x) = 0.12947 0.38416
# Poissons Ratio (y) = 0.09569 0.15659
# Poissons Ratio (z) = 0.25853 0.14258
#
# Static dielectric constant tensor:
#      x y z
#    x 1.733550 0.000000 0.000000 
#    y 0.000000 1.746430 0.000000 
#    z 0.000000 0.000000 1.757190 
# 
# From -- ./inp_files/14358.got.cif
#   From: 2010.05.17/outbox.cif.g08.bks.cpg/sg54_8_cif.got.tgz:14358.got - 2010.06.03 13:09:01.
