data_PCOD9421595
_publ_section_title
;
Structure prediction by ZEFSAII (Michael W. Deem and Ramdas Pophale) SiO2 
 PCOD9421595
Probable space group: P C C A
;
_chemical_formula_sum "Si O2"
_cell_formula_units_Z 52
_cell_length_a 13.866700
_cell_length_b 12.189311
_cell_length_c 13.389211
_cell_angle_alpha 90.000000
_cell_angle_beta 90.000000
_cell_angle_gamma 90.000000
_cell_volume 2263.118336
_symmetry_space_group_name_H-M "P C C A"
_symmetry_group_IT_number 54
_symmetry_cell_setting 'orthorhombic'
loop_
_space_group_symop_operation_xyz
x,y,z
1/2-x,-y,z
1/2+x,-y,1/2-z
-x,y,1/2-z
-x,-y,-z
1/2+x,y,-z
1/2-x,y,1/2+z
x,-y,1/2+z
loop_
_atom_site_type_symbol
_atom_site_label
_atom_site_fract_x
_atom_site_fract_y
_atom_site_fract_z
Si Si1 0.388597 0.179273 0.408130
Si Si2 0.500000 0.054567 0.250000
Si Si3 0.944293 0.405345 0.555815
Si Si4 0.864864 0.991955 0.430426
Si Si5 0.152154 0.571705 0.833653
Si Si6 0.207270 0.620888 0.621990
Si Si7 0.319870 0.761535 0.482500
O O1 0.418157 0.123992 0.305852
O O2 0.464325 0.279661 0.419823
O O3 0.276498 0.215717 0.415020
O O4 0.392401 0.090369 0.495793
O O5 0.562132 0.998154 0.337697
O O6 0.920443 0.469902 0.658008
O O7 0.860826 0.384407 0.473620
O O8 0.000000 0.500000 0.500000
O O9 0.870513 0.876319 0.491435
O O10 0.750000 0.000000 0.403630
O O11 0.250000 0.500000 0.853138
O O12 0.157090 0.634737 0.728813
O O13 0.132503 0.661855 0.919972
O O14 0.250000 0.500000 0.630624
O O15 0.285395 0.710278 0.588684
#
# Coordination Sequence:
#
# PCOD9421595 Si02
#       7
#     8   4   8   8   8   8   8
#     4  10  24  45  62  98 136 175 230 291 343 422
#     4  12  26  44  76 104 136 180 238 292 354 414
#     4  11  23  41  61  93 138 173 219 280 345 409
#     4  10  25  47  71 100 139 185 234 295 351 420
#     4  11  20  37  64  95 127 179 221 279 342 409
#     4  10  20  36  62  92 131 171 226 271 338 417
#     4  10  20  42  67  97 135 175 229 284 348 412
#
# _framework density 22.977145
#
# number of rings (size 3 to 8) (size 9 to 14) (size 15 to 20)
#    0.000    1.538    4.615    0.462    4.308    3.692 
#    5.538    0.000    0.000    0.000    0.000    0.000 
#    0.000    0.000    0.000    0.000    0.000    0.000 
#
# Total GULP energy -289698.061982 kJ/mol
# GULP energy per Si atom -5571.116577 kJ/mol
# Density = 2.292485 g / cm^3
# Si number density = 22.977145 Si / 1000 Ang^3
#
#
#
# Elastic Constant Matrix: (Units=GPa)
#
#
# Indices 1 2 3 4 5 6 
#
# 1 39.8927 16.8579 0.1743 0.0000 0.0000 0.0000
# 2 16.8579 117.5597 29.4975 0.0000 0.0000 0.0000
# 3 0.1743 29.4975 99.9168 0.0000 0.0000 0.0000
# 4 0.0000 0.0000 0.0000 12.9353 0.0000 0.0000
# 5 0.0000 0.0000 0.0000 0.0000 28.2455 0.0000
# 6 0.0000 0.0000 0.0000 0.0000 0.0000 5.2898
#
#
#
# Elastic Compliance Matrix: (Units=1/GPa)
#
#
# Indices 1 2 3 4 5 6 
#
# 1 0.026811 -0.004140 0.001175 0.000000 0.000000 0.000000
# 2 -0.004140 0.009826 -0.002894 0.000000 0.000000 0.000000
# 3 0.001175 -0.002894 0.010861 0.000000 0.000000 0.000000
# 4 0.000000 0.000000 0.000000 0.077308 0.000000 0.000000
# 5 0.000000 0.000000 0.000000 0.000000 0.035404 0.000000
# 6 0.000000 0.000000 0.000000 0.000000 0.000000 0.189044
#
#
# Mechanical properties :
#
#
# Convention : Reuss Voigt Hill
#
# Bulk Modulus (GPa) = 27.94691 38.93651 33.44171
# Shear Modulus (GPa) = 13.40853 23.35008 18.37930
#
# Velocity S-wave (km/s) = 2.41832 3.19130 2.83131
# Velocity P-wave (km/s) = 4.47068 5.52826 5.02736
#
# Compressibility (1/GPa) = 0.03578213
#
# Stress axis : x y z
#
# Youngs Moduli (GPa) = 37.29752 101.77091 92.07647
#
# Poissons Ratio (x) = 0.42129 -0.10822
# Poissons Ratio (y) = 0.15440 0.26643
# Poissons Ratio (z) = -0.04384 0.29449
#
# Static dielectric constant tensor:
#      x y z
#    x 2.629870 0.000000 0.000000 
#    y 0.000000 2.017660 0.000000 
#    z 0.000000 0.000000 1.818420 
# 
# From -- ./inp_files/14255.got.cif
#   From: 2010.05.17/outbox.cif.g08.bks.cpg/sg54_8_cif.got.tgz:14255.got - 2010.06.03 13:09:01.
