data_PCOD9421726
_publ_section_title
;
Structure prediction by ZEFSAII (Michael W. Deem and Ramdas Pophale) SiO2 
 PCOD9421726
Probable space group: P C C A
;
_chemical_formula_sum "Si O2"
_cell_formula_units_Z 36
_cell_length_a 5.000381
_cell_length_b 11.988753
_cell_length_c 28.712144
_cell_angle_alpha 90.000000
_cell_angle_beta 90.000000
_cell_angle_gamma 90.000000
_cell_volume 1721.245161
_symmetry_space_group_name_H-M "P C C A"
_symmetry_group_IT_number 54
_symmetry_cell_setting 'orthorhombic'
loop_
_space_group_symop_operation_xyz
x,y,z
1/2-x,-y,z
1/2+x,-y,1/2-z
-x,y,1/2-z
-x,-y,-z
1/2+x,y,-z
1/2-x,y,1/2+z
x,-y,1/2+z
loop_
_atom_site_type_symbol
_atom_site_label
_atom_site_fract_x
_atom_site_fract_y
_atom_site_fract_z
Si Si1 0.000000 0.080709 0.750000
Si Si2 0.912390 0.116250 0.648739
Si Si3 0.282003 0.370607 0.030886
Si Si4 0.497508 0.417903 0.697664
Si Si5 0.421950 0.765931 0.118344
O O1 0.922384 0.148340 0.703754
O O2 0.750000 0.000000 0.762520
O O3 0.723877 0.190430 0.616046
O O4 0.214701 0.135309 0.631819
O O5 0.750000 0.000000 0.649175
O O6 0.250000 0.500000 0.045546
O O7 0.188388 0.292497 0.072446
O O8 0.581674 0.353796 0.012712
O O9 0.250000 0.500000 0.696371
O O10 0.500000 0.369097 0.750000
O O11 0.444359 0.323602 0.659816
O O12 0.750000 0.500000 0.689286
#
# Coordination Sequence:
#
# PCOD9421726 Si02
#       5
#     4   8   8   8   8
#     4  10  20  38  58  82 120 164 212 262 304 342
#     4  11  24  39  60  90 126 166 213 268 304 360
#     4  10  22  41  66  95 124 154 202 265 320 375
#     4  10  22  38  56  86 127 162 198 246 302 381
#     4  12  23  38  67  90 121 168 210 256 311 386
#
# _framework density 20.915089999999999
#
# number of rings (size 3 to 8) (size 9 to 14) (size 15 to 20)
#    0.000    1.333    0.000    6.667    3.111    2.667 
#    0.000    0.000    0.000   13.333    0.000    0.000 
#    0.000    0.000    0.000    0.000    0.000    0.000 
#
# Total GULP energy -201021.803074 kJ/mol
# GULP energy per Si atom -5583.938974 kJ/mol
# Density = 2.086749 g / cm^3
# Si number density = 20.915090 Si / 1000 Ang^3
#
#
#
# Elastic Constant Matrix: (Units=GPa)
#
#
# Indices 1 2 3 4 5 6 
#
# 1 117.2225 7.9188 6.1308 0.0000 0.0000 0.0000
# 2 7.9188 42.2853 38.0812 0.0000 0.0000 0.0000
# 3 6.1308 38.0812 51.6678 0.0000 0.0000 0.0000
# 4 0.0000 0.0000 0.0000 19.8427 0.0000 0.0000
# 5 0.0000 0.0000 0.0000 0.0000 18.6236 0.0000
# 6 0.0000 0.0000 0.0000 0.0000 0.0000 25.1765
#
#
#
# Elastic Compliance Matrix: (Units=1/GPa)
#
#
# Indices 1 2 3 4 5 6 
#
# 1 0.008644 -0.002067 0.000498 0.000000 0.000000 0.000000
# 2 -0.002067 0.070828 -0.051958 0.000000 0.000000 0.000000
# 3 0.000498 -0.051958 0.057590 0.000000 0.000000 0.000000
# 4 0.000000 0.000000 0.000000 0.050396 0.000000 0.000000
# 5 0.000000 0.000000 0.000000 0.000000 0.053695 0.000000
# 6 0.000000 0.000000 0.000000 0.000000 0.000000 0.039720
#
#
# Mechanical properties :
#
#
# Convention : Reuss Voigt Hill
#
# Bulk Modulus (GPa) = 33.32389 35.04857 34.18623
# Shear Modulus (GPa) = 12.56499 23.33154 17.94827
#
# Velocity S-wave (km/s) = 2.45370 3.34359 2.93260
# Velocity P-wave (km/s) = 4.89848 5.63028 5.27708
#
# Compressibility (1/GPa) = 0.03000850
#
# Stress axis : x y z
#
# Youngs Moduli (GPa) = 115.68186 14.11869 17.36406
#
# Poissons Ratio (x) = 0.02919 -0.00865
# Poissons Ratio (y) = 0.23915 0.90220
# Poissons Ratio (z) = -0.05760 0.73358
#
# Static dielectric constant tensor:
#      x y z
#    x 1.739400 0.000000 0.000000 
#    y 0.000000 1.757810 0.000000 
#    z 0.000000 0.000000 1.771390 
# 
# From -- ./inp_files/22694.got.cif
#   From: 2010.05.17/outbox.cif.g08.bks.cpg/sg54_12_cif.got.tgz:22694.got - 2010.06.03 13:09:01.
