data_PCOD9421914
_publ_section_title
;
Structure prediction by ZEFSAII (Michael W. Deem and Ramdas Pophale) SiO2 
 PCOD9421914
Probable space group: P C C A
;
_chemical_formula_sum "Si O2"
_cell_formula_units_Z 56
_cell_length_a 20.905981
_cell_length_b 6.844805
_cell_length_c 21.814123
_cell_angle_alpha 90.000000
_cell_angle_beta 90.000000
_cell_angle_gamma 90.000000
_cell_volume 3121.543484
_symmetry_space_group_name_H-M "P C C A"
_symmetry_group_IT_number 54
_symmetry_cell_setting 'orthorhombic'
loop_
_space_group_symop_operation_xyz
x,y,z
1/2-x,-y,z
1/2+x,-y,1/2-z
-x,y,1/2-z
-x,-y,-z
1/2+x,y,-z
1/2-x,y,1/2+z
x,-y,1/2+z
loop_
_atom_site_type_symbol
_atom_site_label
_atom_site_fract_x
_atom_site_fract_y
_atom_site_fract_z
Si Si1 0.250000 0.500000 0.933506
Si Si2 0.250000 0.000000 0.265236
Si Si3 0.920297 0.672105 0.883419
Si Si4 0.455205 0.074095 0.054899
Si Si5 0.668976 0.679626 0.674149
Si Si6 0.039756 0.583449 0.389350
Si Si7 0.808238 0.386935 0.288842
Si Si8 0.877322 0.410761 0.998242
O O1 0.211759 0.361752 0.886142
O O2 0.194312 0.588254 0.975705
O O3 0.194245 0.887930 0.302422
O O4 0.283062 0.827190 0.227798
O O5 0.871191 0.635822 0.828718
O O6 0.890989 0.558527 0.942317
O O7 0.988656 0.576062 0.866981
O O8 0.931378 0.895158 0.903856
O O9 0.497801 0.230667 0.091324
O O10 0.397900 0.197704 0.024871
O O11 0.500000 0.000000 0.000000
O O12 0.595442 0.655382 0.655506
O O13 0.680634 0.516781 0.727268
O O14 0.075370 0.484988 0.447691
O O15 0.750000 0.500000 0.322387
#
# Coordination Sequence:
#
# PCOD9421914 Si02
#       8
#     4   4   8   8   8   8   8   8
#     4  10  20  40  60  86 116 154 194 252 302 354
#     4  10  20  40  62  88 116 156 202 250 298 350
#     4  11  22  39  60  86 122 163 193 245 300 357
#     4  11  19  36  58  89 120 158 192 239 300 358
#     4  10  21  41  63  89 115 158 201 254 303 348
#     4  10  21  37  63  88 123 156 197 244 298 360
#     4  10  23  42  62  82 120 160 202 246 302 357
#     4  10  21  37  59  88 121 153 197 238 300 362
#
# _framework density 17.939844000000001
#
# number of rings (size 3 to 8) (size 9 to 14) (size 15 to 20)
#    0.000    1.714    5.000    0.857    1.000    7.429 
#    0.000    0.000    0.000    0.000    0.000    0.000 
#    0.000    0.000    0.000    0.000    0.000    0.000 
#
# Total GULP energy -312248.281116 kJ/mol
# GULP energy per Si atom -5575.862163 kJ/mol
# Density = 1.789901 g / cm^3
# Si number density = 17.939844 Si / 1000 Ang^3
#
#
#
# Elastic Constant Matrix: (Units=GPa)
#
#
# Indices 1 2 3 4 5 6 
#
# 1 168.6347 74.3721 68.6342 0.0000 0.0000 0.0000
# 2 74.3721 140.2904 41.6788 0.0000 0.0000 0.0000
# 3 68.6342 41.6788 57.9909 0.0000 0.0000 0.0000
# 4 0.0000 0.0000 0.0000 9.5211 0.0000 0.0000
# 5 0.0000 0.0000 0.0000 0.0000 41.4241 0.0000
# 6 0.0000 0.0000 0.0000 0.0000 0.0000 17.4672
#
#
#
# Elastic Compliance Matrix: (Units=1/GPa)
#
#
# Indices 1 2 3 4 5 6 
#
# 1 0.012237 -0.002778 -0.012487 0.000000 0.000000 0.000000
# 2 -0.002778 0.009694 -0.003680 0.000000 0.000000 0.000000
# 3 -0.012487 -0.003680 0.034667 0.000000 0.000000 0.000000
# 4 0.000000 0.000000 0.000000 0.105030 0.000000 0.000000
# 5 0.000000 0.000000 0.000000 0.000000 0.024141 0.000000
# 6 0.000000 0.000000 0.000000 0.000000 0.000000 0.057250
#
#
# Mechanical properties :
#
#
# Convention : Reuss Voigt Hill
#
# Bulk Modulus (GPa) = 53.44713 81.80956 67.62834
# Shear Modulus (GPa) = 17.41295 25.83121 21.62208
#
# Velocity S-wave (km/s) = 3.11887 3.79869 3.47544
# Velocity P-wave (km/s) = 6.54423 8.05861 7.34058
#
# Compressibility (1/GPa) = 0.01871008
#
# Stress axis : x y z
#
# Youngs Moduli (GPa) = 81.71934 103.15955 28.84576
#
# Poissons Ratio (x) = 0.28653 0.36019
# Poissons Ratio (y) = 0.22698 0.10614
# Poissons Ratio (z) = 1.02040 0.37959
#
# Static dielectric constant tensor:
#      x y z
#    x 1.612650 0.000000 0.000000 
#    y 0.000000 1.605900 0.000000 
#    z 0.000000 0.000000 1.618640 
# 
# From -- ./inp_files/24767.got.cif
#   From: 2010.05.17/outbox.cif.g08.bks.cpg/sg54_13_cif.got.tgz:24767.got - 2010.06.03 13:09:01.
