data_PCOD9421248
_publ_section_title
;
Structure prediction by ZEFSAII (Michael W. Deem and Ramdas Pophale) SiO2 
 PCOD9421248
Probable space group: P C C A
;
_chemical_formula_sum "Si O2"
_cell_formula_units_Z 48
_cell_length_a 9.197589
_cell_length_b 7.839894
_cell_length_c 29.068352
_cell_angle_alpha 90.000000
_cell_angle_beta 90.000000
_cell_angle_gamma 90.000000
_cell_volume 2096.064296
_symmetry_space_group_name_H-M "P C C A"
_symmetry_group_IT_number 54
_symmetry_cell_setting 'orthorhombic'
loop_
_space_group_symop_operation_xyz
x,y,z
1/2-x,-y,z
1/2+x,-y,1/2-z
-x,y,1/2-z
-x,-y,-z
1/2+x,y,-z
1/2-x,y,1/2+z
x,-y,1/2+z
loop_
_atom_site_type_symbol
_atom_site_label
_atom_site_fract_x
_atom_site_fract_y
_atom_site_fract_z
Si Si1 0.961949 0.326466 0.199816
Si Si2 0.291797 0.810310 0.851550
Si Si3 0.321423 0.688099 0.952812
Si Si4 0.052242 0.722484 0.202083
Si Si5 0.291950 0.702697 0.139882
Si Si6 0.675887 0.690061 0.955935
O O1 0.795514 0.308126 0.184702
O O2 0.019829 0.520155 0.203495
O O3 0.000000 0.249783 0.250000
O O4 0.042473 0.262129 0.153158
O O5 0.274769 0.774073 0.905158
O O6 0.459420 0.786641 0.840381
O O7 0.250000 0.000000 0.839686
O O8 0.250000 0.500000 0.949109
O O9 0.498958 0.680382 0.957034
O O10 0.245822 0.768942 0.997945
O O11 0.000000 0.797152 0.250000
O O12 0.214175 0.760244 0.186983
O O13 0.250000 0.500000 0.137492
O O14 0.233941 0.772047 0.091613
O O15 0.750000 0.500000 0.955932
#
# Coordination Sequence:
#
# PCOD9421248 Si02
#       6
#     8   8   8   8   8   8
#     4  10  21  38  65  93 117 155 204 256 309 351
#     4  12  26  40  57  87 129 170 203 238 299 372
#     4  11  22  38  65  91 118 155 205 261 315 363
#     4  10  19  38  65  91 117 151 200 258 303 353
#     4   9  18  32  58  91 119 140 191 257 310 363
#     4  10  20  34  62  97 118 144 201 263 323 358
#
# _framework density 22.900061999999998
#
# number of rings (size 3 to 8) (size 9 to 14) (size 15 to 20)
#    0.000    1.667    1.667    4.500    7.000    3.333 
#    0.000    1.667    0.000    0.000    0.000    0.000 
#    0.000    0.000    0.000    0.000    0.000    0.000 
#
# Total GULP energy -267513.280110 kJ/mol
# GULP energy per Si atom -5573.193336 kJ/mol
# Density = 2.284794 g / cm^3
# Si number density = 22.900062 Si / 1000 Ang^3
#
#
#
# Elastic Constant Matrix: (Units=GPa)
#
#
# Indices 1 2 3 4 5 6 
#
# 1 90.8613 -2.3131 21.4414 0.0000 0.0000 0.0000
# 2 -2.3131 15.8393 11.4790 0.0000 0.0000 0.0000
# 3 21.4414 11.4790 161.0229 0.0000 0.0000 0.0000
# 4 0.0000 0.0000 0.0000 -20.2194 0.0000 0.0000
# 5 0.0000 0.0000 0.0000 0.0000 55.4393 0.0000
# 6 0.0000 0.0000 0.0000 0.0000 0.0000 -17.7616
#
#
#
# Elastic Compliance Matrix: (Units=1/GPa)
#
#
# Indices 1 2 3 4 5 6 
#
# 1 0.011491 0.002939 -0.001740 0.000000 0.000000 0.000000
# 2 0.002939 0.067325 -0.005191 0.000000 0.000000 0.000000
# 3 -0.001740 -0.005191 0.006812 0.000000 0.000000 0.000000
# 4 0.000000 0.000000 0.000000 -0.049458 0.000000 0.000000
# 5 0.000000 0.000000 0.000000 0.000000 0.018038 0.000000
# 6 0.000000 0.000000 0.000000 0.000000 0.000000 -0.056301
#
#
# Mechanical properties :
#
#
# Convention : Reuss Voigt Hill
#
# Bulk Modulus (GPa) = 12.87915 36.54867 24.71391
# Shear Modulus (GPa) = 157.37225 19.29941 88.33583
#
# Velocity S-wave (km/s) = 8.29883 2.90619 6.21757
# Velocity P-wave (km/s) = 9.87237 5.22073 7.89682
#
# Compressibility (1/GPa) = 0.07764488
#
# Stress axis : x y z
#
# Youngs Moduli (GPa) = 87.02371 14.85334 146.80016
#
# Poissons Ratio (x) = -0.04365 0.25538
# Poissons Ratio (y) = -0.25575 0.76201
# Poissons Ratio (z) = 0.15139 0.07710
#
# Static dielectric constant tensor:
#      x y z
#    x 1.788870 0.000000 0.000000 
#    y 0.000000 1.869060 0.000000 
#    z 0.000000 0.000000 1.899540 
# 
# From -- ./inp_files/27710.got.cif
#   From: 2010.05.17/outbox.cif.g08.bks.cpg/sg54_14_cif.got.tgz:27710.got - 2010.06.03 13:09:01.
