data_PCOD9421429
_publ_section_title
;
Structure prediction by ZEFSAII (Michael W. Deem and Ramdas Pophale) SiO2 
 PCOD9421429
Probable space group: P C C A
;
_chemical_formula_sum "Si O2"
_cell_formula_units_Z 60
_cell_length_a 27.132575
_cell_length_b 13.829175
_cell_length_c 9.308683
_cell_angle_alpha 90.000000
_cell_angle_beta 90.000000
_cell_angle_gamma 90.000000
_cell_volume 3492.814534
_symmetry_space_group_name_H-M "P C C A"
_symmetry_group_IT_number 54
_symmetry_cell_setting 'orthorhombic'
loop_
_space_group_symop_operation_xyz
x,y,z
1/2-x,-y,z
1/2+x,-y,1/2-z
-x,y,1/2-z
-x,-y,-z
1/2+x,y,-z
1/2-x,y,1/2+z
x,-y,1/2+z
loop_
_atom_site_type_symbol
_atom_site_label
_atom_site_fract_x
_atom_site_fract_y
_atom_site_fract_z
Si Si1 0.624154 0.775862 0.570279
Si Si2 0.250000 0.500000 0.682169
Si Si3 0.021885 0.147003 0.907342
Si Si4 0.706310 0.627289 0.565856
Si Si5 0.351630 0.883408 0.223947
Si Si6 0.310914 0.098350 0.235285
Si Si7 0.230266 0.177645 0.436336
Si Si8 0.955800 0.930249 0.635695
O O1 0.565171 0.777266 0.564979
O O2 0.652263 0.674174 0.573144
O O3 0.642804 0.831287 0.427827
O O4 0.643356 0.837332 0.707729
O O5 0.284139 0.437994 0.574201
O O6 0.219369 0.431433 0.789936
O O7 0.000000 0.157279 0.750000
O O8 0.047571 0.040308 0.922546
O O9 0.975786 0.141241 0.014074
O O10 0.743948 0.718099 0.556359
O O11 0.316433 0.824038 0.330505
O O12 0.405076 0.898391 0.294581
O O13 0.328065 0.989717 0.207714
O O14 0.270718 0.108227 0.361881
O O15 0.286672 0.141754 0.091997
O O16 0.000000 0.933253 0.750000
#
# Coordination Sequence:
#
# PCOD9421429 Si02
#       8
#     8   4   8   8   8   8   8   8
#     4  11  21  36  55  81 113 142 191 236 268 313
#     4  10  20  40  64  80 108 134 168 220 306 368
#     4  10  21  33  53  74 110 150 194 239 259 299
#     4  10  21  38  59  84 108 136 171 229 285 352
#     4  12  22  33  52  74 113 162 196 222 264 306
#     4  11  23  35  48  74 111 162 194 221 260 311
#     4  11  23  36  52  77 116 142 190 231 268 326
#     4  10  20  35  49  73 107 157 204 226 260 295
#
# _framework density 17.178122999999999
#
# number of rings (size 3 to 8) (size 9 to 14) (size 15 to 20)
#    0.000    1.333    2.667    5.200    1.867    2.133 
#    0.000    0.000    0.000    0.000    0.000    0.933 
#    0.000    0.000    0.000    0.000    0.000    0.000 
#
# Total GULP energy -335230.651683 kJ/mol
# GULP energy per Si atom -5587.177528 kJ/mol
# Density = 1.713902 g / cm^3
# Si number density = 17.178123 Si / 1000 Ang^3
#
#
#
# Elastic Constant Matrix: (Units=GPa)
#
#
# Indices 1 2 3 4 5 6 
#
# 1 91.5119 34.0510 24.0862 0.0000 0.0000 0.0000
# 2 34.0510 77.1938 35.2511 0.0000 0.0000 0.0000
# 3 24.0862 35.2511 98.7355 0.0000 0.0000 0.0000
# 4 0.0000 0.0000 0.0000 12.8915 0.0000 0.0000
# 5 0.0000 0.0000 0.0000 0.0000 29.8055 0.0000
# 6 0.0000 0.0000 0.0000 0.0000 0.0000 15.4686
#
#
#
# Elastic Compliance Matrix: (Units=1/GPa)
#
#
# Indices 1 2 3 4 5 6 
#
# 1 0.013226 -0.005210 -0.001366 0.000000 0.000000 0.000000
# 2 -0.005210 0.017530 -0.004988 0.000000 0.000000 0.000000
# 3 -0.001366 -0.004988 0.012242 0.000000 0.000000 0.000000
# 4 0.000000 0.000000 0.000000 0.077571 0.000000 0.000000
# 5 0.000000 0.000000 0.000000 0.000000 0.033551 0.000000
# 6 0.000000 0.000000 0.000000 0.000000 0.000000 0.064647
#
#
# Mechanical properties :
#
#
# Convention : Reuss Voigt Hill
#
# Bulk Modulus (GPa) = 50.32724 50.46864 50.39794
# Shear Modulus (GPa) = 20.11923 23.23664 21.67793
#
# Velocity S-wave (km/s) = 3.42601 3.68188 3.55625
# Velocity P-wave (km/s) = 6.70902 6.89336 6.80181
#
# Compressibility (1/GPa) = 0.01986996
#
# Stress axis : x y z
#
# Youngs Moduli (GPa) = 75.60974 57.04385 81.68511
#
# Poissons Ratio (x) = 0.29721 0.11160
# Poissons Ratio (y) = 0.39394 0.40743
# Poissons Ratio (z) = 0.10330 0.28452
#
# Static dielectric constant tensor:
#      x y z
#    x 1.594570 0.000000 0.000000 
#    y 0.000000 1.575120 0.000000 
#    z 0.000000 0.000000 1.615050 
# 
# From -- ./inp_files/5955.got.cif
#   From: 2010.05.17/outbox.cif.g08.bks.cpg/sg54_3_cif.got.tgz:5955.got - 2010.06.03 13:09:01.
