data_PCOD9421300
_publ_section_title
;
Structure prediction by ZEFSAII (Michael W. Deem and Ramdas Pophale) SiO2 
 PCOD9421300
Probable space group: P C C A
;
_chemical_formula_sum "Si O2"
_cell_formula_units_Z 44
_cell_length_a 14.560956
_cell_length_b 9.591630
_cell_length_c 15.540966
_cell_angle_alpha 90.000000
_cell_angle_beta 90.000000
_cell_angle_gamma 90.000000
_cell_volume 2170.502634
_symmetry_space_group_name_H-M "P C C A"
_symmetry_group_IT_number 54
_symmetry_cell_setting 'orthorhombic'
loop_
_space_group_symop_operation_xyz
x,y,z
1/2-x,-y,z
1/2+x,-y,1/2-z
-x,y,1/2-z
-x,-y,-z
1/2+x,y,-z
1/2-x,y,1/2+z
x,-y,1/2+z
loop_
_atom_site_type_symbol
_atom_site_label
_atom_site_fract_x
_atom_site_fract_y
_atom_site_fract_z
Si Si1 0.455150 0.258309 0.388124
Si Si2 0.685734 0.631669 0.291407
Si Si3 0.310827 0.128018 0.267152
Si Si4 0.365901 0.896856 0.566323
Si Si5 0.176011 0.212604 0.030265
Si Si6 0.500000 0.486386 0.250000
O O1 0.401893 0.157838 0.321123
O O2 0.537420 0.179503 0.435856
O O3 0.376857 0.296034 0.456864
O O4 0.495906 0.385408 0.333105
O O5 0.750000 0.500000 0.312264
O O6 0.746792 0.735245 0.233733
O O7 0.662391 0.714540 0.378270
O O8 0.591841 0.577289 0.250858
O O9 0.337633 0.099170 0.167741
O O10 0.250000 0.000000 0.300043
O O11 0.285152 0.810474 0.519558
O O12 0.363830 0.054924 0.533291
#
# Coordination Sequence:
#
# PCOD9421300 Si02
#       6
#     8   8   8   8   8   4
#     4  12  23  41  67  99 128 175 218 269 330 391
#     4  11  22  45  63  90 133 173 212 269 320 394
#     4  11  21  41  71  93 128 170 220 274 324 377
#     4  10  19  43  65  92 133 170 210 271 334 382
#     4  10  23  40  62  94 131 168 215 270 330 379
#     4  12  24  40  66  92 130 178 220 258 332 394
#
# _framework density 20.271802000000001
#
# number of rings (size 3 to 8) (size 9 to 14) (size 15 to 20)
#    0.000    1.091    7.273    1.636    2.545    2.182 
#    6.545    0.000    0.000    0.000    0.000    0.000 
#    0.000    0.000    0.000    0.000    0.000    0.000 
#
# Total GULP energy -245884.040764 kJ/mol
# GULP energy per Si atom -5588.273654 kJ/mol
# Density = 2.022566 g / cm^3
# Si number density = 20.271802 Si / 1000 Ang^3
#
#
#
# Elastic Constant Matrix: (Units=GPa)
#
#
# Indices 1 2 3 4 5 6 
#
# 1 119.1676 29.3480 27.3365 0.0000 0.0000 0.0000
# 2 29.3480 67.9553 0.1653 0.0000 0.0000 0.0000
# 3 27.3365 0.1653 33.3460 0.0000 0.0000 0.0000
# 4 0.0000 0.0000 0.0000 6.2811 0.0000 0.0000
# 5 0.0000 0.0000 0.0000 0.0000 30.6308 0.0000
# 6 0.0000 0.0000 0.0000 0.0000 0.0000 28.3911
#
#
#
# Elastic Compliance Matrix: (Units=1/GPa)
#
#
# Indices 1 2 3 4 5 6 
#
# 1 0.011877 -0.005106 -0.009711 0.000000 0.000000 0.000000
# 2 -0.005106 0.016910 0.004102 0.000000 0.000000 0.000000
# 3 -0.009711 0.004102 0.037929 0.000000 0.000000 0.000000
# 4 0.000000 0.000000 0.000000 0.159207 0.000000 0.000000
# 5 0.000000 0.000000 0.000000 0.000000 0.032647 0.000000
# 6 0.000000 0.000000 0.000000 0.000000 0.000000 0.035222
#
#
# Mechanical properties :
#
#
# Convention : Reuss Voigt Hill
#
# Bulk Modulus (GPa) = 22.08165 37.12985 29.60575
# Shear Modulus (GPa) = 15.13694 23.96854 19.55274
#
# Velocity S-wave (km/s) = 2.73554 3.44227 3.10906
# Velocity P-wave (km/s) = 4.57100 5.84421 5.24637
#
# Compressibility (1/GPa) = 0.04528646
#
# Stress axis : x y z
#
# Youngs Moduli (GPa) = 84.19969 59.13488 26.36501
#
# Poissons Ratio (x) = 0.30191 0.25603
# Poissons Ratio (y) = 0.42988 -0.10814
# Poissons Ratio (z) = 0.81765 -0.24255
#
# Static dielectric constant tensor:
#      x y z
#    x 1.724320 0.000000 0.000000 
#    y 0.000000 1.710090 0.000000 
#    z 0.000000 0.000000 1.735840 
# 
# From -- ./inp_files/17891.got.cif
#   From: 2010.05.17/outbox.cif.g08.bks.cpg/sg54_9_cif.got.tgz:17891.got - 2010.06.03 13:09:01.
