data_PCOD9421023
_publ_section_title
;
Structure prediction by ZEFSAII (Michael W. Deem and Ramdas Pophale) SiO2 
 PCOD9421023
Probable space group: P C C A
;
_chemical_formula_sum "Si O2"
_cell_formula_units_Z 36
_cell_length_a 4.928368
_cell_length_b 23.514639
_cell_length_c 14.256666
_cell_angle_alpha 90.000000
_cell_angle_beta 90.000000
_cell_angle_gamma 90.000000
_cell_volume 1652.187835
_symmetry_space_group_name_H-M "P C C A"
_symmetry_group_IT_number 54
_symmetry_cell_setting 'orthorhombic'
loop_
_space_group_symop_operation_xyz
x,y,z
1/2-x,-y,z
1/2+x,-y,1/2-z
-x,y,1/2-z
-x,-y,-z
1/2+x,y,-z
1/2-x,y,1/2+z
x,-y,1/2+z
loop_
_atom_site_type_symbol
_atom_site_label
_atom_site_fract_x
_atom_site_fract_y
_atom_site_fract_z
Si Si1 0.939031 0.605589 0.438356
Si Si2 0.750705 0.288612 0.314554
Si Si3 0.750000 0.500000 0.314159
Si Si4 0.212271 0.060898 0.567114
Si Si5 0.389339 0.178698 0.565838
O O1 0.751441 0.604955 0.531186
O O2 0.856712 0.661517 0.381390
O O3 0.863890 0.550703 0.377711
O O4 0.500000 0.271321 0.250000
O O5 0.843831 0.234148 0.373086
O O6 0.000000 0.308754 0.250000
O O7 0.500000 0.520303 0.250000
O O8 0.411179 0.061186 0.475563
O O9 0.301858 0.119502 0.615924
O O10 0.250000 0.000000 0.616359
O O11 0.691357 0.179834 0.524901
#
# Coordination Sequence:
#
# PCOD9421023 Si02
#       5
#     8   8   4   8   8
#     4  12  24  42  64  88 115 150 193 231 269 321
#     4  12  24  39  57  82 114 148 184 229 283 330
#     4  12  24  42  64  92 124 152 182 224 280 330
#     4   8  14  25  45  73 101 130 172 224 270 315
#     4  10  19  34  55  79 106 141 184 228 273 328
#
# _framework density 21.789290000000001
#
# number of rings (size 3 to 8) (size 9 to 14) (size 15 to 20)
#    0.000    1.333    0.000    7.333    0.000    0.000 
#    0.000    0.000    0.000    1.333    0.000    0.000 
#    0.000    0.000    0.000    0.000    0.000    0.000 
#
# Total GULP energy -201292.784653 kJ/mol
# GULP energy per Si atom -5591.466240 kJ/mol
# Density = 2.173970 g / cm^3
# Si number density = 21.789290 Si / 1000 Ang^3
#
#
#
# Elastic Constant Matrix: (Units=GPa)
#
#
# Indices 1 2 3 4 5 6 
#
# 1 64.9297 -39.8910 -6.9911 0.0000 0.0000 0.0000
# 2 -39.8910 116.1341 16.1376 0.0000 0.0000 0.0000
# 3 -6.9911 16.1376 30.8519 0.0000 0.0000 0.0000
# 4 0.0000 0.0000 0.0000 -4.5923 0.0000 0.0000
# 5 0.0000 0.0000 0.0000 0.0000 157.5747 0.0000
# 6 0.0000 0.0000 0.0000 0.0000 0.0000 48.0641
#
#
#
# Elastic Compliance Matrix: (Units=1/GPa)
#
#
# Indices 1 2 3 4 5 6 
#
# 1 0.019549 0.006577 0.000989 0.000000 0.000000 0.000000
# 2 0.006577 0.011499 -0.004524 0.000000 0.000000 0.000000
# 3 0.000989 -0.004524 0.035004 0.000000 0.000000 0.000000
# 4 0.000000 0.000000 0.000000 -0.217756 0.000000 0.000000
# 5 0.000000 0.000000 0.000000 0.000000 0.006346 0.000000
# 6 0.000000 0.000000 0.000000 0.000000 0.000000 0.020806
#
#
# Mechanical properties :
#
#
# Convention : Reuss Voigt Hill
#
# Bulk Modulus (GPa) = 13.86269 16.71408 15.28839
# Shear Modulus (GPa) = -46.90719 56.38664 4.73972
#
# Velocity S-wave (km/s) = -4.64482 5.09258 1.47647
# Velocity P-wave (km/s) = 4.73179 6.50127 3.15251
#
# Compressibility (1/GPa) = 0.07213608
#
# Stress axis : x y z
#
# Youngs Moduli (GPa) = 51.15421 86.96670 28.56851
#
# Poissons Ratio (x) = -0.57201 -0.02826
# Poissons Ratio (y) = -0.33646 0.12925
# Poissons Ratio (z) = -0.05061 0.39345
#
# Static dielectric constant tensor:
#      x y z
#    x 1.757380 0.000000 0.000000 
#    y 0.000000 1.840270 0.000000 
#    z 0.000000 0.000000 1.669720 
# 
# From -- ./inp_files/6358.got.cif
#   From: 2010.05.17/outbox.cif.g08.bks.cpg/sg54_4_cif.got.tgz:6358.got - 2010.06.03 13:09:01.
