data_PCOD9421286
_publ_section_title
;
Structure prediction by ZEFSAII (Michael W. Deem and Ramdas Pophale) SiO2 
 PCOD9421286
Probable space group: P C C A
;
_chemical_formula_sum "Si O2"
_cell_formula_units_Z 56
_cell_length_a 14.059267
_cell_length_b 8.876811
_cell_length_c 19.506261
_cell_angle_alpha 90.000000
_cell_angle_beta 90.000000
_cell_angle_gamma 90.000000
_cell_volume 2434.409773
_symmetry_space_group_name_H-M "P C C A"
_symmetry_group_IT_number 54
_symmetry_cell_setting 'orthorhombic'
loop_
_space_group_symop_operation_xyz
x,y,z
1/2-x,-y,z
1/2+x,-y,1/2-z
-x,y,1/2-z
-x,-y,-z
1/2+x,y,-z
1/2-x,y,1/2+z
x,-y,1/2+z
loop_
_atom_site_type_symbol
_atom_site_label
_atom_site_fract_x
_atom_site_fract_y
_atom_site_fract_z
Si Si1 0.887335 0.442965 0.261091
Si Si2 0.573222 0.712109 0.851544
Si Si3 0.157811 0.068088 0.546247
Si Si4 0.029641 0.255492 0.451802
Si Si5 0.402319 0.833928 0.161216
Si Si6 0.907546 0.412588 0.555942
Si Si7 0.250000 0.500000 0.359160
Si Si8 0.000000 0.049192 0.750000
O O1 0.880139 0.608992 0.293631
O O2 0.853908 0.319447 0.315745
O O3 0.828567 0.432125 0.191714
O O4 0.000000 0.418561 0.250000
O O5 0.649074 0.787014 0.902771
O O6 0.497808 0.613962 0.894263
O O7 0.507779 0.839758 0.815061
O O8 0.079691 0.117506 0.490448
O O9 0.250000 0.000000 0.509637
O O10 0.140947 0.936062 0.601919
O O11 0.091381 0.408211 0.458690
O O12 0.002204 0.212295 0.374917
O O13 0.933034 0.308646 0.491427
O O14 0.415898 0.934723 0.229333
O O15 0.808562 0.384127 0.593586
#
# Coordination Sequence:
#
# PCOD9421286 Si02
#       8
#     8   8   8   8   8   8   4   4
#     4  12  22  40  67  95 142 179 232 298 353 422
#     4  10  19  41  63  89 133 187 225 281 362 426
#     4  10  24  40  61  94 137 174 230 285 350 426
#     4  10  21  43  70  90 132 187 229 291 355 420
#     4  11  22  39  63  97 127 177 227 267 346 425
#     4  10  21  40  67 100 130 175 239 294 349 415
#     4  12  24  36  64 110 132 172 238 306 354 420
#     4  10  20  34  64  92 126 172 218 268 342 424
#
# _framework density 23.003522
#
# number of rings (size 3 to 8) (size 9 to 14) (size 15 to 20)
#    0.000    1.429    4.286    0.429    2.000    1.143 
#    0.000    2.143    0.000    0.857    0.000    0.000 
#    0.000    0.000    0.000    0.000    0.000    0.000 
#
# Total GULP energy -312157.616826 kJ/mol
# GULP energy per Si atom -5574.243158 kJ/mol
# Density = 2.295117 g / cm^3
# Si number density = 23.003522 Si / 1000 Ang^3
#
#
#
# Elastic Constant Matrix: (Units=GPa)
#
#
# Indices 1 2 3 4 5 6 
#
# 1 90.0422 46.1576 33.5822 0.0000 0.0000 0.0000
# 2 46.1576 88.9377 28.5389 0.0000 0.0000 0.0000
# 3 33.5822 28.5389 88.6217 0.0000 0.0000 0.0000
# 4 0.0000 0.0000 0.0000 35.3131 0.0000 0.0000
# 5 0.0000 0.0000 0.0000 0.0000 38.3298 0.0000
# 6 0.0000 0.0000 0.0000 0.0000 0.0000 15.7510
#
#
#
# Elastic Compliance Matrix: (Units=1/GPa)
#
#
# Indices 1 2 3 4 5 6 
#
# 1 0.016220 -0.007188 -0.003831 0.000000 0.000000 0.000000
# 2 -0.007188 0.015725 -0.002340 0.000000 0.000000 0.000000
# 3 -0.003831 -0.002340 0.013489 0.000000 0.000000 0.000000
# 4 0.000000 0.000000 0.000000 0.028318 0.000000 0.000000
# 5 0.000000 0.000000 0.000000 0.000000 0.026089 0.000000
# 6 0.000000 0.000000 0.000000 0.000000 0.000000 0.063488
#
#
# Mechanical properties :
#
#
# Convention : Reuss Voigt Hill
#
# Bulk Modulus (GPa) = 53.43385 53.79543 53.61464
# Shear Modulus (GPa) = 25.47273 28.50032 26.98652
#
# Velocity S-wave (km/s) = 3.33128 3.52370 3.42884
# Velocity P-wave (km/s) = 6.17054 6.32390 6.24769
#
# Compressibility (1/GPa) = 0.01871473
#
# Stress axis : x y z
#
# Youngs Moduli (GPa) = 61.65299 63.59130 74.13237
#
# Poissons Ratio (x) = 0.45712 0.28403
# Poissons Ratio (y) = 0.44319 0.17348
# Poissons Ratio (z) = 0.23622 0.14881
#
# Static dielectric constant tensor:
#      x y z
#    x 1.952660 0.000000 0.000000 
#    y 0.000000 1.882750 0.000000 
#    z 0.000000 0.000000 1.877230 
# 
# From -- ./inp_files/21661.got.cif
#   From: 2010.05.17/outbox.cif.g08.bks.cpg/sg54_11_cif.got.tgz:21661.got - 2010.06.03 13:09:01.
