data_PCOD9421132
_publ_section_title
;
Structure prediction by ZEFSAII (Michael W. Deem and Ramdas Pophale) SiO2 
 PCOD9421132
Probable space group: P C C A
;
_chemical_formula_sum "Si O2"
_cell_formula_units_Z 64
_cell_length_a 23.718476
_cell_length_b 5.968700
_cell_length_c 19.683252
_cell_angle_alpha 90.000000
_cell_angle_beta 90.000000
_cell_angle_gamma 90.000000
_cell_volume 2786.527825
_symmetry_space_group_name_H-M "P C C A"
_symmetry_group_IT_number 54
_symmetry_cell_setting 'orthorhombic'
loop_
_space_group_symop_operation_xyz
x,y,z
1/2-x,-y,z
1/2+x,-y,1/2-z
-x,y,1/2-z
-x,-y,-z
1/2+x,y,-z
1/2-x,y,1/2+z
x,-y,1/2+z
loop_
_atom_site_type_symbol
_atom_site_label
_atom_site_fract_x
_atom_site_fract_y
_atom_site_fract_z
Si Si1 0.566309 0.022281 0.457015
Si Si2 0.920282 0.777044 0.831914
Si Si3 0.646901 0.399402 0.400046
Si Si4 0.356812 0.643687 0.976361
Si Si5 0.435515 0.262327 0.914523
Si Si6 0.811627 0.074464 0.795402
Si Si7 0.047686 0.474236 0.791492
Si Si8 0.860423 0.127572 0.654065
O O1 0.544602 0.941662 0.382657
O O2 0.595898 0.812841 0.494100
O O3 0.617996 0.187191 0.436029
O O4 0.535587 0.161797 0.517469
O O5 0.903083 0.555073 0.872659
O O6 0.861966 0.910710 0.818836
O O7 0.939461 0.681005 0.759476
O O8 0.676504 0.547161 0.458817
O O9 0.678728 0.309823 0.334044
O O10 0.389057 0.435763 0.942543
O O11 0.330103 0.773579 0.912961
O O12 0.470965 0.413195 0.862130
O O13 0.401352 0.071004 0.873052
O O14 0.750000 0.000000 0.816230
O O15 0.817897 0.072340 0.714153
O O16 0.098989 0.313839 0.810500
O O17 0.000000 0.341595 0.750000
#
# Coordination Sequence:
#
# PCOD9421132 Si02
#       8
#     8   8   8   8   8   8   8   8
#     4   8  16  31  59  84 110 153 191 232 296 341
#     4  10  19  36  57  85 115 153 191 241 294 344
#     4   9  17  34  56  83 113 152 190 238 293 346
#     4   8  16  31  60  82 106 158 192 232 292 348
#     4   9  17  34  57  82 115 156 191 239 295 344
#     4  11  22  35  58  88 118 152 194 243 295 358
#     4  11  22  35  56  86 118 155 201 243 296 361
#     4  10  19  36  55  83 118 157 194 241 299 347
#
# _framework density 22.967652000000001
#
# number of rings (size 3 to 8) (size 9 to 14) (size 15 to 20)
#    0.000    2.500    2.500    0.000    0.000    1.000 
#    0.000    0.625    0.000   60.000    0.000    0.000 
#    0.000    0.000    0.000    0.000    0.000    0.000 
#
# Total GULP energy -356614.329353 kJ/mol
# GULP energy per Si atom -5572.098896 kJ/mol
# Density = 2.291538 g / cm^3
# Si number density = 22.967652 Si / 1000 Ang^3
#
#
#
# Elastic Constant Matrix: (Units=GPa)
#
#
# Indices 1 2 3 4 5 6 
#
# 1 29.9363 0.7815 11.6004 0.0000 0.0000 0.0000
# 2 0.7815 61.9385 32.5423 0.0000 0.0000 0.0000
# 3 11.6004 32.5423 124.8654 0.0000 0.0000 0.0000
# 4 0.0000 0.0000 0.0000 48.3391 0.0000 0.0000
# 5 0.0000 0.0000 0.0000 0.0000 4.9622 0.0000
# 6 0.0000 0.0000 0.0000 0.0000 0.0000 4.3605
#
#
#
# Elastic Compliance Matrix: (Units=1/GPa)
#
#
# Indices 1 2 3 4 5 6 
#
# 1 0.034765 0.001458 -0.003610 0.000000 0.000000 0.000000
# 2 0.001458 0.018768 -0.005027 0.000000 0.000000 0.000000
# 3 -0.003610 -0.005027 0.009654 0.000000 0.000000 0.000000
# 4 0.000000 0.000000 0.000000 0.020687 0.000000 0.000000
# 5 0.000000 0.000000 0.000000 0.000000 0.201524 0.000000
# 6 0.000000 0.000000 0.000000 0.000000 0.000000 0.229329
#
#
# Mechanical properties :
#
#
# Convention : Reuss Voigt Hill
#
# Bulk Modulus (GPa) = 20.47935 34.06542 27.27238
# Shear Modulus (GPa) = 9.16824 22.98675 16.07750
#
# Velocity S-wave (km/s) = 2.00012 3.16702 2.64863
# Velocity P-wave (km/s) = 3.77756 5.31390 4.61017
#
# Compressibility (1/GPa) = 0.04882968
#
# Stress axis : x y z
#
# Youngs Moduli (GPa) = 28.76454 53.28325 103.58380
#
# Poissons Ratio (x) = -0.07768 0.37391
# Poissons Ratio (y) = -0.04194 0.52068
# Poissons Ratio (z) = 0.10383 0.26784
#
# Static dielectric constant tensor:
#      x y z
#    x 1.929580 0.000000 0.000000 
#    y 0.000000 1.878150 0.000000 
#    z 0.000000 0.000000 1.952340 
# 
# From -- ./inp_files/19354.got.cif
#   From: 2010.05.17/outbox.cif.g08.bks.cpg/sg54_10_cif.got.tgz:19354.got - 2010.06.03 13:09:01.
