data_PCOD9421093
_publ_section_title
;
Structure prediction by ZEFSAII (Michael W. Deem and Ramdas Pophale) SiO2 
 PCOD9421093
Probable space group: P C C A
;
_chemical_formula_sum "Si O2"
_cell_formula_units_Z 44
_cell_length_a 24.111084
_cell_length_b 5.302252
_cell_length_c 15.009688
_cell_angle_alpha 90.000000
_cell_angle_beta 90.000000
_cell_angle_gamma 90.000000
_cell_volume 1918.884194
_symmetry_space_group_name_H-M "P C C A"
_symmetry_group_IT_number 54
_symmetry_cell_setting 'orthorhombic'
loop_
_space_group_symop_operation_xyz
x,y,z
1/2-x,-y,z
1/2+x,-y,1/2-z
-x,y,1/2-z
-x,-y,-z
1/2+x,y,-z
1/2-x,y,1/2+z
x,-y,1/2+z
loop_
_atom_site_type_symbol
_atom_site_label
_atom_site_fract_x
_atom_site_fract_y
_atom_site_fract_z
Si Si1 0.904373 0.242639 0.071781
Si Si2 0.250000 0.000000 0.180364
Si Si3 0.082302 0.259475 0.687080
Si Si4 0.217711 0.754933 0.005128
Si Si5 0.536039 0.740135 0.608274
Si Si6 0.639543 0.238115 0.773770
O O1 0.846697 0.243193 0.019050
O O2 0.938775 0.497659 0.060178
O O3 0.885104 0.243892 0.175091
O O4 0.941910 0.994291 0.062515
O O5 0.203244 0.152208 0.232420
O O6 0.275855 0.199888 0.110804
O O7 0.060133 0.258384 0.789754
O O8 0.123494 0.497140 0.681881
O O9 0.029474 0.281323 0.623424
O O10 0.110143 0.988966 0.673537
O O11 0.250000 0.500000 0.979339
O O12 0.250000 0.000000 0.965616
#
# Coordination Sequence:
#
# PCOD9421093 Si02
#       6
#     8   4   8   8   8   8
#     4  10  19  35  58  87 108 140 189 230 276 326
#     4  10  26  38  58  76 116 156 190 224 288 322
#     4   9  18  33  54  86 116 139 174 227 289 332
#     4  10  23  39  56  78 108 157 186 228 275 329
#     4   9  17  32  57  85 114 140 172 230 286 336
#     4  10  21  34  57  85 111 143 186 231 272 334
#
# _framework density 22.929991000000001
#
# number of rings (size 3 to 8) (size 9 to 14) (size 15 to 20)
#    0.545    1.818    0.000    2.182    3.818    4.364 
#    0.000    0.000    0.000    6.545    0.000    0.000 
#    0.000    0.000    0.000    0.000    0.000    0.000 
#
# Total GULP energy -245949.516513 kJ/mol
# GULP energy per Si atom -5589.761739 kJ/mol
# Density = 2.287780 g / cm^3
# Si number density = 22.929991 Si / 1000 Ang^3
#
#
#
# Elastic Constant Matrix: (Units=GPa)
#
#
# Indices 1 2 3 4 5 6 
#
# 1 84.6064 36.0554 19.2411 0.0000 0.0000 0.0000
# 2 36.0554 169.3812 32.9808 0.0000 0.0000 0.0000
# 3 19.2411 32.9808 43.8807 0.0000 0.0000 0.0000
# 4 0.0000 0.0000 0.0000 -5.9732 0.0000 0.0000
# 5 0.0000 0.0000 0.0000 0.0000 -32.0833 0.0000
# 6 0.0000 0.0000 0.0000 0.0000 0.0000 38.1637
#
#
#
# Elastic Compliance Matrix: (Units=1/GPa)
#
#
# Indices 1 2 3 4 5 6 
#
# 1 0.013709 -0.002047 -0.004472 0.000000 0.000000 0.000000
# 2 -0.002047 0.007222 -0.004530 0.000000 0.000000 0.000000
# 3 -0.004472 -0.004530 0.028155 0.000000 0.000000 0.000000
# 4 0.000000 0.000000 0.000000 -0.167415 0.000000 0.000000
# 5 0.000000 0.000000 0.000000 0.000000 -0.031169 0.000000
# 6 0.000000 0.000000 0.000000 0.000000 0.000000 0.026203
#
#
# Mechanical properties :
#
#
# Convention : Reuss Voigt Hill
#
# Bulk Modulus (GPa) = 37.05629 52.71366 44.88498
# Shear Modulus (GPa) = -54.23005 13.99417 -20.11794
#
# Velocity S-wave (km/s) = -4.86843 2.47310 -2.96525
# Velocity P-wave (km/s) = 3.92510 5.58515 2.80957
#
# Compressibility (1/GPa) = 0.02698597
#
# Stress axis : x y z
#
# Youngs Moduli (GPa) = 72.94454 138.47092 35.51757
#
# Poissons Ratio (x) = 0.28350 0.15885
# Poissons Ratio (y) = 0.14934 0.16090
# Poissons Ratio (z) = 0.32624 0.62729
#
# Static dielectric constant tensor:
#      x y z
#    x 1.846350 0.000000 0.000000 
#    y 0.000000 1.811940 0.000000 
#    z 0.000000 0.000000 1.868840 
# 
# From -- ./inp_files/19013.got.cif
#   From: 2010.05.17/outbox.cif.g08.bks.cpg/sg54_10_cif.got.tgz:19013.got - 2010.06.03 13:09:01.
