data_PCOD9421400
_publ_section_title
;
Structure prediction by ZEFSAII (Michael W. Deem and Ramdas Pophale) SiO2 
 PCOD9421400
Probable space group: P C C A
;
_chemical_formula_sum "Si O2"
_cell_formula_units_Z 32
_cell_length_a 4.970068
_cell_length_b 14.445048
_cell_length_c 23.811902
_cell_angle_alpha 90.000000
_cell_angle_beta 90.000000
_cell_angle_gamma 90.000000
_cell_volume 1709.524804
_symmetry_space_group_name_H-M "P C C A"
_symmetry_group_IT_number 54
_symmetry_cell_setting 'orthorhombic'
loop_
_space_group_symop_operation_xyz
x,y,z
1/2-x,-y,z
1/2+x,-y,1/2-z
-x,y,1/2-z
-x,-y,-z
1/2+x,y,-z
1/2-x,y,1/2+z
x,-y,1/2+z
loop_
_atom_site_type_symbol
_atom_site_label
_atom_site_fract_x
_atom_site_fract_y
_atom_site_fract_z
Si Si1 0.252898 0.110981 0.464861
Si Si2 0.250000 0.500000 0.210372
Si Si3 0.521566 0.309417 0.817251
Si Si4 0.033555 0.796615 0.352111
Si Si5 0.500000 0.064799 0.250000
O O1 0.451552 0.134971 0.516554
O O2 0.374072 0.158344 0.410073
O O3 0.250000 0.000000 0.456495
O O4 0.500000 0.468883 0.250000
O O5 0.363856 0.587228 0.176657
O O6 0.500000 0.293477 0.750000
O O7 0.227633 0.290638 0.841068
O O8 0.728506 0.237769 0.845336
O O9 0.079267 0.870423 0.302193
O O10 0.750000 0.000000 0.265849
#
# Coordination Sequence:
#
# PCOD9421400 Si02
#       5
#     8   4   8   8   4
#     4  10  22  40  59  80 108 149 203 251 281 320
#     4  10  20  34  56  82 118 158 188 224 288 350
#     4  11  20  36  55  86 120 150 185 233 284 356
#     4  12  22  37  58  84 116 153 190 239 286 342
#     4  12  24  36  52  80 120 156 184 222 290 356
#
# _framework density 18.718651999999999
#
# number of rings (size 3 to 8) (size 9 to 14) (size 15 to 20)
#    0.000    1.000    2.500    6.750    0.000    3.000 
#    0.000    0.000    0.000    0.000    0.000   17.500 
#    0.000    0.000    0.000    0.000    0.000    0.000 
#
# Total GULP energy -178779.201429 kJ/mol
# GULP energy per Si atom -5586.850045 kJ/mol
# Density = 1.867605 g / cm^3
# Si number density = 18.718652 Si / 1000 Ang^3
#
#
#
# Elastic Constant Matrix: (Units=GPa)
#
#
# Indices 1 2 3 4 5 6 
#
# 1 86.2413 14.5638 1.5544 0.0000 0.0000 0.0000
# 2 14.5638 73.8465 29.1101 0.0000 0.0000 0.0000
# 3 1.5544 29.1101 81.4997 0.0000 0.0000 0.0000
# 4 0.0000 0.0000 0.0000 7.6502 0.0000 0.0000
# 5 0.0000 0.0000 0.0000 0.0000 22.1702 0.0000
# 6 0.0000 0.0000 0.0000 0.0000 0.0000 35.8229
#
#
#
# Elastic Compliance Matrix: (Units=1/GPa)
#
#
# Indices 1 2 3 4 5 6 
#
# 1 0.012031 -0.002656 0.000719 0.000000 0.000000 0.000000
# 2 -0.002656 0.016347 -0.005788 0.000000 0.000000 0.000000
# 3 0.000719 -0.005788 0.014324 0.000000 0.000000 0.000000
# 4 0.000000 0.000000 0.000000 0.130716 0.000000 0.000000
# 5 0.000000 0.000000 0.000000 0.000000 0.045106 0.000000
# 6 0.000000 0.000000 0.000000 0.000000 0.000000 0.027915
#
#
# Mechanical properties :
#
#
# Convention : Reuss Voigt Hill
#
# Bulk Modulus (GPa) = 36.69525 36.89379 36.79452
# Shear Modulus (GPa) = 18.45205 26.21929 22.33567
#
# Velocity S-wave (km/s) = 3.14308 3.74666 3.45806
# Velocity P-wave (km/s) = 5.72871 6.20234 5.97022
#
# Compressibility (1/GPa) = 0.02725148
#
# Stress axis : x y z
#
# Youngs Moduli (GPa) = 83.11882 61.17266 69.81432
#
# Poissons Ratio (x) = 0.16249 -0.05022
# Poissons Ratio (y) = 0.22078 0.40410
# Poissons Ratio (z) = -0.05979 0.35408
#
# Static dielectric constant tensor:
#      x y z
#    x 1.667890 0.000000 0.000000 
#    y 0.000000 1.653600 0.000000 
#    z 0.000000 0.000000 1.619690 
# 
# From -- ./inp_files/19520.got.cif
#   From: 2010.05.17/outbox.cif.g08.bks.cpg/sg54_10_cif.got.tgz:19520.got - 2010.06.03 13:09:01.
