data_PCOD9421234
_publ_section_title
;
Structure prediction by ZEFSAII (Michael W. Deem and Ramdas Pophale) SiO2 
 PCOD9421234
Probable space group: P C C A
;
_chemical_formula_sum "Si O2"
_cell_formula_units_Z 60
_cell_length_a 13.921842
_cell_length_b 15.531225
_cell_length_c 13.321209
_cell_angle_alpha 90.000000
_cell_angle_beta 90.000000
_cell_angle_gamma 90.000000
_cell_volume 2880.355244
_symmetry_space_group_name_H-M "P C C A"
_symmetry_group_IT_number 54
_symmetry_cell_setting 'orthorhombic'
loop_
_space_group_symop_operation_xyz
x,y,z
1/2-x,-y,z
1/2+x,-y,1/2-z
-x,y,1/2-z
-x,-y,-z
1/2+x,y,-z
1/2-x,y,1/2+z
x,-y,1/2+z
loop_
_atom_site_type_symbol
_atom_site_label
_atom_site_fract_x
_atom_site_fract_y
_atom_site_fract_z
Si Si1 0.112478 0.398498 0.760754
Si Si2 0.365530 0.866123 0.940551
Si Si3 0.250000 0.000000 0.555989
Si Si4 0.885605 0.411915 0.258614
Si Si5 0.665207 0.791067 0.780191
Si Si6 0.249688 0.402800 0.435419
Si Si7 0.047473 0.940457 0.146069
Si Si8 0.816563 0.730853 0.912567
O O1 0.143103 0.489734 0.714354
O O2 0.152956 0.311103 0.716816
O O3 0.149592 0.398893 0.874866
O O4 0.000000 0.392786 0.750000
O O5 0.336615 0.827251 0.832382
O O6 0.457534 0.928783 0.928634
O O7 0.276651 0.920169 0.984171
O O8 0.384843 0.786958 0.015723
O O9 0.350414 0.983732 0.616637
O O10 0.830441 0.394560 0.152957
O O11 0.861647 0.340671 0.340656
O O12 0.000000 0.412731 0.250000
O O13 0.580074 0.841718 0.833811
O O14 0.762967 0.800339 0.841886
O O15 0.250000 0.500000 0.478418
O O16 0.248090 0.324420 0.512641
O O17 0.000000 0.974822 0.250000
#
# Coordination Sequence:
#
# PCOD9421234 Si02
#       8
#     8   8   4   8   8   8   8   8
#     4  10  19  38  61  86 128 175 222 272 329 382
#     4  11  24  44  67 102 131 171 227 276 337 415
#     4  12  24  48  74 104 138 176 224 278 348 420
#     4  10  23  41  56  91 137 173 217 280 328 389
#     4  11  22  40  66  93 130 174 218 279 330 397
#     4  10  22  37  59  92 126 172 231 276 325 392
#     4  10  24  44  72 103 137 171 221 274 340 412
#     4  12  22  40  65  91 131 177 226 269 344 391
#
# _framework density 20.830763999999999
#
# number of rings (size 3 to 8) (size 9 to 14) (size 15 to 20)
#    0.000    1.333    4.000    1.600    1.867    3.200 
#    2.400    2.667    0.000    0.000    0.000    0.000 
#    0.000    0.000    0.000    0.000    0.000    0.000 
#
# Total GULP energy -334420.345141 kJ/mol
# GULP energy per Si atom -5573.672419 kJ/mol
# Density = 2.078335 g / cm^3
# Si number density = 20.830764 Si / 1000 Ang^3
#
#
#
# Elastic Constant Matrix: (Units=GPa)
#
#
# Indices 1 2 3 4 5 6 
#
# 1 120.5054 24.4379 54.1626 0.0000 0.0000 0.0000
# 2 24.4379 64.9737 37.5540 0.0000 0.0000 0.0000
# 3 54.1626 37.5540 92.6271 0.0000 0.0000 0.0000
# 4 0.0000 0.0000 0.0000 14.1658 0.0000 0.0000
# 5 0.0000 0.0000 0.0000 0.0000 26.7082 0.0000
# 6 0.0000 0.0000 0.0000 0.0000 0.0000 26.3195
#
#
#
# Elastic Compliance Matrix: (Units=1/GPa)
#
#
# Indices 1 2 3 4 5 6 
#
# 1 0.011273 -0.000562 -0.006364 0.000000 0.000000 0.000000
# 2 -0.000562 0.020129 -0.007833 0.000000 0.000000 0.000000
# 3 -0.006364 -0.007833 0.017693 0.000000 0.000000 0.000000
# 4 0.000000 0.000000 0.000000 0.070592 0.000000 0.000000
# 5 0.000000 0.000000 0.000000 0.000000 0.037442 0.000000
# 6 0.000000 0.000000 0.000000 0.000000 0.000000 0.037995
#
#
# Mechanical properties :
#
#
# Convention : Reuss Voigt Hill
#
# Bulk Modulus (GPa) = 51.07667 56.71280 53.89474
# Shear Modulus (GPa) = 21.62951 24.23547 22.93249
#
# Velocity S-wave (km/s) = 3.22583 3.41463 3.32157
# Velocity P-wave (km/s) = 6.20062 6.54453 6.37490
#
# Compressibility (1/GPa) = 0.01957841
#
# Stress axis : x y z
#
# Youngs Moduli (GPa) = 88.71101 49.67896 56.52036
#
# Poissons Ratio (x) = 0.02790 0.35968
# Poissons Ratio (y) = 0.04982 0.44270
# Poissons Ratio (z) = 0.56454 0.38912
#
# Static dielectric constant tensor:
#      x y z
#    x 1.753160 0.000000 0.000000 
#    y 0.000000 1.789100 0.000000 
#    z 0.000000 0.000000 1.787390 
# 
# From -- ./inp_files/8535.got.cif
#   From: 2010.05.17/outbox.cif.g08.bks.cpg/sg54_5_cif.got.tgz:8535.got - 2010.06.03 13:09:01.
