data_PCOD9421354
_publ_section_title
;
Structure prediction by ZEFSAII (Michael W. Deem and Ramdas Pophale) SiO2 
 PCOD9421354
Probable space group: P C C A
;
_chemical_formula_sum "Si O2"
_cell_formula_units_Z 64
_cell_length_a 5.282887
_cell_length_b 20.699592
_cell_length_c 29.313587
_cell_angle_alpha 90.000000
_cell_angle_beta 90.000000
_cell_angle_gamma 90.000000
_cell_volume 3205.546428
_symmetry_space_group_name_H-M "P C C A"
_symmetry_group_IT_number 54
_symmetry_cell_setting 'orthorhombic'
loop_
_space_group_symop_operation_xyz
x,y,z
1/2-x,-y,z
1/2+x,-y,1/2-z
-x,y,1/2-z
-x,-y,-z
1/2+x,y,-z
1/2-x,y,1/2+z
x,-y,1/2+z
loop_
_atom_site_type_symbol
_atom_site_label
_atom_site_fract_x
_atom_site_fract_y
_atom_site_fract_z
Si Si1 0.528782 0.043755 0.198834
Si Si2 0.815495 0.886052 0.870041
Si Si3 0.824761 0.701204 0.664617
Si Si4 0.412218 0.096042 0.526594
Si Si5 0.827507 0.830285 0.705825
Si Si6 0.589770 0.747216 0.477190
Si Si7 0.249183 0.572934 0.781081
Si Si8 0.836553 0.743872 0.381372
O O1 0.500000 0.013898 0.250000
O O2 0.304044 0.061763 0.164256
O O3 0.618449 0.116011 0.209031
O O4 0.750000 0.000000 0.176886
O O5 0.892390 0.915455 0.918939
O O6 0.640432 0.822516 0.879095
O O7 0.036725 0.851812 0.841239
O O8 0.749553 0.756154 0.701707
O O9 0.777537 0.629964 0.682768
O O10 0.615265 0.715644 0.625926
O O11 0.119934 0.716492 0.653218
O O12 0.664821 0.073315 0.500968
O O13 0.418173 0.174476 0.522959
O O14 0.000000 0.837887 0.750000
O O15 0.303043 0.726243 0.486390
O O16 0.710286 0.727768 0.429456
O O17 0.250000 0.500000 0.800548
O O18 0.500000 0.581129 0.750000
O O19 0.000000 0.577469 0.750000
#
# Coordination Sequence:
#
# PCOD9421354 Si02
#       8
#     8   8   8   8   8   8   8   8
#     4  12  25  40  58  80 113 149 199 241 290 348
#     4  10  22  37  57  82 114 151 187 240 296 346
#     4  11  21  34  55  82 114 148 186 237 286 334
#     4   9  19  33  56  84 111 143 185 231 288 351
#     4  11  22  37  56  81 113 150 191 239 294 351
#     4   9  16  28  47  73 110 147 176 220 282 340
#     4  10  21  37  55  78 111 153 196 233 276 333
#     4  10  20  33  52  83 115 145 187 234 284 343
#
# _framework density 19.965395999999998
#
# number of rings (size 3 to 8) (size 9 to 14) (size 15 to 20)
#    0.000    1.750    2.500    2.250    1.750    4.500 
#    0.000    0.000    0.000    0.750    0.000    0.000 
#    0.000   10.000    0.000    0.000    0.000    0.000 
#
# Total GULP energy -356909.069832 kJ/mol
# GULP energy per Si atom -5576.704216 kJ/mol
# Density = 1.991995 g / cm^3
# Si number density = 19.965396 Si / 1000 Ang^3
#
#
#
# Elastic Constant Matrix: (Units=GPa)
#
#
# Indices 1 2 3 4 5 6 
#
# 1 83.3587 13.1612 19.3317 0.0000 0.0000 0.0000
# 2 13.1612 86.4485 23.1950 0.0000 0.0000 0.0000
# 3 19.3317 23.1950 89.8512 0.0000 0.0000 0.0000
# 4 0.0000 0.0000 0.0000 36.4869 0.0000 0.0000
# 5 0.0000 0.0000 0.0000 0.0000 27.6052 0.0000
# 6 0.0000 0.0000 0.0000 0.0000 0.0000 25.8039
#
#
#
# Elastic Compliance Matrix: (Units=1/GPa)
#
#
# Indices 1 2 3 4 5 6 
#
# 1 0.012760 -0.001296 -0.002411 0.000000 0.000000 0.000000
# 2 -0.001296 0.012560 -0.002964 0.000000 0.000000 0.000000
# 3 -0.002411 -0.002964 0.012413 0.000000 0.000000 0.000000
# 4 0.000000 0.000000 0.000000 0.027407 0.000000 0.000000
# 5 0.000000 0.000000 0.000000 0.000000 0.036225 0.000000
# 6 0.000000 0.000000 0.000000 0.000000 0.000000 0.038754
#
#
# Mechanical properties :
#
#
# Convention : Reuss Voigt Hill
#
# Bulk Modulus (GPa) = 40.99551 41.22602 41.11077
# Shear Modulus (GPa) = 30.94240 31.57724 31.25982
#
# Velocity S-wave (km/s) = 3.94102 3.98125 3.96119
# Velocity P-wave (km/s) = 6.42548 6.46740 6.44647
#
# Compressibility (1/GPa) = 0.02439292
#
# Stress axis : x y z
#
# Youngs Moduli (GPa) = 78.36972 79.61784 80.55911
#
# Poissons Ratio (x) = 0.10317 0.19422
# Poissons Ratio (y) = 0.10155 0.23874
# Poissons Ratio (z) = 0.18894 0.23595
#
# Static dielectric constant tensor:
#      x y z
#    x 1.801910 0.000000 0.000000 
#    y 0.000000 1.704210 0.000000 
#    z 0.000000 0.000000 1.781140 
# 
# From -- ./inp_files/25538.got.cif
#   From: 2010.05.17/outbox.cif.g08.bks.cpg/sg54_13_cif.got.tgz:25538.got - 2010.06.03 13:09:01.
