data_PCOD9421639
_publ_section_title
;
Structure prediction by ZEFSAII (Michael W. Deem and Ramdas Pophale) SiO2 
 PCOD9421639
Probable space group: P C C A
;
_chemical_formula_sum "Si O2"
_cell_formula_units_Z 36
_cell_length_a 7.521264
_cell_length_b 9.961851
_cell_length_c 20.955772
_cell_angle_alpha 90.000000
_cell_angle_beta 90.000000
_cell_angle_gamma 90.000000
_cell_volume 1570.126123
_symmetry_space_group_name_H-M "P C C A"
_symmetry_group_IT_number 54
_symmetry_cell_setting 'orthorhombic'
loop_
_space_group_symop_operation_xyz
x,y,z
1/2-x,-y,z
1/2+x,-y,1/2-z
-x,y,1/2-z
-x,-y,-z
1/2+x,y,-z
1/2-x,y,1/2+z
x,-y,1/2+z
loop_
_atom_site_type_symbol
_atom_site_label
_atom_site_fract_x
_atom_site_fract_y
_atom_site_fract_z
Si Si1 0.750000 0.000000 0.987757
Si Si2 0.286450 0.276319 0.738710
Si Si3 0.750000 0.500000 0.160759
Si Si4 0.381977 0.397930 0.607630
Si Si5 0.050718 0.883231 0.912522
Si Si6 0.750000 0.000000 0.207680
O O1 0.583034 0.008707 0.941775
O O2 0.783606 0.119347 0.038700
O O3 0.500000 0.270243 0.750000
O O4 0.213014 0.372536 0.793714
O O5 0.272598 0.350613 0.671176
O O6 0.208199 0.127349 0.747286
O O7 0.569291 0.530571 0.123423
O O8 0.250000 0.500000 0.572151
O O9 0.445577 0.254781 0.582125
O O10 0.111209 0.932317 0.842780
#
# Coordination Sequence:
#
# PCOD9421639 Si02
#       6
#     4   8   4   8   8   4
#     4   9  22  43  68  84 124 161 208 299 340 378
#     4  10  20  37  55  93 133 168 209 248 307 392
#     4  10  20  40  60  86 136 176 202 252 312 382
#     4  11  23  41  63  94 129 177 216 251 320 409
#     4  10  21  42  64  92 120 164 221 269 337 383
#     4  11  20  37  64  92 132 163 212 271 302 396
#
# _framework density 22.928094000000002
#
# number of rings (size 3 to 8) (size 9 to 14) (size 15 to 20)
#    0.000    1.778    5.556    0.000    0.000    2.667 
#    8.000    1.111    0.000    0.000    0.000    0.000 
#    0.000    0.000    0.000    0.000    0.000    0.000 
#
# Total GULP energy -200681.036813 kJ/mol
# GULP energy per Si atom -5574.473245 kJ/mol
# Density = 2.287591 g / cm^3
# Si number density = 22.928094 Si / 1000 Ang^3
#
#
#
# Elastic Constant Matrix: (Units=GPa)
#
#
# Indices 1 2 3 4 5 6 
#
# 1 68.9948 11.0103 12.7856 0.0000 0.0000 0.0000
# 2 11.0103 127.3004 0.3668 0.0000 0.0000 0.0000
# 3 12.7856 0.3668 23.5977 0.0000 0.0000 0.0000
# 4 0.0000 0.0000 0.0000 15.5147 0.0000 0.0000
# 5 0.0000 0.0000 0.0000 0.0000 15.7923 0.0000
# 6 0.0000 0.0000 0.0000 0.0000 0.0000 38.8297
#
#
#
# Elastic Compliance Matrix: (Units=1/GPa)
#
#
# Indices 1 2 3 4 5 6 
#
# 1 0.016353 -0.001389 -0.008839 0.000000 0.000000 0.000000
# 2 -0.001389 0.007974 0.000629 0.000000 0.000000 0.000000
# 3 -0.008839 0.000629 0.047156 0.000000 0.000000 0.000000
# 4 0.000000 0.000000 0.000000 0.064455 0.000000 0.000000
# 5 0.000000 0.000000 0.000000 0.000000 0.063322 0.000000
# 6 0.000000 0.000000 0.000000 0.000000 0.000000 0.025753
#
#
# Mechanical properties :
#
#
# Convention : Reuss Voigt Hill
#
# Bulk Modulus (GPa) = 19.12598 29.80204 24.46401
# Shear Modulus (GPa) = 19.11015 27.07602 23.09308
#
# Velocity S-wave (km/s) = 2.89014 3.44017 3.17708
# Velocity P-wave (km/s) = 4.41555 5.36711 4.91442
#
# Compressibility (1/GPa) = 0.05228490
#
# Stress axis : x y z
#
# Youngs Moduli (GPa) = 61.14917 125.41148 21.20609
#
# Poissons Ratio (x) = 0.17419 0.18744
# Poissons Ratio (y) = 0.08493 -0.01333
# Poissons Ratio (z) = 0.54049 -0.07883
#
# Static dielectric constant tensor:
#      x y z
#    x 1.927800 0.000000 0.000000 
#    y 0.000000 1.900700 0.000000 
#    z 0.000000 0.000000 1.872340 
# 
# From -- ./inp_files/20194.got.cif
#   From: 2010.05.17/outbox.cif.g08.bks.cpg/sg54_11_cif.got.tgz:20194.got - 2010.06.03 13:09:01.
