data_PCOD9421179
_publ_section_title
;
Structure prediction by ZEFSAII (Michael W. Deem and Ramdas Pophale) SiO2 
 PCOD9421179
Probable space group: P C C A
;
_chemical_formula_sum "Si O2"
_cell_formula_units_Z 48
_cell_length_a 26.712057
_cell_length_b 5.831444
_cell_length_c 12.879421
_cell_angle_alpha 90.000000
_cell_angle_beta 90.000000
_cell_angle_gamma 90.000000
_cell_volume 2006.225664
_symmetry_space_group_name_H-M "P C C A"
_symmetry_group_IT_number 54
_symmetry_cell_setting 'orthorhombic'
loop_
_space_group_symop_operation_xyz
x,y,z
1/2-x,-y,z
1/2+x,-y,1/2-z
-x,y,1/2-z
-x,-y,-z
1/2+x,y,-z
1/2-x,y,1/2+z
x,-y,1/2+z
loop_
_atom_site_type_symbol
_atom_site_label
_atom_site_fract_x
_atom_site_fract_y
_atom_site_fract_z
Si Si1 0.625867 0.775456 0.132649
Si Si2 0.364152 0.526647 0.667741
Si Si3 0.695295 0.448646 0.006960
Si Si4 0.299562 0.853543 0.787607
Si Si5 0.474896 0.635938 0.634951
Si Si6 0.011049 0.133558 0.375694
O O1 0.621572 0.589757 0.224071
O O2 0.570124 0.842294 0.102801
O O3 0.654314 0.985317 0.184013
O O4 0.662822 0.665925 0.047369
O O5 0.341696 0.352759 0.581952
O O6 0.318428 0.695350 0.694535
O O7 0.414873 0.648674 0.634584
O O8 0.750000 0.500000 0.963973
O O9 0.707007 0.296919 0.108226
O O10 0.250000 0.000000 0.766263
O O11 0.500000 0.630624 0.750000
O O12 0.486780 0.379102 0.592479
O O13 0.493583 0.879208 0.589641
O O14 0.000000 0.127486 0.250000
#
# Coordination Sequence:
#
# PCOD9421179 Si02
#       6
#     8   8   8   8   8   8
#     4  11  23  44  70  99 136 191 231 288 364 429
#     4  11  25  42  73 102 137 188 239 286 365 433
#     4  11  26  46  64 101 148 176 234 308 352 423
#     4  11  24  45  71  97 135 188 240 289 366 425
#     4  10  19  39  65 104 140 178 235 301 348 426
#     4  10  19  36  69  97 139 184 231 295 352 423
#
# _framework density 23.925522999999998
#
# number of rings (size 3 to 8) (size 9 to 14) (size 15 to 20)
#    0.000    1.333    5.000    2.000    4.667    1.333 
#    0.000    1.667    0.000    0.000    0.000    0.000 
#    0.000    0.000    0.000    0.000    0.000    0.000 
#
# Total GULP energy -268227.932871 kJ/mol
# GULP energy per Si atom -5588.081935 kJ/mol
# Density = 2.387107 g / cm^3
# Si number density = 23.925523 Si / 1000 Ang^3
#
#
#
# Elastic Constant Matrix: (Units=GPa)
#
#
# Indices 1 2 3 4 5 6 
#
# 1 201.2906 63.1003 53.5613 0.0000 0.0000 0.0000
# 2 63.1003 146.0803 46.8039 0.0000 0.0000 0.0000
# 3 53.5613 46.8039 68.0593 0.0000 0.0000 0.0000
# 4 0.0000 0.0000 0.0000 26.1085 0.0000 0.0000
# 5 0.0000 0.0000 0.0000 0.0000 28.3788 0.0000
# 6 0.0000 0.0000 0.0000 0.0000 0.0000 40.3373
#
#
#
# Elastic Compliance Matrix: (Units=1/GPa)
#
#
# Indices 1 2 3 4 5 6 
#
# 1 0.006532 -0.001507 -0.004105 0.000000 0.000000 0.000000
# 2 -0.001507 0.009128 -0.005091 0.000000 0.000000 0.000000
# 3 -0.004105 -0.005091 0.021425 0.000000 0.000000 0.000000
# 4 0.000000 0.000000 0.000000 0.038302 0.000000 0.000000
# 5 0.000000 0.000000 0.000000 0.000000 0.035238 0.000000
# 6 0.000000 0.000000 0.000000 0.000000 0.000000 0.024791
#
#
# Mechanical properties :
#
#
# Convention : Reuss Voigt Hill
#
# Bulk Modulus (GPa) = 63.77835 82.48457 73.13146
# Shear Modulus (GPa) = 30.85523 35.76257 33.30890
#
# Velocity S-wave (km/s) = 3.59505 3.87039 3.73526
# Velocity P-wave (km/s) = 6.62928 7.38401 7.01680
#
# Compressibility (1/GPa) = 0.01567930
#
# Stress axis : x y z
#
# Youngs Moduli (GPa) = 153.08124 109.55814 46.67485
#
# Poissons Ratio (x) = 0.16505 0.19160
# Poissons Ratio (y) = 0.23062 0.23764
# Poissons Ratio (z) = 0.62838 0.55780
#
# Static dielectric constant tensor:
#      x y z
#    x 1.831440 0.000000 0.000000 
#    y 0.000000 2.003110 0.000000 
#    z 0.000000 0.000000 2.075170 
# 
# From -- ./inp_files/15163.got.cif
#   From: 2010.05.17/outbox.cif.g08.bks.cpg/sg54_8_cif.got.tgz:15163.got - 2010.06.03 13:09:01.
