data_PCOD9421644
_publ_section_title
;
Structure prediction by ZEFSAII (Michael W. Deem and Ramdas Pophale) SiO2 
 PCOD9421644
Probable space group: P C C A
;
_chemical_formula_sum "Si O2"
_cell_formula_units_Z 60
_cell_length_a 18.995373
_cell_length_b 16.421330
_cell_length_c 9.759942
_cell_angle_alpha 90.000000
_cell_angle_beta 90.000000
_cell_angle_gamma 90.000000
_cell_volume 3044.411764
_symmetry_space_group_name_H-M "P C C A"
_symmetry_group_IT_number 54
_symmetry_cell_setting 'orthorhombic'
loop_
_space_group_symop_operation_xyz
x,y,z
1/2-x,-y,z
1/2+x,-y,1/2-z
-x,y,1/2-z
-x,-y,-z
1/2+x,y,-z
1/2-x,y,1/2+z
x,-y,1/2+z
loop_
_atom_site_type_symbol
_atom_site_label
_atom_site_fract_x
_atom_site_fract_y
_atom_site_fract_z
Si Si1 0.698079 0.172101 0.696421
Si Si2 0.491819 0.583245 0.416611
Si Si3 0.676292 0.804651 0.518784
Si Si4 0.967813 0.882959 0.110028
Si Si5 0.656768 0.650561 0.138814
Si Si6 0.250000 0.500000 0.954683
Si Si7 0.059794 0.072312 0.359474
Si Si8 0.641401 0.367508 0.959664
O O1 0.772399 0.151551 0.626672
O O2 0.701328 0.182582 0.861440
O O3 0.677877 0.256018 0.615131
O O4 0.635438 0.108925 0.672155
O O5 0.500000 0.571598 0.250000
O O6 0.500000 0.500000 0.500000
O O7 0.416342 0.625770 0.433596
O O8 0.557749 0.631302 0.479669
O O9 0.596795 0.835209 0.542273
O O10 0.674462 0.706981 0.542789
O O11 0.000000 0.847708 0.250000
O O12 0.939761 0.974467 0.140264
O O13 0.031138 0.895307 0.003612
O O14 0.646179 0.652124 0.300604
O O15 0.711592 0.576974 0.115327
O O16 0.315939 0.548042 0.023362
O O17 0.000000 0.098034 0.250000
#
# Coordination Sequence:
#
# PCOD9421644 Si02
#       8
#     8   8   8   8   8   4   8   8
#     4  11  24  41  64  94 128 168 218 262 327 380
#     4  10  20  37  57  83 111 150 203 256 307 367
#     4  11  24  43  62  96 129 168 213 266 319 383
#     4  10  23  42  68  97 131 163 213 257 317 382
#     4  10  22  36  59  85 117 167 205 257 312 376
#     4  12  18  38  58  84 126 160 208 256 318 370
#     4  10  21  43  69  96 124 172 209 256 313 386
#     4  10  22  37  59  84 122 161 209 256 313 373
#
# _framework density 19.708241000000001
#
# number of rings (size 3 to 8) (size 9 to 14) (size 15 to 20)
#    0.000    1.600    4.000    0.400    3.733    1.067 
#    0.000    3.333    0.000    0.000    0.000    0.000 
#    0.000    0.000    0.000    0.000    0.000    0.000 
#
# Total GULP energy -334113.274486 kJ/mol
# GULP energy per Si atom -5568.554575 kJ/mol
# Density = 1.966338 g / cm^3
# Si number density = 19.708241 Si / 1000 Ang^3
#
#
#
# Elastic Constant Matrix: (Units=GPa)
#
#
# Indices 1 2 3 4 5 6 
#
# 1 83.5640 7.8688 19.6326 0.0000 0.0000 0.0000
# 2 7.8688 32.0367 10.1950 0.0000 0.0000 0.0000
# 3 19.6326 10.1950 55.5046 0.0000 0.0000 0.0000
# 4 0.0000 0.0000 0.0000 19.0312 0.0000 0.0000
# 5 0.0000 0.0000 0.0000 0.0000 37.3120 0.0000
# 6 0.0000 0.0000 0.0000 0.0000 0.0000 -20.0092
#
#
#
# Elastic Compliance Matrix: (Units=1/GPa)
#
#
# Indices 1 2 3 4 5 6 
#
# 1 0.013155 -0.001859 -0.004312 0.000000 0.000000 0.000000
# 2 -0.001859 0.033415 -0.005480 0.000000 0.000000 0.000000
# 3 -0.004312 -0.005480 0.020548 0.000000 0.000000 0.000000
# 4 0.000000 0.000000 0.000000 0.052545 0.000000 0.000000
# 5 0.000000 0.000000 0.000000 0.000000 0.026801 0.000000
# 6 0.000000 0.000000 0.000000 0.000000 0.000000 -0.049977
#
#
# Mechanical properties :
#
#
# Convention : Reuss Voigt Hill
#
# Bulk Modulus (GPa) = 22.82241 27.38865 25.10553
# Shear Modulus (GPa) = 37.20412 16.16073 26.68242
#
# Velocity S-wave (km/s) = 4.34953 2.86667 3.68349
# Velocity P-wave (km/s) = 6.06876 4.98841 5.55491
#
# Compressibility (1/GPa) = 0.04381658
#
# Stress axis : x y z
#
# Youngs Moduli (GPa) = 76.01735 29.92698 48.66620
#
# Poissons Ratio (x) = 0.05563 0.20983
# Poissons Ratio (y) = 0.14132 0.26669
# Poissons Ratio (z) = 0.32775 0.16400
#
# Static dielectric constant tensor:
#      x y z
#    x 1.780620 0.000000 0.000000 
#    y 0.000000 1.431010 0.000000 
#    z 0.000000 0.000000 1.686900 
# 
# From -- ./inp_files/4366.got.cif
#   From: 2010.05.17/outbox.cif.g08.bks.cpg/sg54_3_cif.got.tgz:4366.got - 2010.06.03 13:09:01.
