data_PCOD9421085
_publ_section_title
;
Structure prediction by ZEFSAII (Michael W. Deem and Ramdas Pophale) SiO2 
 PCOD9421085
Probable space group: P C C A
;
_chemical_formula_sum "Si O2"
_cell_formula_units_Z 44
_cell_length_a 15.961427
_cell_length_b 16.229165
_cell_length_c 8.764849
_cell_angle_alpha 90.000000
_cell_angle_beta 90.000000
_cell_angle_gamma 90.000000
_cell_volume 2270.452028
_symmetry_space_group_name_H-M "P C C A"
_symmetry_group_IT_number 54
_symmetry_cell_setting 'orthorhombic'
loop_
_space_group_symop_operation_xyz
x,y,z
1/2-x,-y,z
1/2+x,-y,1/2-z
-x,y,1/2-z
-x,-y,-z
1/2+x,y,-z
1/2-x,y,1/2+z
x,-y,1/2+z
loop_
_atom_site_type_symbol
_atom_site_label
_atom_site_fract_x
_atom_site_fract_y
_atom_site_fract_z
Si Si1 0.666938 0.899521 0.064015
Si Si2 0.527433 0.378984 0.928873
Si Si3 0.868709 0.535827 0.445819
Si Si4 0.501334 0.191205 0.934100
Si Si5 0.750000 0.500000 0.693655
Si Si6 0.657238 0.082945 0.931820
O O1 0.591943 0.837302 0.018795
O O2 0.665650 0.911082 0.247815
O O3 0.760077 0.876921 0.007606
O O4 0.652038 0.988330 0.985462
O O5 0.500000 0.385868 0.750000
O O6 0.607460 0.438284 0.947142
O O7 0.530588 0.283548 0.971612
O O8 0.455008 0.417622 0.034583
O O9 0.808785 0.554515 0.587123
O O10 0.813617 0.550829 0.297883
O O11 0.500000 0.187961 0.750000
O O12 0.572730 0.127923 0.984137
#
# Coordination Sequence:
#
# PCOD9421085 Si02
#       6
#     8   8   8   8   4   8
#     4  10  19  35  58  80 109 143 184 225 271 325
#     4  10  19  37  57  78 111 150 179 224 276 332
#     4  10  20  36  60  78 112 142 186 222 272 328
#     4   9  20  36  54  83 112 149 177 224 278 324
#     4  10  20  36  56  90 100 140 190 226 272 324
#     4  10  19  35  58  80 109 143 184 225 271 325
#
# _framework density 19.3794
#
# number of rings (size 3 to 8) (size 9 to 14) (size 15 to 20)
#    0.000    2.182    1.818    2.727    0.000    0.000 
#    6.545    2.727   12.000    0.000    0.000    0.000 
#    0.000    0.000    0.000    0.000    0.000    0.000 
#
# Total GULP energy -245258.021346 kJ/mol
# GULP energy per Si atom -5574.045940 kJ/mol
# Density = 1.933529 g / cm^3
# Si number density = 19.379400 Si / 1000 Ang^3
#
#
#
# Elastic Constant Matrix: (Units=GPa)
#
#
# Indices 1 2 3 4 5 6 
#
# 1 97.0284 26.3478 13.3523 0.0000 0.0000 0.0000
# 2 26.3478 55.6945 1.1126 0.0000 0.0000 0.0000
# 3 13.3523 1.1126 66.5631 0.0000 0.0000 0.0000
# 4 0.0000 0.0000 0.0000 11.4011 0.0000 0.0000
# 5 0.0000 0.0000 0.0000 0.0000 26.9233 0.0000
# 6 0.0000 0.0000 0.0000 0.0000 0.0000 10.3913
#
#
#
# Elastic Compliance Matrix: (Units=1/GPa)
#
#
# Indices 1 2 3 4 5 6 
#
# 1 0.012182 -0.005716 -0.002348 0.000000 0.000000 0.000000
# 2 -0.005716 0.020643 0.000802 0.000000 0.000000 0.000000
# 3 -0.002348 0.000802 0.015481 0.000000 0.000000 0.000000
# 4 0.000000 0.000000 0.000000 0.087711 0.000000 0.000000
# 5 0.000000 0.000000 0.000000 0.000000 0.037143 0.000000
# 6 0.000000 0.000000 0.000000 0.000000 0.000000 0.096234
#
#
# Mechanical properties :
#
#
# Convention : Reuss Voigt Hill
#
# Bulk Modulus (GPa) = 29.60257 33.43459 31.51858
# Shear Modulus (GPa) = 16.93890 21.64135 19.29013
#
# Velocity S-wave (km/s) = 2.95967 3.34536 3.15841
# Velocity P-wave (km/s) = 5.19499 5.67556 5.44059
#
# Compressibility (1/GPa) = 0.03378085
#
# Stress axis : x y z
#
# Youngs Moduli (GPa) = 82.09159 48.44225 64.59553
#
# Poissons Ratio (x) = 0.27689 0.15167
# Poissons Ratio (y) = 0.46923 -0.05178
# Poissons Ratio (z) = 0.19275 -0.03883
#
# Static dielectric constant tensor:
#      x y z
#    x 1.689110 0.000000 0.000000 
#    y 0.000000 1.666270 0.000000 
#    z 0.000000 0.000000 1.701650 
# 
# From -- ./inp_files/3527.got.cif
#   From: 2010.05.17/outbox.cif.g08.bks.cpg/sg54_2_cif.got.tgz:3527.got - 2010.06.03 13:09:01.
