data_PCOD9421839
_publ_section_title
;
Structure prediction by ZEFSAII (Michael W. Deem and Ramdas Pophale) SiO2 
 PCOD9421839
Probable space group: P C C A
;
_chemical_formula_sum "Si O2"
_cell_formula_units_Z 40
_cell_length_a 18.457149
_cell_length_b 10.058482
_cell_length_c 8.891849
_cell_angle_alpha 90.000000
_cell_angle_beta 90.000000
_cell_angle_gamma 90.000000
_cell_volume 1650.779778
_symmetry_space_group_name_H-M "P C C A"
_symmetry_group_IT_number 54
_symmetry_cell_setting 'orthorhombic'
loop_
_space_group_symop_operation_xyz
x,y,z
1/2-x,-y,z
1/2+x,-y,1/2-z
-x,y,1/2-z
-x,-y,-z
1/2+x,y,-z
1/2-x,y,1/2+z
x,-y,1/2+z
loop_
_atom_site_type_symbol
_atom_site_label
_atom_site_fract_x
_atom_site_fract_y
_atom_site_fract_z
Si Si1 0.500000 0.694389 0.750000
Si Si2 0.612381 0.151604 0.690209
Si Si3 0.589594 0.881960 0.531665
Si Si4 0.127748 0.352456 0.554973
Si Si5 0.250000 0.500000 0.425379
Si Si6 0.223868 0.215575 0.786144
O O1 0.536434 0.788952 0.626314
O O2 0.436648 0.615235 0.667822
O O3 0.600768 0.288428 0.600443
O O4 0.699815 0.140688 0.718610
O O5 0.583532 0.033551 0.585175
O O6 0.579850 0.139406 0.855549
O O7 0.670154 0.840462 0.587715
O O8 0.178507 0.477269 0.523663
O O9 0.177342 0.235832 0.633263
O O10 0.258079 0.367014 0.331024
#
# Coordination Sequence:
#
# PCOD9421839 Si02
#       6
#     4   8   8   8   4   8
#     4  10  24  44  62  94 134 172 212 258 320 388
#     4  11  22  37  62  92 124 168 214 262 318 376
#     4  11  23  38  60  91 131 170 210 260 317 384
#     4  10  22  41  65  93 128 166 213 264 319 380
#     4  10  20  38  68  94 120 164 214 270 320 370
#     4  10  21  38  61  92 123 160 214 269 321 376
#
# _framework density 24.230974
#
# number of rings (size 3 to 8) (size 9 to 14) (size 15 to 20)
#    0.000    1.600    0.000    6.000    0.000    7.200 
#    0.000    4.000    0.000    0.000    0.000    0.000 
#    0.000    0.000    0.000    0.000    0.000    0.000 
#
# Total GULP energy -224101.676577 kJ/mol
# GULP energy per Si atom -5602.541914 kJ/mol
# Density = 2.417582 g / cm^3
# Si number density = 24.230974 Si / 1000 Ang^3
#
#
#
# Elastic Constant Matrix: (Units=GPa)
#
#
# Indices 1 2 3 4 5 6 
#
# 1 103.5561 16.8525 49.4493 0.0000 0.0000 0.0000
# 2 16.8525 60.5182 33.6317 0.0000 0.0000 0.0000
# 3 49.4493 33.6317 170.6460 0.0000 0.0000 0.0000
# 4 0.0000 0.0000 0.0000 8.7902 0.0000 0.0000
# 5 0.0000 0.0000 0.0000 0.0000 31.2799 0.0000
# 6 0.0000 0.0000 0.0000 0.0000 0.0000 34.1238
#
#
#
# Elastic Compliance Matrix: (Units=1/GPa)
#
#
# Indices 1 2 3 4 5 6 
#
# 1 0.011326 -0.001494 -0.002988 0.000000 0.000000 0.000000
# 2 -0.001494 0.018753 -0.003263 0.000000 0.000000 0.000000
# 3 -0.002988 -0.003263 0.007369 0.000000 0.000000 0.000000
# 4 0.000000 0.000000 0.000000 0.113764 0.000000 0.000000
# 5 0.000000 0.000000 0.000000 0.000000 0.031969 0.000000
# 6 0.000000 0.000000 0.000000 0.000000 0.000000 0.029305
#
#
# Mechanical properties :
#
#
# Convention : Reuss Voigt Hill
#
# Bulk Modulus (GPa) = 45.53835 59.39859 52.46847
# Shear Modulus (GPa) = 21.24985 30.49122 25.87054
#
# Velocity S-wave (km/s) = 2.96458 3.55118 3.27106
# Velocity P-wave (km/s) = 5.52744 6.43282 5.99724
#
# Compressibility (1/GPa) = 0.02195951
#
# Stress axis : x y z
#
# Youngs Moduli (GPa) = 88.28963 53.32388 135.70399
#
# Poissons Ratio (x) = 0.07965 0.40545
# Poissons Ratio (y) = 0.13188 0.44282
# Poissons Ratio (z) = 0.26379 0.17400
#
# Static dielectric constant tensor:
#      x y z
#    x 1.999680 0.000000 0.000000 
#    y 0.000000 1.878730 0.000000 
#    z 0.000000 0.000000 1.940880 
# 
# From -- ./inp_files/4010.got.cif
#   From: 2010.05.17/outbox.cif.g08.bks.cpg/sg54_3_cif.got.tgz:4010.got - 2010.06.03 13:09:01.
