data_PCOD9421542
_publ_section_title
;
Structure prediction by ZEFSAII (Michael W. Deem and Ramdas Pophale) SiO2 
 PCOD9421542
Probable space group: P C C A
;
_chemical_formula_sum "Si O2"
_cell_formula_units_Z 56
_cell_length_a 8.991861
_cell_length_b 19.929583
_cell_length_c 12.002664
_cell_angle_alpha 90.000000
_cell_angle_beta 90.000000
_cell_angle_gamma 90.000000
_cell_volume 2150.925881
_symmetry_space_group_name_H-M "P C C A"
_symmetry_group_IT_number 54
_symmetry_cell_setting 'orthorhombic'
loop_
_space_group_symop_operation_xyz
x,y,z
1/2-x,-y,z
1/2+x,-y,1/2-z
-x,y,1/2-z
-x,-y,-z
1/2+x,y,-z
1/2-x,y,1/2+z
x,-y,1/2+z
loop_
_atom_site_type_symbol
_atom_site_label
_atom_site_fract_x
_atom_site_fract_y
_atom_site_fract_z
Si Si1 0.280615 0.423502 0.745703
Si Si2 0.868230 0.950433 0.674216
Si Si3 0.948252 0.860391 0.998560
Si Si4 0.171755 0.861360 0.159873
Si Si5 0.249248 0.280488 0.242387
Si Si6 0.026778 0.427454 0.445038
Si Si7 0.518830 0.283902 0.562152
O O1 0.250000 0.500000 0.717004
O O2 0.184978 0.355970 0.733179
O O3 0.412784 0.415075 0.656271
O O4 0.319536 0.427755 0.876849
O O5 0.957061 0.901105 0.592878
O O6 0.763423 0.908158 0.756944
O O7 0.000000 0.981242 0.750000
O O8 0.750000 0.000000 0.615618
O O9 0.998386 0.782758 0.006975
O O10 0.781856 0.860042 0.950227
O O11 0.012084 0.886433 0.115853
O O12 0.166764 0.787722 0.216513
O O13 0.167550 0.278428 0.362558
O O14 0.116136 0.279777 0.150814
O O15 0.019938 0.354755 0.503626
O O16 0.000000 0.500000 0.500000
#
# Coordination Sequence:
#
# PCOD9421542 Si02
#       7
#     8   8   8   8   8   8   8
#     4   9  18  31  48  74 104 141 187 232 285 337
#     4  10  22  40  62  86 117 159 196 237 296 368
#     4  10  20  36  59  88 116 149 197 246 290 354
#     4  10  20  36  60  87 116 151 197 241 293 353
#     4   8  14  30  54  73  97 142 189 231 273 343
#     4   9  18  31  49  73 104 143 187 233 282 338
#     4   8  14  30  54  74  96 140 194 229 274 342
#
# _framework density 26.035299999999999
#
# number of rings (size 3 to 8) (size 9 to 14) (size 15 to 20)
#    0.000    2.857    1.429    1.714    0.000    3.429 
#    0.000   10.000    0.000    0.000    0.000    0.000 
#    0.000    0.000    0.000    0.000    0.000    0.000 
#
# Total GULP energy -312236.717452 kJ/mol
# GULP energy per Si atom -5575.655669 kJ/mol
# Density = 2.597604 g / cm^3
# Si number density = 26.035300 Si / 1000 Ang^3
#
#
#
# Elastic Constant Matrix: (Units=GPa)
#
#
# Indices 1 2 3 4 5 6 
#
# 1 95.8583 42.5033 24.7220 0.0000 0.0000 0.0000
# 2 42.5033 122.7750 28.6875 0.0000 0.0000 0.0000
# 3 24.7220 28.6875 62.1429 0.0000 0.0000 0.0000
# 4 0.0000 0.0000 0.0000 341.5028 0.0000 0.0000
# 5 0.0000 0.0000 0.0000 0.0000 39.5276 0.0000
# 6 0.0000 0.0000 0.0000 0.0000 0.0000 3.0598
#
#
#
# Elastic Compliance Matrix: (Units=1/GPa)
#
#
# Indices 1 2 3 4 5 6 
#
# 1 0.012954 -0.003677 -0.003456 0.000000 0.000000 0.000000
# 2 -0.003677 0.010173 -0.003234 0.000000 0.000000 0.000000
# 3 -0.003456 -0.003234 0.018960 0.000000 0.000000 0.000000
# 4 0.000000 0.000000 0.000000 0.002928 0.000000 0.000000
# 5 0.000000 0.000000 0.000000 0.000000 0.025299 0.000000
# 6 0.000000 0.000000 0.000000 0.000000 0.000000 0.326819
#
#
# Mechanical properties :
#
#
# Convention : Reuss Voigt Hill
#
# Bulk Modulus (GPa) = 46.83024 52.51133 49.67078
# Shear Modulus (GPa) = 11.76515 89.14227 50.45371
#
# Velocity S-wave (km/s) = 2.12808 5.85776 4.40693
# Velocity P-wave (km/s) = 4.90557 8.12183 6.70928
#
# Compressibility (1/GPa) = 0.02135372
#
# Stress axis : x y z
#
# Youngs Moduli (GPa) = 77.19817 98.29492 52.74377
#
# Poissons Ratio (x) = 0.36142 0.18228
# Poissons Ratio (y) = 0.28385 0.17056
# Poissons Ratio (z) = 0.26679 0.31786
#
# Static dielectric constant tensor:
#      x y z
#    x 2.183010 0.000000 0.000000 
#    y 0.000000 1.245510 0.000000 
#    z 0.000000 0.000000 2.068000 
# 
# From -- ./inp_files/7611.got.cif
#   From: 2010.05.17/outbox.cif.g08.bks.cpg/sg54_4_cif.got.tgz:7611.got - 2010.06.03 13:09:01.
