data_PCOD9421918
_publ_section_title
;
Structure prediction by ZEFSAII (Michael W. Deem and Ramdas Pophale) SiO2 
 PCOD9421918
Probable space group: P C C A
;
_chemical_formula_sum "Si O2"
_cell_formula_units_Z 64
_cell_length_a 20.121697
_cell_length_b 8.917214
_cell_length_c 17.527151
_cell_angle_alpha 90.000000
_cell_angle_beta 90.000000
_cell_angle_gamma 90.000000
_cell_volume 3144.887558
_symmetry_space_group_name_H-M "P C C A"
_symmetry_group_IT_number 54
_symmetry_cell_setting 'orthorhombic'
loop_
_space_group_symop_operation_xyz
x,y,z
1/2-x,-y,z
1/2+x,-y,1/2-z
-x,y,1/2-z
-x,-y,-z
1/2+x,y,-z
1/2-x,y,1/2+z
x,-y,1/2+z
loop_
_atom_site_type_symbol
_atom_site_label
_atom_site_fract_x
_atom_site_fract_y
_atom_site_fract_z
Si Si1 0.658143 0.801987 0.503806
Si Si2 0.566788 0.053853 0.461496
Si Si3 0.726022 0.660849 0.098145
Si Si4 0.547348 0.389871 0.948540
Si Si5 0.699021 0.143307 0.734281
Si Si6 0.248247 0.679377 0.630960
Si Si7 0.631536 0.656005 0.955063
Si Si8 0.945217 0.135449 0.316606
O O1 0.631858 0.970592 0.496099
O O2 0.710116 0.752905 0.567301
O O3 0.590298 0.707775 0.508164
O O4 0.694445 0.754347 0.425115
O O5 0.558383 0.005974 0.373816
O O6 0.500000 0.000000 0.500000
O O7 0.575365 0.227733 0.477528
O O8 0.750000 0.500000 0.130269
O O9 0.689525 0.776873 0.153137
O O10 0.677842 0.618763 0.027360
O O11 0.599541 0.512472 0.916809
O O12 0.536784 0.274792 0.876357
O O13 0.500000 0.500000 0.000000
O O14 0.736021 0.268484 0.784606
O O15 0.627070 0.130858 0.775052
O O16 0.750000 0.000000 0.731752
O O17 0.250000 0.500000 0.621366
O O18 0.319447 0.737715 0.603095
O O19 0.000000 0.130035 0.250000
#
# Coordination Sequence:
#
# PCOD9421918 Si02
#       8
#     8   8   8   8   8   8   8   8
#     4  10  20  40  60  94 128 163 225 268 339 395
#     4  11  24  40  64  96 129 183 227 280 337 411
#     4  11  24  39  65 100 135 174 214 303 337 399
#     4  11  21  40  68  99 129 179 230 274 333 428
#     4  12  26  41  64  99 137 185 230 274 361 423
#     4  11  19  39  65  88 125 167 212 274 336 410
#     4  11  21  38  67  94 127 166 231 278 334 388
#     4  11  26  47  68  98 146 187 223 291 361 420
#
# _framework density 20.350489
#
# number of rings (size 3 to 8) (size 9 to 14) (size 15 to 20)
#    0.000    1.000    5.000    3.375    5.250    1.000 
#    0.000    0.625    0.000    0.000    0.000    0.000 
#    0.000    0.000    0.000    0.000    0.000    0.000 
#
# Total GULP energy -356480.597861 kJ/mol
# GULP energy per Si atom -5570.009342 kJ/mol
# Density = 2.030417 g / cm^3
# Si number density = 20.350489 Si / 1000 Ang^3
#
#
#
# Elastic Constant Matrix: (Units=GPa)
#
#
# Indices 1 2 3 4 5 6 
#
# 1 67.6717 13.2987 22.4359 0.0000 0.0000 0.0000
# 2 13.2987 92.0335 9.4068 0.0000 0.0000 0.0000
# 3 22.4359 9.4068 67.2080 0.0000 0.0000 0.0000
# 4 0.0000 0.0000 0.0000 31.1699 0.0000 0.0000
# 5 0.0000 0.0000 0.0000 0.0000 27.6264 0.0000
# 6 0.0000 0.0000 0.0000 0.0000 0.0000 34.9668
#
#
#
# Elastic Compliance Matrix: (Units=1/GPa)
#
#
# Indices 1 2 3 4 5 6 
#
# 1 0.016936 -0.001897 -0.005388 0.000000 0.000000 0.000000
# 2 -0.001897 0.011236 -0.000939 0.000000 0.000000 0.000000
# 3 -0.005388 -0.000939 0.016809 0.000000 0.000000 0.000000
# 4 0.000000 0.000000 0.000000 0.032082 0.000000 0.000000
# 5 0.000000 0.000000 0.000000 0.000000 0.036197 0.000000
# 6 0.000000 0.000000 0.000000 0.000000 0.000000 0.028599
#
#
# Mechanical properties :
#
#
# Convention : Reuss Voigt Hill
#
# Bulk Modulus (GPa) = 35.04749 35.24401 35.14575
# Shear Modulus (GPa) = 29.79395 30.87075 30.33235
#
# Velocity S-wave (km/s) = 3.83043 3.89903 3.86488
# Velocity P-wave (km/s) = 6.06813 6.13401 6.10116
#
# Compressibility (1/GPa) = 0.02853271
#
# Stress axis : x y z
#
# Youngs Moduli (GPa) = 59.04441 89.00219 59.49025
#
# Poissons Ratio (x) = 0.16880 0.32056
# Poissons Ratio (y) = 0.11198 0.05589
# Poissons Ratio (z) = 0.31815 0.08362
#
# Static dielectric constant tensor:
#      x y z
#    x 1.806880 0.000000 0.000000 
#    y 0.000000 1.784720 0.000000 
#    z 0.000000 0.000000 1.705320 
# 
# From -- ./inp_files/18953.got.cif
#   From: 2010.05.17/outbox.cif.g08.bks.cpg/sg54_10_cif.got.tgz:18953.got - 2010.06.03 13:09:01.
