data_PCOD9421058
_publ_section_title
;
Structure prediction by ZEFSAII (Michael W. Deem and Ramdas Pophale) SiO2 
 PCOD9421058
Probable space group: P C C A
;
_chemical_formula_sum "Si O2"
_cell_formula_units_Z 64
_cell_length_a 21.552741
_cell_length_b 13.598613
_cell_length_c 9.920513
_cell_angle_alpha 90.000000
_cell_angle_beta 90.000000
_cell_angle_gamma 90.000000
_cell_volume 2907.577203
_symmetry_space_group_name_H-M "P C C A"
_symmetry_group_IT_number 54
_symmetry_cell_setting 'orthorhombic'
loop_
_space_group_symop_operation_xyz
x,y,z
1/2-x,-y,z
1/2+x,-y,1/2-z
-x,y,1/2-z
-x,-y,-z
1/2+x,y,-z
1/2-x,y,1/2+z
x,-y,1/2+z
loop_
_atom_site_type_symbol
_atom_site_label
_atom_site_fract_x
_atom_site_fract_y
_atom_site_fract_z
Si Si1 0.075457 0.922260 0.240601
Si Si2 0.549761 0.276862 0.134279
Si Si3 0.187671 0.228798 0.284407
Si Si4 0.655864 0.607432 0.542046
Si Si5 0.123392 0.012830 0.996586
Si Si6 0.226636 0.819454 0.509528
Si Si7 0.054671 0.817707 0.645318
Si Si8 0.190908 0.546505 0.734378
O O1 0.087860 0.817325 0.310646
O O2 0.104202 0.002784 0.342534
O O3 0.000000 0.930009 0.250000
O O4 0.112000 0.923968 0.099531
O O5 0.500000 0.292463 0.250000
O O6 0.592260 0.369383 0.116309
O O7 0.532449 0.249972 0.980084
O O8 0.211533 0.177518 0.420206
O O9 0.234914 0.190613 0.169291
O O10 0.118626 0.212870 0.222157
O O11 0.196962 0.345313 0.296506
O O12 0.690932 0.714607 0.525956
O O13 0.683914 0.529004 0.643892
O O14 0.645495 0.564188 0.392455
O O15 0.184715 0.081553 0.994821
O O16 0.070956 0.081859 0.068172
O O17 0.000000 0.826567 0.750000
O O18 0.250000 0.500000 0.658187
#
# Coordination Sequence:
#
# PCOD9421058 Si02
#       8
#     8   8   8   8   8   8   8   8
#     4  10  19  34  63  94 127 165 221 274 323 378
#     4  10  21  42  61  89 134 178 217 278 340 398
#     4  10  21  39  62  94 129 168 215 272 331 404
#     4  11  21  40  58  92 130 161 213 277 336 392
#     4  10  20  37  61  95 125 164 211 277 316 385
#     4  10  20  40  62  88 134 165 204 271 340 386
#     4  10  20  41  63  90 132 172 219 277 336 401
#     4  11  21  34  65  94 122 162 220 277 328 400
#
# _framework density 22.011454000000001
#
# number of rings (size 3 to 8) (size 9 to 14) (size 15 to 20)
#    0.000    1.750    6.250    1.125    1.750    2.000 
#    4.500    3.750    2.750   12.000    0.000    0.000 
#    0.000    0.000    0.000    0.000    0.000    0.000 
#
# Total GULP energy -356422.200069 kJ/mol
# GULP energy per Si atom -5569.096876 kJ/mol
# Density = 2.196135 g / cm^3
# Si number density = 22.011454 Si / 1000 Ang^3
#
#
#
# Elastic Constant Matrix: (Units=GPa)
#
#
# Indices 1 2 3 4 5 6 
#
# 1 60.6797 15.7087 53.0493 0.0000 0.0000 0.0000
# 2 15.7087 47.1150 15.4083 0.0000 0.0000 0.0000
# 3 53.0493 15.4083 122.3005 0.0000 0.0000 0.0000
# 4 0.0000 0.0000 0.0000 11.6894 0.0000 0.0000
# 5 0.0000 0.0000 0.0000 0.0000 37.8194 0.0000
# 6 0.0000 0.0000 0.0000 0.0000 0.0000 16.9736
#
#
#
# Elastic Compliance Matrix: (Units=1/GPa)
#
#
# Indices 1 2 3 4 5 6 
#
# 1 0.027882 -0.005570 -0.011392 0.000000 0.000000 0.000000
# 2 -0.005570 0.023250 -0.000513 0.000000 0.000000 0.000000
# 3 -0.011392 -0.000513 0.013183 0.000000 0.000000 0.000000
# 4 0.000000 0.000000 0.000000 0.085548 0.000000 0.000000
# 5 0.000000 0.000000 0.000000 0.000000 0.026441 0.000000
# 6 0.000000 0.000000 0.000000 0.000000 0.000000 0.058915
#
#
# Mechanical properties :
#
#
# Convention : Reuss Voigt Hill
#
# Bulk Modulus (GPa) = 34.05655 44.26977 39.16316
# Shear Modulus (GPa) = 17.85987 23.02506 20.44246
#
# Velocity S-wave (km/s) = 2.85158 3.23778 3.05080
# Velocity P-wave (km/s) = 5.13301 5.84238 5.49915
#
# Compressibility (1/GPa) = 0.02936292
#
# Stress axis : x y z
#
# Youngs Moduli (GPa) = 35.86582 43.01139 75.85691
#
# Poissons Ratio (x) = 0.23959 0.86418
# Poissons Ratio (y) = 0.19979 0.03891
# Poissons Ratio (z) = 0.40859 0.02206
#
# Static dielectric constant tensor:
#      x y z
#    x 1.887580 0.000000 0.000000 
#    y 0.000000 1.864600 0.000000 
#    z 0.000000 0.000000 1.896500 
# 
# From -- ./inp_files/5291.got.cif
#   From: 2010.05.17/outbox.cif.g08.bks.cpg/sg54_3_cif.got.tgz:5291.got - 2010.06.03 13:09:01.
