data_PCOD9421056
_publ_section_title
;
Structure prediction by ZEFSAII (Michael W. Deem and Ramdas Pophale) SiO2 
 PCOD9421056
Probable space group: P C C A
;
_chemical_formula_sum "Si O2"
_cell_formula_units_Z 56
_cell_length_a 32.715461
_cell_length_b 5.705345
_cell_length_c 12.866294
_cell_angle_alpha 90.000000
_cell_angle_beta 90.000000
_cell_angle_gamma 90.000000
_cell_volume 2401.532269
_symmetry_space_group_name_H-M "P C C A"
_symmetry_group_IT_number 54
_symmetry_cell_setting 'orthorhombic'
loop_
_space_group_symop_operation_xyz
x,y,z
1/2-x,-y,z
1/2+x,-y,1/2-z
-x,y,1/2-z
-x,-y,-z
1/2+x,y,-z
1/2-x,y,1/2+z
x,-y,1/2+z
loop_
_atom_site_type_symbol
_atom_site_label
_atom_site_fract_x
_atom_site_fract_y
_atom_site_fract_z
Si Si1 0.250000 0.000000 0.652768
Si Si2 0.836199 0.136011 0.793276
Si Si3 0.750000 0.500000 0.474295
Si Si4 0.340257 0.441642 0.996204
Si Si5 0.478912 0.365031 0.364214
Si Si6 0.103271 0.758908 0.626636
Si Si7 0.490143 0.131737 0.624273
Si Si8 0.111140 0.536285 0.323989
O O1 0.208364 0.025189 0.717546
O O2 0.253657 0.250304 0.589830
O O3 0.836254 0.281080 0.901656
O O4 0.850546 0.296639 0.699166
O O5 0.871440 0.950201 0.811026
O O6 0.793159 0.515219 0.533982
O O7 0.366651 0.665270 0.036742
O O8 0.369507 0.349508 0.904332
O O9 0.500000 0.370623 0.250000
O O10 0.488939 0.623087 0.407914
O O11 0.430013 0.348032 0.364038
O O12 0.494746 0.122772 0.411643
O O13 0.058154 0.846051 0.602591
O O14 0.097790 0.554618 0.711208
O O15 0.500000 0.125337 0.750000
#
# Coordination Sequence:
#
# PCOD9421056 Si02
#       8
#     4   8   4   8   8   8   8   8
#     4  10  20  42  70  96 128 178 218 266 340 402
#     4  10  22  41  69  93 133 175 223 280 336 406
#     4  10  20  46  66  92 140 176 210 270 346 392
#     4  10  24  42  65  97 133 177 219 279 342 402
#     4  10  19  37  60  90 129 175 207 273 339 385
#     4  11  21  41  67  93 127 180 223 273 335 404
#     4  10  19  34  63  88 126 173 216 263 337 387
#     4  11  23  41  65 100 132 172 231 280 330 406
#
# _framework density 23.318446000000002
#
# number of rings (size 3 to 8) (size 9 to 14) (size 15 to 20)
#    0.000    1.714    4.286    1.714    2.000    1.143 
#    2.571    1.429    0.000    0.000    0.000    0.000 
#    0.000    0.000    0.000    0.000    0.000    0.000 
#
# Total GULP energy -312394.443448 kJ/mol
# GULP energy per Si atom -5578.472204 kJ/mol
# Density = 2.326537 g / cm^3
# Si number density = 23.318446 Si / 1000 Ang^3
#
#
#
# Elastic Constant Matrix: (Units=GPa)
#
#
# Indices 1 2 3 4 5 6 
#
# 1 215.3205 45.7610 41.2884 0.0000 0.0000 0.0000
# 2 45.7610 124.9575 27.6143 0.0000 0.0000 0.0000
# 3 41.2884 27.6143 63.4751 0.0000 0.0000 0.0000
# 4 0.0000 0.0000 0.0000 21.7168 0.0000 0.0000
# 5 0.0000 0.0000 0.0000 0.0000 22.8546 0.0000
# 6 0.0000 0.0000 0.0000 0.0000 0.0000 34.0725
#
#
#
# Elastic Compliance Matrix: (Units=1/GPa)
#
#
# Indices 1 2 3 4 5 6 
#
# 1 0.005506 -0.001355 -0.002992 0.000000 0.000000 0.000000
# 2 -0.001355 0.009187 -0.003115 0.000000 0.000000 0.000000
# 3 -0.002992 -0.003115 0.019056 0.000000 0.000000 0.000000
# 4 0.000000 0.000000 0.000000 0.046047 0.000000 0.000000
# 5 0.000000 0.000000 0.000000 0.000000 0.043755 0.000000
# 6 0.000000 0.000000 0.000000 0.000000 0.000000 0.029349
#
#
# Mechanical properties :
#
#
# Convention : Reuss Voigt Hill
#
# Bulk Modulus (GPa) = 53.12333 70.34229 61.73281
# Shear Modulus (GPa) = 28.71910 35.00141 31.86025
#
# Velocity S-wave (km/s) = 3.51323 3.87850 3.70037
# Velocity P-wave (km/s) = 6.26803 7.09143 6.69241
#
# Compressibility (1/GPa) = 0.01882412
#
# Stress axis : x y z
#
# Youngs Moduli (GPa) = 181.62169 108.84373 52.47777
#
# Poissons Ratio (x) = 0.14750 0.15701
# Poissons Ratio (y) = 0.24613 0.16349
# Poissons Ratio (z) = 0.54339 0.33910
#
# Static dielectric constant tensor:
#      x y z
#    x 1.810000 0.000000 0.000000 
#    y 0.000000 2.059660 0.000000 
#    z 0.000000 0.000000 1.874870 
# 
# From -- ./inp_files/15387.got.cif
#   From: 2010.05.17/outbox.cif.g08.bks.cpg/sg54_8_cif.got.tgz:15387.got - 2010.06.03 13:09:01.
