data_PCOD9421178
_publ_section_title
;
Structure prediction by ZEFSAII (Michael W. Deem and Ramdas Pophale) SiO2 
 PCOD9421178
Probable space group: P C C A
;
_chemical_formula_sum "Si O2"
_cell_formula_units_Z 48
_cell_length_a 24.861434
_cell_length_b 5.673127
_cell_length_c 13.915093
_cell_angle_alpha 90.000000
_cell_angle_beta 90.000000
_cell_angle_gamma 90.000000
_cell_volume 1962.613556
_symmetry_space_group_name_H-M "P C C A"
_symmetry_group_IT_number 54
_symmetry_cell_setting 'orthorhombic'
loop_
_space_group_symop_operation_xyz
x,y,z
1/2-x,-y,z
1/2+x,-y,1/2-z
-x,y,1/2-z
-x,-y,-z
1/2+x,y,-z
1/2-x,y,1/2+z
x,-y,1/2+z
loop_
_atom_site_type_symbol
_atom_site_label
_atom_site_fract_x
_atom_site_fract_y
_atom_site_fract_z
Si Si1 0.611283 0.468542 0.109789
Si Si2 0.279556 0.749169 0.938615
Si Si3 0.449264 0.514830 0.699761
Si Si4 0.625890 0.196322 0.439913
Si Si5 0.241900 0.248485 0.651997
Si Si6 0.544612 0.184256 0.965616
O O1 0.661431 0.286056 0.107658
O O2 0.592726 0.540084 0.215506
O O3 0.629083 0.689554 0.045128
O O4 0.559980 0.361753 0.051655
O O5 0.250000 0.500000 0.916155
O O6 0.250000 0.000000 0.916796
O O7 0.279761 0.748934 0.056414
O O8 0.500000 0.635923 0.750000
O O9 0.418400 0.668906 0.622494
O O10 0.471098 0.299097 0.635827
O O11 0.681903 0.233463 0.388569
O O12 0.601945 0.938152 0.446031
O O13 0.250000 0.500000 0.701825
O O14 0.250000 0.000000 0.704702
O O15 0.500000 0.000000 0.000000
#
# Coordination Sequence:
#
# PCOD9421178 Si02
#       6
#     8   8   8   8   8   8
#     4  11  23  43  71 101 144 189 242 305 371 446
#     4  10  19  37  67 104 143 191 236 292 367 439
#     4  11  26  45  66 104 144 183 247 311 373 449
#     4  11  23  42  70 101 138 193 239 299 373 444
#     4  10  19  36  68 100 139 187 238 294 358 441
#     4  11  24  43  72 101 136 192 244 304 380 443
#
# _framework density 24.457183000000001
#
# number of rings (size 3 to 8) (size 9 to 14) (size 15 to 20)
#    0.000    1.333    3.333    4.000    2.333    6.000 
#    0.000    1.667    0.000    0.000    0.000    0.000 
#    0.000    0.000    0.000    0.000    0.000    0.000 
#
# Total GULP energy -268374.130910 kJ/mol
# GULP energy per Si atom -5591.127727 kJ/mol
# Density = 2.440152 g / cm^3
# Si number density = 24.457183 Si / 1000 Ang^3
#
#
#
# Elastic Constant Matrix: (Units=GPa)
#
#
# Indices 1 2 3 4 5 6 
#
# 1 114.1820 28.8363 16.7994 0.0000 0.0000 0.0000
# 2 28.8363 132.1807 35.5373 0.0000 0.0000 0.0000
# 3 16.7994 35.5373 127.0960 0.0000 0.0000 0.0000
# 4 0.0000 0.0000 0.0000 -6.0067 0.0000 0.0000
# 5 0.0000 0.0000 0.0000 0.0000 4.1561 0.0000
# 6 0.0000 0.0000 0.0000 0.0000 0.0000 50.3951
#
#
#
# Elastic Compliance Matrix: (Units=1/GPa)
#
#
# Indices 1 2 3 4 5 6 
#
# 1 0.009329 -0.001842 -0.000718 0.000000 0.000000 0.000000
# 2 -0.001842 0.008544 -0.002146 0.000000 0.000000 0.000000
# 3 -0.000718 -0.002146 0.008563 0.000000 0.000000 0.000000
# 4 0.000000 0.000000 0.000000 -0.166479 0.000000 0.000000
# 5 0.000000 0.000000 0.000000 0.000000 0.240612 0.000000
# 6 0.000000 0.000000 0.000000 0.000000 0.000000 0.019843
#
#
# Mechanical properties :
#
#
# Convention : Reuss Voigt Hill
#
# Bulk Modulus (GPa) = 58.73883 59.53385 59.13634
# Shear Modulus (GPa) = 36.90103 29.19460 33.04781
#
# Velocity S-wave (km/s) = 3.88854 3.45875 3.67993
# Velocity P-wave (km/s) = 6.65058 6.35181 6.50291
#
# Compressibility (1/GPa) = 0.01702451
#
# Stress axis : x y z
#
# Youngs Moduli (GPa) = 107.19479 117.03975 116.78311
#
# Poissons Ratio (x) = 0.21560 0.08385
# Poissons Ratio (y) = 0.19747 0.25056
# Poissons Ratio (z) = 0.07697 0.25111
#
# Static dielectric constant tensor:
#      x y z
#    x 1.934740 0.000000 0.000000 
#    y 0.000000 2.036540 0.000000 
#    z 0.000000 0.000000 1.903920 
# 
# From -- ./inp_files/15178.got.cif
#   From: 2010.05.17/outbox.cif.g08.bks.cpg/sg54_8_cif.got.tgz:15178.got - 2010.06.03 13:09:01.
