data_PCOD9421343
_publ_section_title
;
Structure prediction by ZEFSAII (Michael W. Deem and Ramdas Pophale) SiO2 
 PCOD9421343
Probable space group: P C C A
;
_chemical_formula_sum "Si O2"
_cell_formula_units_Z 48
_cell_length_a 14.155961
_cell_length_b 6.436892
_cell_length_c 27.013478
_cell_angle_alpha 90.000000
_cell_angle_beta 90.000000
_cell_angle_gamma 90.000000
_cell_volume 2461.478708
_symmetry_space_group_name_H-M "P C C A"
_symmetry_group_IT_number 54
_symmetry_cell_setting 'orthorhombic'
loop_
_space_group_symop_operation_xyz
x,y,z
1/2-x,-y,z
1/2+x,-y,1/2-z
-x,y,1/2-z
-x,-y,-z
1/2+x,y,-z
1/2-x,y,1/2+z
x,-y,1/2+z
loop_
_atom_site_type_symbol
_atom_site_label
_atom_site_fract_x
_atom_site_fract_y
_atom_site_fract_z
Si Si1 0.997073 0.002875 0.918009
Si Si2 0.250000 0.500000 0.969066
Si Si3 0.864677 0.673496 0.618139
Si Si4 0.846000 0.076378 0.213311
Si Si5 0.500000 0.392496 0.750000
Si Si6 0.960782 0.297521 0.666495
Si Si7 0.650956 0.120158 0.999384
O O1 0.981830 0.172433 0.875178
O O2 0.037799 0.792860 0.893470
O O3 0.082648 0.080569 0.953571
O O4 0.908094 0.955097 0.952112
O O5 0.305546 0.348006 0.931690
O O6 0.322235 0.636698 0.000443
O O7 0.818314 0.808432 0.661698
O O8 0.885668 0.443740 0.638100
O O9 0.910309 0.243274 0.241515
O O10 0.750000 0.000000 0.238432
O O11 0.908763 0.877419 0.199029
O O12 0.487267 0.542790 0.702888
O O13 0.750000 0.000000 0.001759
#
# Coordination Sequence:
#
# PCOD9421343 Si02
#       7
#     8   4   8   8   4   8   8
#     4  10  22  38  58  87 125 169 202 255 313 367
#     4  12  20  32  56  90 124 158 208 262 302 370
#     4  10  20  32  57  89 121 157 202 248 315 361
#     4  10  21  36  61  92 126 158 199 255 317 369
#     4  10  22  38  62  96 124 160 206 258 312 374
#     4  10  20  39  63  89 126 159 206 258 313 366
#     4  11  23  37  57  88 127 163 208 254 310 373
#
# _framework density 19.500473
#
# number of rings (size 3 to 8) (size 9 to 14) (size 15 to 20)
#    0.000    1.667    3.333    1.500    2.333    4.000 
#    0.000    0.000    0.000   24.000    0.000    0.000 
#    0.000    0.000    0.000    0.000    0.000    0.000 
#
# Total GULP energy -267941.469787 kJ/mol
# GULP energy per Si atom -5582.113954 kJ/mol
# Density = 1.945609 g / cm^3
# Si number density = 19.500473 Si / 1000 Ang^3
#
#
#
# Elastic Constant Matrix: (Units=GPa)
#
#
# Indices 1 2 3 4 5 6 
#
# 1 97.0026 57.0254 57.2579 0.0000 0.0000 0.0000
# 2 57.0254 131.7594 53.9576 0.0000 0.0000 0.0000
# 3 57.2579 53.9576 84.9859 0.0000 0.0000 0.0000
# 4 0.0000 0.0000 0.0000 22.2739 0.0000 0.0000
# 5 0.0000 0.0000 0.0000 0.0000 22.5367 0.0000
# 6 0.0000 0.0000 0.0000 0.0000 0.0000 24.4858
#
#
#
# Elastic Compliance Matrix: (Units=1/GPa)
#
#
# Indices 1 2 3 4 5 6 
#
# 1 0.018504 -0.003923 -0.009976 0.000000 0.000000 0.000000
# 2 -0.003923 0.011088 -0.004397 0.000000 0.000000 0.000000
# 3 -0.009976 -0.004397 0.021279 0.000000 0.000000 0.000000
# 4 0.000000 0.000000 0.000000 0.044896 0.000000 0.000000
# 5 0.000000 0.000000 0.000000 0.000000 0.044372 0.000000
# 6 0.000000 0.000000 0.000000 0.000000 0.000000 0.040840
#
#
# Mechanical properties :
#
#
# Convention : Reuss Voigt Hill
#
# Bulk Modulus (GPa) = 70.02935 72.24775 71.13855
# Shear Modulus (GPa) = 22.48912 23.55974 23.02443
#
# Velocity S-wave (km/s) = 3.39965 3.47963 3.43988
# Velocity P-wave (km/s) = 7.16936 7.29887 7.23440
#
# Compressibility (1/GPa) = 0.01427973
#
# Stress axis : x y z
#
# Youngs Moduli (GPa) = 54.04301 90.18733 46.99442
#
# Poissons Ratio (x) = 0.35382 0.46881
# Poissons Ratio (y) = 0.21202 0.20662
# Poissons Ratio (z) = 0.53912 0.39652
#
# Static dielectric constant tensor:
#      x y z
#    x 1.673030 0.000000 0.000000 
#    y 0.000000 1.709950 0.000000 
#    z 0.000000 0.000000 1.699760 
# 
# From -- ./inp_files/26512.got.cif
#   From: 2010.05.17/outbox.cif.g08.bks.cpg/sg54_14_cif.got.tgz:26512.got - 2010.06.03 13:09:01.
