data_PCOD9421103
_publ_section_title
;
Structure prediction by ZEFSAII (Michael W. Deem and Ramdas Pophale) SiO2 
 PCOD9421103
Probable space group: P C C A
;
_chemical_formula_sum "Si O2"
_cell_formula_units_Z 52
_cell_length_a 15.877762
_cell_length_b 8.097792
_cell_length_c 20.202365
_cell_angle_alpha 90.000000
_cell_angle_beta 90.000000
_cell_angle_gamma 90.000000
_cell_volume 2597.515324
_symmetry_space_group_name_H-M "P C C A"
_symmetry_group_IT_number 54
_symmetry_cell_setting 'orthorhombic'
loop_
_space_group_symop_operation_xyz
x,y,z
1/2-x,-y,z
1/2+x,-y,1/2-z
-x,y,1/2-z
-x,-y,-z
1/2+x,y,-z
1/2-x,y,1/2+z
x,-y,1/2+z
loop_
_atom_site_type_symbol
_atom_site_label
_atom_site_fract_x
_atom_site_fract_y
_atom_site_fract_z
Si Si1 0.277455 0.306525 0.089247
Si Si2 0.783517 0.684689 0.561215
Si Si3 0.606434 0.187848 0.088051
Si Si4 0.070082 0.166429 0.359005
Si Si5 0.000000 0.366638 0.250000
Si Si6 0.051846 0.413665 0.626301
Si Si7 0.596318 0.751885 0.432344
O O1 0.250000 0.500000 0.093515
O O2 0.365288 0.297055 0.128254
O O3 0.187587 0.219692 0.101283
O O4 0.297279 0.255587 0.013671
O O5 0.750000 0.500000 0.554377
O O6 0.704262 0.767296 0.596683
O O7 0.868770 0.712858 0.600071
O O8 0.533968 0.315399 0.111326
O O9 0.597663 0.018658 0.127742
O O10 0.596369 0.183398 0.007677
O O11 0.064883 0.244639 0.286566
O O12 0.977144 0.169731 0.390026
O O13 0.039980 0.482915 0.193713
O O14 0.073710 0.554358 0.570752
#
# Coordination Sequence:
#
# PCOD9421103 Si02
#       7
#     8   8   8   8   4   8   8
#     4   8  16  31  57  86 113 141 185 240 288 341
#     4  10  19  35  59  87 112 144 186 238 301 360
#     4  11  21  34  60  90 113 145 189 244 309 355
#     4  11  22  38  54  82 123 155 190 243 289 345
#     4  10  24  40  58  76 110 166 210 234 274 342
#     4  10  19  37  57  82 114 153 197 240 279 344
#     4   9  18  34  58  89 118 149 184 235 307 363
#
# _framework density 20.019131999999999
#
# number of rings (size 3 to 8) (size 9 to 14) (size 15 to 20)
#    0.000    2.154    0.000    5.077    0.000    0.615 
#    0.000   13.846    0.000    7.385    0.000    0.000 
#    0.000    0.000    0.000    0.000    0.000    0.000 
#
# Total GULP energy -289678.356538 kJ/mol
# GULP energy per Si atom -5570.737626 kJ/mol
# Density = 1.997357 g / cm^3
# Si number density = 20.019132 Si / 1000 Ang^3
#
#
#
# Elastic Constant Matrix: (Units=GPa)
#
#
# Indices 1 2 3 4 5 6 
#
# 1 93.1768 20.4041 43.9109 0.0000 0.0000 0.0000
# 2 20.4041 46.1334 22.7541 0.0000 0.0000 0.0000
# 3 43.9109 22.7541 70.2880 0.0000 0.0000 0.0000
# 4 0.0000 0.0000 0.0000 10.6033 0.0000 0.0000
# 5 0.0000 0.0000 0.0000 0.0000 -26.0976 0.0000
# 6 0.0000 0.0000 0.0000 0.0000 0.0000 29.5493
#
#
#
# Elastic Compliance Matrix: (Units=1/GPa)
#
#
# Indices 1 2 3 4 5 6 
#
# 1 0.015442 -0.002465 -0.008849 0.000000 0.000000 0.000000
# 2 -0.002465 0.026188 -0.006938 0.000000 0.000000 0.000000
# 3 -0.008849 -0.006938 0.022001 0.000000 0.000000 0.000000
# 4 0.000000 0.000000 0.000000 0.094310 0.000000 0.000000
# 5 0.000000 0.000000 0.000000 0.000000 -0.038318 0.000000
# 6 0.000000 0.000000 0.000000 0.000000 0.000000 0.033842
#
#
# Mechanical properties :
#
#
# Convention : Reuss Voigt Hill
#
# Bulk Modulus (GPa) = 36.86254 42.63737 39.74995
# Shear Modulus (GPa) = 25.12387 10.97962 18.05175
#
# Velocity S-wave (km/s) = 3.54643 2.34446 3.00613
# Velocity P-wave (km/s) = 5.93491 5.35473 5.65227
#
# Compressibility (1/GPa) = 0.02712781
#
# Stress axis : x y z
#
# Youngs Moduli (GPa) = 64.75642 38.18472 45.45147
#
# Poissons Ratio (x) = 0.09414 0.40221
# Poissons Ratio (y) = 0.15964 0.31533
# Poissons Ratio (z) = 0.57305 0.26492
#
# Static dielectric constant tensor:
#      x y z
#    x 1.745500 0.000000 0.000000 
#    y 0.000000 1.794360 0.000000 
#    z 0.000000 0.000000 1.691850 
# 
# From -- ./inp_files/21539.got.cif
#   From: 2010.05.17/outbox.cif.g08.bks.cpg/sg54_11_cif.got.tgz:21539.got - 2010.06.03 13:09:01.
