data_PCOD9421950
_publ_section_title
;
Structure prediction by ZEFSAII (Michael W. Deem and Ramdas Pophale) SiO2 
 PCOD9421950
Probable space group: P C C A
;
_chemical_formula_sum "Si O2"
_cell_formula_units_Z 56
_cell_length_a 14.734272
_cell_length_b 12.954201
_cell_length_c 14.398205
_cell_angle_alpha 90.000000
_cell_angle_beta 90.000000
_cell_angle_gamma 90.000000
_cell_volume 2748.195771
_symmetry_space_group_name_H-M "P C C A"
_symmetry_group_IT_number 54
_symmetry_cell_setting 'orthorhombic'
loop_
_space_group_symop_operation_xyz
x,y,z
1/2-x,-y,z
1/2+x,-y,1/2-z
-x,y,1/2-z
-x,-y,-z
1/2+x,y,-z
1/2-x,y,1/2+z
x,-y,1/2+z
loop_
_atom_site_type_symbol
_atom_site_label
_atom_site_fract_x
_atom_site_fract_y
_atom_site_fract_z
Si Si1 0.389154 0.299100 0.121260
Si Si2 0.001063 0.134676 0.360295
Si Si3 0.676144 0.262436 0.567841
Si Si4 0.364562 0.213914 0.498806
Si Si5 0.557296 0.420901 0.064111
Si Si6 0.790225 0.398818 0.709793
Si Si7 0.002059 0.107639 0.639333
O O1 0.483371 0.360211 0.126196
O O2 0.332309 0.326339 0.211296
O O3 0.411121 0.177092 0.112032
O O4 0.349711 0.331552 0.021370
O O5 0.087745 0.197922 0.400171
O O6 0.000000 0.147397 0.250000
O O7 0.907800 0.172352 0.406988
O O8 0.003553 0.012958 0.383004
O O9 0.760102 0.197307 0.525503
O O10 0.719703 0.330303 0.650163
O O11 0.391923 0.334691 0.498033
O O12 0.420125 0.161517 0.414879
O O13 0.635896 0.447746 0.137879
O O14 0.500000 0.500000 0.000000
O O15 0.750000 0.500000 0.757984
O O16 0.000000 0.117902 0.750000
#
# Coordination Sequence:
#
# PCOD9421950 Si02
#       7
#     8   8   8   8   8   8   8
#     4  11  22  42  67  91 131 178 225 272 342 403
#     4  11  24  43  67  97 134 178 226 288 349 404
#     4  11  24  42  65  95 136 175 226 289 335 406
#     4  10  22  40  64  96 132 174 221 281 341 404
#     4  10  20  40  66  90 128 174 221 269 342 401
#     4  11  25  40  63 101 135 175 231 283 340 414
#     4  10  20  41  68  91 128 174 223 280 339 414
#
# _framework density 20.377003999999999
#
# number of rings (size 3 to 8) (size 9 to 14) (size 15 to 20)
#    0.000    1.429    2.857    4.286    2.000    3.429 
#    0.000    0.000    0.000    0.000    0.000    0.000 
#    0.000    0.000    0.000    0.000    0.000    0.000 
#
# Total GULP energy -312149.118545 kJ/mol
# GULP energy per Si atom -5574.091403 kJ/mol
# Density = 2.033063 g / cm^3
# Si number density = 20.377004 Si / 1000 Ang^3
#
#
#
# Elastic Constant Matrix: (Units=GPa)
#
#
# Indices 1 2 3 4 5 6 
#
# 1 56.1833 35.5732 25.6784 0.0000 0.0000 0.0000
# 2 35.5732 72.0865 30.6356 0.0000 0.0000 0.0000
# 3 25.6784 30.6356 90.0203 0.0000 0.0000 0.0000
# 4 0.0000 0.0000 0.0000 37.1008 0.0000 0.0000
# 5 0.0000 0.0000 0.0000 0.0000 34.7694 0.0000
# 6 0.0000 0.0000 0.0000 0.0000 0.0000 18.1762
#
#
#
# Elastic Compliance Matrix: (Units=1/GPa)
#
#
# Indices 1 2 3 4 5 6 
#
# 1 0.026896 -0.011705 -0.003689 0.000000 0.000000 0.000000
# 2 -0.011705 0.021312 -0.003914 0.000000 0.000000 0.000000
# 3 -0.003689 -0.003914 0.013493 0.000000 0.000000 0.000000
# 4 0.000000 0.000000 0.000000 0.026954 0.000000 0.000000
# 5 0.000000 0.000000 0.000000 0.000000 0.028761 0.000000
# 6 0.000000 0.000000 0.000000 0.000000 0.000000 0.055017
#
#
# Mechanical properties :
#
#
# Convention : Reuss Voigt Hill
#
# Bulk Modulus (GPa) = 43.31756 44.67383 43.99569
# Shear Modulus (GPa) = 22.85796 26.43613 24.64704
#
# Velocity S-wave (km/s) = 3.35289 3.60578 3.48163
# Velocity P-wave (km/s) = 6.02440 6.26951 6.14818
#
# Compressibility (1/GPa) = 0.02308533
#
# Stress axis : x y z
#
# Youngs Moduli (GPa) = 37.18036 46.92247 74.11362
#
# Poissons Ratio (x) = 0.54923 0.27338
# Poissons Ratio (y) = 0.43519 0.29008
# Poissons Ratio (z) = 0.13715 0.18365
#
# Static dielectric constant tensor:
#      x y z
#    x 1.798830 0.000000 0.000000 
#    y 0.000000 1.825790 0.000000 
#    z 0.000000 0.000000 1.715370 
# 
# From -- ./inp_files/13471.got.cif
#   From: 2010.05.17/outbox.cif.g08.bks.cpg/sg54_7_cif.got.tgz:13471.got - 2010.06.03 13:09:01.
