data_PCOD9421522
_publ_section_title
;
Structure prediction by ZEFSAII (Michael W. Deem and Ramdas Pophale) SiO2 
 PCOD9421522
Probable space group: P C C A
;
_chemical_formula_sum "Si O2"
_cell_formula_units_Z 56
_cell_length_a 7.142077
_cell_length_b 14.238955
_cell_length_c 26.400369
_cell_angle_alpha 90.000000
_cell_angle_beta 90.000000
_cell_angle_gamma 90.000000
_cell_volume 2684.804349
_symmetry_space_group_name_H-M "P C C A"
_symmetry_group_IT_number 54
_symmetry_cell_setting 'orthorhombic'
loop_
_space_group_symop_operation_xyz
x,y,z
1/2-x,-y,z
1/2+x,-y,1/2-z
-x,y,1/2-z
-x,-y,-z
1/2+x,y,-z
1/2-x,y,1/2+z
x,-y,1/2+z
loop_
_atom_site_type_symbol
_atom_site_label
_atom_site_fract_x
_atom_site_fract_y
_atom_site_fract_z
Si Si1 0.854101 0.305002 0.044548
Si Si2 0.750000 0.000000 0.672743
Si Si3 0.904965 0.361506 0.302691
Si Si4 0.000000 0.893804 0.250000
Si Si5 0.419403 0.678146 0.568773
Si Si6 0.473643 0.521768 0.400123
Si Si7 0.357009 0.206045 0.854462
Si Si8 0.429856 0.742109 0.674993
O O1 0.641050 0.317689 0.060804
O O2 0.973062 0.399111 0.055800
O O3 0.913611 0.232091 0.087863
O O4 0.844402 0.287899 0.984941
O O5 0.595789 0.959114 0.709727
O O6 0.829723 0.906302 0.646307
O O7 0.679905 0.346948 0.301508
O O8 0.000000 0.389095 0.250000
O O9 0.960529 0.431096 0.348039
O O10 0.994386 0.259980 0.319027
O O11 0.880839 0.824229 0.285684
O O12 0.405292 0.568781 0.584400
O O13 0.361308 0.740774 0.616667
O O14 0.250000 0.500000 0.393826
O O15 0.155814 0.249703 0.833831
#
# Coordination Sequence:
#
# PCOD9421522 Si02
#       8
#     8   4   8   4   8   8   8   8
#     4   9  19  35  59  82 116 157 192 253 303 345
#     4  10  20  36  64  88 118 152 192 250 298 368
#     4  11  22  38  61  83 117 164 198 245 302 356
#     4  10  22  38  60  92 118 156 194 252 302 362
#     4  10  20  36  58  84 115 159 199 249 294 351
#     4   9  20  38  53  84 119 152 207 250 290 348
#     4   9  21  39  59  89 122 151 195 247 303 361
#     4  10  22  39  58  86 121 155 200 241 296 360
#
# _framework density 20.858131
#
# number of rings (size 3 to 8) (size 9 to 14) (size 15 to 20)
#    0.000    2.286    0.000    3.000    7.000    0.571 
#    3.857    0.000    0.000    8.571    0.000    0.000 
#    0.000    0.000    0.000    0.000    0.000    0.000 
#
# Total GULP energy -311823.860247 kJ/mol
# GULP energy per Si atom -5568.283219 kJ/mol
# Density = 2.081066 g / cm^3
# Si number density = 20.858131 Si / 1000 Ang^3
#
#
#
# Elastic Constant Matrix: (Units=GPa)
#
#
# Indices 1 2 3 4 5 6 
#
# 1 62.8764 14.4533 14.4127 0.0000 0.0000 0.0000
# 2 14.4533 72.3277 34.0601 0.0000 0.0000 0.0000
# 3 14.4127 34.0601 134.2702 0.0000 0.0000 0.0000
# 4 0.0000 0.0000 0.0000 15.3149 0.0000 0.0000
# 5 0.0000 0.0000 0.0000 0.0000 33.9560 0.0000
# 6 0.0000 0.0000 0.0000 0.0000 0.0000 19.4399
#
#
#
# Elastic Compliance Matrix: (Units=1/GPa)
#
#
# Indices 1 2 3 4 5 6 
#
# 1 0.016807 -0.002849 -0.001081 0.000000 0.000000 0.000000
# 2 -0.002849 0.016185 -0.003800 0.000000 0.000000 0.000000
# 3 -0.001081 -0.003800 0.008528 0.000000 0.000000 0.000000
# 4 0.000000 0.000000 0.000000 0.065296 0.000000 0.000000
# 5 0.000000 0.000000 0.000000 0.000000 0.029450 0.000000
# 6 0.000000 0.000000 0.000000 0.000000 0.000000 0.051441
#
#
# Mechanical properties :
#
#
# Convention : Reuss Voigt Hill
#
# Bulk Modulus (GPa) = 38.37502 43.92518 41.15010
# Shear Modulus (GPa) = 23.60132 27.51205 25.55669
#
# Velocity S-wave (km/s) = 3.36745 3.63576 3.50417
# Velocity P-wave (km/s) = 5.79290 6.22332 6.01196
#
# Compressibility (1/GPa) = 0.02605862
#
# Stress axis : x y z
#
# Youngs Moduli (GPa) = 59.49885 61.78682 117.26632
#
# Poissons Ratio (x) = 0.17605 0.12680
# Poissons Ratio (y) = 0.16953 0.44558
# Poissons Ratio (z) = 0.06434 0.23477
#
# Static dielectric constant tensor:
#      x y z
#    x 1.825230 0.000000 0.000000 
#    y 0.000000 1.682700 0.000000 
#    z 0.000000 0.000000 1.782760 
# 
# From -- ./inp_files/20577.got.cif
#   From: 2010.05.17/outbox.cif.g08.bks.cpg/sg54_11_cif.got.tgz:20577.got - 2010.06.03 13:09:01.
