data_PCOD9421613
_publ_section_title
;
Structure prediction by ZEFSAII (Michael W. Deem and Ramdas Pophale) SiO2 
 PCOD9421613
Probable space group: P C C A
;
_chemical_formula_sum "Si O2"
_cell_formula_units_Z 48
_cell_length_a 14.756458
_cell_length_b 16.412626
_cell_length_c 9.239120
_cell_angle_alpha 90.000000
_cell_angle_beta 90.000000
_cell_angle_gamma 90.000000
_cell_volume 2237.643041
_symmetry_space_group_name_H-M "P C C A"
_symmetry_group_IT_number 54
_symmetry_cell_setting 'orthorhombic'
loop_
_space_group_symop_operation_xyz
x,y,z
1/2-x,-y,z
1/2+x,-y,1/2-z
-x,y,1/2-z
-x,-y,-z
1/2+x,y,-z
1/2-x,y,1/2+z
x,-y,1/2+z
loop_
_atom_site_type_symbol
_atom_site_label
_atom_site_fract_x
_atom_site_fract_y
_atom_site_fract_z
Si Si1 0.286817 0.612967 0.268292
Si Si2 0.250000 0.500000 0.017069
Si Si3 0.403447 0.299545 0.305354
Si Si4 0.147313 0.239417 0.108287
Si Si5 0.836997 0.161272 0.907407
Si Si6 0.913698 0.901993 0.686269
Si Si7 0.250000 0.000000 0.229775
O O1 0.305038 0.560024 0.410686
O O2 0.180420 0.638937 0.277236
O O3 0.339059 0.695781 0.237175
O O4 0.303513 0.557721 0.127254
O O5 0.500000 0.330593 0.250000
O O6 0.405035 0.277766 0.474581
O O7 0.380398 0.215891 0.218921
O O8 0.246930 0.212897 0.047569
O O9 0.103369 0.161911 0.183915
O O10 0.796325 0.074982 0.854753
O O11 0.908890 0.145086 0.034604
O O12 0.000000 0.948799 0.750000
O O13 0.829045 0.961288 0.676671
#
# Coordination Sequence:
#
# PCOD9421613 Si02
#       7
#     8   4   8   8   8   8   4
#     4  10  20  37  62  85 118 153 202 238 285 356
#     4  10  20  36  64  90 110 156 202 236 288 358
#     4  11  22  37  58  88 121 154 192 243 299 347
#     4  10  20  38  59  84 116 156 200 241 290 354
#     4  10  21  37  60  83 114 158 200 246 292 355
#     4  11  23  38  60  89 118 157 205 249 300 355
#     4  10  22  38  60  86 124 156 200 252 306 354
#
# _framework density 21.451142999999998
#
# number of rings (size 3 to 8) (size 9 to 14) (size 15 to 20)
#    0.000    1.667    1.667    4.500    2.333    2.667 
#    0.000    0.833    0.000    0.000    0.000    0.000 
#    0.000    0.000    0.000    0.000    0.000    0.000 
#
# Total GULP energy -267853.256872 kJ/mol
# GULP energy per Si atom -5580.276185 kJ/mol
# Density = 2.140232 g / cm^3
# Si number density = 21.451143 Si / 1000 Ang^3
#
#
#
# Elastic Constant Matrix: (Units=GPa)
#
#
# Indices 1 2 3 4 5 6 
#
# 1 30.9331 7.3956 -5.3891 0.0000 0.0000 0.0000
# 2 7.3956 71.3349 8.7951 0.0000 0.0000 0.0000
# 3 -5.3891 8.7951 76.0151 0.0000 0.0000 0.0000
# 4 0.0000 0.0000 0.0000 -9.7964 0.0000 0.0000
# 5 0.0000 0.0000 0.0000 0.0000 -3.4848 0.0000
# 6 0.0000 0.0000 0.0000 0.0000 0.0000 4.7058
#
#
#
# Elastic Compliance Matrix: (Units=1/GPa)
#
#
# Indices 1 2 3 4 5 6 
#
# 1 0.033742 -0.003848 0.002837 0.000000 0.000000 0.000000
# 2 -0.003848 0.014660 -0.001969 0.000000 0.000000 0.000000
# 3 0.002837 -0.001969 0.013584 0.000000 0.000000 0.000000
# 4 0.000000 0.000000 0.000000 -0.102078 0.000000 0.000000
# 5 0.000000 0.000000 0.000000 0.000000 -0.286957 0.000000
# 6 0.000000 0.000000 0.000000 0.000000 0.000000 0.212505
#
#
# Mechanical properties :
#
#
# Convention : Reuss Voigt Hill
#
# Bulk Modulus (GPa) = 17.84847 22.20958 20.02902
# Shear Modulus (GPa) = -55.61197 9.45033 -23.08082
#
# Velocity S-wave (km/s) = -5.09718 2.10121 -3.28376
# Velocity P-wave (km/s) = 5.12865 4.03272 2.24056
#
# Compressibility (1/GPa) = 0.05602722
#
# Stress axis : x y z
#
# Youngs Moduli (GPa) = 29.63651 68.21240 73.61459
#
# Poissons Ratio (x) = 0.26248 -0.20887
# Poissons Ratio (y) = 0.11404 0.14495
# Poissons Ratio (z) = -0.08409 0.13431
#
# Static dielectric constant tensor:
#      x y z
#    x 1.838970 0.000000 0.000000 
#    y 0.000000 1.801850 0.000000 
#    z 0.000000 0.000000 1.773850 
# 
# From -- ./inp_files/3596.got.cif
#   From: 2010.05.17/outbox.cif.g08.bks.cpg/sg54_2_cif.got.tgz:3596.got - 2010.06.03 13:09:01.
