data_PCOD9421859
_publ_section_title
;
Structure prediction by ZEFSAII (Michael W. Deem and Ramdas Pophale) SiO2 
 PCOD9421859
Probable space group: P C C A
;
_chemical_formula_sum "Si O2"
_cell_formula_units_Z 40
_cell_length_a 9.157747
_cell_length_b 8.114673
_cell_length_c 27.808811
_cell_angle_alpha 90.000000
_cell_angle_beta 90.000000
_cell_angle_gamma 90.000000
_cell_volume 2066.531765
_symmetry_space_group_name_H-M "P C C A"
_symmetry_group_IT_number 54
_symmetry_cell_setting 'orthorhombic'
loop_
_space_group_symop_operation_xyz
x,y,z
1/2-x,-y,z
1/2+x,-y,1/2-z
-x,y,1/2-z
-x,-y,-z
1/2+x,y,-z
1/2-x,y,1/2+z
x,-y,1/2+z
loop_
_atom_site_type_symbol
_atom_site_label
_atom_site_fract_x
_atom_site_fract_y
_atom_site_fract_z
Si Si1 0.585679 0.435364 0.799367
Si Si2 0.687026 0.813490 0.545016
Si Si3 0.505260 0.702949 0.452547
Si Si4 0.825368 0.171594 0.368814
Si Si5 0.961687 0.626749 0.394752
O O1 0.750000 0.500000 0.791982
O O2 0.500000 0.441362 0.750000
O O3 0.606185 0.254559 0.821940
O O4 0.513776 0.541775 0.842722
O O5 0.587172 0.772666 0.498947
O O6 0.587015 0.754332 0.589569
O O7 0.832425 0.704670 0.541131
O O8 0.750000 0.000000 0.545931
O O9 0.551924 0.826759 0.409690
O O10 0.545705 0.519966 0.434089
O O11 0.695114 0.286397 0.389789
O O12 0.750000 0.000000 0.359128
#
# Coordination Sequence:
#
# PCOD9421859 Si02
#       5
#     8   8   8   8   8
#     4   9  20  38  62  85 111 147 189 236 288 348
#     4  12  23  36  56  87 120 154 193 239 285 334
#     4  11  22  36  56  83 117 158 195 232 279 343
#     4  10  20  39  61  85 116 150 189 241 291 334
#     4  10  22  39  58  82 113 153 194 234 285 343
#
# _framework density 19.356103000000001
#
# number of rings (size 3 to 8) (size 9 to 14) (size 15 to 20)
#    0.000    1.600    0.000    6.600    0.000    4.800 
#    0.000    4.000    0.000    6.000    0.000    0.000 
#    0.000    0.000    0.000    0.000    0.000    0.000 
#
# Total GULP energy -223423.078598 kJ/mol
# GULP energy per Si atom -5585.576965 kJ/mol
# Density = 1.931205 g / cm^3
# Si number density = 19.356103 Si / 1000 Ang^3
#
#
#
# Elastic Constant Matrix: (Units=GPa)
#
#
# Indices 1 2 3 4 5 6 
#
# 1 94.9989 21.4669 51.3864 0.0000 0.0000 0.0000
# 2 21.4669 97.4312 46.3012 0.0000 0.0000 0.0000
# 3 51.3864 46.3012 104.6649 0.0000 0.0000 0.0000
# 4 0.0000 0.0000 0.0000 4.7459 0.0000 0.0000
# 5 0.0000 0.0000 0.0000 0.0000 32.0186 0.0000
# 6 0.0000 0.0000 0.0000 0.0000 0.0000 29.5892
#
#
#
# Elastic Compliance Matrix: (Units=1/GPa)
#
#
# Indices 1 2 3 4 5 6 
#
# 1 0.014337 0.000236 -0.007143 0.000000 0.000000 0.000000
# 2 0.000236 0.013000 -0.005866 0.000000 0.000000 0.000000
# 3 -0.007143 -0.005866 0.015657 0.000000 0.000000 0.000000
# 4 0.000000 0.000000 0.000000 0.210708 0.000000 0.000000
# 5 0.000000 0.000000 0.000000 0.000000 0.031232 0.000000
# 6 0.000000 0.000000 0.000000 0.000000 0.000000 0.033796
#
#
# Mechanical properties :
#
#
# Convention : Reuss Voigt Hill
#
# Bulk Modulus (GPa) = 57.32205 59.48934 58.40569
# Shear Modulus (GPa) = 14.28197 25.13344 19.70771
#
# Velocity S-wave (km/s) = 2.71929 3.60735 3.19433
# Velocity P-wave (km/s) = 6.28794 6.93913 6.62154
#
# Compressibility (1/GPa) = 0.01744529
#
# Stress axis : x y z
#
# Youngs Moduli (GPa) = 69.74934 76.92577 63.87117
#
# Poissons Ratio (x) = -0.01813 0.45625
# Poissons Ratio (y) = -0.01644 0.37470
# Poissons Ratio (z) = 0.49824 0.45128
#
# Static dielectric constant tensor:
#      x y z
#    x 1.663780 0.000000 0.000000 
#    y 0.000000 1.733130 0.000000 
#    z 0.000000 0.000000 1.659310 
# 
# From -- ./inp_files/23258.got.cif
#   From: 2010.05.17/outbox.cif.g08.bks.cpg/sg54_12_cif.got.tgz:23258.got - 2010.06.03 13:09:01.
