data_PCOD9421563
_publ_section_title
;
Structure prediction by ZEFSAII (Michael W. Deem and Ramdas Pophale) SiO2 
 PCOD9421563
Probable space group: P C C A
;
_chemical_formula_sum "Si O2"
_cell_formula_units_Z 48
_cell_length_a 9.210128
_cell_length_b 11.702793
_cell_length_c 22.014524
_cell_angle_alpha 90.000000
_cell_angle_beta 90.000000
_cell_angle_gamma 90.000000
_cell_volume 2372.818331
_symmetry_space_group_name_H-M "P C C A"
_symmetry_group_IT_number 54
_symmetry_cell_setting 'orthorhombic'
loop_
_space_group_symop_operation_xyz
x,y,z
1/2-x,-y,z
1/2+x,-y,1/2-z
-x,y,1/2-z
-x,-y,-z
1/2+x,y,-z
1/2-x,y,1/2+z
x,-y,1/2+z
loop_
_atom_site_type_symbol
_atom_site_label
_atom_site_fract_x
_atom_site_fract_y
_atom_site_fract_z
Si Si1 0.102797 0.236235 0.808907
Si Si2 0.459222 0.275772 0.991120
Si Si3 0.819171 0.375466 0.573079
Si Si4 0.340622 0.110194 0.733317
Si Si5 0.948418 0.090647 0.911924
Si Si6 0.880413 0.161325 0.394706
O O1 0.152026 0.331466 0.858117
O O2 0.246411 0.173740 0.783487
O O3 0.000000 0.265261 0.750000
O O4 0.016712 0.148718 0.852503
O O5 0.297200 0.298837 0.966115
O O6 0.554673 0.265396 0.930930
O O7 0.527408 0.367757 0.037195
O O8 0.496863 0.157105 0.027410
O O9 0.750000 0.500000 0.573895
O O10 0.500000 0.068636 0.750000
O O11 0.367655 0.189937 0.675841
O O12 0.250000 0.000000 0.712637
O O13 0.779701 0.124559 0.913795
O O14 0.972117 0.955457 0.905475
#
# Coordination Sequence:
#
# PCOD9421563 Si02
#       6
#     8   8   8   8   8   8
#     4  11  22  42  62  84 122 166 202 254 315 361
#     4  11  22  41  63  90 123 158 202 252 315 370
#     4  11  25  43  65  89 116 157 213 267 315 364
#     4  12  22  35  58  90 128 166 205 242 293 371
#     4  10  20  36  60  88 127 164 190 239 298 373
#     4  11  19  35  59  92 126 157 199 236 293 372
#
# _framework density 20.229109000000001
#
# number of rings (size 3 to 8) (size 9 to 14) (size 15 to 20)
#    0.000    1.000    5.000    3.500    0.000    0.000 
#    0.000    2.500    0.000    0.000    0.000    0.000 
#    0.000    0.000    0.000    0.000    0.000    0.000 
#
# Total GULP energy -267572.748028 kJ/mol
# GULP energy per Si atom -5574.432251 kJ/mol
# Density = 2.018307 g / cm^3
# Si number density = 20.229109 Si / 1000 Ang^3
#
#
#
# Elastic Constant Matrix: (Units=GPa)
#
#
# Indices 1 2 3 4 5 6 
#
# 1 89.6884 7.5262 37.2820 0.0000 0.0000 0.0000
# 2 7.5262 43.3300 25.6895 0.0000 0.0000 0.0000
# 3 37.2820 25.6895 134.0553 0.0000 0.0000 0.0000
# 4 0.0000 0.0000 0.0000 17.9867 0.0000 0.0000
# 5 0.0000 0.0000 0.0000 0.0000 31.8945 0.0000
# 6 0.0000 0.0000 0.0000 0.0000 0.0000 21.3963
#
#
#
# Elastic Compliance Matrix: (Units=1/GPa)
#
#
# Indices 1 2 3 4 5 6 
#
# 1 0.012608 -0.000125 -0.003482 0.000000 0.000000 0.000000
# 2 -0.000125 0.026038 -0.004955 0.000000 0.000000 0.000000
# 3 -0.003482 -0.004955 0.009378 0.000000 0.000000 0.000000
# 4 0.000000 0.000000 0.000000 0.055597 0.000000 0.000000
# 5 0.000000 0.000000 0.000000 0.000000 0.031353 0.000000
# 6 0.000000 0.000000 0.000000 0.000000 0.000000 0.046737
#
#
# Mechanical properties :
#
#
# Convention : Reuss Voigt Hill
#
# Bulk Modulus (GPa) = 32.36414 45.34101 38.85258
# Shear Modulus (GPa) = 23.90800 27.36058 25.63429
#
# Velocity S-wave (km/s) = 3.44155 3.68167 3.56363
# Velocity P-wave (km/s) = 5.64144 6.36674 6.01503
#
# Compressibility (1/GPa) = 0.03089840
#
# Stress axis : x y z
#
# Youngs Moduli (GPa) = 79.31615 38.40519 106.63706
#
# Poissons Ratio (x) = 0.00481 0.37134
# Poissons Ratio (y) = 0.00994 0.52838
# Poissons Ratio (z) = 0.27620 0.19030
#
# Static dielectric constant tensor:
#      x y z
#    x 1.782530 0.000000 0.000000 
#    y 0.000000 1.736260 0.000000 
#    z 0.000000 0.000000 1.774380 
# 
# From -- ./inp_files/23516.got.cif
#   From: 2010.05.17/outbox.cif.g08.bks.cpg/sg54_12_cif.got.tgz:23516.got - 2010.06.03 13:09:01.
