data_PCOD9421964
_publ_section_title
;
Structure prediction by ZEFSAII (Michael W. Deem and Ramdas Pophale) SiO2 
 PCOD9421964
Probable space group: P C C A
;
_chemical_formula_sum "Si O2"
_cell_formula_units_Z 48
_cell_length_a 16.312172
_cell_length_b 11.703673
_cell_length_c 10.858766
_cell_angle_alpha 90.000000
_cell_angle_beta 90.000000
_cell_angle_gamma 90.000000
_cell_volume 2073.072285
_symmetry_space_group_name_H-M "P C C A"
_symmetry_group_IT_number 54
_symmetry_cell_setting 'orthorhombic'
loop_
_space_group_symop_operation_xyz
x,y,z
1/2-x,-y,z
1/2+x,-y,1/2-z
-x,y,1/2-z
-x,-y,-z
1/2+x,y,-z
1/2-x,y,1/2+z
x,-y,1/2+z
loop_
_atom_site_type_symbol
_atom_site_label
_atom_site_fract_x
_atom_site_fract_y
_atom_site_fract_z
Si Si1 0.044817 0.336129 0.970234
Si Si2 0.432104 0.556477 0.344500
Si Si3 0.219814 0.630524 0.554590
Si Si4 0.919791 0.926209 0.029006
Si Si5 0.099798 0.917459 0.748557
Si Si6 0.786552 0.705027 0.694603
O O1 0.120973 0.365927 0.060875
O O2 0.050757 0.202845 0.947218
O O3 0.960220 0.380093 0.029931
O O4 0.061114 0.421164 0.858299
O O5 0.500000 0.597860 0.250000
O O6 0.340960 0.590485 0.314325
O O7 0.250000 0.500000 0.546449
O O8 0.257530 0.691853 0.674393
O O9 0.236782 0.702753 0.430900
O O10 0.874714 0.931886 0.895500
O O11 0.882772 0.980421 0.153961
O O12 0.000000 0.000000 0.000000
O O13 0.149438 0.808710 0.798037
O O14 0.000000 0.898077 0.750000
#
# Coordination Sequence:
#
# PCOD9421964 Si02
#       6
#     8   8   8   8   8   8
#     4  11  23  41  66 103 131 173 229 280 343 414
#     4  11  21  38  68 100 137 167 220 287 343 404
#     4  12  25  44  68  98 141 182 220 272 348 424
#     4  10  20  40  68  98 132 170 221 282 338 392
#     4  10  21  41  71  97 127 173 227 282 334 394
#     4  12  24  44  69  99 136 183 225 276 347 409
#
# _framework density 23.154040999999999
#
# number of rings (size 3 to 8) (size 9 to 14) (size 15 to 20)
#    0.000    1.000    5.000    3.000    0.000    2.000 
#    3.000    0.833    0.000    0.000    0.000    0.000 
#    0.000    0.000    0.000    0.000    0.000    0.000 
#
# Total GULP energy -268020.006886 kJ/mol
# GULP energy per Si atom -5583.750143 kJ/mol
# Density = 2.310134 g / cm^3
# Si number density = 23.154041 Si / 1000 Ang^3
#
#
#
# Elastic Constant Matrix: (Units=GPa)
#
#
# Indices 1 2 3 4 5 6 
#
# 1 35.2919 6.0352 22.1544 0.0000 0.0000 0.0000
# 2 6.0352 149.4247 37.5000 0.0000 0.0000 0.0000
# 3 22.1544 37.5000 140.9201 0.0000 0.0000 0.0000
# 4 0.0000 0.0000 0.0000 28.8509 0.0000 0.0000
# 5 0.0000 0.0000 0.0000 0.0000 34.9261 0.0000
# 6 0.0000 0.0000 0.0000 0.0000 0.0000 4.3313
#
#
#
# Elastic Compliance Matrix: (Units=1/GPa)
#
#
# Indices 1 2 3 4 5 6 
#
# 1 0.031438 -0.000032 -0.004934 0.000000 0.000000 0.000000
# 2 -0.000032 0.007171 -0.001903 0.000000 0.000000 0.000000
# 3 -0.004934 -0.001903 0.008378 0.000000 0.000000 0.000000
# 4 0.000000 0.000000 0.000000 0.034661 0.000000 0.000000
# 5 0.000000 0.000000 0.000000 0.000000 0.028632 0.000000
# 6 0.000000 0.000000 0.000000 0.000000 0.000000 0.230877
#
#
# Mechanical properties :
#
#
# Convention : Reuss Voigt Hill
#
# Bulk Modulus (GPa) = 30.07551 50.77955 40.42753
# Shear Modulus (GPa) = 13.66201 30.95147 22.30674
#
# Velocity S-wave (km/s) = 2.43173 3.66014 3.10725
# Velocity P-wave (km/s) = 4.57186 6.31197 5.51103
#
# Compressibility (1/GPa) = 0.03324965
#
# Stress axis : x y z
#
# Youngs Moduli (GPa) = 31.80884 139.44505 119.35427
#
# Poissons Ratio (x) = 0.00439 0.58890
# Poissons Ratio (y) = 0.00100 0.22718
# Poissons Ratio (z) = 0.15695 0.26542
#
# Static dielectric constant tensor:
#      x y z
#    x 1.887490 0.000000 0.000000 
#    y 0.000000 1.845280 0.000000 
#    z 0.000000 0.000000 2.082090 
# 
# From -- ./inp_files/8921.got.cif
#   From: 2010.05.17/outbox.cif.g08.bks.cpg/sg54_5_cif.got.tgz:8921.got - 2010.06.03 13:09:01.
