data_PCOD9421138
_publ_section_title
;
Structure prediction by ZEFSAII (Michael W. Deem and Ramdas Pophale) SiO2 
 PCOD9421138
Probable space group: P C C A
;
_chemical_formula_sum "Si O2"
_cell_formula_units_Z 60
_cell_length_a 5.180048
_cell_length_b 18.312517
_cell_length_c 33.241718
_cell_angle_alpha 90.000000
_cell_angle_beta 90.000000
_cell_angle_gamma 90.000000
_cell_volume 3153.299964
_symmetry_space_group_name_H-M "P C C A"
_symmetry_group_IT_number 54
_symmetry_cell_setting 'orthorhombic'
loop_
_space_group_symop_operation_xyz
x,y,z
1/2-x,-y,z
1/2+x,-y,1/2-z
-x,y,1/2-z
-x,-y,-z
1/2+x,y,-z
1/2-x,y,1/2+z
x,-y,1/2+z
loop_
_atom_site_type_symbol
_atom_site_label
_atom_site_fract_x
_atom_site_fract_y
_atom_site_fract_z
Si Si1 0.750000 0.000000 0.278508
Si Si2 0.250123 0.161403 0.721542
Si Si3 0.230022 0.202242 0.403698
Si Si4 0.731266 0.581183 0.053767
Si Si5 0.233762 0.086212 0.472742
Si Si6 0.869916 0.280618 0.517984
Si Si7 0.768039 0.253858 0.856476
Si Si8 0.729093 0.584717 0.891004
O O1 0.750099 0.079908 0.299204
O O2 0.500000 0.000020 0.250000
O O3 0.500000 0.165485 0.750000
O O4 0.249548 0.225591 0.689074
O O5 0.000000 0.165505 0.750000
O O6 0.245273 0.128562 0.430369
O O7 0.250971 0.260329 0.439525
O O8 0.469133 0.220266 0.374884
O O9 0.967178 0.215862 0.380281
O O10 0.750000 0.500000 0.038081
O O11 0.828024 0.633654 0.018653
O O12 0.454731 0.592700 0.075312
O O13 0.949183 0.588549 0.088443
O O14 0.472889 0.103368 0.502503
O O15 0.250000 0.000000 0.465131
O O16 0.660925 0.254140 0.485586
O O17 0.752625 0.342001 0.863291
O O18 0.750000 0.500000 0.874777
#
# Coordination Sequence:
#
# PCOD9421138 Si02
#       8
#     4   8   8   8   8   8   8   8
#     4   8  16  34  58  82 116 150 174 202 250 340
#     4  10  21  39  62  90 119 150 184 217 276 348
#     4  12  23  38  55  87 113 146 197 240 285 342
#     4  10  20  35  52  72 106 144 187 236 283 341
#     4  10  21  40  61  80 112 158 199 241 293 345
#     4  12  22  33  52  74 107 145 185 236 286 328
#     4  12  22  38  62  86 117 149 186 246 285 328
#     4  10  19  36  57  78 108 149 189 228 285 347
#
# _framework density 19.027685999999999
#
# number of rings (size 3 to 8) (size 9 to 14) (size 15 to 20)
#    0.000    1.333    2.667    4.000    0.000    0.533 
#    2.400    0.000    0.000    0.800    0.000    0.000 
#    0.000    0.000    0.000    0.000    0.000    0.000 
#
# Total GULP energy -334527.373054 kJ/mol
# GULP energy per Si atom -5575.456218 kJ/mol
# Density = 1.898438 g / cm^3
# Si number density = 19.027686 Si / 1000 Ang^3
#
#
#
# Elastic Constant Matrix: (Units=GPa)
#
#
# Indices 1 2 3 4 5 6 
#
# 1 85.9122 19.5427 14.2967 0.0000 0.0000 0.0000
# 2 19.5427 151.5834 33.9695 0.0000 0.0000 0.0000
# 3 14.2967 33.9695 50.9203 0.0000 0.0000 0.0000
# 4 0.0000 0.0000 0.0000 191.5952 0.0000 0.0000
# 5 0.0000 0.0000 0.0000 0.0000 14.3296 0.0000
# 6 0.0000 0.0000 0.0000 0.0000 0.0000 16.4518
#
#
#
# Elastic Compliance Matrix: (Units=1/GPa)
#
#
# Indices 1 2 3 4 5 6 
#
# 1 0.012327 -0.000957 -0.002823 0.000000 0.000000 0.000000
# 2 -0.000957 0.007831 -0.004955 0.000000 0.000000 0.000000
# 3 -0.002823 -0.004955 0.023737 0.000000 0.000000 0.000000
# 4 0.000000 0.000000 0.000000 0.005219 0.000000 0.000000
# 5 0.000000 0.000000 0.000000 0.000000 0.069786 0.000000
# 6 0.000000 0.000000 0.000000 0.000000 0.000000 0.060783
#
#
# Mechanical properties :
#
#
# Convention : Reuss Voigt Hill
#
# Bulk Modulus (GPa) = 37.84294 47.11486 42.47890
# Shear Modulus (GPa) = 24.27637 59.18246 41.72941
#
# Velocity S-wave (km/s) = 3.57577 5.58309 4.68812
# Velocity P-wave (km/s) = 6.08110 8.14715 7.18874
#
# Compressibility (1/GPa) = 0.02642501
#
# Stress axis : x y z
#
# Youngs Moduli (GPa) = 81.12170 127.69966 42.12842
#
# Poissons Ratio (x) = 0.12217 0.11892
# Poissons Ratio (y) = 0.07761 0.20877
# Poissons Ratio (z) = 0.22899 0.63281
#
# Static dielectric constant tensor:
#      x y z
#    x 1.679390 0.000000 0.000000 
#    y 0.000000 1.805790 0.000000 
#    z 0.000000 0.000000 1.621040 
# 
# From -- ./inp_files/25496.got.cif
#   From: 2010.05.17/outbox.cif.g08.bks.cpg/sg54_13_cif.got.tgz:25496.got - 2010.06.03 13:09:01.
