data_PCOD9421469
_publ_section_title
;
Structure prediction by ZEFSAII (Michael W. Deem and Ramdas Pophale) SiO2 
 PCOD9421469
Probable space group: P C C A
;
_chemical_formula_sum "Si O2"
_cell_formula_units_Z 64
_cell_length_a 19.523335
_cell_length_b 9.966818
_cell_length_c 15.345392
_cell_angle_alpha 90.000000
_cell_angle_beta 90.000000
_cell_angle_gamma 90.000000
_cell_volume 2985.991185
_symmetry_space_group_name_H-M "P C C A"
_symmetry_group_IT_number 54
_symmetry_cell_setting 'orthorhombic'
loop_
_space_group_symop_operation_xyz
x,y,z
1/2-x,-y,z
1/2+x,-y,1/2-z
-x,y,1/2-z
-x,-y,-z
1/2+x,y,-z
1/2-x,y,1/2+z
x,-y,1/2+z
loop_
_atom_site_type_symbol
_atom_site_label
_atom_site_fract_x
_atom_site_fract_y
_atom_site_fract_z
Si Si1 0.051663 0.365986 0.171514
Si Si2 0.182304 0.867551 0.489137
Si Si3 0.413465 0.381446 0.918794
Si Si4 0.686994 0.855370 0.117914
Si Si5 0.407844 0.320412 0.391654
Si Si6 0.418161 0.130692 0.234093
Si Si7 0.838379 0.865601 0.809826
Si Si8 0.929301 0.354244 0.887653
O O1 0.114490 0.265620 0.176615
O O2 0.077250 0.519126 0.175755
O O3 0.000000 0.336959 0.250000
O O4 0.995762 0.364684 0.093292
O O5 0.250085 0.809703 0.442565
O O6 0.124210 0.755799 0.473941
O O7 0.190764 0.893364 0.592765
O O8 0.167729 0.003347 0.431173
O O9 0.374684 0.250551 0.885140
O O10 0.388791 0.523532 0.879963
O O11 0.398889 0.392545 0.020672
O O12 0.707484 0.859117 0.221124
O O13 0.389845 0.221330 0.312495
O O14 0.489805 0.326937 0.396448
O O15 0.500000 0.122350 0.250000
O O16 0.400346 0.217451 0.149322
O O17 0.388394 0.985445 0.219743
#
# Coordination Sequence:
#
# PCOD9421469 Si02
#       8
#     8   8   8   8   8   8   8   8
#     4  11  20  36  65  98 134 163 204 257 321 391
#     4  11  25  45  65  86 124 171 221 261 324 370
#     4  11  21  38  63  97 133 166 210 261 321 385
#     4  11  26  43  63  93 122 166 221 274 312 372
#     4  10  20  41  62  91 133 168 206 258 315 382
#     4  10  21  36  60  97 133 164 200 259 321 387
#     4  12  23  42  67  93 125 168 213 265 322 383
#     4  10  20  35  61 100 131 168 204 247 327 386
#
# _framework density 21.433419000000001
#
# number of rings (size 3 to 8) (size 9 to 14) (size 15 to 20)
#    0.000    1.250    2.500    6.000    0.000    2.500 
#    2.250    3.125    0.000    1.500    0.000    0.000 
#    0.000    0.000    0.000    0.000    0.000    0.000 
#
# Total GULP energy -356848.462159 kJ/mol
# GULP energy per Si atom -5575.757221 kJ/mol
# Density = 2.138464 g / cm^3
# Si number density = 21.433419 Si / 1000 Ang^3
#
#
#
# Elastic Constant Matrix: (Units=GPa)
#
#
# Indices 1 2 3 4 5 6 
#
# 1 24.3915 22.8581 16.4589 0.0000 0.0000 0.0000
# 2 22.8581 68.4138 4.5512 0.0000 0.0000 0.0000
# 3 16.4589 4.5512 146.5625 0.0000 0.0000 0.0000
# 4 0.0000 0.0000 0.0000 26.8322 0.0000 0.0000
# 5 0.0000 0.0000 0.0000 0.0000 27.0169 0.0000
# 6 0.0000 0.0000 0.0000 0.0000 0.0000 18.6294
#
#
#
# Elastic Compliance Matrix: (Units=1/GPa)
#
#
# Indices 1 2 3 4 5 6 
#
# 1 0.065666 -0.021494 -0.006707 0.000000 0.000000 0.000000
# 2 -0.021494 0.021683 0.001740 0.000000 0.000000 0.000000
# 3 -0.006707 0.001740 0.007522 0.000000 0.000000 0.000000
# 4 0.000000 0.000000 0.000000 0.037269 0.000000 0.000000
# 5 0.000000 0.000000 0.000000 0.000000 0.037014 0.000000
# 6 0.000000 0.000000 0.000000 0.000000 0.000000 0.053679
#
#
# Mechanical properties :
#
#
# Convention : Reuss Voigt Hill
#
# Bulk Modulus (GPa) = 23.83768 36.34493 30.09130
# Shear Modulus (GPa) = 17.25705 27.52899 22.39302
#
# Velocity S-wave (km/s) = 2.84059 3.58773 3.23580
# Velocity P-wave (km/s) = 4.68022 5.84435 5.29438
#
# Compressibility (1/GPa) = 0.04195040
#
# Stress axis : x y z
#
# Youngs Moduli (GPa) = 15.22847 46.11986 132.94049
#
# Poissons Ratio (x) = 0.99130 0.89162
# Poissons Ratio (y) = 0.32732 -0.23138
# Poissons Ratio (z) = 0.10214 -0.08027
#
# Static dielectric constant tensor:
#      x y z
#    x 1.781200 0.000000 0.000000 
#    y 0.000000 1.764850 0.000000 
#    z 0.000000 0.000000 1.883450 
# 
# From -- ./inp_files/15004.got.cif
#   From: 2010.05.17/outbox.cif.g08.bks.cpg/sg54_8_cif.got.tgz:15004.got - 2010.06.03 13:09:01.
