data_PCOD9421597
_publ_section_title
;
Structure prediction by ZEFSAII (Michael W. Deem and Ramdas Pophale) SiO2 
 PCOD9421597
Probable space group: P C C A
;
_chemical_formula_sum "Si O2"
_cell_formula_units_Z 64
_cell_length_a 11.732514
_cell_length_b 9.657658
_cell_length_c 26.405995
_cell_angle_alpha 90.000000
_cell_angle_beta 90.000000
_cell_angle_gamma 90.000000
_cell_volume 2992.026528
_symmetry_space_group_name_H-M "P C C A"
_symmetry_group_IT_number 54
_symmetry_cell_setting 'orthorhombic'
loop_
_space_group_symop_operation_xyz
x,y,z
1/2-x,-y,z
1/2+x,-y,1/2-z
-x,y,1/2-z
-x,-y,-z
1/2+x,y,-z
1/2-x,y,1/2+z
x,-y,1/2+z
loop_
_atom_site_type_symbol
_atom_site_label
_atom_site_fract_x
_atom_site_fract_y
_atom_site_fract_z
Si Si1 0.233560 0.332640 0.864089
Si Si2 0.674165 0.378895 0.476200
Si Si3 0.984256 0.785929 0.083955
Si Si4 0.877851 0.023451 0.378620
Si Si5 0.815419 0.644558 0.735504
Si Si6 0.944914 0.358428 0.072603
Si Si7 0.123872 0.835353 0.516282
Si Si8 0.455346 0.691729 0.169780
O O1 0.250000 0.500000 0.863175
O O2 0.116093 0.297743 0.889875
O O3 0.238754 0.276247 0.806507
O O4 0.340823 0.283605 0.897735
O O5 0.750000 0.500000 0.452487
O O6 0.577206 0.316124 0.440714
O O7 0.619413 0.442259 0.528077
O O8 0.760277 0.253076 0.488801
O O9 0.923129 0.874304 0.038803
O O10 0.047018 0.886440 0.122923
O O11 0.863901 0.054621 0.438969
O O12 0.941108 0.153179 0.352691
O O13 0.750000 0.000000 0.358368
O O14 0.750000 0.500000 0.740008
O O15 0.848205 0.681541 0.792594
O O16 0.935243 0.652605 0.704322
O O17 0.026051 0.263223 0.039182
O O18 0.025490 0.402858 0.119623
#
# Coordination Sequence:
#
# PCOD9421597 Si02
#       8
#     8   8   8   8   8   8   8   8
#     4  10  20  36  62  96 133 163 214 284 343 415
#     4  11  22  35  58  95 137 187 234 281 346 405
#     4  11  23  38  61  95 132 185 235 277 338 401
#     4  11  22  43  62  90 137 183 240 279 319 402
#     4   9  19  42  72  99 127 165 211 272 357 423
#     4   9  19  34  56  87 127 176 216 272 342 393
#     4  10  21  37  58  86 131 184 230 278 323 391
#     4   9  20  41  67  94 129 172 218 280 347 401
#
# _framework density 21.390186
#
# number of rings (size 3 to 8) (size 9 to 14) (size 15 to 20)
#    0.000    2.000    2.500    0.750    1.750    1.500 
#    0.000   16.875    0.000    0.750    0.000    0.000 
#    0.000    0.000    0.000    0.000    0.000    0.000 
#
# Total GULP energy -356354.036258 kJ/mol
# GULP energy per Si atom -5568.031817 kJ/mol
# Density = 2.134150 g / cm^3
# Si number density = 21.390186 Si / 1000 Ang^3
#
#
#
# Elastic Constant Matrix: (Units=GPa)
#
#
# Indices 1 2 3 4 5 6 
#
# 1 133.9385 44.8949 56.2287 0.0000 0.0000 0.0000
# 2 44.8949 54.6592 37.3263 0.0000 0.0000 0.0000
# 3 56.2287 37.3263 92.7824 0.0000 0.0000 0.0000
# 4 0.0000 0.0000 0.0000 19.9157 0.0000 0.0000
# 5 0.0000 0.0000 0.0000 0.0000 26.1998 0.0000
# 6 0.0000 0.0000 0.0000 0.0000 0.0000 36.7240
#
#
#
# Elastic Compliance Matrix: (Units=1/GPa)
#
#
# Indices 1 2 3 4 5 6 
#
# 1 0.011449 -0.006433 -0.004350 0.000000 0.000000 0.000000
# 2 -0.006433 0.028840 -0.007704 0.000000 0.000000 0.000000
# 3 -0.004350 -0.007704 0.016514 0.000000 0.000000 0.000000
# 4 0.000000 0.000000 0.000000 0.050212 0.000000 0.000000
# 5 0.000000 0.000000 0.000000 0.000000 0.038168 0.000000
# 6 0.000000 0.000000 0.000000 0.000000 0.000000 0.027230
#
#
# Mechanical properties :
#
#
# Convention : Reuss Voigt Hill
#
# Bulk Modulus (GPa) = 50.43316 62.03110 56.23213
# Shear Modulus (GPa) = 23.14871 26.09655 24.62263
#
# Velocity S-wave (km/s) = 3.29327 3.49667 3.39649
# Velocity P-wave (km/s) = 6.17169 6.73536 6.45967
#
# Compressibility (1/GPa) = 0.01982823
#
# Stress axis : x y z
#
# Youngs Moduli (GPa) = 87.34718 34.67460 60.55635
#
# Poissons Ratio (x) = 0.22305 0.26344
# Poissons Ratio (y) = 0.56187 0.46651
# Poissons Ratio (z) = 0.37999 0.26713
#
# Static dielectric constant tensor:
#      x y z
#    x 1.821450 0.000000 0.000000 
#    y 0.000000 1.806840 0.000000 
#    z 0.000000 0.000000 1.828320 
# 
# From -- ./inp_files/26340.got.cif
#   From: 2010.05.17/outbox.cif.g08.bks.cpg/sg54_14_cif.got.tgz:26340.got - 2010.06.03 13:09:01.
