data_PCOD9421031
_publ_section_title
;
Structure prediction by ZEFSAII (Michael W. Deem and Ramdas Pophale) SiO2 
 PCOD9421031
Probable space group: P C C A
;
_chemical_formula_sum "Si O2"
_cell_formula_units_Z 48
_cell_length_a 8.428889
_cell_length_b 15.906219
_cell_length_c 19.854759
_cell_angle_alpha 90.000000
_cell_angle_beta 90.000000
_cell_angle_gamma 90.000000
_cell_volume 2661.962372
_symmetry_space_group_name_H-M "P C C A"
_symmetry_group_IT_number 54
_symmetry_cell_setting 'orthorhombic'
loop_
_space_group_symop_operation_xyz
x,y,z
1/2-x,-y,z
1/2+x,-y,1/2-z
-x,y,1/2-z
-x,-y,-z
1/2+x,y,-z
1/2-x,y,1/2+z
x,-y,1/2+z
loop_
_atom_site_type_symbol
_atom_site_label
_atom_site_fract_x
_atom_site_fract_y
_atom_site_fract_z
Si Si1 0.224842 0.093339 0.901031
Si Si2 0.364389 0.263282 0.562125
Si Si3 0.090821 0.547880 0.559980
Si Si4 0.602481 0.762786 0.183732
Si Si5 0.873817 0.575129 0.690076
Si Si6 0.079885 0.847457 0.031497
O O1 0.286526 0.165285 0.849423
O O2 0.039876 0.101147 0.921720
O O3 0.250000 0.000000 0.873655
O O4 0.328284 0.103981 0.970829
O O5 0.346284 0.359420 0.540748
O O6 0.468139 0.257484 0.628698
O O7 0.464555 0.218312 0.504548
O O8 0.207688 0.208162 0.570632
O O9 0.250000 0.500000 0.581581
O O10 0.000000 0.500000 0.500000
O O11 0.966127 0.559042 0.620265
O O12 0.500000 0.786453 0.250000
O O13 0.689139 0.671960 0.192567
O O14 0.750000 0.500000 0.698434
O O15 0.000000 0.570946 0.750000
#
# Coordination Sequence:
#
# PCOD9421031 Si02
#       6
#     8   8   8   8   8   8
#     4  10  19  34  56  81 107 138 177 225 275 327
#     4   9  18  33  51  72 104 139 171 213 266 318
#     4  11  21  31  49  78 109 139 175 222 272 323
#     4   9  20  38  54  72 106 144 175 214 265 317
#     4  10  21  38  57  77 103 142 184 223 270 327
#     4   9  18  32  53  78 103 134 175 219 268 322
#
# _framework density 18.031811000000001
#
# number of rings (size 3 to 8) (size 9 to 14) (size 15 to 20)
#    0.000    2.333    0.000    2.500    0.000    6.667 
#    0.000    2.500    0.000    0.000    0.000    0.000 
#    0.000    0.000    0.000    0.000    0.000    0.000 
#
# Total GULP energy -267400.939138 kJ/mol
# GULP energy per Si atom -5570.852899 kJ/mol
# Density = 1.799077 g / cm^3
# Si number density = 18.031811 Si / 1000 Ang^3
#
#
#
# Elastic Constant Matrix: (Units=GPa)
#
#
# Indices 1 2 3 4 5 6 
#
# 1 61.8693 46.1271 -9.1304 0.0000 0.0000 0.0000
# 2 46.1271 133.9401 23.0869 0.0000 0.0000 0.0000
# 3 -9.1304 23.0869 49.2348 0.0000 0.0000 0.0000
# 4 0.0000 0.0000 0.0000 -0.3667 0.0000 0.0000
# 5 0.0000 0.0000 0.0000 0.0000 8.3056 0.0000
# 6 0.0000 0.0000 0.0000 0.0000 0.0000 22.4963
#
#
#
# Elastic Compliance Matrix: (Units=1/GPa)
#
#
# Indices 1 2 3 4 5 6 
#
# 1 0.025293 -0.010356 0.009547 0.000000 0.000000 0.000000
# 2 -0.010356 0.012363 -0.007718 0.000000 0.000000 0.000000
# 3 0.009547 -0.007718 0.025700 0.000000 0.000000 0.000000
# 4 0.000000 0.000000 0.000000 -2.726948 0.000000 0.000000
# 5 0.000000 0.000000 0.000000 0.000000 0.120401 0.000000
# 6 0.000000 0.000000 0.000000 0.000000 0.000000 0.044452
#
#
# Mechanical properties :
#
#
# Convention : Reuss Voigt Hill
#
# Bulk Modulus (GPa) = 21.59745 40.57905 31.08825
# Shear Modulus (GPa) = -2.02737 18.41775 8.19519
#
# Velocity S-wave (km/s) = -1.06149 3.19941 2.13418
# Velocity P-wave (km/s) = 3.24053 6.01675 4.83230
#
# Compressibility (1/GPa) = 0.04630175
#
# Stress axis : x y z
#
# Youngs Moduli (GPa) = 39.53662 80.88793 38.91037
#
# Poissons Ratio (x) = 0.83768 -0.37146
# Poissons Ratio (y) = 0.40944 0.30029
# Poissons Ratio (z) = -0.37744 0.62426
#
# Static dielectric constant tensor:
#      x y z
#    x 1.630810 0.000000 0.000000 
#    y 0.000000 1.665500 0.000000 
#    z 0.000000 0.000000 1.694470 
# 
# From -- ./inp_files/16628.got.cif
#   From: 2010.05.17/outbox.cif.g08.bks.cpg/sg54_9_cif.got.tgz:16628.got - 2010.06.03 13:09:01.
