data_PCOD9421455
_publ_section_title
;
Structure prediction by ZEFSAII (Michael W. Deem and Ramdas Pophale) SiO2 
 PCOD9421455
Probable space group: P C C A
;
_chemical_formula_sum "Si O2"
_cell_formula_units_Z 40
_cell_length_a 15.318141
_cell_length_b 4.955771
_cell_length_c 26.461217
_cell_angle_alpha 90.000000
_cell_angle_beta 90.000000
_cell_angle_gamma 90.000000
_cell_volume 2008.755630
_symmetry_space_group_name_H-M "P C C A"
_symmetry_group_IT_number 54
_symmetry_cell_setting 'orthorhombic'
loop_
_space_group_symop_operation_xyz
x,y,z
1/2-x,-y,z
1/2+x,-y,1/2-z
-x,y,1/2-z
-x,-y,-z
1/2+x,y,-z
1/2-x,y,1/2+z
x,-y,1/2+z
loop_
_atom_site_type_symbol
_atom_site_label
_atom_site_fract_x
_atom_site_fract_y
_atom_site_fract_z
Si Si1 0.690799 0.756910 0.035421
Si Si2 0.522058 0.541765 0.088334
Si Si3 0.086435 0.050414 0.562178
Si Si4 0.344036 0.884957 0.672966
Si Si5 0.950117 0.606668 0.801688
O O1 0.750000 0.500000 0.020969
O O2 0.616409 0.645566 0.072599
O O3 0.750000 0.000000 0.056738
O O4 0.641632 0.879379 0.986787
O O5 0.496944 0.249632 0.066663
O O6 0.507974 0.545262 0.148599
O O7 0.450062 0.748112 0.065387
O O8 0.143142 0.108326 0.612323
O O9 0.366681 0.588744 0.692409
O O10 0.250000 0.000000 0.686154
O O11 0.417219 0.087369 0.694441
O O12 0.000000 0.556660 0.750000
#
# Coordination Sequence:
#
# PCOD9421455 Si02
#       5
#     8   8   8   8   8
#     4  12  23  35  54  83 115 146 180 222 269 326
#     4  10  21  38  57  78 109 149 187 222 269 331
#     4  10  20  36  58  80 109 145 181 223 274 329
#     4  10  20  35  58  87 110 134 180 238 278 310
#     4  10  21  38  59  80 110 148 185 223 273 330
#
# _framework density 19.912825000000002
#
# number of rings (size 3 to 8) (size 9 to 14) (size 15 to 20)
#    0.000    1.600    0.000    5.400    0.000    3.200 
#    0.000    3.000    0.000    0.000    0.000    0.000 
#    0.000    0.000    0.000    0.000    0.000    0.000 
#
# Total GULP energy -223691.577910 kJ/mol
# GULP energy per Si atom -5592.289448 kJ/mol
# Density = 1.986750 g / cm^3
# Si number density = 19.912825 Si / 1000 Ang^3
#
#
#
# Elastic Constant Matrix: (Units=GPa)
#
#
# Indices 1 2 3 4 5 6 
#
# 1 77.4632 -3.7883 45.8910 0.0000 0.0000 0.0000
# 2 -3.7883 65.4843 6.0551 0.0000 0.0000 0.0000
# 3 45.8910 6.0551 87.5281 0.0000 0.0000 0.0000
# 4 0.0000 0.0000 0.0000 11.0904 0.0000 0.0000
# 5 0.0000 0.0000 0.0000 0.0000 6.8623 0.0000
# 6 0.0000 0.0000 0.0000 0.0000 0.0000 22.9738
#
#
#
# Elastic Compliance Matrix: (Units=1/GPa)
#
#
# Indices 1 2 3 4 5 6 
#
# 1 0.018991 0.002032 -0.010097 0.000000 0.000000 0.000000
# 2 0.002032 0.015587 -0.002144 0.000000 0.000000 0.000000
# 3 -0.010097 -0.002144 0.016867 0.000000 0.000000 0.000000
# 4 0.000000 0.000000 0.000000 0.090168 0.000000 0.000000
# 5 0.000000 0.000000 0.000000 0.000000 0.145725 0.000000
# 6 0.000000 0.000000 0.000000 0.000000 0.000000 0.043528
#
#
# Mechanical properties :
#
#
# Convention : Reuss Voigt Hill
#
# Bulk Modulus (GPa) = 32.23024 36.31014 34.27019
# Shear Modulus (GPa) = 13.82647 20.33981 17.08314
#
# Velocity S-wave (km/s) = 2.63791 3.19947 2.93216
# Velocity P-wave (km/s) = 5.04964 5.65004 5.35826
#
# Compressibility (1/GPa) = 0.03102677
#
# Stress axis : x y z
#
# Youngs Moduli (GPa) = 52.65739 64.15752 59.28635
#
# Poissons Ratio (x) = -0.13039 0.59864
# Poissons Ratio (y) = -0.10702 0.12710
# Poissons Ratio (z) = 0.53170 0.13754
#
# Static dielectric constant tensor:
#      x y z
#    x 1.697840 0.000000 0.000000 
#    y 0.000000 1.692370 0.000000 
#    z 0.000000 0.000000 1.669280 
# 
# From -- ./inp_files/26027.got.cif
#   From: 2010.05.17/outbox.cif.g08.bks.cpg/sg54_14_cif.got.tgz:26027.got - 2010.06.03 13:09:01.
