data_PCOD9421418
_publ_section_title
;
Structure prediction by ZEFSAII (Michael W. Deem and Ramdas Pophale) SiO2 
 PCOD9421418
Probable space group: P C C A
;
_chemical_formula_sum "Si O2"
_cell_formula_units_Z 56
_cell_length_a 8.168168
_cell_length_b 14.624689
_cell_length_c 20.827315
_cell_angle_alpha 90.000000
_cell_angle_beta 90.000000
_cell_angle_gamma 90.000000
_cell_volume 2487.966833
_symmetry_space_group_name_H-M "P C C A"
_symmetry_group_IT_number 54
_symmetry_cell_setting 'orthorhombic'
loop_
_space_group_symop_operation_xyz
x,y,z
1/2-x,-y,z
1/2+x,-y,1/2-z
-x,y,1/2-z
-x,-y,-z
1/2+x,y,-z
1/2-x,y,1/2+z
x,-y,1/2+z
loop_
_atom_site_type_symbol
_atom_site_label
_atom_site_fract_x
_atom_site_fract_y
_atom_site_fract_z
Si Si1 0.069713 0.855670 0.323064
Si Si2 0.829312 0.639934 0.007229
Si Si3 0.454783 0.583511 0.400332
Si Si4 0.065235 0.959296 0.677442
Si Si5 0.098570 0.436452 0.689510
Si Si6 0.878163 0.281252 0.908684
Si Si7 0.062677 0.227342 0.322416
O O1 0.946176 0.803747 0.370089
O O2 0.248926 0.809310 0.323141
O O3 0.000000 0.852830 0.250000
O O4 0.057051 0.961064 0.345602
O O5 0.700081 0.593615 0.053593
O O6 0.971106 0.675827 0.052251
O O7 0.898960 0.574757 0.951879
O O8 0.755712 0.723161 0.964636
O O9 0.475720 0.500600 0.351326
O O10 0.454801 0.679637 0.362145
O O11 0.000000 0.944276 0.750000
O O12 0.044107 0.857668 0.649395
O O13 0.250000 0.000000 0.676797
O O14 0.250000 0.500000 0.709740
O O15 0.000000 0.398657 0.750000
O O16 0.165832 0.355258 0.645854
O O17 0.000000 0.246720 0.250000
#
# Coordination Sequence:
#
# PCOD9421418 Si02
#       7
#     8   8   8   8   8   8   8
#     4  11  22  38  63  94 127 163 202 259 320 373
#     4  10  24  43  66  91 118 168 218 257 294 369
#     4  11  24  43  66  91 126 164 211 258 308 363
#     4  10  20  34  60  93 124 161 203 253 313 383
#     4  12  28  43  65  96 130 163 204 258 317 374
#     4  11  24  43  66  91 126 164 211 258 308 363
#     4  11  22  38  63  94 127 163 202 259 320 373
#
# _framework density 22.508337999999998
#
# number of rings (size 3 to 8) (size 9 to 14) (size 15 to 20)
#    0.000    1.143    2.857    4.714    6.000    5.714 
#    0.000    0.000    0.000    5.143    0.000    0.000 
#    0.000    0.000    0.000    0.000    0.000    0.000 
#
# Total GULP energy -313103.475101 kJ/mol
# GULP energy per Si atom -5591.133484 kJ/mol
# Density = 2.245711 g / cm^3
# Si number density = 22.508338 Si / 1000 Ang^3
#
#
#
# Elastic Constant Matrix: (Units=GPa)
#
#
# Indices 1 2 3 4 5 6 
#
# 1 87.6656 -2.7805 23.7326 0.0000 0.0000 0.0000
# 2 -2.7805 108.9544 26.2471 0.0000 0.0000 0.0000
# 3 23.7326 26.2471 81.1161 0.0000 0.0000 0.0000
# 4 0.0000 0.0000 0.0000 8.2271 0.0000 0.0000
# 5 0.0000 0.0000 0.0000 0.0000 35.0858 0.0000
# 6 0.0000 0.0000 0.0000 0.0000 0.0000 26.1401
#
#
#
# Elastic Compliance Matrix: (Units=1/GPa)
#
#
# Indices 1 2 3 4 5 6 
#
# 1 0.012558 0.001307 -0.004097 0.000000 0.000000 0.000000
# 2 0.001307 0.010090 -0.003647 0.000000 0.000000 0.000000
# 3 -0.004097 -0.003647 0.014707 0.000000 0.000000 0.000000
# 4 0.000000 0.000000 0.000000 0.121549 0.000000 0.000000
# 5 0.000000 0.000000 0.000000 0.000000 0.028502 0.000000
# 6 0.000000 0.000000 0.000000 0.000000 0.000000 0.038255
#
#
# Mechanical properties :
#
#
# Convention : Reuss Voigt Hill
#
# Bulk Modulus (GPa) = 40.84877 41.34826 41.09851
# Shear Modulus (GPa) = 20.26794 29.25974 24.76384
#
# Velocity S-wave (km/s) = 3.00403 3.60940 3.32054
# Velocity P-wave (km/s) = 5.49727 5.98167 5.74458
#
# Compressibility (1/GPa) = 0.02448054
#
# Stress axis : x y z
#
# Youngs Moduli (GPa) = 79.63298 99.10615 67.99511
#
# Poissons Ratio (x) = -0.12958 0.27858
# Poissons Ratio (y) = -0.10412 0.24801
# Poissons Ratio (z) = 0.32626 0.36149
#
# Static dielectric constant tensor:
#      x y z
#    x 1.929630 0.000000 0.000000 
#    y 0.000000 1.884760 0.000000 
#    z 0.000000 0.000000 1.798740 
# 
# From -- ./inp_files/20550.got.cif
#   From: 2010.05.17/outbox.cif.g08.bks.cpg/sg54_11_cif.got.tgz:20550.got - 2010.06.03 13:09:01.
