data_PCOD9421507
_publ_section_title
;
Structure prediction by ZEFSAII (Michael W. Deem and Ramdas Pophale) SiO2 
 PCOD9421507
Probable space group: P C C A
;
_chemical_formula_sum "Si O2"
_cell_formula_units_Z 64
_cell_length_a 12.342909
_cell_length_b 12.709844
_cell_length_c 18.061938
_cell_angle_alpha 90.000000
_cell_angle_beta 90.000000
_cell_angle_gamma 90.000000
_cell_volume 2833.492676
_symmetry_space_group_name_H-M "P C C A"
_symmetry_group_IT_number 54
_symmetry_cell_setting 'orthorhombic'
loop_
_space_group_symop_operation_xyz
x,y,z
1/2-x,-y,z
1/2+x,-y,1/2-z
-x,y,1/2-z
-x,-y,-z
1/2+x,y,-z
1/2-x,y,1/2+z
x,-y,1/2+z
loop_
_atom_site_type_symbol
_atom_site_label
_atom_site_fract_x
_atom_site_fract_y
_atom_site_fract_z
Si Si1 0.225699 0.196243 0.772544
Si Si2 0.682995 0.734293 0.501576
Si Si3 0.956868 0.697866 0.864389
Si Si4 0.942498 0.883798 0.113573
Si Si5 0.946053 0.088085 0.177267
Si Si6 0.300725 0.118725 0.110285
Si Si7 0.377428 0.513886 0.244829
Si Si8 0.696654 0.375739 0.627190
O O1 0.118151 0.151726 0.811094
O O2 0.329097 0.132192 0.801917
O O3 0.227648 0.183008 0.685107
O O4 0.243611 0.311558 0.806710
O O5 0.616320 0.683159 0.435486
O O6 0.608131 0.809149 0.551878
O O7 0.763316 0.815408 0.460833
O O8 0.736616 0.645670 0.553448
O O9 0.915170 0.619836 0.799933
O O10 0.968341 0.819391 0.839950
O O11 0.080656 0.678152 0.887021
O O12 0.070527 0.880312 0.112104
O O13 0.924008 0.009129 0.110182
O O14 0.000000 0.035176 0.250000
O O15 0.250000 0.000000 0.112513
O O16 0.250000 0.500000 0.213930
O O17 0.500000 0.456457 0.250000
O O18 0.349990 0.520841 0.332739
#
# Coordination Sequence:
#
# PCOD9421507 Si02
#       8
#     8   8   8   8   8   8   8   8
#     4  10  20  36  57  81 111 156 210 260 304 350
#     4  11  23  37  54  82 123 166 204 242 298 367
#     4  10  20  38  62  86 118 161 206 249 306 381
#     4  11  23  35  51  78 116 159 207 261 302 341
#     4  11  19  33  57  82 113 161 216 259 298 349
#     4  12  23  34  50  76 111 155 209 263 307 347
#     4  10  21  43  73 101 122 149 199 263 326 395
#     4   9  20  38  61  86 118 158 197 244 307 375
#
# _framework density 22.586964999999999
#
# number of rings (size 3 to 8) (size 9 to 14) (size 15 to 20)
#    0.000    1.500    0.000    7.875    0.000    5.000 
#    0.000    6.875    0.000    3.000    0.000    0.000 
#    0.000    0.000    0.000    0.000    0.000    0.000 
#
# Total GULP energy -356404.134803 kJ/mol
# GULP energy per Si atom -5568.814606 kJ/mol
# Density = 2.253556 g / cm^3
# Si number density = 22.586965 Si / 1000 Ang^3
#
#
#
# Elastic Constant Matrix: (Units=GPa)
#
#
# Indices 1 2 3 4 5 6 
#
# 1 153.5299 26.9749 46.1893 0.0000 0.0000 0.0000
# 2 26.9749 54.0271 23.4447 0.0000 0.0000 0.0000
# 3 46.1893 23.4447 110.7500 0.0000 0.0000 0.0000
# 4 0.0000 0.0000 0.0000 -2.9892 0.0000 0.0000
# 5 0.0000 0.0000 0.0000 0.0000 26.5717 0.0000
# 6 0.0000 0.0000 0.0000 0.0000 0.0000 22.4941
#
#
#
# Elastic Compliance Matrix: (Units=1/GPa)
#
#
# Indices 1 2 3 4 5 6 
#
# 1 0.007798 -0.002733 -0.002674 0.000000 0.000000 0.000000
# 2 -0.002733 0.021339 -0.003377 0.000000 0.000000 0.000000
# 3 -0.002674 -0.003377 0.010859 0.000000 0.000000 0.000000
# 4 0.000000 0.000000 0.000000 -0.334543 0.000000 0.000000
# 5 0.000000 0.000000 0.000000 0.000000 0.037634 0.000000
# 6 0.000000 0.000000 0.000000 0.000000 0.000000 0.044456
#
#
# Mechanical properties :
#
#
# Convention : Reuss Voigt Hill
#
# Bulk Modulus (GPa) = 44.58658 56.83609 50.71133
# Shear Modulus (GPa) = -26.67925 23.99521 -1.34202
#
# Velocity S-wave (km/s) = -3.44056 3.26290 -0.77165
# Velocity P-wave (km/s) = 1.99989 6.27800 4.65901
#
# Compressibility (1/GPa) = 0.02242827
#
# Stress axis : x y z
#
# Youngs Moduli (GPa) = 128.23856 46.86150 92.08630
#
# Poissons Ratio (x) = 0.12808 0.24620
# Poissons Ratio (y) = 0.35050 0.31102
# Poissons Ratio (z) = 0.34286 0.15827
#
# Static dielectric constant tensor:
#      x y z
#    x 1.932920 0.000000 0.000000 
#    y 0.000000 2.080560 0.000000 
#    z 0.000000 0.000000 1.862210 
# 
# From -- ./inp_files/17465.got.cif
#   From: 2010.05.17/outbox.cif.g08.bks.cpg/sg54_9_cif.got.tgz:17465.got - 2010.06.03 13:09:01.
