data_PCOD9421081
_publ_section_title
;
Structure prediction by ZEFSAII (Michael W. Deem and Ramdas Pophale) SiO2 
 PCOD9421081
Probable space group: P C C A
;
_chemical_formula_sum "Si O2"
_cell_formula_units_Z 40
_cell_length_a 34.704975
_cell_length_b 9.463016
_cell_length_c 5.483433
_cell_angle_alpha 90.000000
_cell_angle_beta 90.000000
_cell_angle_gamma 90.000000
_cell_volume 1800.834705
_symmetry_space_group_name_H-M "P C C A"
_symmetry_group_IT_number 54
_symmetry_cell_setting 'orthorhombic'
loop_
_space_group_symop_operation_xyz
x,y,z
1/2-x,-y,z
1/2+x,-y,1/2-z
-x,y,1/2-z
-x,-y,-z
1/2+x,y,-z
1/2-x,y,1/2+z
x,-y,1/2+z
loop_
_atom_site_type_symbol
_atom_site_label
_atom_site_fract_x
_atom_site_fract_y
_atom_site_fract_z
Si Si1 0.149818 0.809511 0.863685
Si Si2 0.044148 0.089972 0.734692
Si Si3 0.379626 0.782394 0.862402
Si Si4 0.826814 0.504803 0.107448
Si Si5 0.263979 0.161180 0.677867
O O1 0.122616 0.844961 0.635731
O O2 0.148555 0.639365 0.894091
O O3 0.192572 0.841773 0.771854
O O4 0.142271 0.861607 0.138590
O O5 0.076418 0.210058 0.774160
O O6 0.000000 0.141174 0.750000
O O7 0.048907 0.016201 0.468468
O O8 0.356288 0.635710 0.889193
O O9 0.803816 0.497988 0.357445
O O10 0.259904 0.224858 0.406148
O O11 0.250000 0.000000 0.642338
#
# Coordination Sequence:
#
# PCOD9421081 Si02
#       5
#     8   8   8   8   8
#     4  10  19  35  58  81 109 145 185 234 281 320
#     4  10  21  38  55  81 121 153 181 223 279 333
#     4  10  19  35  57  85 107 142 191 230 271 329
#     4   8  16  30  54  77 105 135 178 231 272 313
#     4  10  21  38  52  74 112 151 178 228 284 337
#
# _framework density 22.211922000000001
#
# number of rings (size 3 to 8) (size 9 to 14) (size 15 to 20)
#    0.000    2.400    0.000    2.400    0.000    0.000 
#   21.600    0.000    0.000   43.200    0.000    0.000 
#    0.000    0.000    0.000    0.000    0.000    0.000 
#
# Total GULP energy -222860.611064 kJ/mol
# GULP energy per Si atom -5571.515277 kJ/mol
# Density = 2.216137 g / cm^3
# Si number density = 22.211922 Si / 1000 Ang^3
#
#
#
# Elastic Constant Matrix: (Units=GPa)
#
#
# Indices 1 2 3 4 5 6 
#
# 1 85.4717 1.5615 -1.1500 0.0000 0.0000 0.0000
# 2 1.5615 80.8194 -6.0730 0.0000 0.0000 0.0000
# 3 -1.1500 -6.0730 219.5482 0.0000 0.0000 0.0000
# 4 0.0000 0.0000 0.0000 4.3299 0.0000 0.0000
# 5 0.0000 0.0000 0.0000 0.0000 35.7512 0.0000
# 6 0.0000 0.0000 0.0000 0.0000 0.0000 18.2483
#
#
#
# Elastic Compliance Matrix: (Units=1/GPa)
#
#
# Indices 1 2 3 4 5 6 
#
# 1 0.011705 -0.000222 0.000055 0.000000 0.000000 0.000000
# 2 -0.000222 0.012403 0.000342 0.000000 0.000000 0.000000
# 3 0.000055 0.000342 0.004565 0.000000 0.000000 0.000000
# 4 0.000000 0.000000 0.000000 0.230954 0.000000 0.000000
# 5 0.000000 0.000000 0.000000 0.000000 0.027971 0.000000
# 6 0.000000 0.000000 0.000000 0.000000 0.000000 0.054800
#
#
# Mechanical properties :
#
#
# Convention : Reuss Voigt Hill
#
# Bulk Modulus (GPa) = 34.45594 41.61292 38.03443
# Shear Modulus (GPa) = 14.21582 37.76593 25.99087
#
# Velocity S-wave (km/s) = 2.53258 4.12789 3.42443
# Velocity P-wave (km/s) = 4.90897 6.44162 5.72680
#
# Compressibility (1/GPa) = 0.02902257
#
# Stress axis : x y z
#
# Youngs Moduli (GPa) = 85.43669 80.62399 219.07939
#
# Poissons Ratio (x) = 0.01790 -0.01209
# Poissons Ratio (y) = 0.01897 -0.07491
# Poissons Ratio (z) = -0.00471 -0.02757
#
# Static dielectric constant tensor:
#      x y z
#    x 1.787850 0.000000 0.000000 
#    y 0.000000 1.884110 0.000000 
#    z 0.000000 0.000000 1.991210 
# 
# From -- ./inp_files/1825.got.cif
#   From: 2010.05.17/outbox.cif.g08.bks.cpg/sg54_1_cif.got.tgz:1825.got - 2010.06.03 13:09:01.
