data_PCOD9421472
_publ_section_title
;
Structure prediction by ZEFSAII (Michael W. Deem and Ramdas Pophale) SiO2 
 PCOD9421472
Probable space group: P C C A
;
_chemical_formula_sum "Si O2"
_cell_formula_units_Z 56
_cell_length_a 9.656484
_cell_length_b 13.241050
_cell_length_c 19.554116
_cell_angle_alpha 90.000000
_cell_angle_beta 90.000000
_cell_angle_gamma 90.000000
_cell_volume 2500.228135
_symmetry_space_group_name_H-M "P C C A"
_symmetry_group_IT_number 54
_symmetry_cell_setting 'orthorhombic'
loop_
_space_group_symop_operation_xyz
x,y,z
1/2-x,-y,z
1/2+x,-y,1/2-z
-x,y,1/2-z
-x,-y,-z
1/2+x,y,-z
1/2-x,y,1/2+z
x,-y,1/2+z
loop_
_atom_site_type_symbol
_atom_site_label
_atom_site_fract_x
_atom_site_fract_y
_atom_site_fract_z
Si Si1 0.142766 0.630837 0.872075
Si Si2 0.494231 0.120745 0.495305
Si Si3 0.244092 0.253170 0.505819
Si Si4 0.162232 0.331394 0.756728
Si Si5 0.226403 0.111965 0.245703
Si Si6 0.664522 0.403937 0.877096
Si Si7 0.474893 0.161465 0.846688
O O1 0.276781 0.613543 0.824914
O O2 0.084347 0.728960 0.832906
O O3 0.999519 0.568426 0.873538
O O4 0.188554 0.669309 0.947593
O O5 0.352658 0.174291 0.471679
O O6 0.622882 0.181868 0.463080
O O7 0.508045 0.147506 0.574562
O O8 0.500000 0.000000 0.500000
O O9 0.315464 0.316945 0.565908
O O10 0.171818 0.206744 0.758441
O O11 0.258553 0.369993 0.693414
O O12 0.000000 0.357168 0.750000
O O13 0.139708 0.088974 0.314828
O O14 0.116538 0.153563 0.192029
O O15 0.250000 0.000000 0.217463
O O16 0.750000 0.500000 0.901963
#
# Coordination Sequence:
#
# PCOD9421472 Si02
#       7
#     8   8   8   8   8   8   8
#     4  10  22  47  70  93 144 185 219 304 361 417
#     4  11  23  39  68  99 139 182 228 283 342 426
#     4  11  23  45  69 102 140 184 236 288 355 419
#     4  11  25  41  71 105 136 178 233 293 351 428
#     4  10  20  35  61  92 134 176 228 271 339 425
#     4  12  26  48  74  98 133 186 235 291 369 429
#     4   9  19  38  57  86 128 186 214 262 357 403
#
# _framework density 22.397955
#
# number of rings (size 3 to 8) (size 9 to 14) (size 15 to 20)
#    0.000    1.429    4.286    0.857    4.000    7.429 
#    0.000    0.714    0.000    0.000    0.000    0.000 
#    0.000    0.000    0.000    0.000    0.000    0.000 
#
# Total GULP energy -311924.720216 kJ/mol
# GULP energy per Si atom -5570.084290 kJ/mol
# Density = 2.234698 g / cm^3
# Si number density = 22.397955 Si / 1000 Ang^3
#
#
#
# Elastic Constant Matrix: (Units=GPa)
#
#
# Indices 1 2 3 4 5 6 
#
# 1 142.6242 28.7615 9.9782 0.0000 0.0000 0.0000
# 2 28.7615 81.0760 -3.7753 0.0000 0.0000 0.0000
# 3 9.9782 -3.7753 56.9130 0.0000 0.0000 0.0000
# 4 0.0000 0.0000 0.0000 13.1059 0.0000 0.0000
# 5 0.0000 0.0000 0.0000 0.0000 25.4659 0.0000
# 6 0.0000 0.0000 0.0000 0.0000 0.0000 30.2968
#
#
#
# Elastic Compliance Matrix: (Units=1/GPa)
#
#
# Indices 1 2 3 4 5 6 
#
# 1 0.007683 -0.002797 -0.001532 0.000000 0.000000 0.000000
# 2 -0.002797 0.013390 0.001379 0.000000 0.000000 0.000000
# 3 -0.001532 0.001379 0.017931 0.000000 0.000000 0.000000
# 4 0.000000 0.000000 0.000000 0.076302 0.000000 0.000000
# 5 0.000000 0.000000 0.000000 0.000000 0.039268 0.000000
# 6 0.000000 0.000000 0.000000 0.000000 0.000000 0.033007
#
#
# Mechanical properties :
#
#
# Convention : Reuss Voigt Hill
#
# Bulk Modulus (GPa) = 30.20912 38.94912 34.57912
# Shear Modulus (GPa) = 24.44798 30.15031 27.29915
#
# Velocity S-wave (km/s) = 3.30741 3.67293 3.49495
# Velocity P-wave (km/s) = 5.30113 5.95101 5.63545
#
# Compressibility (1/GPa) = 0.03310259
#
# Stress axis : x y z
#
# Youngs Moduli (GPa) = 130.16367 74.68019 55.76995
#
# Poissons Ratio (x) = 0.20886 0.08547
# Poissons Ratio (y) = 0.36404 -0.07688
# Poissons Ratio (z) = 0.19947 -0.10295
#
# Static dielectric constant tensor:
#      x y z
#    x 2.036870 0.000000 0.000000 
#    y 0.000000 1.942570 0.000000 
#    z 0.000000 0.000000 1.852570 
# 
# From -- ./inp_files/20523.got.cif
#   From: 2010.05.17/outbox.cif.g08.bks.cpg/sg54_11_cif.got.tgz:20523.got - 2010.06.03 13:09:01.
