data_PCOD9421995
_publ_section_title
;
Structure prediction by ZEFSAII (Michael W. Deem and Ramdas Pophale) SiO2 
 PCOD9421995
Probable space group: P C C A
;
_chemical_formula_sum "Si O2"
_cell_formula_units_Z 52
_cell_length_a 5.301851
_cell_length_b 29.066702
_cell_length_c 16.631346
_cell_angle_alpha 90.000000
_cell_angle_beta 90.000000
_cell_angle_gamma 90.000000
_cell_volume 2563.012211
_symmetry_space_group_name_H-M "P C C A"
_symmetry_group_IT_number 54
_symmetry_cell_setting 'orthorhombic'
loop_
_space_group_symop_operation_xyz
x,y,z
1/2-x,-y,z
1/2+x,-y,1/2-z
-x,y,1/2-z
-x,-y,-z
1/2+x,y,-z
1/2-x,y,1/2+z
x,-y,1/2+z
loop_
_atom_site_type_symbol
_atom_site_label
_atom_site_fract_x
_atom_site_fract_y
_atom_site_fract_z
Si Si1 0.090561 0.952086 0.337574
Si Si2 0.249923 0.549432 0.694426
Si Si3 0.139552 0.864967 0.903487
Si Si4 0.213373 0.279201 0.550568
Si Si5 0.250000 0.000000 0.553781
Si Si6 0.249910 0.650621 0.694957
Si Si7 0.640924 0.172275 0.414462
O O1 0.831130 0.959268 0.386973
O O2 0.000000 0.937496 0.250000
O O3 0.263817 0.915553 0.383306
O O4 0.750000 0.000000 0.168811
O O5 0.250000 0.500000 0.649498
O O6 0.500000 0.549311 0.750000
O O7 0.248738 0.599591 0.653965
O O8 0.000000 0.549223 0.750000
O O9 0.367864 0.832314 0.874846
O O10 0.868623 0.852209 0.868483
O O11 0.110109 0.853800 0.998998
O O12 0.447102 0.288972 0.491835
O O13 0.243936 0.309597 0.629529
O O14 0.214502 0.224721 0.569720
O O15 0.500000 0.000000 0.500000
O O16 0.500000 0.653507 0.750000
O O17 0.000000 0.654193 0.750000
#
# Coordination Sequence:
#
# PCOD9421995 Si02
#       7
#     8   8   8   8   4   8   8
#     4  12  28  48  70 100 142 167 195 254 324 367
#     4   8  14  27  49  76 113 161 210 258 307 367
#     4  10  22  38  66  87 118 157 202 242 286 357
#     4  12  21  39  66  90 122 167 208 258 322 381
#     4  12  28  44  70 102 122 166 214 240 278 362
#     4  10  21  36  56  92 128 160 211 269 322 376
#     4  10  20  41  62  91 117 151 208 258 282 354
#
# _framework density 20.288627000000002
#
# number of rings (size 3 to 8) (size 9 to 14) (size 15 to 20)
#    0.000    1.538    4.615    0.923    6.462    0.000 
#    0.000    2.308    0.000    0.923    0.000    0.000 
#    0.000    0.000    0.000    0.000    0.000    0.000 
#
# Total GULP energy -289994.866398 kJ/mol
# GULP energy per Si atom -5576.824354 kJ/mol
# Density = 2.024245 g / cm^3
# Si number density = 20.288627 Si / 1000 Ang^3
#
#
#
# Elastic Constant Matrix: (Units=GPa)
#
#
# Indices 1 2 3 4 5 6 
#
# 1 134.5563 -8.8266 8.6435 0.0000 0.0000 0.0000
# 2 -8.8266 106.6155 42.0660 0.0000 0.0000 0.0000
# 3 8.6435 42.0660 47.3238 0.0000 0.0000 0.0000
# 4 0.0000 0.0000 0.0000 11.4986 0.0000 0.0000
# 5 0.0000 0.0000 0.0000 0.0000 8.0428 0.0000
# 6 0.0000 0.0000 0.0000 0.0000 0.0000 14.9072
#
#
#
# Elastic Compliance Matrix: (Units=1/GPa)
#
#
# Indices 1 2 3 4 5 6 
#
# 1 0.007750 0.001848 -0.003058 0.000000 0.000000 0.000000
# 2 0.001848 0.014887 -0.013570 0.000000 0.000000 0.000000
# 3 -0.003058 -0.013570 0.033752 0.000000 0.000000 0.000000
# 4 0.000000 0.000000 0.000000 0.086967 0.000000 0.000000
# 5 0.000000 0.000000 0.000000 0.000000 0.124335 0.000000
# 6 0.000000 0.000000 0.000000 0.000000 0.000000 0.067082
#
#
# Mechanical properties :
#
#
# Convention : Reuss Voigt Hill
#
# Bulk Modulus (GPa) = 37.27495 41.36237 39.31866
# Shear Modulus (GPa) = 13.39490 23.33056 18.36273
#
# Velocity S-wave (km/s) = 2.57226 3.39475 3.01171
# Velocity P-wave (km/s) = 5.21864 5.98306 5.61388
#
# Compressibility (1/GPa) = 0.02682767
#
# Stress axis : x y z
#
# Youngs Moduli (GPa) = 129.03992 67.17336 29.62757
#
# Poissons Ratio (x) = -0.12416 0.09061
# Poissons Ratio (y) = -0.23850 0.40206
# Poissons Ratio (z) = 0.39465 0.91157
#
# Static dielectric constant tensor:
#      x y z
#    x 1.795500 0.000000 0.000000 
#    y 0.000000 1.777140 0.000000 
#    z 0.000000 0.000000 1.795290 
# 
# From -- ./inp_files/15957.got.cif
#   From: 2010.05.17/outbox.cif.g08.bks.cpg/sg54_8_cif.got.tgz:15957.got - 2010.06.03 13:09:01.
