data_PCOD9421551
_publ_section_title
;
Structure prediction by ZEFSAII (Michael W. Deem and Ramdas Pophale) SiO2 
 PCOD9421551
Probable space group: P C C A
;
_chemical_formula_sum "Si O2"
_cell_formula_units_Z 48
_cell_length_a 14.851507
_cell_length_b 9.282242
_cell_length_c 18.741893
_cell_angle_alpha 90.000000
_cell_angle_beta 90.000000
_cell_angle_gamma 90.000000
_cell_volume 2583.668945
_symmetry_space_group_name_H-M "P C C A"
_symmetry_group_IT_number 54
_symmetry_cell_setting 'orthorhombic'
loop_
_space_group_symop_operation_xyz
x,y,z
1/2-x,-y,z
1/2+x,-y,1/2-z
-x,y,1/2-z
-x,-y,-z
1/2+x,y,-z
1/2-x,y,1/2+z
x,-y,1/2+z
loop_
_atom_site_type_symbol
_atom_site_label
_atom_site_fract_x
_atom_site_fract_y
_atom_site_fract_z
Si Si1 0.892527 0.906435 0.245455
Si Si2 0.246398 0.337354 0.267903
Si Si3 0.729429 0.660548 0.398532
Si Si4 0.337453 0.895277 0.526038
Si Si5 0.913737 0.110863 0.378464
Si Si6 0.382870 0.145149 0.863022
O O1 0.836460 0.759262 0.241788
O O2 0.000000 0.881446 0.250000
O O3 0.871194 0.021453 0.310351
O O4 0.868817 0.989068 0.172550
O O5 0.250000 0.500000 0.296410
O O6 0.215836 0.351285 0.186207
O O7 0.176674 0.252525 0.316880
O O8 0.750000 0.500000 0.426258
O O9 0.811627 0.760135 0.424549
O O10 0.642086 0.758926 0.414491
O O11 0.357258 0.851633 0.445591
O O12 0.250000 0.000000 0.527428
O O13 0.417373 0.985606 0.562214
O O14 0.010262 0.168937 0.355262
#
# Coordination Sequence:
#
# PCOD9421551 Si02
#       6
#     8   8   8   8   8   8
#     4  10  20  37  60  86 112 147 191 241 282 333
#     4  11  22  38  57  84 118 156 191 235 289 346
#     4  10  21  37  58  80 116 160 194 226 287 354
#     4  10  20  36  60  85 115 154 190 235 290 347
#     4  10  20  38  60  88 114 150 195 239 288 343
#     4  11  22  36  62  90 115 145 195 249 287 337
#
# _framework density 18.578233000000001
#
# number of rings (size 3 to 8) (size 9 to 14) (size 15 to 20)
#    0.000    1.667    3.333    2.000    0.000    0.667 
#    6.000    0.833    0.000    0.000    0.000    0.000 
#    0.000    0.000    0.000    0.000    0.000    0.000 
#
# Total GULP energy -267260.114279 kJ/mol
# GULP energy per Si atom -5567.919047 kJ/mol
# Density = 1.853595 g / cm^3
# Si number density = 18.578233 Si / 1000 Ang^3
#
#
#
# Elastic Constant Matrix: (Units=GPa)
#
#
# Indices 1 2 3 4 5 6 
#
# 1 68.4702 53.5806 10.7537 0.0000 0.0000 0.0000
# 2 53.5806 136.0871 17.5444 0.0000 0.0000 0.0000
# 3 10.7537 17.5444 82.8763 0.0000 0.0000 0.0000
# 4 0.0000 0.0000 0.0000 12.9486 0.0000 0.0000
# 5 0.0000 0.0000 0.0000 0.0000 22.8687 0.0000
# 6 0.0000 0.0000 0.0000 0.0000 0.0000 2.6233
#
#
#
# Elastic Compliance Matrix: (Units=1/GPa)
#
#
# Indices 1 2 3 4 5 6 
#
# 1 0.021191 -0.008213 -0.001011 0.000000 0.000000 0.000000
# 2 -0.008213 0.010737 -0.001207 0.000000 0.000000 0.000000
# 3 -0.001011 -0.001207 0.012453 0.000000 0.000000 0.000000
# 4 0.000000 0.000000 0.000000 0.077229 0.000000 0.000000
# 5 0.000000 0.000000 0.000000 0.000000 0.043728 0.000000
# 6 0.000000 0.000000 0.000000 0.000000 0.000000 0.381206
#
#
# Mechanical properties :
#
#
# Convention : Reuss Voigt Hill
#
# Bulk Modulus (GPa) = 42.51970 50.13233 46.32602
# Shear Modulus (GPa) = 8.69193 21.39176 15.04184
#
# Velocity S-wave (km/s) = 2.16534 3.39697 2.84852
# Velocity P-wave (km/s) = 5.40261 6.51375 5.98402
#
# Compressibility (1/GPa) = 0.02351851
#
# Stress axis : x y z
#
# Youngs Moduli (GPa) = 47.19077 93.13165 80.30222
#
# Poissons Ratio (x) = 0.76488 0.08118
# Poissons Ratio (y) = 0.38757 0.09696
# Poissons Ratio (z) = 0.04771 0.11245
#
# Static dielectric constant tensor:
#      x y z
#    x 1.678680 0.000000 0.000000 
#    y 0.000000 1.675500 0.000000 
#    z 0.000000 0.000000 1.660640 
# 
# From -- ./inp_files/18014.got.cif
#   From: 2010.05.17/outbox.cif.g08.bks.cpg/sg54_10_cif.got.tgz:18014.got - 2010.06.03 13:09:01.
