data_PCOD9421231
_publ_section_title
;
Structure prediction by ZEFSAII (Michael W. Deem and Ramdas Pophale) SiO2 
 PCOD9421231
Probable space group: P C C A
;
_chemical_formula_sum "Si O2"
_cell_formula_units_Z 56
_cell_length_a 8.979054
_cell_length_b 15.208905
_cell_length_c 20.776638
_cell_angle_alpha 90.000000
_cell_angle_beta 90.000000
_cell_angle_gamma 90.000000
_cell_volume 2837.290497
_symmetry_space_group_name_H-M "P C C A"
_symmetry_group_IT_number 54
_symmetry_cell_setting 'orthorhombic'
loop_
_space_group_symop_operation_xyz
x,y,z
1/2-x,-y,z
1/2+x,-y,1/2-z
-x,y,1/2-z
-x,-y,-z
1/2+x,y,-z
1/2-x,y,1/2+z
x,-y,1/2+z
loop_
_atom_site_type_symbol
_atom_site_label
_atom_site_fract_x
_atom_site_fract_y
_atom_site_fract_z
Si Si1 0.258718 0.905917 0.156674
Si Si2 0.447250 0.350978 0.014113
Si Si3 0.500000 0.844206 0.750000
Si Si4 0.726298 0.410197 0.087955
Si Si5 0.247148 0.271840 0.305612
Si Si6 0.168162 0.279631 0.089471
Si Si7 0.151464 0.413291 0.207556
Si Si8 0.500000 0.852698 0.250000
O O1 0.305279 0.817513 0.118444
O O2 0.391542 0.911199 0.208224
O O3 0.110320 0.890587 0.199187
O O4 0.250000 0.000000 0.121384
O O5 0.562887 0.402039 0.058729
O O6 0.327312 0.303396 0.058601
O O7 0.347064 0.412399 0.968768
O O8 0.545961 0.288822 0.967260
O O9 0.608159 0.785786 0.705784
O O10 0.750000 0.500000 0.127264
O O11 0.755067 0.322459 0.127810
O O12 0.246266 0.347131 0.251646
O O13 0.103613 0.211201 0.292900
O O14 0.125836 0.354253 0.143094
O O15 0.250000 0.500000 0.194133
O O16 0.000000 0.430091 0.250000
#
# Coordination Sequence:
#
# PCOD9421231 Si02
#       8
#     8   8   4   8   8   8   8   4
#     4  11  21  37  64  94 123 157 197 253 317 379
#     4  10  24  41  60  79 112 169 211 253 304 352
#     4  10  21  36  59  92 128 158 197 238 311 386
#     4  11  22  36  56  84 116 157 210 255 292 348
#     4  11  21  38  59  87 124 163 196 246 311 363
#     4  11  23  45  63  86 123 162 211 257 307 366
#     4  12  25  39  62  94 129 167 205 254 317 373
#     4  10  19  38  59  84 128 160 191 236 311 388
#
# _framework density 19.737141000000001
#
# number of rings (size 3 to 8) (size 9 to 14) (size 15 to 20)
#    0.000    1.143    3.571    3.857    1.000    4.571 
#    0.000    0.714    0.000    0.000    0.000    0.000 
#    0.000    0.000    0.000    0.000    0.000    0.000 
#
# Total GULP energy -312579.405823 kJ/mol
# GULP energy per Si atom -5581.775104 kJ/mol
# Density = 1.969222 g / cm^3
# Si number density = 19.737141 Si / 1000 Ang^3
#
#
#
# Elastic Constant Matrix: (Units=GPa)
#
#
# Indices 1 2 3 4 5 6 
#
# 1 141.9042 50.2860 34.8414 0.0000 0.0000 0.0000
# 2 50.2860 122.1320 23.0336 0.0000 0.0000 0.0000
# 3 34.8414 23.0336 56.7459 0.0000 0.0000 0.0000
# 4 0.0000 0.0000 0.0000 58.3576 0.0000 0.0000
# 5 0.0000 0.0000 0.0000 0.0000 19.6328 0.0000
# 6 0.0000 0.0000 0.0000 0.0000 0.0000 5.0802
#
#
#
# Elastic Compliance Matrix: (Units=1/GPa)
#
#
# Indices 1 2 3 4 5 6 
#
# 1 0.009180 -0.002942 -0.004442 0.000000 0.000000 0.000000
# 2 -0.002942 0.009809 -0.002175 0.000000 0.000000 0.000000
# 3 -0.004442 -0.002175 0.021233 0.000000 0.000000 0.000000
# 4 0.000000 0.000000 0.000000 0.017136 0.000000 0.000000
# 5 0.000000 0.000000 0.000000 0.000000 0.050935 0.000000
# 6 0.000000 0.000000 0.000000 0.000000 0.000000 0.196843
#
#
# Mechanical properties :
#
#
# Convention : Reuss Voigt Hill
#
# Bulk Modulus (GPa) = 47.38626 59.67823 53.53224
# Shear Modulus (GPa) = 15.09251 30.78887 22.94069
#
# Velocity S-wave (km/s) = 2.76828 3.95390 3.41297
# Velocity P-wave (km/s) = 5.85479 7.15168 6.53549
#
# Compressibility (1/GPa) = 0.02110316
#
# Stress axis : x y z
#
# Youngs Moduli (GPa) = 108.92894 101.94243 47.09648
#
# Poissons Ratio (x) = 0.29992 0.20922
# Poissons Ratio (y) = 0.32047 0.10245
# Poissons Ratio (z) = 0.48391 0.22176
#
# Static dielectric constant tensor:
#      x y z
#    x 1.691200 0.000000 0.000000 
#    y 0.000000 1.727310 0.000000 
#    z 0.000000 0.000000 1.726640 
# 
# From -- ./inp_files/20604.got.cif
#   From: 2010.05.17/outbox.cif.g08.bks.cpg/sg54_11_cif.got.tgz:20604.got - 2010.06.03 13:09:01.
