data_PCOD9421808
_publ_section_title
;
Structure prediction by ZEFSAII (Michael W. Deem and Ramdas Pophale) SiO2 
 PCOD9421808
Probable space group: P C C A
;
_chemical_formula_sum "Si O2"
_cell_formula_units_Z 48
_cell_length_a 8.427064
_cell_length_b 14.682834
_cell_length_c 18.596879
_cell_angle_alpha 90.000000
_cell_angle_beta 90.000000
_cell_angle_gamma 90.000000
_cell_volume 2301.051011
_symmetry_space_group_name_H-M "P C C A"
_symmetry_group_IT_number 54
_symmetry_cell_setting 'orthorhombic'
loop_
_space_group_symop_operation_xyz
x,y,z
1/2-x,-y,z
1/2+x,-y,1/2-z
-x,y,1/2-z
-x,-y,-z
1/2+x,y,-z
1/2-x,y,1/2+z
x,-y,1/2+z
loop_
_atom_site_type_symbol
_atom_site_label
_atom_site_fract_x
_atom_site_fract_y
_atom_site_fract_z
Si Si1 0.136662 0.586613 0.887329
Si Si2 0.710635 0.105409 0.602873
Si Si3 0.831931 0.666202 0.455876
Si Si4 0.065447 0.804320 0.513756
Si Si5 0.176167 0.250353 0.283953
Si Si6 0.717291 0.406725 0.821606
O O1 0.250000 0.500000 0.876419
O O2 0.194131 0.680413 0.851097
O O3 0.963064 0.582100 0.850199
O O4 0.141823 0.608274 0.972180
O O5 0.537542 0.138259 0.571427
O O6 0.823498 0.136124 0.537011
O O7 0.734462 0.157841 0.678803
O O8 0.750000 0.000000 0.613440
O O9 0.667489 0.722842 0.450898
O O10 0.833826 0.599384 0.389314
O O11 0.954967 0.748034 0.459423
O O12 0.248672 0.313895 0.221487
O O13 0.000000 0.234931 0.250000
O O14 0.750000 0.500000 0.779592
#
# Coordination Sequence:
#
# PCOD9421808 Si02
#       6
#     8   8   8   8   8   8
#     4  11  22  37  62  87 123 171 219 265 313 380
#     4  11  22  41  70  99 127 164 217 273 333 390
#     4  11  20  38  61  93 132 169 214 263 322 382
#     4  10  20  38  65  95 128 165 203 272 335 376
#     4  10  21  43  61  86 130 176 205 255 327 385
#     4  11  24  37  58  93 128 173 220 263 316 379
#
# _framework density 20.860033000000001
#
# number of rings (size 3 to 8) (size 9 to 14) (size 15 to 20)
#    0.000    1.333    5.000    2.500    2.333    1.333 
#    0.000    4.167    0.000    2.000    0.000    0.000 
#    0.000    0.000    0.000    0.000    0.000    0.000 
#
# Total GULP energy -267368.028879 kJ/mol
# GULP energy per Si atom -5570.167268 kJ/mol
# Density = 2.081256 g / cm^3
# Si number density = 20.860033 Si / 1000 Ang^3
#
#
#
# Elastic Constant Matrix: (Units=GPa)
#
#
# Indices 1 2 3 4 5 6 
#
# 1 31.7344 29.7291 2.4596 0.0000 0.0000 0.0000
# 2 29.7291 154.6765 37.7491 0.0000 0.0000 0.0000
# 3 2.4596 37.7491 109.4004 0.0000 0.0000 0.0000
# 4 0.0000 0.0000 0.0000 142.9404 0.0000 0.0000
# 5 0.0000 0.0000 0.0000 0.0000 9.3212 0.0000
# 6 0.0000 0.0000 0.0000 0.0000 0.0000 16.9720
#
#
#
# Elastic Compliance Matrix: (Units=1/GPa)
#
#
# Indices 1 2 3 4 5 6 
#
# 1 0.038773 -0.007905 0.001856 0.000000 0.000000 0.000000
# 2 -0.007905 0.008671 -0.002814 0.000000 0.000000 0.000000
# 3 0.001856 -0.002814 0.010070 0.000000 0.000000 0.000000
# 4 0.000000 0.000000 0.000000 0.006996 0.000000 0.000000
# 5 0.000000 0.000000 0.000000 0.000000 0.107282 0.000000
# 6 0.000000 0.000000 0.000000 0.000000 0.000000 0.058921
#
#
# Mechanical properties :
#
#
# Convention : Reuss Voigt Hill
#
# Bulk Modulus (GPa) = 25.13343 48.40966 36.77154
# Shear Modulus (GPa) = 19.10559 48.90494 34.00527
#
# Velocity S-wave (km/s) = 3.02966 4.84719 4.04191
# Velocity P-wave (km/s) = 4.93084 7.38811 6.28082
#
# Compressibility (1/GPa) = 0.03978765
#
# Stress axis : x y z
#
# Youngs Moduli (GPa) = 25.79085 115.32202 99.30373
#
# Poissons Ratio (x) = 0.91165 -0.18431
# Poissons Ratio (y) = 0.20388 0.27948
# Poissons Ratio (z) = -0.04787 0.32456
#
# Static dielectric constant tensor:
#      x y z
#    x 1.879940 0.000000 0.000000 
#    y 0.000000 3.150580 0.000000 
#    z 0.000000 0.000000 1.784300 
# 
# From -- ./inp_files/16620.got.cif
#   From: 2010.05.17/outbox.cif.g08.bks.cpg/sg54_9_cif.got.tgz:16620.got - 2010.06.03 13:09:01.
