data_PCOD9421169
_publ_section_title
;
Structure prediction by ZEFSAII (Michael W. Deem and Ramdas Pophale) SiO2 
 PCOD9421169
Probable space group: P C C A
;
_chemical_formula_sum "Si O2"
_cell_formula_units_Z 64
_cell_length_a 12.423104
_cell_length_b 15.178767
_cell_length_c 15.030842
_cell_angle_alpha 90.000000
_cell_angle_beta 90.000000
_cell_angle_gamma 90.000000
_cell_volume 2834.326811
_symmetry_space_group_name_H-M "P C C A"
_symmetry_group_IT_number 54
_symmetry_cell_setting 'orthorhombic'
loop_
_space_group_symop_operation_xyz
x,y,z
1/2-x,-y,z
1/2+x,-y,1/2-z
-x,y,1/2-z
-x,-y,-z
1/2+x,y,-z
1/2-x,y,1/2+z
x,-y,1/2+z
loop_
_atom_site_type_symbol
_atom_site_label
_atom_site_fract_x
_atom_site_fract_y
_atom_site_fract_z
Si Si1 0.014503 0.353764 0.651861
Si Si2 0.879854 0.251490 0.240859
Si Si3 0.810605 0.589269 0.083058
Si Si4 0.677294 0.746666 0.045211
Si Si5 0.181534 0.086146 0.976900
Si Si6 0.259641 0.397712 0.204185
Si Si7 0.243761 0.097202 0.678560
Si Si8 0.975141 0.167786 0.899719
O O1 0.143241 0.356608 0.647047
O O2 0.975135 0.251812 0.651847
O O3 0.000000 0.394422 0.750000
O O4 0.940507 0.405128 0.581629
O O5 0.874455 0.278300 0.138369
O O6 0.845566 0.335991 0.299976
O O7 0.795797 0.174982 0.264991
O O8 0.000000 0.217703 0.250000
O O9 0.750000 0.500000 0.059478
O O10 0.757763 0.666523 0.025590
O O11 0.788481 0.604819 0.189458
O O12 0.753330 0.830427 0.057622
O O13 0.585372 0.780393 0.979407
O O14 0.062203 0.099230 0.937718
O O15 0.250000 0.000000 0.952300
O O16 0.189988 0.091896 0.084762
O O17 0.250000 0.500000 0.180234
O O18 0.120318 0.120950 0.654616
O O19 0.250000 0.000000 0.719904
#
# Coordination Sequence:
#
# PCOD9421169 Si02
#       8
#     8   8   8   8   8   8   8   8
#     4  10  19  36  63  87 119 164 212 258 308 364
#     4  11  22  38  60  88 125 162 202 257 316 365
#     4   9  18  35  59  86 122 159 204 257 313 369
#     4  10  22  37  58  87 120 159 201 250 311 373
#     4  10  22  39  62  88 117 160 207 252 312 380
#     4   9  19  34  57  90 121 159 210 255 308 375
#     4  10  23  40  61  89 124 161 207 258 308 374
#     4  11  21  39  65  87 123 164 208 253 313 374
#
# _framework density 22.580318999999999
#
# number of rings (size 3 to 8) (size 9 to 14) (size 15 to 20)
#    0.000    2.000    2.500    0.750    0.000    9.500 
#    0.000    1.875    0.000    0.000    0.000    0.000 
#    0.000    0.000    0.000    0.000    0.000    0.000 
#
# Total GULP energy -357052.322985 kJ/mol
# GULP energy per Si atom -5578.942547 kJ/mol
# Density = 2.252892 g / cm^3
# Si number density = 22.580319 Si / 1000 Ang^3
#
#
#
# Elastic Constant Matrix: (Units=GPa)
#
#
# Indices 1 2 3 4 5 6 
#
# 1 92.7394 30.0330 24.6593 0.0000 0.0000 0.0000
# 2 30.0330 134.4277 3.7690 0.0000 0.0000 0.0000
# 3 24.6593 3.7690 37.3748 0.0000 0.0000 0.0000
# 4 0.0000 0.0000 0.0000 20.2557 0.0000 0.0000
# 5 0.0000 0.0000 0.0000 0.0000 11.9442 0.0000
# 6 0.0000 0.0000 0.0000 0.0000 0.0000 32.0762
#
#
#
# Elastic Compliance Matrix: (Units=1/GPa)
#
#
# Indices 1 2 3 4 5 6 
#
# 1 0.014122 -0.002902 -0.009025 0.000000 0.000000 0.000000
# 2 -0.002902 0.008056 0.001102 0.000000 0.000000 0.000000
# 3 -0.009025 0.001102 0.032599 0.000000 0.000000 0.000000
# 4 0.000000 0.000000 0.000000 0.049369 0.000000 0.000000
# 5 0.000000 0.000000 0.000000 0.000000 0.083722 0.000000
# 6 0.000000 0.000000 0.000000 0.000000 0.000000 0.031176
#
#
# Mechanical properties :
#
#
# Convention : Reuss Voigt Hill
#
# Bulk Modulus (GPa) = 30.18546 42.38494 36.28520
# Shear Modulus (GPa) = 19.86192 26.59395 23.22793
#
# Velocity S-wave (km/s) = 2.96904 3.43556 3.21078
# Velocity P-wave (km/s) = 5.01505 5.87783 5.46350
#
# Compressibility (1/GPa) = 0.03312853
#
# Stress axis : x y z
#
# Youngs Moduli (GPa) = 70.80903 124.12481 30.67537
#
# Poissons Ratio (x) = 0.36022 0.27685
# Poissons Ratio (y) = 0.20550 -0.03381
# Poissons Ratio (z) = 0.63906 -0.13683
#
# Static dielectric constant tensor:
#      x y z
#    x 1.922770 0.000000 0.000000 
#    y 0.000000 1.824880 0.000000 
#    z 0.000000 0.000000 1.896610 
# 
# From -- ./inp_files/17475.got.cif
#   From: 2010.05.17/outbox.cif.g08.bks.cpg/sg54_9_cif.got.tgz:17475.got - 2010.06.03 13:09:01.
