data_PCOD9421458
_publ_section_title
;
Structure prediction by ZEFSAII (Michael W. Deem and Ramdas Pophale) SiO2 
 PCOD9421458
Probable space group: P C C A
;
_chemical_formula_sum "Si O2"
_cell_formula_units_Z 60
_cell_length_a 26.519698
_cell_length_b 10.934836
_cell_length_c 11.328128
_cell_angle_alpha 90.000000
_cell_angle_beta 90.000000
_cell_angle_gamma 90.000000
_cell_volume 3285.027395
_symmetry_space_group_name_H-M "P C C A"
_symmetry_group_IT_number 54
_symmetry_cell_setting 'orthorhombic'
loop_
_space_group_symop_operation_xyz
x,y,z
1/2-x,-y,z
1/2+x,-y,1/2-z
-x,y,1/2-z
-x,-y,-z
1/2+x,y,-z
1/2-x,y,1/2+z
x,-y,1/2+z
loop_
_atom_site_type_symbol
_atom_site_label
_atom_site_fract_x
_atom_site_fract_y
_atom_site_fract_z
Si Si1 0.365977 0.329888 0.116744
Si Si2 0.000000 0.721694 0.750000
Si Si3 0.183209 0.617992 0.867131
Si Si4 0.701982 0.327834 0.156839
Si Si5 0.115012 0.783161 0.471613
Si Si6 0.037286 0.061984 0.095228
Si Si7 0.099828 0.599907 0.678480
Si Si8 0.555882 0.823906 0.769847
O O1 0.322111 0.305586 0.213785
O O2 0.391849 0.457415 0.155337
O O3 0.410624 0.231952 0.125990
O O4 0.341911 0.340022 0.988562
O O5 0.009504 0.816066 0.642291
O O6 0.049390 0.637030 0.748558
O O7 0.237902 0.677504 0.848068
O O8 0.189300 0.470011 0.873548
O O9 0.146867 0.644405 0.757122
O O10 0.672929 0.238861 0.065676
O O11 0.091278 0.897312 0.541760
O O12 0.100550 0.668096 0.553032
O O13 0.085772 0.791213 0.348139
O O14 0.049030 0.966394 0.199316
O O15 0.000000 0.000000 0.000000
O O16 0.500000 0.772615 0.750000
#
# Coordination Sequence:
#
# PCOD9421458 Si02
#       8
#     8   4   8   8   8   8   8   8
#     4  10  22  36  55  89 121 156 195 239 299 368
#     4  10  22  36  54  84 116 150 194 244 298 354
#     4  10  20  35  59  86 124 155 200 232 293 376
#     4   9  20  35  58  85 117 158 191 247 296 345
#     4  10  20  38  59  86 120 146 203 258 290 357
#     4  11  20  37  61  84 109 156 207 248 294 355
#     4  10  22  36  55  90 121 158 191 240 307 358
#     4  11  22  38  58  87 118 160 201 241 304 351
#
# _framework density 18.264686999999999
#
# number of rings (size 3 to 8) (size 9 to 14) (size 15 to 20)
#    0.000    1.867    3.333    0.000    4.667    1.067 
#    0.000    1.333    0.000    0.800    0.000    0.000 
#    0.000    0.000    0.000    0.000    0.000    0.000 
#
# Total GULP energy -334331.735880 kJ/mol
# GULP energy per Si atom -5572.195598 kJ/mol
# Density = 1.822312 g / cm^3
# Si number density = 18.264687 Si / 1000 Ang^3
#
#
#
# Elastic Constant Matrix: (Units=GPa)
#
#
# Indices 1 2 3 4 5 6 
#
# 1 129.5318 38.6995 18.6879 0.0000 0.0000 0.0000
# 2 38.6995 44.7706 13.1372 0.0000 0.0000 0.0000
# 3 18.6879 13.1372 48.3390 0.0000 0.0000 0.0000
# 4 0.0000 0.0000 0.0000 23.9667 0.0000 0.0000
# 5 0.0000 0.0000 0.0000 0.0000 25.5827 0.0000
# 6 0.0000 0.0000 0.0000 0.0000 0.0000 24.8065
#
#
#
# Elastic Compliance Matrix: (Units=1/GPa)
#
#
# Indices 1 2 3 4 5 6 
#
# 1 0.010541 -0.008601 -0.001737 0.000000 0.000000 0.000000
# 2 -0.008601 0.031291 -0.005179 0.000000 0.000000 0.000000
# 3 -0.001737 -0.005179 0.022766 0.000000 0.000000 0.000000
# 4 0.000000 0.000000 0.000000 0.041725 0.000000 0.000000
# 5 0.000000 0.000000 0.000000 0.000000 0.039089 0.000000
# 6 0.000000 0.000000 0.000000 0.000000 0.000000 0.040312
#
#
# Mechanical properties :
#
#
# Convention : Reuss Voigt Hill
#
# Bulk Modulus (GPa) = 29.79497 40.41007 35.10252
# Shear Modulus (GPa) = 21.93507 25.01230 23.47369
#
# Velocity S-wave (km/s) = 3.46924 3.70460 3.58885
# Velocity P-wave (km/s) = 5.69173 6.36172 6.03603
#
# Compressibility (1/GPa) = 0.03356271
#
# Stress axis : x y z
#
# Youngs Moduli (GPa) = 94.87161 31.95839 43.92460
#
# Poissons Ratio (x) = 0.27489 0.07631
# Poissons Ratio (y) = 0.81603 0.22747
# Poissons Ratio (z) = 0.16483 0.16550
#
# Static dielectric constant tensor:
#      x y z
#    x 1.629250 0.000000 0.000000 
#    y 0.000000 1.627590 0.000000 
#    z 0.000000 0.000000 1.656130 
# 
# From -- ./inp_files/9602.got.cif
#   From: 2010.05.17/outbox.cif.g08.bks.cpg/sg54_5_cif.got.tgz:9602.got - 2010.06.03 13:09:01.
