data_PCOD9421720
_publ_section_title
;
Structure prediction by ZEFSAII (Michael W. Deem and Ramdas Pophale) SiO2 
 PCOD9421720
Probable space group: P C C A
;
_chemical_formula_sum "Si O2"
_cell_formula_units_Z 48
_cell_length_a 11.282606
_cell_length_b 10.875401
_cell_length_c 20.781874
_cell_angle_alpha 90.000000
_cell_angle_beta 90.000000
_cell_angle_gamma 90.000000
_cell_volume 2549.995471
_symmetry_space_group_name_H-M "P C C A"
_symmetry_group_IT_number 54
_symmetry_cell_setting 'orthorhombic'
loop_
_space_group_symop_operation_xyz
x,y,z
1/2-x,-y,z
1/2+x,-y,1/2-z
-x,y,1/2-z
-x,-y,-z
1/2+x,y,-z
1/2-x,y,1/2+z
x,-y,1/2+z
loop_
_atom_site_type_symbol
_atom_site_label
_atom_site_fract_x
_atom_site_fract_y
_atom_site_fract_z
Si Si1 0.619757 0.225567 0.944026
Si Si2 0.574352 0.822806 0.813893
Si Si3 0.750000 0.000000 0.377525
Si Si4 0.370949 0.837925 0.909292
Si Si5 0.210216 0.361063 0.174343
Si Si6 0.500000 0.224645 0.750000
Si Si7 0.106482 0.873610 0.878568
O O1 0.695444 0.107649 0.920164
O O2 0.672281 0.334740 0.900121
O O3 0.484457 0.201894 0.922822
O O4 0.628013 0.221702 0.020387
O O5 0.500000 0.841194 0.750000
O O6 0.479195 0.786227 0.867993
O O7 0.676746 0.722330 0.808408
O O8 0.645172 0.944596 0.834888
O O9 0.239806 0.822803 0.880616
O O10 0.391352 0.986655 0.905640
O O11 0.250000 0.500000 0.184672
O O12 0.100610 0.309593 0.216720
O O13 0.441672 0.142158 0.806121
#
# Coordination Sequence:
#
# PCOD9421720 Si02
#       7
#     8   8   4   8   8   4   8
#     4  10  21  38  61  89 126 166 207 252 321 371
#     4  11  24  37  59  92 124 160 208 254 318 377
#     4  10  20  38  56  90 130 164 194 262 310 386
#     4  11  22  34  62  93 129 164 202 247 311 394
#     4  10  24  44  67  86 122 170 216 272 309 358
#     4  10  22  44  62  90 128 168 214 256 324 376
#     4  10  21  35  59  93 130 167 197 251 317 383
#
# _framework density 18.823563
#
# number of rings (size 3 to 8) (size 9 to 14) (size 15 to 20)
#    0.000    1.667    1.667    2.500    7.000    1.333 
#    0.000    0.833    0.000    0.000    0.000    0.000 
#    0.000    0.000    0.000    0.000    0.000    0.000 
#
# Total GULP energy -268014.662707 kJ/mol
# GULP energy per Si atom -5583.638806 kJ/mol
# Density = 1.878072 g / cm^3
# Si number density = 18.823563 Si / 1000 Ang^3
#
#
#
# Elastic Constant Matrix: (Units=GPa)
#
#
# Indices 1 2 3 4 5 6 
#
# 1 151.4502 7.7502 50.6684 0.0000 0.0000 0.0000
# 2 7.7502 13.2236 1.8006 0.0000 0.0000 0.0000
# 3 50.6684 1.8006 127.2874 0.0000 0.0000 0.0000
# 4 0.0000 0.0000 0.0000 10.3199 0.0000 0.0000
# 5 0.0000 0.0000 0.0000 0.0000 9.6807 0.0000
# 6 0.0000 0.0000 0.0000 0.0000 0.0000 19.8576
#
#
#
# Elastic Compliance Matrix: (Units=1/GPa)
#
#
# Indices 1 2 3 4 5 6 
#
# 1 0.007841 -0.004179 -0.003062 0.000000 0.000000 0.000000
# 2 -0.004179 0.077995 0.000560 0.000000 0.000000 0.000000
# 3 -0.003062 0.000560 0.009067 0.000000 0.000000 0.000000
# 4 0.000000 0.000000 0.000000 0.096900 0.000000 0.000000
# 5 0.000000 0.000000 0.000000 0.000000 0.103298 0.000000
# 6 0.000000 0.000000 0.000000 0.000000 0.000000 0.050359
#
#
# Mechanical properties :
#
#
# Convention : Reuss Voigt Hill
#
# Bulk Modulus (GPa) = 12.26362 45.82216 29.04289
# Shear Modulus (GPa) = 12.95330 23.42112 18.18721
#
# Velocity S-wave (km/s) = 2.62609 3.53121 3.11174
# Velocity P-wave (km/s) = 3.96539 6.40482 5.32664
#
# Compressibility (1/GPa) = 0.08154201
#
# Stress axis : x y z
#
# Youngs Moduli (GPa) = 127.53280 12.82132 110.28714
#
# Poissons Ratio (x) = 0.05358 0.33772
# Poissons Ratio (y) = 0.53291 -0.06176
# Poissons Ratio (z) = 0.39052 -0.00718
#
# Static dielectric constant tensor:
#      x y z
#    x 1.655780 0.000000 0.000000 
#    y 0.000000 1.646830 0.000000 
#    z 0.000000 0.000000 1.701260 
# 
# From -- ./inp_files/17338.got.cif
#   From: 2010.05.17/outbox.cif.g08.bks.cpg/sg54_9_cif.got.tgz:17338.got - 2010.06.03 13:09:01.
