data_PCOD9421824
_publ_section_title
;
Structure prediction by ZEFSAII (Michael W. Deem and Ramdas Pophale) SiO2 
 PCOD9421824
Probable space group: P C C A
;
_chemical_formula_sum "Si O2"
_cell_formula_units_Z 48
_cell_length_a 11.127144
_cell_length_b 22.716797
_cell_length_c 9.278818
_cell_angle_alpha 90.000000
_cell_angle_beta 90.000000
_cell_angle_gamma 90.000000
_cell_volume 2345.435325
_symmetry_space_group_name_H-M "P C C A"
_symmetry_group_IT_number 54
_symmetry_cell_setting 'orthorhombic'
loop_
_space_group_symop_operation_xyz
x,y,z
1/2-x,-y,z
1/2+x,-y,1/2-z
-x,y,1/2-z
-x,-y,-z
1/2+x,y,-z
1/2-x,y,1/2+z
x,-y,1/2+z
loop_
_atom_site_type_symbol
_atom_site_label
_atom_site_fract_x
_atom_site_fract_y
_atom_site_fract_z
Si Si1 0.750000 0.000000 0.369970
Si Si2 0.500000 0.046490 0.250000
Si Si3 0.862760 0.573764 0.296173
Si Si4 0.208486 0.774978 0.935211
Si Si5 0.861790 0.889166 0.004254
Si Si6 0.858743 0.292613 0.782934
Si Si7 0.750000 0.500000 0.543853
Si Si8 0.000000 0.172996 0.250000
O O1 0.622880 0.010585 0.286558
O O2 0.772741 0.057639 0.465653
O O3 0.461180 0.086772 0.384925
O O4 0.827774 0.640958 0.329879
O O5 0.841153 0.531481 0.432820
O O6 0.000000 0.573572 0.250000
O O7 0.795744 0.549413 0.154654
O O8 0.285587 0.724686 0.858668
O O9 0.088883 0.787549 0.844864
O O10 0.287020 0.834445 0.934502
O O11 0.176027 0.754319 0.094979
O O12 0.924241 0.866871 0.858944
O O13 0.000000 0.289102 0.750000
#
# Coordination Sequence:
#
# PCOD9421824 Si02
#       8
#     4   4   8   8   8   8   4   4
#     4  12  26  48  70 108 136 178 230 290 352 426
#     4  12  27  46  76 100 138 178 225 290 356 422
#     4  10  21  39  64  98 133 181 223 277 329 392
#     4  12  25  46  67  99 131 180 227 281 342 410
#     4  12  26  46  70 100 134 175 226 282 347 414
#     4  11  25  43  69  97 140 179 231 280 338 401
#     4  10  20  38  66  96 140 174 226 272 332 388
#     4  12  25  44  68  96 130 172 221 276 344 410
#
# _framework density 20.465285999999999
#
# number of rings (size 3 to 8) (size 9 to 14) (size 15 to 20)
#    0.000    0.667    1.667    6.000    3.500    0.000 
#    0.000    0.000    3.667    0.000    0.000    0.000 
#    0.000    0.000    0.000    0.000    0.000    0.000 
#
# Total GULP energy -268412.742272 kJ/mol
# GULP energy per Si atom -5591.932131 kJ/mol
# Density = 2.041871 g / cm^3
# Si number density = 20.465286 Si / 1000 Ang^3
#
#
#
# Elastic Constant Matrix: (Units=GPa)
#
#
# Indices 1 2 3 4 5 6 
#
# 1 88.7698 29.8321 23.4438 0.0000 0.0000 0.0000
# 2 29.8321 74.7814 6.1234 0.0000 0.0000 0.0000
# 3 23.4438 6.1234 81.8978 0.0000 0.0000 0.0000
# 4 0.0000 0.0000 0.0000 33.9533 0.0000 0.0000
# 5 0.0000 0.0000 0.0000 0.0000 35.1203 0.0000
# 6 0.0000 0.0000 0.0000 0.0000 0.0000 24.5443
#
#
#
# Elastic Compliance Matrix: (Units=1/GPa)
#
#
# Indices 1 2 3 4 5 6 
#
# 1 0.013996 -0.005288 -0.003611 0.000000 0.000000 0.000000
# 2 -0.005288 0.015452 0.000358 0.000000 0.000000 0.000000
# 3 -0.003611 0.000358 0.013217 0.000000 0.000000 0.000000
# 4 0.000000 0.000000 0.000000 0.029452 0.000000 0.000000
# 5 0.000000 0.000000 0.000000 0.000000 0.028474 0.000000
# 6 0.000000 0.000000 0.000000 0.000000 0.000000 0.040743
#
#
# Mechanical properties :
#
#
# Convention : Reuss Voigt Hill
#
# Bulk Modulus (GPa) = 39.08604 40.47198 39.77901
# Shear Modulus (GPa) = 29.95046 31.12691 30.53868
#
# Velocity S-wave (km/s) = 3.82969 3.90418 3.86712
# Velocity P-wave (km/s) = 6.22057 6.33580 6.27845
#
# Compressibility (1/GPa) = 0.02558459
#
# Stress axis : x y z
#
# Youngs Moduli (GPa) = 71.45063 64.71532 75.65886
#
# Poissons Ratio (x) = 0.34218 0.27320
# Poissons Ratio (y) = 0.37780 -0.02710
# Poissons Ratio (z) = 0.25801 -0.02318
#
# Static dielectric constant tensor:
#      x y z
#    x 1.751900 0.000000 0.000000 
#    y 0.000000 1.718970 0.000000 
#    z 0.000000 0.000000 1.714880 
# 
# From -- ./inp_files/3051.got.cif
#   From: 2010.05.17/outbox.cif.g08.bks.cpg/sg54_2_cif.got.tgz:3051.got - 2010.06.03 13:09:01.
