data_PCOD9421012
_publ_section_title
;
Structure prediction by ZEFSAII (Michael W. Deem and Ramdas Pophale) SiO2 
 PCOD9421012
Probable space group: P C C A
;
_chemical_formula_sum "Si O2"
_cell_formula_units_Z 64
_cell_length_a 18.670963
_cell_length_b 9.791235
_cell_length_c 19.879895
_cell_angle_alpha 90.000000
_cell_angle_beta 90.000000
_cell_angle_gamma 90.000000
_cell_volume 3634.279119
_symmetry_space_group_name_H-M "P C C A"
_symmetry_group_IT_number 54
_symmetry_cell_setting 'orthorhombic'
loop_
_space_group_symop_operation_xyz
x,y,z
1/2-x,-y,z
1/2+x,-y,1/2-z
-x,y,1/2-z
-x,-y,-z
1/2+x,y,-z
1/2-x,y,1/2+z
x,-y,1/2+z
loop_
_atom_site_type_symbol
_atom_site_label
_atom_site_fract_x
_atom_site_fract_y
_atom_site_fract_z
Si Si1 0.082167 0.326352 0.401875
Si Si2 0.354034 0.233640 0.543849
Si Si3 0.603022 0.735544 0.878079
Si Si4 0.920695 0.791503 0.744280
Si Si5 0.064801 0.438159 0.142808
Si Si6 0.789668 0.643874 0.496434
Si Si7 0.334369 0.983582 0.162706
Si Si8 0.002908 0.840609 0.485769
O O1 0.096718 0.252542 0.331197
O O2 0.155754 0.365945 0.440010
O O3 0.041466 0.226959 0.453406
O O4 0.017392 0.432865 0.384829
O O5 0.382533 0.364718 0.587779
O O6 0.278020 0.253445 0.507728
O O7 0.352647 0.105299 0.595528
O O8 0.415946 0.208296 0.490323
O O9 0.585402 0.593404 0.842032
O O10 0.632522 0.865337 0.838460
O O11 0.661167 0.690602 0.934231
O O12 0.534481 0.791664 0.918167
O O13 0.927476 0.658208 0.792218
O O14 0.864481 0.893983 0.776450
O O15 0.000000 0.856166 0.750000
O O16 0.750000 0.500000 0.487645
O O17 0.250000 0.000000 0.165647
O O18 0.000000 0.000000 0.500000
#
# Coordination Sequence:
#
# PCOD9421012 Si02
#       8
#     8   8   8   8   8   8   8   8
#     4   9  21  38  59  79 114 156 194 229 290 355
#     4  10  19  34  54  83 116 154 181 224 296 347
#     4  11  21  33  57  94 116 141 193 247 285 333
#     4   9  20  42  64  75 109 163 199 230 286 347
#     4   9  19  36  60  83 106 149 199 239 273 338
#     4  11  21  33  56  88 123 149 182 238 300 349
#     4  11  21  36  60  87 116 150 196 239 282 344
#     4  10  20  33  57  87 118 145 187 235 291 348
#
# _framework density 17.610095999999999
#
# number of rings (size 3 to 8) (size 9 to 14) (size 15 to 20)
#    0.000    2.000    3.750    0.750    1.750    1.500 
#    0.000    4.375    0.000    0.000    0.000    0.000 
#    0.000    0.000    0.000    0.000    0.000    0.000 
#
# Total GULP energy -356570.669765 kJ/mol
# GULP energy per Si atom -5571.416715 kJ/mol
# Density = 1.757001 g / cm^3
# Si number density = 17.610096 Si / 1000 Ang^3
#
#
#
# Elastic Constant Matrix: (Units=GPa)
#
#
# Indices 1 2 3 4 5 6 
#
# 1 100.8758 18.2373 20.0458 0.0000 0.0000 0.0000
# 2 18.2373 94.8208 -0.5131 0.0000 0.0000 0.0000
# 3 20.0458 -0.5131 33.7305 0.0000 0.0000 0.0000
# 4 0.0000 0.0000 0.0000 7.0198 0.0000 0.0000
# 5 0.0000 0.0000 0.0000 0.0000 17.7816 0.0000
# 6 0.0000 0.0000 0.0000 0.0000 0.0000 25.6191
#
#
#
# Elastic Compliance Matrix: (Units=1/GPa)
#
#
# Indices 1 2 3 4 5 6 
#
# 1 0.011718 -0.002292 -0.006999 0.000000 0.000000 0.000000
# 2 -0.002292 0.010995 0.001529 0.000000 0.000000 0.000000
# 3 -0.006999 0.001529 0.033829 0.000000 0.000000 0.000000
# 4 0.000000 0.000000 0.000000 0.142455 0.000000 0.000000
# 5 0.000000 0.000000 0.000000 0.000000 0.056238 0.000000
# 6 0.000000 0.000000 0.000000 0.000000 0.000000 0.039033
#
#
# Mechanical properties :
#
#
# Convention : Reuss Voigt Hill
#
# Bulk Modulus (GPa) = 24.37834 33.88525 29.13180
# Shear Modulus (GPa) = 15.45759 22.86122 19.15941
#
# Velocity S-wave (km/s) = 2.96593 3.60695 3.30203
# Velocity P-wave (km/s) = 5.05988 6.05231 5.57821
#
# Compressibility (1/GPa) = 0.04102001
#
# Stress axis : x y z
#
# Youngs Moduli (GPa) = 85.33651 90.94834 29.56007
#
# Poissons Ratio (x) = 0.20843 0.20689
# Poissons Ratio (y) = 0.19557 -0.04520
# Poissons Ratio (z) = 0.59727 -0.13908
#
# Static dielectric constant tensor:
#      x y z
#    x 1.630490 0.000000 0.000000 
#    y 0.000000 1.612350 0.000000 
#    z 0.000000 0.000000 1.556070 
# 
# From -- ./inp_files/24656.got.cif
#   From: 2010.05.17/outbox.cif.g08.bks.cpg/sg54_13_cif.got.tgz:24656.got - 2010.06.03 13:09:01.
