data_PCOD9421509
_publ_section_title
;
Structure prediction by ZEFSAII (Michael W. Deem and Ramdas Pophale) SiO2 
 PCOD9421509
Probable space group: P C C A
;
_chemical_formula_sum "Si O2"
_cell_formula_units_Z 56
_cell_length_a 7.957988
_cell_length_b 22.055204
_cell_length_c 14.134306
_cell_angle_alpha 90.000000
_cell_angle_beta 90.000000
_cell_angle_gamma 90.000000
_cell_volume 2480.783407
_symmetry_space_group_name_H-M "P C C A"
_symmetry_group_IT_number 54
_symmetry_cell_setting 'orthorhombic'
loop_
_space_group_symop_operation_xyz
x,y,z
1/2-x,-y,z
1/2+x,-y,1/2-z
-x,y,1/2-z
-x,-y,-z
1/2+x,y,-z
1/2-x,y,1/2+z
x,-y,1/2+z
loop_
_atom_site_type_symbol
_atom_site_label
_atom_site_fract_x
_atom_site_fract_y
_atom_site_fract_z
Si Si1 0.531069 0.428120 0.982799
Si Si2 0.300769 0.068785 0.239646
Si Si3 0.837663 0.619406 0.361400
Si Si4 0.782052 0.838394 0.408860
Si Si5 0.819405 0.177559 0.624480
Si Si6 0.169327 0.437963 0.311374
Si Si7 0.818303 0.736310 0.779454
O O1 0.705364 0.414440 0.930838
O O2 0.399278 0.404249 0.903298
O O3 0.500000 0.500000 0.000000
O O4 0.506414 0.392505 0.080670
O O5 0.500000 0.069025 0.250000
O O6 0.250705 0.095243 0.136555
O O7 0.249156 0.119719 0.316302
O O8 0.250000 0.000000 0.255806
O O9 0.803290 0.589954 0.259986
O O10 0.789580 0.688172 0.338777
O O11 0.751282 0.828337 0.518954
O O12 0.663413 0.792839 0.350360
O O13 0.977126 0.824420 0.382757
O O14 0.768661 0.236633 0.685461
O O15 0.250000 0.500000 0.345391
O O16 0.000000 0.449944 0.250000
O O17 0.000000 0.710309 0.750000
#
# Coordination Sequence:
#
# PCOD9421509 Si02
#       7
#     8   8   8   8   8   8   8
#     4  11  22  41  64  88 119 154 198 248 307 378
#     4   9  20  37  59  91 131 169 217 271 319 378
#     4  11  24  40  61  89 120 157 199 251 310 374
#     4  10  22  41  65  91 126 173 217 264 328 389
#     4  10  22  42  63  91 126 170 217 265 324 388
#     4  10  20  36  57  82 113 146 184 234 292 355
#     4  11  23  41  62  88 124 163 209 267 322 382
#
# _framework density 22.573512999999998
#
# number of rings (size 3 to 8) (size 9 to 14) (size 15 to 20)
#    0.000    1.714    0.000    6.429    0.000    7.429 
#    0.000   10.000    0.000    0.000    0.000    0.000 
#    0.000    0.000    0.000    0.000    0.000    0.000 
#
# Total GULP energy -312835.629283 kJ/mol
# GULP energy per Si atom -5586.350523 kJ/mol
# Density = 2.252213 g / cm^3
# Si number density = 22.573513 Si / 1000 Ang^3
#
#
#
# Elastic Constant Matrix: (Units=GPa)
#
#
# Indices 1 2 3 4 5 6 
#
# 1 45.4408 1.3740 30.1430 0.0000 0.0000 0.0000
# 2 1.3740 91.4613 21.3744 0.0000 0.0000 0.0000
# 3 30.1430 21.3744 155.3309 0.0000 0.0000 0.0000
# 4 0.0000 0.0000 0.0000 11.9029 0.0000 0.0000
# 5 0.0000 0.0000 0.0000 0.0000 50.7517 0.0000
# 6 0.0000 0.0000 0.0000 0.0000 0.0000 25.0225
#
#
#
# Elastic Compliance Matrix: (Units=1/GPa)
#
#
# Indices 1 2 3 4 5 6 
#
# 1 0.025314 0.000793 -0.005021 0.000000 0.000000 0.000000
# 2 0.000793 0.011322 -0.001712 0.000000 0.000000 0.000000
# 3 -0.005021 -0.001712 0.007648 0.000000 0.000000 0.000000
# 4 0.000000 0.000000 0.000000 0.084013 0.000000 0.000000
# 5 0.000000 0.000000 0.000000 0.000000 0.019704 0.000000
# 6 0.000000 0.000000 0.000000 0.000000 0.000000 0.039964
#
#
# Mechanical properties :
#
#
# Convention : Reuss Voigt Hill
#
# Bulk Modulus (GPa) = 30.86122 44.22396 37.54259
# Shear Modulus (GPa) = 23.73660 33.49154 28.61407
#
# Velocity S-wave (km/s) = 3.24624 3.85602 3.56419
# Velocity P-wave (km/s) = 5.26800 6.28162 5.79701
#
# Compressibility (1/GPa) = 0.03240312
#
# Stress axis : x y z
#
# Youngs Moduli (GPa) = 39.50437 88.32567 130.75522
#
# Poissons Ratio (x) = -0.07006 0.65658
# Poissons Ratio (y) = -0.03134 0.22384
# Poissons Ratio (z) = 0.19837 0.15120
#
# Static dielectric constant tensor:
#      x y z
#    x 1.925830 0.000000 0.000000 
#    y 0.000000 1.889070 0.000000 
#    z 0.000000 0.000000 1.832480 
# 
# From -- ./inp_files/11883.got.cif
#   From: 2010.05.17/outbox.cif.g08.bks.cpg/sg54_6_cif.got.tgz:11883.got - 2010.06.03 13:09:01.
