data_PCOD9421045
_publ_section_title
;
Structure prediction by ZEFSAII (Michael W. Deem and Ramdas Pophale) SiO2 
 PCOD9421045
Probable space group: P C C A
;
_chemical_formula_sum "Si O2"
_cell_formula_units_Z 32
_cell_length_a 5.317499
_cell_length_b 8.324630
_cell_length_c 29.373811
_cell_angle_alpha 90.000000
_cell_angle_beta 90.000000
_cell_angle_gamma 90.000000
_cell_volume 1300.267336
_symmetry_space_group_name_H-M "P C C A"
_symmetry_group_IT_number 54
_symmetry_cell_setting 'orthorhombic'
loop_
_space_group_symop_operation_xyz
x,y,z
1/2-x,-y,z
1/2+x,-y,1/2-z
-x,y,1/2-z
-x,-y,-z
1/2+x,y,-z
1/2-x,y,1/2+z
x,-y,1/2+z
loop_
_atom_site_type_symbol
_atom_site_label
_atom_site_fract_x
_atom_site_fract_y
_atom_site_fract_z
Si Si1 0.499686 0.393802 0.160627
Si Si2 0.339008 0.177917 0.613063
Si Si3 0.198241 0.817252 0.715333
Si Si4 0.474316 0.186481 0.980724
O O1 0.250000 0.500000 0.169542
O O2 0.095318 0.705776 0.116348
O O3 0.036002 0.733516 0.201775
O O4 0.750000 0.500000 0.157966
O O5 0.435691 0.175691 0.665030
O O6 0.535578 0.209069 0.573485
O O7 0.250000 0.000000 0.602313
O O8 0.000000 0.739987 0.750000
O O9 0.250000 0.000000 0.729118
O O10 0.735611 0.260755 0.995823
O O11 0.500000 0.000000 0.000000
#
# Coordination Sequence:
#
# PCOD9421045 Si02
#       4
#     8   8   8   8
#     4  10  23  44  68  98 138 192 235 283 365 450
#     4   9  19  41  67 104 136 188 238 313 354 434
#     4   9  21  43  68 107 143 178 245 310 371 431
#     4  10  19  34  59 101 136 175 237 299 361 431
#
# _framework density 24.610326000000001
#
# number of rings (size 3 to 8) (size 9 to 14) (size 15 to 20)
#    1.500    1.000    2.500    0.000    0.000    4.000 
#    4.500    2.500    0.000    4.500    0.000    0.000 
#    0.000    0.000    0.000    0.000    0.000    0.250 
#
# Total GULP energy -178165.976403 kJ/mol
# GULP energy per Si atom -5567.686763 kJ/mol
# Density = 2.455431 g / cm^3
# Si number density = 24.610326 Si / 1000 Ang^3
#
#
#
# Elastic Constant Matrix: (Units=GPa)
#
#
# Indices 1 2 3 4 5 6 
#
# 1 143.6236 35.3569 27.4733 0.0000 0.0000 0.0000
# 2 35.3569 91.7101 -29.3615 0.0000 0.0000 0.0000
# 3 27.4733 -29.3615 114.6921 0.0000 0.0000 0.0000
# 4 0.0000 0.0000 0.0000 -14.9536 0.0000 0.0000
# 5 0.0000 0.0000 0.0000 0.0000 105.8167 0.0000
# 6 0.0000 0.0000 0.0000 0.0000 0.0000 29.7714
#
#
#
# Elastic Compliance Matrix: (Units=1/GPa)
#
#
# Indices 1 2 3 4 5 6 
#
# 1 0.008643 -0.004352 -0.003184 0.000000 0.000000 0.000000
# 2 -0.004352 0.014068 0.004644 0.000000 0.000000 0.000000
# 3 -0.003184 0.004644 0.010671 0.000000 0.000000 0.000000
# 4 0.000000 0.000000 0.000000 -0.066873 0.000000 0.000000
# 5 0.000000 0.000000 0.000000 0.000000 0.009450 0.000000
# 6 0.000000 0.000000 0.000000 0.000000 0.000000 0.033589
#
#
# Mechanical properties :
#
#
# Convention : Reuss Voigt Hill
#
# Bulk Modulus (GPa) = 36.23463 46.32923 41.28193
# Shear Modulus (GPa) = 203.81828 45.23072 124.52450
#
# Velocity S-wave (km/s) = 9.11032 4.29170 7.12098
# Velocity P-wave (km/s) = 11.19908 6.58970 9.18813
#
# Compressibility (1/GPa) = 0.02759791
#
# Stress axis : x y z
#
# Youngs Moduli (GPa) = 115.69990 71.08138 93.71505
#
# Poissons Ratio (x) = 0.30932 0.29842
# Poissons Ratio (y) = 0.50348 -0.43521
# Poissons Ratio (z) = 0.36843 -0.33010
#
# Static dielectric constant tensor:
#      x y z
#    x 2.025180 0.000000 0.000000 
#    y 0.000000 2.078010 0.000000 
#    z 0.000000 0.000000 2.021600 
# 
# From -- ./inp_files/26832.got.cif
#   From: 2010.05.17/outbox.cif.g08.bks.cpg/sg54_14_cif.got.tgz:26832.got - 2010.06.03 13:09:01.
