data_PCOD9421963
_publ_section_title
;
Structure prediction by ZEFSAII (Michael W. Deem and Ramdas Pophale) SiO2 
 PCOD9421963
Probable space group: P C C A
;
_chemical_formula_sum "Si O2"
_cell_formula_units_Z 56
_cell_length_a 15.884030
_cell_length_b 11.243705
_cell_length_c 15.404883
_cell_angle_alpha 90.000000
_cell_angle_beta 90.000000
_cell_angle_gamma 90.000000
_cell_volume 2751.240433
_symmetry_space_group_name_H-M "P C C A"
_symmetry_group_IT_number 54
_symmetry_cell_setting 'orthorhombic'
loop_
_space_group_symop_operation_xyz
x,y,z
1/2-x,-y,z
1/2+x,-y,1/2-z
-x,y,1/2-z
-x,-y,-z
1/2+x,y,-z
1/2-x,y,1/2+z
x,-y,1/2+z
loop_
_atom_site_type_symbol
_atom_site_label
_atom_site_fract_x
_atom_site_fract_y
_atom_site_fract_z
Si Si1 0.661120 0.065056 0.873836
Si Si2 0.855110 0.787716 0.051719
Si Si3 0.434350 0.608901 0.065020
Si Si4 0.412502 0.659770 0.532768
Si Si5 0.716788 0.635404 0.110839
Si Si6 0.977583 0.864121 0.351851
Si Si7 0.599947 0.272059 0.761075
O O1 0.645103 0.152457 0.792940
O O2 0.750000 0.000000 0.863557
O O3 0.579982 0.977861 0.873855
O O4 0.665376 0.136183 0.965634
O O5 0.781723 0.746669 0.116172
O O6 0.933108 0.851771 0.098511
O O7 0.879924 0.656731 0.014922
O O8 0.442425 0.468418 0.065876
O O9 0.394392 0.644471 0.154879
O O10 0.520081 0.681417 0.044957
O O11 0.323660 0.648269 0.485595
O O12 0.423308 0.754603 0.608399
O O13 0.750000 0.500000 0.122885
O O14 0.645860 0.663733 0.182192
O O15 0.000000 0.857210 0.250000
O O16 0.500000 0.250320 0.750000
#
# Coordination Sequence:
#
# PCOD9421963 Si02
#       7
#     8   8   8   8   8   8   8
#     4  11  25  49  68  97 134 183 239 289 342 404
#     4  10  23  44  68  99 134 181 232 282 352 416
#     4   9  19  40  65  94 130 182 223 272 346 412
#     4  10  20  40  68  94 140 178 221 279 337 423
#     4  12  24  43  70 109 145 178 232 292 354 425
#     4  11  25  44  70 102 138 182 235 285 342 417
#     4  11  24  44  71  99 138 181 227 285 354 413
#
# _framework density 20.354457
#
# number of rings (size 3 to 8) (size 9 to 14) (size 15 to 20)
#    0.000    1.429    2.857    1.714    2.000    1.714 
#   12.857    0.000    0.000    0.000    0.000    0.000 
#    0.000    0.000    0.000    0.000    0.000    0.000 
#
# Total GULP energy -312101.031071 kJ/mol
# GULP energy per Si atom -5573.232698 kJ/mol
# Density = 2.030813 g / cm^3
# Si number density = 20.354457 Si / 1000 Ang^3
#
#
#
# Elastic Constant Matrix: (Units=GPa)
#
#
# Indices 1 2 3 4 5 6 
#
# 1 106.3083 34.4378 36.9419 0.0000 0.0000 0.0000
# 2 34.4378 99.1307 35.7067 0.0000 0.0000 0.0000
# 3 36.9419 35.7067 91.2075 0.0000 0.0000 0.0000
# 4 0.0000 0.0000 0.0000 15.3599 0.0000 0.0000
# 5 0.0000 0.0000 0.0000 0.0000 5.5442 0.0000
# 6 0.0000 0.0000 0.0000 0.0000 0.0000 33.3618
#
#
#
# Elastic Compliance Matrix: (Units=1/GPa)
#
#
# Indices 1 2 3 4 5 6 
#
# 1 0.011539 -0.002707 -0.003614 0.000000 0.000000 0.000000
# 2 -0.002707 0.012379 -0.003750 0.000000 0.000000 0.000000
# 3 -0.003614 -0.003750 0.013896 0.000000 0.000000 0.000000
# 4 0.000000 0.000000 0.000000 0.065104 0.000000 0.000000
# 5 0.000000 0.000000 0.000000 0.000000 0.180370 0.000000
# 6 0.000000 0.000000 0.000000 0.000000 0.000000 0.029974
#
#
# Mechanical properties :
#
#
# Convention : Reuss Voigt Hill
#
# Bulk Modulus (GPa) = 56.58546 56.75770 56.67158
# Shear Modulus (GPa) = 14.73645 23.49053 19.11349
#
# Velocity S-wave (km/s) = 2.69363 3.40085 3.06769
# Velocity P-wave (km/s) = 6.12655 6.58530 6.36006
#
# Compressibility (1/GPa) = 0.01767239
#
# Stress axis : x y z
#
# Youngs Moduli (GPa) = 86.65968 80.78372 71.96422
#
# Poissons Ratio (x) = 0.21868 0.26008
# Poissons Ratio (y) = 0.23459 0.26985
# Poissons Ratio (z) = 0.31319 0.30292
#
# Static dielectric constant tensor:
#      x y z
#    x 1.851120 0.000000 0.000000 
#    y 0.000000 1.726660 0.000000 
#    z 0.000000 0.000000 1.719520 
# 
# From -- ./inp_files/13478.got.cif
#   From: 2010.05.17/outbox.cif.g08.bks.cpg/sg54_7_cif.got.tgz:13478.got - 2010.06.03 13:09:01.
