data_PCOD9421577
_publ_section_title
;
Structure prediction by ZEFSAII (Michael W. Deem and Ramdas Pophale) SiO2 
 PCOD9421577
Probable space group: P C C A
;
_chemical_formula_sum "Si O2"
_cell_formula_units_Z 56
_cell_length_a 7.440850
_cell_length_b 15.102537
_cell_length_c 18.782347
_cell_angle_alpha 90.000000
_cell_angle_beta 90.000000
_cell_angle_gamma 90.000000
_cell_volume 2110.679625
_symmetry_space_group_name_H-M "P C C A"
_symmetry_group_IT_number 54
_symmetry_cell_setting 'orthorhombic'
loop_
_space_group_symop_operation_xyz
x,y,z
1/2-x,-y,z
1/2+x,-y,1/2-z
-x,y,1/2-z
-x,-y,-z
1/2+x,y,-z
1/2-x,y,1/2+z
x,-y,1/2+z
loop_
_atom_site_type_symbol
_atom_site_label
_atom_site_fract_x
_atom_site_fract_y
_atom_site_fract_z
Si Si1 0.535323 0.252300 0.574588
Si Si2 0.529141 0.552628 0.426796
Si Si3 0.570305 0.793716 0.584968
Si Si4 0.535928 0.009694 0.084171
Si Si5 0.312752 0.728757 0.213423
Si Si6 0.325903 0.090900 0.704619
Si Si7 0.904876 0.611259 0.358988
O O1 0.582621 0.357070 0.570183
O O2 0.716141 0.203112 0.596304
O O3 0.465685 0.218251 0.499365
O O4 0.382266 0.246369 0.633692
O O5 0.500000 0.500000 0.500000
O O6 0.732089 0.588614 0.410820
O O7 0.488282 0.479821 0.366008
O O8 0.487988 0.888689 0.605870
O O9 0.501622 0.701198 0.617266
O O10 0.750000 0.000000 0.095292
O O11 0.411653 0.942149 0.128745
O O12 0.500000 0.000000 0.000000
O O13 0.500000 0.705951 0.250000
O O14 0.214296 0.821256 0.227697
O O15 0.189682 0.642619 0.213442
O O16 0.500000 0.114078 0.750000
O O17 0.250000 0.000000 0.734716
#
# Coordination Sequence:
#
# PCOD9421577 Si02
#       7
#     8   8   8   8   8   8   8
#     4  11  23  38  62  94 127 166 210 264 329 388
#     4  10  20  36  60  96 125 156 198 259 323 379
#     4  12  23  38  62  94 130 163 211 267 334 394
#     4  12  25  41  60  90 132 175 218 273 337 396
#     4  10  22  43  64  87 125 175 217 263 320 385
#     4  11  23  41  66  93 125 169 225 278 330 392
#     4  10  22  37  62  94 126 163 205 261 320 386
#
# _framework density 26.531739000000002
#
# number of rings (size 3 to 8) (size 9 to 14) (size 15 to 20)
#    0.000    1.143    1.429    6.000    2.000    1.714 
#    0.000    0.714    0.000   20.571    0.000    0.000 
#    0.000    0.000    0.000    0.000    0.000    0.000 
#
# Total GULP energy -312859.252944 kJ/mol
# GULP energy per Si atom -5586.772374 kJ/mol
# Density = 2.647135 g / cm^3
# Si number density = 26.531739 Si / 1000 Ang^3
#
#
#
# Elastic Constant Matrix: (Units=GPa)
#
#
# Indices 1 2 3 4 5 6 
#
# 1 86.6359 11.2727 -6.5694 0.0000 0.0000 0.0000
# 2 11.2727 177.6215 -1.5890 0.0000 0.0000 0.0000
# 3 -6.5694 -1.5890 39.4585 0.0000 0.0000 0.0000
# 4 0.0000 0.0000 0.0000 -2.4402 0.0000 0.0000
# 5 0.0000 0.0000 0.0000 0.0000 26.1475 0.0000
# 6 0.0000 0.0000 0.0000 0.0000 0.0000 40.1821
#
#
#
# Elastic Compliance Matrix: (Units=1/GPa)
#
#
# Indices 1 2 3 4 5 6 
#
# 1 0.011784 -0.000731 0.001933 0.000000 0.000000 0.000000
# 2 -0.000731 0.005677 0.000107 0.000000 0.000000 0.000000
# 3 0.001933 0.000107 0.025669 0.000000 0.000000 0.000000
# 4 0.000000 0.000000 0.000000 -0.409805 0.000000 0.000000
# 5 0.000000 0.000000 0.000000 0.000000 0.038245 0.000000
# 6 0.000000 0.000000 0.000000 0.000000 0.000000 0.024887
#
#
# Mechanical properties :
#
#
# Convention : Reuss Voigt Hill
#
# Bulk Modulus (GPa) = 21.85871 34.43829 28.14850
# Shear Modulus (GPa) = -17.18737 32.81800 7.81532
#
# Velocity S-wave (km/s) = -2.54796 3.52082 1.71815
# Velocity P-wave (km/s) = 0.63210 5.43475 3.81686
#
# Compressibility (1/GPa) = 0.04574836
#
# Stress axis : x y z
#
# Youngs Moduli (GPa) = 84.85972 176.14087 38.95733
#
# Poissons Ratio (x) = 0.12869 -0.07529
# Poissons Ratio (y) = 0.06200 -0.00417
# Poissons Ratio (z) = -0.16399 -0.01884
#
# Static dielectric constant tensor:
#      x y z
#    x 2.143890 0.000000 0.000000 
#    y 0.000000 2.305990 0.000000 
#    z 0.000000 0.000000 2.211990 
# 
# From -- ./inp_files/20555.got.cif
#   From: 2010.05.17/outbox.cif.g08.bks.cpg/sg54_11_cif.got.tgz:20555.got - 2010.06.03 13:09:01.
