data_PCOD9421940
_publ_section_title
;
Structure prediction by ZEFSAII (Michael W. Deem and Ramdas Pophale) SiO2 
 PCOD9421940
Probable space group: P C C A
;
_chemical_formula_sum "Si O2"
_cell_formula_units_Z 40
_cell_length_a 8.149213
_cell_length_b 11.471405
_cell_length_c 22.753558
_cell_angle_alpha 90.000000
_cell_angle_beta 90.000000
_cell_angle_gamma 90.000000
_cell_volume 2127.069105
_symmetry_space_group_name_H-M "P C C A"
_symmetry_group_IT_number 54
_symmetry_cell_setting 'orthorhombic'
loop_
_space_group_symop_operation_xyz
x,y,z
1/2-x,-y,z
1/2+x,-y,1/2-z
-x,y,1/2-z
-x,-y,-z
1/2+x,y,-z
1/2-x,y,1/2+z
x,-y,1/2+z
loop_
_atom_site_type_symbol
_atom_site_label
_atom_site_fract_x
_atom_site_fract_y
_atom_site_fract_z
Si Si1 0.073678 0.438370 0.815638
Si Si2 0.250000 0.000000 0.383542
Si Si3 0.716863 0.239620 0.422177
Si Si4 0.750000 0.500000 0.388732
Si Si5 0.515357 0.175180 0.179746
Si Si6 0.962532 0.874165 0.527221
O O1 0.250000 0.500000 0.820469
O O2 0.099787 0.301628 0.830499
O O3 0.000000 0.442973 0.750000
O O4 0.922824 0.492163 0.853082
O O5 0.112612 0.935479 0.345220
O O6 0.321162 0.899334 0.425700
O O7 0.749792 0.377191 0.421866
O O8 0.648865 0.194025 0.359359
O O9 0.588777 0.207513 0.473417
O O10 0.880878 0.172945 0.439220
O O11 0.500000 0.162490 0.250000
O O12 0.000000 0.000000 0.500000
#
# Coordination Sequence:
#
# PCOD9421940 Si02
#       6
#     8   4   8   4   8   8
#     4  10  20  40  64  90 129 177 219 259 317 398
#     4  12  24  40  64  94 122 172 216 256 328 378
#     4  11  23  43  65  94 128 166 220 266 325 390
#     4  10  24  40  62 100 132 170 214 276 336 384
#     4  10  24  42  61  96 135 160 210 268 322 396
#     4  12  22  41  68  88 120 172 218 268 309 379
#
# _framework density 18.805219999999998
#
# number of rings (size 3 to 8) (size 9 to 14) (size 15 to 20)
#    0.000    1.200    5.000    0.000    2.800    2.400 
#    0.000    1.000    0.000    0.000    0.000    0.000 
#    0.000    0.000    0.000    0.000    0.000    0.000 
#
# Total GULP energy -223114.518025 kJ/mol
# GULP energy per Si atom -5577.862951 kJ/mol
# Density = 1.876242 g / cm^3
# Si number density = 18.805220 Si / 1000 Ang^3
#
#
#
# Elastic Constant Matrix: (Units=GPa)
#
#
# Indices 1 2 3 4 5 6 
#
# 1 95.8883 38.8905 38.3882 0.0000 0.0000 0.0000
# 2 38.8905 125.1742 50.5282 0.0000 0.0000 0.0000
# 3 38.3882 50.5282 108.9773 0.0000 0.0000 0.0000
# 4 0.0000 0.0000 0.0000 18.9954 0.0000 0.0000
# 5 0.0000 0.0000 0.0000 0.0000 27.5821 0.0000
# 6 0.0000 0.0000 0.0000 0.0000 0.0000 38.4529
#
#
#
# Elastic Compliance Matrix: (Units=1/GPa)
#
#
# Indices 1 2 3 4 5 6 
#
# 1 0.012822 -0.002658 -0.003284 0.000000 0.000000 0.000000
# 2 -0.002658 0.010379 -0.003876 0.000000 0.000000 0.000000
# 3 -0.003284 -0.003876 0.012130 0.000000 0.000000 0.000000
# 4 0.000000 0.000000 0.000000 0.052644 0.000000 0.000000
# 5 0.000000 0.000000 0.000000 0.000000 0.036255 0.000000
# 6 0.000000 0.000000 0.000000 0.000000 0.000000 0.026006
#
#
# Mechanical properties :
#
#
# Convention : Reuss Voigt Hill
#
# Bulk Modulus (GPa) = 63.71551 65.07264 64.39407
# Shear Modulus (GPa) = 28.55435 30.48829 29.52132
#
# Velocity S-wave (km/s) = 3.90093 4.03086 3.96643
# Velocity P-wave (km/s) = 7.36512 7.50616 7.43598
#
# Compressibility (1/GPa) = 0.01569476
#
# Stress axis : x y z
#
# Youngs Moduli (GPa) = 77.99361 96.34547 82.43799
#
# Poissons Ratio (x) = 0.25607 0.27074
# Poissons Ratio (y) = 0.20730 0.31955
# Poissons Ratio (z) = 0.25614 0.37345
#
# Static dielectric constant tensor:
#      x y z
#    x 1.674160 0.000000 0.000000 
#    y 0.000000 1.636990 0.000000 
#    z 0.000000 0.000000 1.675740 
# 
# From -- ./inp_files/20333.got.cif
#   From: 2010.05.17/outbox.cif.g08.bks.cpg/sg54_11_cif.got.tgz:20333.got - 2010.06.03 13:09:01.
