data_PCOD9421370
_publ_section_title
;
Structure prediction by ZEFSAII (Michael W. Deem and Ramdas Pophale) SiO2 
 PCOD9421370
Probable space group: P C C A
;
_chemical_formula_sum "Si O2"
_cell_formula_units_Z 52
_cell_length_a 29.529110
_cell_length_b 5.311900
_cell_length_c 16.024011
_cell_angle_alpha 90.000000
_cell_angle_beta 90.000000
_cell_angle_gamma 90.000000
_cell_volume 2513.457132
_symmetry_space_group_name_H-M "P C C A"
_symmetry_group_IT_number 54
_symmetry_cell_setting 'orthorhombic'
loop_
_space_group_symop_operation_xyz
x,y,z
1/2-x,-y,z
1/2+x,-y,1/2-z
-x,y,1/2-z
-x,-y,-z
1/2+x,y,-z
1/2-x,y,1/2+z
x,-y,1/2+z
loop_
_atom_site_type_symbol
_atom_site_label
_atom_site_fract_x
_atom_site_fract_y
_atom_site_fract_z
Si Si1 0.882983 0.704129 0.803770
Si Si2 0.658321 0.695094 0.933172
Si Si3 0.460342 0.258403 0.817670
Si Si4 0.426808 0.975101 0.556754
Si Si5 0.750000 0.500000 0.938472
Si Si6 0.524572 0.750585 0.581795
Si Si7 0.206523 0.094898 0.188574
O O1 0.867942 0.510909 0.876515
O O2 0.916402 0.637069 0.730165
O O3 0.909845 0.922082 0.854110
O O4 0.834968 0.782090 0.764082
O O5 0.703305 0.595794 0.981669
O O6 0.617833 0.838885 0.980255
O O7 0.681639 0.882689 0.866332
O O8 0.500000 0.257627 0.750000
O O9 0.470931 0.469244 0.885980
O O10 0.458810 0.977395 0.856255
O O11 0.445172 0.200436 0.499708
O O12 0.471341 0.805464 0.567276
O O13 0.771370 0.712526 0.877883
O O14 0.250000 0.000000 0.238697
#
# Coordination Sequence:
#
# PCOD9421370 Si02
#       7
#     8   8   8   8   4   8   8
#     4  10  20  33  58  83 117 154 195 244 299 349
#     4   9  17  30  55  81 118 143 193 242 302 348
#     4  12  24  40  57  85 119 159 198 251 294 354
#     4  10  22  38  56  83 114 163 198 247 294 359
#     4   8  14  28  48  86 116 138 178 250 304 342
#     4  11  26  39  59  82 123 159 206 243 299 351
#     4   8  15  28  49  83 117 140 182 244 295 345
#
# _framework density 20.688637
#
# number of rings (size 3 to 8) (size 9 to 14) (size 15 to 20)
#    0.000    2.154    1.538    1.385    6.462    1.231 
#    0.000    0.000    0.000    0.000    0.000   17.231 
#    0.000    0.000    0.000    0.000    0.000    0.000 
#
# Total GULP energy -289543.616411 kJ/mol
# GULP energy per Si atom -5568.146469 kJ/mol
# Density = 2.064155 g / cm^3
# Si number density = 20.688637 Si / 1000 Ang^3
#
#
#
# Elastic Constant Matrix: (Units=GPa)
#
#
# Indices 1 2 3 4 5 6 
#
# 1 166.2667 23.8815 24.5488 0.0000 0.0000 0.0000
# 2 23.8815 51.9075 2.9306 0.0000 0.0000 0.0000
# 3 24.5488 2.9306 26.9993 0.0000 0.0000 0.0000
# 4 0.0000 0.0000 0.0000 23.4102 0.0000 0.0000
# 5 0.0000 0.0000 0.0000 0.0000 11.7527 0.0000
# 6 0.0000 0.0000 0.0000 0.0000 0.0000 31.5941
#
#
#
# Elastic Compliance Matrix: (Units=1/GPa)
#
#
# Indices 1 2 3 4 5 6 
#
# 1 0.007395 -0.003041 -0.006394 0.000000 0.000000 0.000000
# 2 -0.003041 0.020635 0.000526 0.000000 0.000000 0.000000
# 3 -0.006394 0.000526 0.042795 0.000000 0.000000 0.000000
# 4 0.000000 0.000000 0.000000 0.042716 0.000000 0.000000
# 5 0.000000 0.000000 0.000000 0.000000 0.085087 0.000000
# 6 0.000000 0.000000 0.000000 0.000000 0.000000 0.031652
#
#
# Mechanical properties :
#
#
# Convention : Reuss Voigt Hill
#
# Bulk Modulus (GPa) = 18.86618 38.65506 28.76062
# Shear Modulus (GPa) = 18.81346 26.27224 22.54285
#
# Velocity S-wave (km/s) = 3.01883 3.56741 3.30453
# Velocity P-wave (km/s) = 4.61411 5.97439 5.33776
#
# Compressibility (1/GPa) = 0.05300490
#
# Stress axis : x y z
#
# Youngs Moduli (GPa) = 135.22028 48.46218 23.36746
#
# Poissons Ratio (x) = 0.14739 0.14941
# Poissons Ratio (y) = 0.41126 -0.01228
# Poissons Ratio (z) = 0.86460 -0.02547
#
# Static dielectric constant tensor:
#      x y z
#    x 1.865260 0.000000 0.000000 
#    y 0.000000 1.849790 0.000000 
#    z 0.000000 0.000000 1.705300 
# 
# From -- ./inp_files/19218.got.cif
#   From: 2010.05.17/outbox.cif.g08.bks.cpg/sg54_10_cif.got.tgz:19218.got - 2010.06.03 13:09:01.
