data_PCOD9421264
_publ_section_title
;
Structure prediction by ZEFSAII (Michael W. Deem and Ramdas Pophale) SiO2 
 PCOD9421264
Probable space group: P C C A
;
_chemical_formula_sum "Si O2"
_cell_formula_units_Z 40
_cell_length_a 14.748261
_cell_length_b 14.211407
_cell_length_c 8.889809
_cell_angle_alpha 90.000000
_cell_angle_beta 90.000000
_cell_angle_gamma 90.000000
_cell_volume 1863.246535
_symmetry_space_group_name_H-M "P C C A"
_symmetry_group_IT_number 54
_symmetry_cell_setting 'orthorhombic'
loop_
_space_group_symop_operation_xyz
x,y,z
1/2-x,-y,z
1/2+x,-y,1/2-z
-x,y,1/2-z
-x,-y,-z
1/2+x,y,-z
1/2-x,y,1/2+z
x,-y,1/2+z
loop_
_atom_site_type_symbol
_atom_site_label
_atom_site_fract_x
_atom_site_fract_y
_atom_site_fract_z
Si Si1 0.557826 0.630453 0.885368
Si Si2 0.511547 0.102335 0.429064
Si Si3 0.331565 0.792177 0.446440
Si Si4 0.420853 0.427710 0.629599
Si Si5 0.142409 0.224754 0.098357
O O1 0.500000 0.677933 0.750000
O O2 0.612571 0.534266 0.845133
O O3 0.619790 0.697194 0.987219
O O4 0.472822 0.586750 0.973695
O O5 0.500000 0.101799 0.250000
O O6 0.614492 0.129908 0.462483
O O7 0.445662 0.177530 0.518117
O O8 0.500000 0.000000 0.500000
O O9 0.347327 0.810158 0.269822
O O10 0.227082 0.793856 0.490757
O O11 0.500000 0.410315 0.750000
O O12 0.356958 0.337738 0.627997
#
# Coordination Sequence:
#
# PCOD9421264 Si02
#       5
#     8   8   8   8   8
#     4  10  21  36  65  94 133 179 232 276 333 389
#     4  12  26  49  76 101 130 169 214 274 343 411
#     4  12  25  43  66 101 136 180 224 281 333 402
#     4  10  19  39  63  93 132 183 225 279 330 391
#     4  12  25  43  68  99 139 176 227 277 336 398
#
# _framework density 21.467905999999999
#
# number of rings (size 3 to 8) (size 9 to 14) (size 15 to 20)
#    0.000    0.800    4.000    3.600    2.800    1.600 
#    0.000    6.000    0.000    0.000    0.000    0.000 
#    0.000    0.000    0.000    0.000    0.000    0.000 
#
# Total GULP energy -222901.290077 kJ/mol
# GULP energy per Si atom -5572.532252 kJ/mol
# Density = 2.141904 g / cm^3
# Si number density = 21.467906 Si / 1000 Ang^3
#
#
#
# Elastic Constant Matrix: (Units=GPa)
#
#
# Indices 1 2 3 4 5 6 
#
# 1 49.0269 0.4281 4.0089 0.0000 0.0000 0.0000
# 2 0.4281 93.9193 4.7554 0.0000 0.0000 0.0000
# 3 4.0089 4.7554 142.7758 0.0000 0.0000 0.0000
# 4 0.0000 0.0000 0.0000 29.6385 0.0000 0.0000
# 5 0.0000 0.0000 0.0000 0.0000 32.5880 0.0000
# 6 0.0000 0.0000 0.0000 0.0000 0.0000 33.3288
#
#
#
# Elastic Compliance Matrix: (Units=1/GPa)
#
#
# Indices 1 2 3 4 5 6 
#
# 1 0.020444 -0.000064 -0.000572 0.000000 0.000000 0.000000
# 2 -0.000064 0.010666 -0.000353 0.000000 0.000000 0.000000
# 3 -0.000572 -0.000353 0.007032 0.000000 0.000000 0.000000
# 4 0.000000 0.000000 0.000000 0.033740 0.000000 0.000000
# 5 0.000000 0.000000 0.000000 0.000000 0.030686 0.000000
# 6 0.000000 0.000000 0.000000 0.000000 0.000000 0.030004
#
#
# Mechanical properties :
#
#
# Convention : Reuss Voigt Hill
#
# Bulk Modulus (GPa) = 27.65287 33.78963 30.72125
# Shear Modulus (GPa) = 34.10522 37.54637 35.82579
#
# Velocity S-wave (km/s) = 3.99012 4.18659 4.08954
# Velocity P-wave (km/s) = 5.84270 6.25650 6.05314
#
# Compressibility (1/GPa) = 0.03616261
#
# Stress axis : x y z
#
# Youngs Moduli (GPa) = 48.91346 93.75910 142.21069
#
# Poissons Ratio (x) = 0.00602 0.08133
# Poissons Ratio (y) = 0.00314 0.05026
# Poissons Ratio (z) = 0.02797 0.03314
#
# Static dielectric constant tensor:
#      x y z
#    x 1.765430 0.000000 0.000000 
#    y 0.000000 2.036270 0.000000 
#    z 0.000000 0.000000 1.890960 
# 
# From -- ./inp_files/3433.got.cif
#   From: 2010.05.17/outbox.cif.g08.bks.cpg/sg54_2_cif.got.tgz:3433.got - 2010.06.03 13:09:01.
