data_PCOD9421505
_publ_section_title
;
Structure prediction by ZEFSAII (Michael W. Deem and Ramdas Pophale) SiO2 
 PCOD9421505
Probable space group: P C C A
;
_chemical_formula_sum "Si O2"
_cell_formula_units_Z 48
_cell_length_a 22.695460
_cell_length_b 5.504248
_cell_length_c 17.914718
_cell_angle_alpha 90.000000
_cell_angle_beta 90.000000
_cell_angle_gamma 90.000000
_cell_volume 2237.932375
_symmetry_space_group_name_H-M "P C C A"
_symmetry_group_IT_number 54
_symmetry_cell_setting 'orthorhombic'
loop_
_space_group_symop_operation_xyz
x,y,z
1/2-x,-y,z
1/2+x,-y,1/2-z
-x,y,1/2-z
-x,-y,-z
1/2+x,y,-z
1/2-x,y,1/2+z
x,-y,1/2+z
loop_
_atom_site_type_symbol
_atom_site_label
_atom_site_fract_x
_atom_site_fract_y
_atom_site_fract_z
Si Si1 0.750000 0.000000 0.788521
Si Si2 0.516111 0.104728 0.838265
Si Si3 0.843212 0.617296 0.237324
Si Si4 0.282347 0.256020 0.503733
Si Si5 0.144922 0.276264 0.132355
Si Si6 0.469017 0.389214 0.331440
Si Si7 0.750000 0.500000 0.641458
O O1 0.702550 0.836742 0.744753
O O2 0.793512 0.837794 0.839341
O O3 0.500000 0.092464 0.750000
O O4 0.586199 0.132388 0.846137
O O5 0.484547 0.350456 0.867422
O O6 0.494153 0.849793 0.871130
O O7 0.859523 0.525020 0.320225
O O8 0.901159 0.653317 0.189151
O O9 0.803894 0.417160 0.193515
O O10 0.250000 0.500000 0.534894
O O11 0.345544 0.273278 0.543550
O O12 0.278351 0.305937 0.415343
O O13 0.250000 0.000000 0.516324
O O14 0.500000 0.405180 0.250000
#
# Coordination Sequence:
#
# PCOD9421505 Si02
#       7
#     4   8   8   8   8   8   4
#     4  12  22  32  62 100 124 152 216 262 336 368
#     4  10  20  36  56  90 123 157 200 253 316 360
#     4  12  23  38  63  95 131 163 205 272 318 383
#     4  10  24  43  59  88 129 166 211 251 314 386
#     4  12  22  38  65  94 129 163 208 273 312 382
#     4  10  20  37  55  91 124 159 196 255 312 369
#     4  10  26  40  58  92 132 172 208 254 326 386
#
# _framework density 21.448367999999999
#
# number of rings (size 3 to 8) (size 9 to 14) (size 15 to 20)
#    0.500    0.667    5.833    3.000    1.167    0.000 
#    0.000    0.000    0.000    2.000    0.000    0.000 
#    0.000    0.000    0.000    0.000    0.000    0.000 
#
# Total GULP energy -267320.951087 kJ/mol
# GULP energy per Si atom -5569.186481 kJ/mol
# Density = 2.139955 g / cm^3
# Si number density = 21.448368 Si / 1000 Ang^3
#
#
#
# Elastic Constant Matrix: (Units=GPa)
#
#
# Indices 1 2 3 4 5 6 
#
# 1 100.1664 5.1003 2.2257 0.0000 0.0000 0.0000
# 2 5.1003 122.2662 5.1136 0.0000 0.0000 0.0000
# 3 2.2257 5.1136 50.5834 0.0000 0.0000 0.0000
# 4 0.0000 0.0000 0.0000 19.8211 0.0000 0.0000
# 5 0.0000 0.0000 0.0000 0.0000 9.9884 0.0000
# 6 0.0000 0.0000 0.0000 0.0000 0.0000 100.2936
#
#
#
# Elastic Compliance Matrix: (Units=1/GPa)
#
#
# Indices 1 2 3 4 5 6 
#
# 1 0.010013 -0.000401 -0.000400 0.000000 0.000000 0.000000
# 2 -0.000401 0.008230 -0.000814 0.000000 0.000000 0.000000
# 3 -0.000400 -0.000814 0.019869 0.000000 0.000000 0.000000
# 4 0.000000 0.000000 0.000000 0.050451 0.000000 0.000000
# 5 0.000000 0.000000 0.000000 0.000000 0.100116 0.000000
# 6 0.000000 0.000000 0.000000 0.000000 0.000000 0.009971
#
#
# Mechanical properties :
#
#
# Convention : Reuss Voigt Hill
#
# Bulk Modulus (GPa) = 28.66888 33.09947 30.88418
# Shear Modulus (GPa) = 23.41843 43.39240 33.40541
#
# Velocity S-wave (km/s) = 3.30790 4.50278 3.95077
# Velocity P-wave (km/s) = 5.29009 6.51913 5.93650
#
# Compressibility (1/GPa) = 0.03488102
#
# Stress axis : x y z
#
# Youngs Moduli (GPa) = 99.87325 121.51172 50.32901
#
# Poissons Ratio (x) = 0.04872 0.02013
# Poissons Ratio (y) = 0.04004 0.04098
# Poissons Ratio (z) = 0.03995 0.09895
#
# Static dielectric constant tensor:
#      x y z
#    x 1.869000 0.000000 0.000000 
#    y 0.000000 1.895100 0.000000 
#    z 0.000000 0.000000 1.858200 
# 
# From -- ./inp_files/22109.got.cif
#   From: 2010.05.17/outbox.cif.g08.bks.cpg/sg54_12_cif.got.tgz:22109.got - 2010.06.03 13:09:01.
