data_PCOD9421486
_publ_section_title
;
Structure prediction by ZEFSAII (Michael W. Deem and Ramdas Pophale) SiO2 
 PCOD9421486
Probable space group: P C C A
;
_chemical_formula_sum "Si O2"
_cell_formula_units_Z 48
_cell_length_a 10.056355
_cell_length_b 11.317546
_cell_length_c 18.708549
_cell_angle_alpha 90.000000
_cell_angle_beta 90.000000
_cell_angle_gamma 90.000000
_cell_volume 2129.280957
_symmetry_space_group_name_H-M "P C C A"
_symmetry_group_IT_number 54
_symmetry_cell_setting 'orthorhombic'
loop_
_space_group_symop_operation_xyz
x,y,z
1/2-x,-y,z
1/2+x,-y,1/2-z
-x,y,1/2-z
-x,-y,-z
1/2+x,y,-z
1/2-x,y,1/2+z
x,-y,1/2+z
loop_
_atom_site_type_symbol
_atom_site_label
_atom_site_fract_x
_atom_site_fract_y
_atom_site_fract_z
Si Si1 0.500000 0.452909 0.750000
Si Si2 0.383189 0.614192 0.621503
Si Si3 0.137793 0.730624 0.425172
Si Si4 0.000000 0.023662 0.250000
Si Si5 0.250000 0.000000 0.670220
Si Si6 0.250000 0.500000 0.493998
Si Si7 0.620506 0.758171 0.165251
Si Si8 0.357971 0.223647 0.586977
O O1 0.431451 0.536101 0.689095
O O2 0.395988 0.358790 0.785525
O O3 0.491110 0.714414 0.604457
O O4 0.366926 0.538867 0.548395
O O5 0.239630 0.678201 0.621885
O O6 0.195995 0.601649 0.443841
O O7 0.234971 0.778292 0.365528
O O8 0.151366 0.791373 0.501992
O O9 0.923113 0.119566 0.201136
O O10 0.121452 0.953891 0.214307
O O11 0.313243 0.103723 0.624014
O O12 0.508857 0.740560 0.104270
#
# Coordination Sequence:
#
# PCOD9421486 Si02
#       8
#     4   8   8   4   4   4   8   8
#     4  11  22  37  56  86 122 161 194 225 292 360
#     4  11  23  34  57  87 116 154 199 245 281 352
#     4  11  21  37  59  87 116 153 198 239 288 356
#     4   9  22  41  64  88 116 153 198 243 304 360
#     4  10  22  44  66  84 114 158 196 250 308 358
#     4  10  20  36  54  80 120 158 188 232 292 342
#     4  10  22  39  59  84 123 159 188 238 298 363
#     4  10  22  41  60  83 116 153 196 251 306 346
#
# _framework density 22.542822999999999
#
# number of rings (size 3 to 8) (size 9 to 14) (size 15 to 20)
#    0.000    1.667    0.000    5.500    0.000    8.667 
#    0.000    8.333    0.000    0.000    0.000    0.000 
#    0.000    0.000    0.000    0.000    0.000    0.000 
#
# Total GULP energy -268061.380765 kJ/mol
# GULP energy per Si atom -5584.612099 kJ/mol
# Density = 2.249151 g / cm^3
# Si number density = 22.542823 Si / 1000 Ang^3
#
#
#
# Elastic Constant Matrix: (Units=GPa)
#
#
# Indices 1 2 3 4 5 6 
#
# 1 113.5873 -2.4288 19.0357 0.0000 0.0000 0.0000
# 2 -2.4288 26.8106 -0.5054 0.0000 0.0000 0.0000
# 3 19.0357 -0.5054 58.1526 0.0000 0.0000 0.0000
# 4 0.0000 0.0000 0.0000 80.9035 0.0000 0.0000
# 5 0.0000 0.0000 0.0000 0.0000 15.7625 0.0000
# 6 0.0000 0.0000 0.0000 0.0000 0.0000 45.2126
#
#
#
# Elastic Compliance Matrix: (Units=1/GPa)
#
#
# Indices 1 2 3 4 5 6 
#
# 1 0.009331 0.000788 -0.003048 0.000000 0.000000 0.000000
# 2 0.000788 0.037371 0.000067 0.000000 0.000000 0.000000
# 3 -0.003048 0.000067 0.018194 0.000000 0.000000 0.000000
# 4 0.000000 0.000000 0.000000 0.012360 0.000000 0.000000
# 5 0.000000 0.000000 0.000000 0.000000 0.063442 0.000000
# 6 0.000000 0.000000 0.000000 0.000000 0.000000 0.022118
#
#
# Mechanical properties :
#
#
# Convention : Reuss Voigt Hill
#
# Bulk Modulus (GPa) = 16.52586 25.63928 21.08257
# Shear Modulus (GPa) = 26.68474 40.53900 33.61187
#
# Velocity S-wave (km/s) = 3.44428 4.24525 3.86557
# Velocity P-wave (km/s) = 4.81292 5.95213 5.41258
#
# Compressibility (1/GPa) = 0.06051122
#
# Stress axis : x y z
#
# Youngs Moduli (GPa) = 107.16509 26.75848 54.96212
#
# Poissons Ratio (x) = -0.02108 0.16751
# Poissons Ratio (y) = -0.08443 -0.00368
# Poissons Ratio (z) = 0.32661 -0.00179
#
# Static dielectric constant tensor:
#      x y z
#    x 1.918430 0.000000 0.000000 
#    y 0.000000 1.854500 0.000000 
#    z 0.000000 0.000000 1.867020 
# 
# From -- ./inp_files/16723.got.cif
#   From: 2010.05.17/outbox.cif.g08.bks.cpg/sg54_9_cif.got.tgz:16723.got - 2010.06.03 13:09:01.
