data_PCOD9421646
_publ_section_title
;
Structure prediction by ZEFSAII (Michael W. Deem and Ramdas Pophale) SiO2 
 PCOD9421646
Probable space group: P C C A
;
_chemical_formula_sum "Si O2"
_cell_formula_units_Z 40
_cell_length_a 10.702207
_cell_length_b 17.133135
_cell_length_c 8.535911
_cell_angle_alpha 90.000000
_cell_angle_beta 90.000000
_cell_angle_gamma 90.000000
_cell_volume 1565.164763
_symmetry_space_group_name_H-M "P C C A"
_symmetry_group_IT_number 54
_symmetry_cell_setting 'orthorhombic'
loop_
_space_group_symop_operation_xyz
x,y,z
1/2-x,-y,z
1/2+x,-y,1/2-z
-x,y,1/2-z
-x,-y,-z
1/2+x,y,-z
1/2-x,y,1/2+z
x,-y,1/2+z
loop_
_atom_site_type_symbol
_atom_site_label
_atom_site_fract_x
_atom_site_fract_y
_atom_site_fract_z
Si Si1 0.084260 0.963374 0.629382
Si Si2 0.316195 0.232611 0.897361
Si Si3 0.321213 0.656465 0.131836
Si Si4 0.368202 0.559468 0.833205
Si Si5 0.182271 0.874924 0.149019
O O1 0.194622 0.911026 0.567277
O O2 0.000000 0.916041 0.750000
O O3 0.129451 0.043632 0.712553
O O4 0.000000 0.000000 0.500000
O O5 0.375910 0.299263 0.786041
O O6 0.232964 0.180065 0.783376
O O7 0.223473 0.277269 0.013387
O O8 0.390637 0.176087 0.018975
O O9 0.196015 0.617895 0.206992
O O10 0.388055 0.596685 0.008588
O O11 0.250000 0.500000 0.853998
O O12 0.500000 0.534399 0.750000
#
# Coordination Sequence:
#
# PCOD9421646 Si02
#       5
#     8   8   8   8   8
#     4  11  22  35  54  82 114 156 216 273 326 381
#     4   9  18  39  62  84 123 168 209 258 330 396
#     4   9  21  41  64  94 131 166 213 269 324 404
#     4  11  24  44  72 104 138 177 221 272 332 403
#     4  10  20  37  58  81 119 161 209 271 325 394
#
# _framework density 25.556415999999999
#
# number of rings (size 3 to 8) (size 9 to 14) (size 15 to 20)
#    0.000    2.000    0.000    3.000    0.000    6.400 
#    0.000   38.000    0.000    1.200    0.000    0.000 
#    0.000    0.000    0.000    0.000    0.000    0.000 
#
# Total GULP energy -222703.488063 kJ/mol
# GULP energy per Si atom -5567.587202 kJ/mol
# Density = 2.549825 g / cm^3
# Si number density = 25.556416 Si / 1000 Ang^3
#
#
#
# Elastic Constant Matrix: (Units=GPa)
#
#
# Indices 1 2 3 4 5 6 
#
# 1 72.7490 10.2589 4.3344 0.0000 0.0000 0.0000
# 2 10.2589 91.7317 24.8456 0.0000 0.0000 0.0000
# 3 4.3344 24.8456 112.4969 0.0000 0.0000 0.0000
# 4 0.0000 0.0000 0.0000 90.3918 0.0000 0.0000
# 5 0.0000 0.0000 0.0000 0.0000 16.9827 0.0000
# 6 0.0000 0.0000 0.0000 0.0000 0.0000 -6.2503
#
#
#
# Elastic Compliance Matrix: (Units=1/GPa)
#
#
# Indices 1 2 3 4 5 6 
#
# 1 0.013971 -0.001507 -0.000206 0.000000 0.000000 0.000000
# 2 -0.001507 0.011757 -0.002539 0.000000 0.000000 0.000000
# 3 -0.000206 -0.002539 0.009458 0.000000 0.000000 0.000000
# 4 0.000000 0.000000 0.000000 0.011063 0.000000 0.000000
# 5 0.000000 0.000000 0.000000 0.000000 0.058883 0.000000
# 6 0.000000 0.000000 0.000000 0.000000 0.000000 -0.159992
#
#
# Mechanical properties :
#
#
# Convention : Reuss Voigt Hill
#
# Bulk Modulus (GPa) = 37.47564 39.53948 38.50756
# Shear Modulus (GPa) = -133.46302 36.06075 -48.70113
#
# Velocity S-wave (km/s) = -7.23438 3.76044 -4.37009
# Velocity P-wave (km/s) = 7.42199 5.86170 3.21919
#
# Compressibility (1/GPa) = 0.02668400
#
# Stress axis : x y z
#
# Youngs Moduli (GPa) = 71.57884 85.05236 105.73365
#
# Poissons Ratio (x) = 0.12815 0.02173
# Poissons Ratio (y) = 0.10785 0.26842
# Poissons Ratio (z) = 0.01471 0.21592
#
# Static dielectric constant tensor:
#      x y z
#    x 2.316760 0.000000 0.000000 
#    y 0.000000 2.356320 0.000000 
#    z 0.000000 0.000000 2.014460 
# 
# From -- ./inp_files/2912.got.cif
#   From: 2010.05.17/outbox.cif.g08.bks.cpg/sg54_2_cif.got.tgz:2912.got - 2010.06.03 13:09:01.
