data_PCOD9421265
_publ_section_title
;
Structure prediction by ZEFSAII (Michael W. Deem and Ramdas Pophale) SiO2 
 PCOD9421265
Probable space group: P C C A
;
_chemical_formula_sum "Si O2"
_cell_formula_units_Z 32
_cell_length_a 15.530688
_cell_length_b 9.437580
_cell_length_c 9.696128
_cell_angle_alpha 90.000000
_cell_angle_beta 90.000000
_cell_angle_gamma 90.000000
_cell_volume 1421.181944
_symmetry_space_group_name_H-M "P C C A"
_symmetry_group_IT_number 54
_symmetry_cell_setting 'orthorhombic'
loop_
_space_group_symop_operation_xyz
x,y,z
1/2-x,-y,z
1/2+x,-y,1/2-z
-x,y,1/2-z
-x,-y,-z
1/2+x,y,-z
1/2-x,y,1/2+z
x,-y,1/2+z
loop_
_atom_site_type_symbol
_atom_site_label
_atom_site_fract_x
_atom_site_fract_y
_atom_site_fract_z
Si Si1 0.174422 0.891006 0.824837
Si Si2 0.543443 0.694236 0.609156
Si Si3 0.078684 0.621791 0.857527
Si Si4 0.092942 0.952202 0.549930
O O1 0.160902 0.720529 0.824287
O O2 0.103111 0.934827 0.711301
O O3 0.250000 0.000000 0.783838
O O4 0.155496 0.934505 0.981561
O O5 0.500000 0.748731 0.750000
O O6 0.591489 0.546907 0.641718
O O7 0.464948 0.661615 0.503855
O O8 0.605406 0.804115 0.531687
O O9 0.000000 0.647840 0.750000
O O10 0.000000 0.000000 0.500000
#
# Coordination Sequence:
#
# PCOD9421265 Si02
#       4
#     8   8   8   8
#     4  12  25  41  61  93 137 171 213 278 346 401
#     4  10  20  34  66 100 127 164 226 281 323 380
#     4  10  19  39  63  96 132 169 221 277 327 398
#     4  12  22  41  66  95 124 176 229 274 323 403
#
# _framework density 22.516470000000002
#
# number of rings (size 3 to 8) (size 9 to 14) (size 15 to 20)
#    0.000    1.000    5.000    3.000    0.000    0.000 
#    0.000    1.250    0.000    3.000    0.000    0.000 
#    0.000    0.000    0.000    0.000    0.000    0.000 
#
# Total GULP energy -178333.867115 kJ/mol
# GULP energy per Si atom -5572.933347 kJ/mol
# Density = 2.246522 g / cm^3
# Si number density = 22.516470 Si / 1000 Ang^3
#
#
#
# Elastic Constant Matrix: (Units=GPa)
#
#
# Indices 1 2 3 4 5 6 
#
# 1 43.5439 36.9819 -13.4532 0.0000 0.0000 0.0000
# 2 36.9819 156.6910 -16.6975 0.0000 0.0000 0.0000
# 3 -13.4532 -16.6975 96.4017 0.0000 0.0000 0.0000
# 4 0.0000 0.0000 0.0000 26.6782 0.0000 0.0000
# 5 0.0000 0.0000 0.0000 0.0000 23.0707 0.0000
# 6 0.0000 0.0000 0.0000 0.0000 0.0000 30.3695
#
#
#
# Elastic Compliance Matrix: (Units=1/GPa)
#
#
# Indices 1 2 3 4 5 6 
#
# 1 0.029534 -0.006654 0.002969 0.000000 0.000000 0.000000
# 2 -0.006654 0.008001 0.000457 0.000000 0.000000 0.000000
# 3 0.002969 0.000457 0.010867 0.000000 0.000000 0.000000
# 4 0.000000 0.000000 0.000000 0.037484 0.000000 0.000000
# 5 0.000000 0.000000 0.000000 0.000000 0.043345 0.000000
# 6 0.000000 0.000000 0.000000 0.000000 0.000000 0.032928
#
#
# Mechanical properties :
#
#
# Convention : Reuss Voigt Hill
#
# Bulk Modulus (GPa) = 23.84003 34.47767 29.15885
# Shear Modulus (GPa) = 27.38278 35.34404 31.36341
#
# Velocity S-wave (km/s) = 3.49108 3.96624 3.73622
# Velocity P-wave (km/s) = 5.18276 6.02662 5.62055
#
# Compressibility (1/GPa) = 0.04194626
#
# Stress axis : x y z
#
# Youngs Moduli (GPa) = 33.85928 124.98095 92.02341
#
# Poissons Ratio (x) = 0.83164 -0.27322
# Poissons Ratio (y) = 0.22531 -0.04208
# Poissons Ratio (z) = -0.10053 -0.05715
#
# Static dielectric constant tensor:
#      x y z
#    x 1.887660 0.000000 0.000000 
#    y 0.000000 1.940210 0.000000 
#    z 0.000000 0.000000 1.823150 
# 
# From -- ./inp_files/8081.got.cif
#   From: 2010.05.17/outbox.cif.g08.bks.cpg/sg54_5_cif.got.tgz:8081.got - 2010.06.03 13:09:01.
