data_PCOD9421262
_publ_section_title
;
Structure prediction by ZEFSAII (Michael W. Deem and Ramdas Pophale) SiO2 
 PCOD9421262
Probable space group: P C C A
;
_chemical_formula_sum "Si O2"
_cell_formula_units_Z 48
_cell_length_a 15.131031
_cell_length_b 9.105655
_cell_length_c 15.614241
_cell_angle_alpha 90.000000
_cell_angle_beta 90.000000
_cell_angle_gamma 90.000000
_cell_volume 2151.298086
_symmetry_space_group_name_H-M "P C C A"
_symmetry_group_IT_number 54
_symmetry_cell_setting 'orthorhombic'
loop_
_space_group_symop_operation_xyz
x,y,z
1/2-x,-y,z
1/2+x,-y,1/2-z
-x,y,1/2-z
-x,-y,-z
1/2+x,y,-z
1/2-x,y,1/2+z
x,-y,1/2+z
loop_
_atom_site_type_symbol
_atom_site_label
_atom_site_fract_x
_atom_site_fract_y
_atom_site_fract_z
Si Si1 0.855054 0.022408 0.323152
Si Si2 0.530427 0.525512 0.157528
Si Si3 0.912545 0.707553 0.942224
Si Si4 0.648906 0.177631 0.649883
Si Si5 0.064544 0.867867 0.024924
Si Si6 0.194646 0.351152 0.903750
O O1 0.892901 0.168426 0.371040
O O2 0.871030 0.056088 0.222176
O O3 0.750000 0.000000 0.333411
O O4 0.900644 0.892733 0.379257
O O5 0.500000 0.483780 0.250000
O O6 0.442143 0.557424 0.102790
O O7 0.582642 0.683523 0.162036
O O8 0.601320 0.406090 0.130362
O O9 0.827506 0.708041 0.002344
O O10 0.998695 0.736697 0.001848
O O11 0.636978 0.129343 0.550993
O O12 0.748643 0.240551 0.654211
O O13 0.000000 0.000000 0.000000
O O14 0.250000 0.500000 0.912416
#
# Coordination Sequence:
#
# PCOD9421262 Si02
#       6
#     8   8   8   8   8   8
#     4  11  22  37  60  90 118 163 200 242 315 365
#     4  10  19  39  63  86 116 160 209 251 305 365
#     4  10  20  39  62  87 119 158 205 259 300 368
#     4  10  21  40  60  85 130 159 194 259 305 360
#     4   9  21  37  62  86 116 158 207 241 299 372
#     4  10  22  39  59  89 122 162 197 250 313 357
#
# _framework density 22.312110000000001
#
# number of rings (size 3 to 8) (size 9 to 14) (size 15 to 20)
#    0.000    2.000    1.667    1.500    0.000    3.333 
#    6.000    0.000    0.000    0.000    0.000    0.000 
#    0.000    0.000    0.000    0.000    0.000    0.000 
#
# Total GULP energy -267528.224777 kJ/mol
# GULP energy per Si atom -5573.504683 kJ/mol
# Density = 2.226133 g / cm^3
# Si number density = 22.312110 Si / 1000 Ang^3
#
#
#
# Elastic Constant Matrix: (Units=GPa)
#
#
# Indices 1 2 3 4 5 6 
#
# 1 75.8947 5.6875 31.1844 0.0000 0.0000 0.0000
# 2 5.6875 21.7704 28.6095 0.0000 0.0000 0.0000
# 3 31.1844 28.6095 112.1076 0.0000 0.0000 0.0000
# 4 0.0000 0.0000 0.0000 11.9842 0.0000 0.0000
# 5 0.0000 0.0000 0.0000 0.0000 30.0116 0.0000
# 6 0.0000 0.0000 0.0000 0.0000 0.0000 19.3504
#
#
#
# Elastic Compliance Matrix: (Units=1/GPa)
#
#
# Indices 1 2 3 4 5 6 
#
# 1 0.014956 0.002347 -0.004759 0.000000 0.000000 0.000000
# 2 0.002347 0.069480 -0.018384 0.000000 0.000000 0.000000
# 3 -0.004759 -0.018384 0.014935 0.000000 0.000000 0.000000
# 4 0.000000 0.000000 0.000000 0.083443 0.000000 0.000000
# 5 0.000000 0.000000 0.000000 0.000000 0.033320 0.000000
# 6 0.000000 0.000000 0.000000 0.000000 0.000000 0.051678
#
#
# Mechanical properties :
#
#
# Convention : Reuss Voigt Hill
#
# Bulk Modulus (GPa) = 17.30733 37.85949 27.58341
# Shear Modulus (GPa) = 15.21307 21.88865 18.55086
#
# Velocity S-wave (km/s) = 2.61402 3.13552 2.88657
# Velocity P-wave (km/s) = 4.10908 5.48759 4.84759
#
# Compressibility (1/GPa) = 0.05777897
#
# Stress axis : x y z
#
# Youngs Moduli (GPa) = 66.86390 14.39266 66.95530
#
# Poissons Ratio (x) = -0.03378 0.31865
# Poissons Ratio (y) = -0.15693 1.23090
# Poissons Ratio (z) = 0.31821 0.26459
#
# Static dielectric constant tensor:
#      x y z
#    x 1.834720 0.000000 0.000000 
#    y 0.000000 1.712090 0.000000 
#    z 0.000000 0.000000 1.854960 
# 
# From -- ./inp_files/13395.got.cif
#   From: 2010.05.17/outbox.cif.g08.bks.cpg/sg54_7_cif.got.tgz:13395.got - 2010.06.03 13:09:01.
