data_PCOD9421444
_publ_section_title
;
Structure prediction by ZEFSAII (Michael W. Deem and Ramdas Pophale) SiO2 
 PCOD9421444
Probable space group: P C C A
;
_chemical_formula_sum "Si O2"
_cell_formula_units_Z 60
_cell_length_a 15.295254
_cell_length_b 7.357289
_cell_length_c 25.368578
_cell_angle_alpha 90.000000
_cell_angle_beta 90.000000
_cell_angle_gamma 90.000000
_cell_volume 2854.766774
_symmetry_space_group_name_H-M "P C C A"
_symmetry_group_IT_number 54
_symmetry_cell_setting 'orthorhombic'
loop_
_space_group_symop_operation_xyz
x,y,z
1/2-x,-y,z
1/2+x,-y,1/2-z
-x,y,1/2-z
-x,-y,-z
1/2+x,y,-z
1/2-x,y,1/2+z
x,-y,1/2+z
loop_
_atom_site_type_symbol
_atom_site_label
_atom_site_fract_x
_atom_site_fract_y
_atom_site_fract_z
Si Si1 0.977916 0.804811 0.050454
Si Si2 0.655525 0.294775 0.488321
Si Si3 0.087312 0.439567 0.402958
Si Si4 0.250000 0.500000 0.834017
Si Si5 0.158454 0.109385 0.155294
Si Si6 0.678134 0.844313 0.228137
Si Si7 0.032329 0.929391 0.856077
Si Si8 0.153279 0.714554 0.541746
O O1 0.969371 0.603856 0.075257
O O2 0.079969 0.827800 0.036825
O O3 0.942569 0.950044 0.092722
O O4 0.923186 0.789315 0.996172
O O5 0.632641 0.334188 0.548770
O O6 0.753124 0.224807 0.481542
O O7 0.651471 0.495871 0.462537
O O8 0.164958 0.531505 0.369830
O O9 0.034847 0.284169 0.372238
O O10 0.278435 0.326462 0.800604
O O11 0.156083 0.209258 0.211822
O O12 0.151967 0.224759 0.102006
O O13 0.065664 0.003236 0.156907
O O14 0.250000 0.000000 0.152169
O O15 0.598506 0.926510 0.193308
O O16 0.750000 0.000000 0.231319
#
# Coordination Sequence:
#
# PCOD9421444 Si02
#       8
#     8   8   8   4   8   8   8   8
#     4  11  21  37  60  87 122 160 197 241 302 369
#     4  10  20  35  56  86 124 158 193 243 301 362
#     4  10  20  37  59  88 123 153 194 249 298 359
#     4  10  20  38  64  88 112 154 204 248 304 362
#     4  11  23  40  59  84 122 160 201 252 301 360
#     4  10  23  42  63  88 118 154 202 257 306 356
#     4  11  23  39  63  89 118 158 203 251 304 359
#     4  10  21  36  56  85 120 158 198 242 301 364
#
# _framework density 21.017479999999999
#
# number of rings (size 3 to 8) (size 9 to 14) (size 15 to 20)
#    0.000    1.600    0.000    6.800    0.000    5.333 
#    0.000    2.667    0.000    6.400    0.000    0.000 
#    0.000    0.000    0.000    0.000    0.000    0.000 
#
# Total GULP energy -335054.075771 kJ/mol
# GULP energy per Si atom -5584.234596 kJ/mol
# Density = 2.096964 g / cm^3
# Si number density = 21.017480 Si / 1000 Ang^3
#
#
#
# Elastic Constant Matrix: (Units=GPa)
#
#
# Indices 1 2 3 4 5 6 
#
# 1 131.4052 14.1108 31.4084 0.0000 0.0000 0.0000
# 2 14.1108 39.4584 -7.7194 0.0000 0.0000 0.0000
# 3 31.4084 -7.7194 69.4229 0.0000 0.0000 0.0000
# 4 0.0000 0.0000 0.0000 9.3787 0.0000 0.0000
# 5 0.0000 0.0000 0.0000 0.0000 18.1166 0.0000
# 6 0.0000 0.0000 0.0000 0.0000 0.0000 10.6741
#
#
#
# Elastic Compliance Matrix: (Units=1/GPa)
#
#
# Indices 1 2 3 4 5 6 
#
# 1 0.009160 -0.004177 -0.004609 0.000000 0.000000 0.000000
# 2 -0.004177 0.027812 0.004982 0.000000 0.000000 0.000000
# 3 -0.004609 0.004982 0.017044 0.000000 0.000000 0.000000
# 4 0.000000 0.000000 0.000000 0.106625 0.000000 0.000000
# 5 0.000000 0.000000 0.000000 0.000000 0.055198 0.000000
# 6 0.000000 0.000000 0.000000 0.000000 0.000000 0.093685
#
#
# Mechanical properties :
#
#
# Convention : Reuss Voigt Hill
#
# Bulk Modulus (GPa) = 21.54797 35.09846 28.32322
# Shear Modulus (GPa) = 15.03306 21.13299 18.08302
#
# Velocity S-wave (km/s) = 2.67734 3.17440 2.93641
# Velocity P-wave (km/s) = 4.45334 5.49287 5.00019
#
# Compressibility (1/GPa) = 0.04640808
#
# Stress axis : x y z
#
# Youngs Moduli (GPa) = 109.16762 35.95596 58.67308
#
# Poissons Ratio (x) = 0.15020 0.27041
# Poissons Ratio (y) = 0.45604 -0.29234
# Poissons Ratio (z) = 0.50313 -0.17915
#
# Static dielectric constant tensor:
#      x y z
#    x 1.930790 0.000000 0.000000 
#    y 0.000000 1.752740 0.000000 
#    z 0.000000 0.000000 1.782170 
# 
# From -- ./inp_files/24461.got.cif
#   From: 2010.05.17/outbox.cif.g08.bks.cpg/sg54_13_cif.got.tgz:24461.got - 2010.06.03 13:09:01.
