data_PCOD9421379
_publ_section_title
;
Structure prediction by ZEFSAII (Michael W. Deem and Ramdas Pophale) SiO2 
 PCOD9421379
Probable space group: P C C A
;
_chemical_formula_sum "Si O2"
_cell_formula_units_Z 60
_cell_length_a 12.031462
_cell_length_b 29.554041
_cell_length_c 8.994410
_cell_angle_alpha 90.000000
_cell_angle_beta 90.000000
_cell_angle_gamma 90.000000
_cell_volume 3198.217208
_symmetry_space_group_name_H-M "P C C A"
_symmetry_group_IT_number 54
_symmetry_cell_setting 'orthorhombic'
loop_
_space_group_symop_operation_xyz
x,y,z
1/2-x,-y,z
1/2+x,-y,1/2-z
-x,y,1/2-z
-x,-y,-z
1/2+x,y,-z
1/2-x,y,1/2+z
x,-y,1/2+z
loop_
_atom_site_type_symbol
_atom_site_label
_atom_site_fract_x
_atom_site_fract_y
_atom_site_fract_z
Si Si1 0.126088 0.266737 0.298874
Si Si2 0.871537 0.945308 0.207716
Si Si3 0.252863 0.214183 0.548233
Si Si4 0.375497 0.627622 0.323243
Si Si5 0.372465 0.840057 0.798485
Si Si6 0.250000 0.000000 0.541202
Si Si7 0.284592 0.575070 0.608207
Si Si8 0.917081 0.510838 0.871584
O O1 0.163691 0.235262 0.434931
O O2 0.198143 0.253230 0.154316
O O3 0.139856 0.318830 0.346120
O O4 0.000000 0.258995 0.250000
O O5 0.847891 0.892805 0.174096
O O6 0.838251 0.976112 0.067628
O O7 0.803010 0.962848 0.349896
O O8 0.000000 0.949860 0.250000
O O9 0.200169 0.178218 0.661134
O O10 0.343060 0.189825 0.442794
O O11 0.500000 0.623676 0.250000
O O12 0.351597 0.598970 0.474356
O O13 0.275947 0.610759 0.215042
O O14 0.500000 0.835424 0.750000
O O15 0.362488 0.536493 0.682333
O O16 0.178034 0.543826 0.566947
O O17 0.000000 0.531011 0.750000
O O18 0.000000 0.500000 0.000000
#
# Coordination Sequence:
#
# PCOD9421379 Si02
#       8
#     8   8   8   8   8   4   8   8
#     4  10  21  37  57  80 109 143 178 220 272 327
#     4  10  20  34  52  77 107 144 185 228 276 326
#     4  10  20  36  57  81 108 141 180 224 277 329
#     4  11  23  39  58  83 113 144 182 223 266 323
#     4  10  20  34  55  81 109 140 182 231 276 326
#     4  10  20  34  52  74 108 148 186 226 274 330
#     4  11  22  37  58  81 110 145 178 219 265 311
#     4  11  22  37  57  82 109 140 177 216 259 308
#
# _framework density 18.760452999999998
#
# number of rings (size 3 to 8) (size 9 to 14) (size 15 to 20)
#    0.000    1.600    0.000    5.600    0.000    2.133 
#    0.000    0.000    0.000   20.800    0.000    0.000 
#    0.000    0.000    0.000    0.000    0.000    0.000 
#
# Total GULP energy -334579.333204 kJ/mol
# GULP energy per Si atom -5576.322220 kJ/mol
# Density = 1.871775 g / cm^3
# Si number density = 18.760453 Si / 1000 Ang^3
#
#
#
# Elastic Constant Matrix: (Units=GPa)
#
#
# Indices 1 2 3 4 5 6 
#
# 1 56.3140 15.0101 1.1732 0.0000 0.0000 0.0000
# 2 15.0101 78.4736 10.0941 0.0000 0.0000 0.0000
# 3 1.1732 10.0941 69.9642 0.0000 0.0000 0.0000
# 4 0.0000 0.0000 0.0000 54.5754 0.0000 0.0000
# 5 0.0000 0.0000 0.0000 0.0000 25.2406 0.0000
# 6 0.0000 0.0000 0.0000 0.0000 0.0000 31.6871
#
#
#
# Elastic Compliance Matrix: (Units=1/GPa)
#
#
# Indices 1 2 3 4 5 6 
#
# 1 0.018714 -0.003606 0.000206 0.000000 0.000000 0.000000
# 2 -0.003606 0.013679 -0.001913 0.000000 0.000000 0.000000
# 3 0.000206 -0.001913 0.014566 0.000000 0.000000 0.000000
# 4 0.000000 0.000000 0.000000 0.018323 0.000000 0.000000
# 5 0.000000 0.000000 0.000000 0.000000 0.039619 0.000000
# 6 0.000000 0.000000 0.000000 0.000000 0.000000 0.031559
#
#
# Mechanical properties :
#
#
# Convention : Reuss Voigt Hill
#
# Bulk Modulus (GPa) = 27.52281 28.58960 28.05621
# Shear Modulus (GPa) = 31.40777 34.19892 32.80335
#
# Velocity S-wave (km/s) = 4.09607 4.27421 4.18609
# Velocity P-wave (km/s) = 6.08875 6.29530 6.19289
#
# Compressibility (1/GPa) = 0.03633350
#
# Stress axis : x y z
#
# Youngs Moduli (GPa) = 53.43455 73.10480 68.65502
#
# Poissons Ratio (x) = 0.26363 -0.01418
# Poissons Ratio (y) = 0.19269 0.13134
# Poissons Ratio (z) = -0.01103 0.13985
#
# Static dielectric constant tensor:
#      x y z
#    x 1.655960 0.000000 0.000000 
#    y 0.000000 1.661990 0.000000 
#    z 0.000000 0.000000 1.610880 
# 
# From -- ./inp_files/3065.got.cif
#   From: 2010.05.17/outbox.cif.g08.bks.cpg/sg54_2_cif.got.tgz:3065.got - 2010.06.03 13:09:01.
