data_PCOD9421749
_publ_section_title
;
Structure prediction by ZEFSAII (Michael W. Deem and Ramdas Pophale) SiO2 
 PCOD9421749
Probable space group: P C C A
;
_chemical_formula_sum "Si O2"
_cell_formula_units_Z 56
_cell_length_a 11.365614
_cell_length_b 15.663996
_cell_length_c 16.858833
_cell_angle_alpha 90.000000
_cell_angle_beta 90.000000
_cell_angle_gamma 90.000000
_cell_volume 3001.393755
_symmetry_space_group_name_H-M "P C C A"
_symmetry_group_IT_number 54
_symmetry_cell_setting 'orthorhombic'
loop_
_space_group_symop_operation_xyz
x,y,z
1/2-x,-y,z
1/2+x,-y,1/2-z
-x,y,1/2-z
-x,-y,-z
1/2+x,y,-z
1/2-x,y,1/2+z
x,-y,1/2+z
loop_
_atom_site_type_symbol
_atom_site_label
_atom_site_fract_x
_atom_site_fract_y
_atom_site_fract_z
Si Si1 0.014137 0.585796 0.549075
Si Si2 0.954635 0.841563 0.340392
Si Si3 0.379472 0.265993 0.450267
Si Si4 0.882102 0.370052 0.301442
Si Si5 0.723108 0.400882 0.642989
Si Si6 0.304767 0.799153 0.118207
Si Si7 0.116146 0.974170 0.694227
O O1 0.036717 0.664522 0.491580
O O2 0.114780 0.577217 0.616710
O O3 0.000000 0.500000 0.500000
O O4 0.900898 0.609952 0.599747
O O5 0.830560 0.795339 0.354471
O O6 0.000000 0.832939 0.250000
O O7 0.050622 0.803055 0.399221
O O8 0.925218 0.941538 0.352832
O O9 0.302362 0.326633 0.393739
O O10 0.314165 0.221873 0.524783
O O11 0.781968 0.390273 0.237804
O O12 0.873244 0.273233 0.332179
O O13 0.000000 0.384940 0.250000
O O14 0.750000 0.500000 0.625401
O O15 0.357744 0.890939 0.141780
O O16 0.000000 0.957043 0.750000
O O17 0.250000 0.000000 0.728376
#
# Coordination Sequence:
#
# PCOD9421749 Si02
#       7
#     8   8   8   8   8   8   8
#     4  10  20  39  55  79 112 147 195 248 302 355
#     4  10  21  39  59  91 125 157 204 258 317 384
#     4  11  22  37  59  83 119 160 200 254 309 369
#     4   9  20  36  56  80 108 143 196 243 291 369
#     4  11  21  38  55  80 113 156 201 250 304 369
#     4  10  20  38  60  88 117 162 203 253 320 379
#     4   9  19  37  64  92 130 165 208 266 324 394
#
# _framework density 18.658000000000001
#
# number of rings (size 3 to 8) (size 9 to 14) (size 15 to 20)
#    0.000    2.000    1.429    2.143    0.000    0.571 
#   10.286    4.286    0.000    7.714    0.000    0.000 
#    0.000    0.000    0.000    0.000    0.000    0.000 
#
# Total GULP energy -311749.930819 kJ/mol
# GULP energy per Si atom -5566.963050 kJ/mol
# Density = 1.861553 g / cm^3
# Si number density = 18.658000 Si / 1000 Ang^3
#
#
#
# Elastic Constant Matrix: (Units=GPa)
#
#
# Indices 1 2 3 4 5 6 
#
# 1 67.7284 39.0485 38.0829 0.0000 0.0000 0.0000
# 2 39.0485 90.9283 56.9492 0.0000 0.0000 0.0000
# 3 38.0829 56.9492 109.8869 0.0000 0.0000 0.0000
# 4 0.0000 0.0000 0.0000 26.9550 0.0000 0.0000
# 5 0.0000 0.0000 0.0000 0.0000 33.3506 0.0000
# 6 0.0000 0.0000 0.0000 0.0000 0.0000 23.0261
#
#
#
# Elastic Compliance Matrix: (Units=1/GPa)
#
#
# Indices 1 2 3 4 5 6 
#
# 1 0.020637 -0.006489 -0.003789 0.000000 0.000000 0.000000
# 2 -0.006489 0.018323 -0.007247 0.000000 0.000000 0.000000
# 3 -0.003789 -0.007247 0.014169 0.000000 0.000000 0.000000
# 4 0.000000 0.000000 0.000000 0.037099 0.000000 0.000000
# 5 0.000000 0.000000 0.000000 0.000000 0.029984 0.000000
# 6 0.000000 0.000000 0.000000 0.000000 0.000000 0.043429
#
#
# Mechanical properties :
#
#
# Convention : Reuss Voigt Hill
#
# Bulk Modulus (GPa) = 55.31390 59.63388 57.47389
# Shear Modulus (GPa) = 24.42380 25.63056 25.02718
#
# Velocity S-wave (km/s) = 3.62197 3.71037 3.66644
# Velocity P-wave (km/s) = 6.87038 7.09836 6.98530
#
# Compressibility (1/GPa) = 0.01807864
#
# Stress axis : x y z
#
# Youngs Moduli (GPa) = 48.45752 54.57489 70.57543
#
# Poissons Ratio (x) = 0.35415 0.26740
# Poissons Ratio (y) = 0.31445 0.51148
# Poissons Ratio (z) = 0.18360 0.39552
#
# Static dielectric constant tensor:
#      x y z
#    x 1.672100 0.000000 0.000000 
#    y 0.000000 1.644610 0.000000 
#    z 0.000000 0.000000 1.675350 
# 
# From -- ./inp_files/12693.got.cif
#   From: 2010.05.17/outbox.cif.g08.bks.cpg/sg54_7_cif.got.tgz:12693.got - 2010.06.03 13:09:01.
