data_PCOD9421941
_publ_section_title
;
Structure prediction by ZEFSAII (Michael W. Deem and Ramdas Pophale) SiO2 
 PCOD9421941
Probable space group: P C C A
;
_chemical_formula_sum "Si O2"
_cell_formula_units_Z 60
_cell_length_a 15.806435
_cell_length_b 8.916704
_cell_length_c 21.970411
_cell_angle_alpha 90.000000
_cell_angle_beta 90.000000
_cell_angle_gamma 90.000000
_cell_volume 3096.538336
_symmetry_space_group_name_H-M "P C C A"
_symmetry_group_IT_number 54
_symmetry_cell_setting 'orthorhombic'
loop_
_space_group_symop_operation_xyz
x,y,z
1/2-x,-y,z
1/2+x,-y,1/2-z
-x,y,1/2-z
-x,-y,-z
1/2+x,y,-z
1/2-x,y,1/2+z
x,-y,1/2+z
loop_
_atom_site_type_symbol
_atom_site_label
_atom_site_fract_x
_atom_site_fract_y
_atom_site_fract_z
Si Si1 0.674896 0.810605 0.944940
Si Si2 0.924901 0.659739 0.659572
Si Si3 0.214922 0.333190 0.258420
Si Si4 0.500000 0.589412 0.750000
Si Si5 0.634719 0.823388 0.800977
Si Si6 0.579986 0.157507 0.815301
Si Si7 0.026822 0.335895 0.481836
Si Si8 0.635707 0.153559 0.955819
O O1 0.665003 0.809701 0.871380
O O2 0.771629 0.771998 0.962315
O O3 0.652201 0.978348 0.968193
O O4 0.604522 0.709619 0.975729
O O5 0.826172 0.675768 0.674968
O O6 0.944196 0.657348 0.588442
O O7 0.956982 0.514651 0.697933
O O8 0.981792 0.797595 0.684493
O O9 0.250000 0.500000 0.246368
O O10 0.286361 0.213818 0.242275
O O11 0.135282 0.286610 0.216692
O O12 0.566111 0.697867 0.783992
O O13 0.600107 0.991184 0.791924
O O14 0.610954 0.160643 0.884928
O O15 0.000000 0.500000 0.500000
O O16 0.944842 0.226798 0.488907
#
# Coordination Sequence:
#
# PCOD9421941 Si02
#       8
#     8   8   8   4   8   8   8   8
#     4  10  20  42  65  91 119 158 209 257 313 366
#     4  11  23  41  61  87 128 170 198 257 323 371
#     4  12  21  38  60  90 126 164 200 251 310 375
#     4  12  22  38  56  88 128 162 200 248 314 370
#     4  11  23  37  65  95 119 159 209 260 301 375
#     4  10  20  40  64  92 121 156 208 254 311 368
#     4  11  24  41  62  92 124 164 212 257 310 379
#     4   9  20  39  67  90 119 155 205 263 308 364
#
# _framework density 19.376474999999999
#
# number of rings (size 3 to 8) (size 9 to 14) (size 15 to 20)
#    0.000    1.333    4.000    1.600    1.867    1.600 
#    2.400    0.000    5.867    0.000    0.000    0.000 
#    0.000    0.000    0.000    0.000    0.000    0.000 
#
# Total GULP energy -334847.311310 kJ/mol
# GULP energy per Si atom -5580.788522 kJ/mol
# Density = 1.933237 g / cm^3
# Si number density = 19.376475 Si / 1000 Ang^3
#
#
#
# Elastic Constant Matrix: (Units=GPa)
#
#
# Indices 1 2 3 4 5 6 
#
# 1 128.6216 59.7751 30.1804 0.0000 0.0000 0.0000
# 2 59.7751 95.2514 24.8762 0.0000 0.0000 0.0000
# 3 30.1804 24.8762 45.8042 0.0000 0.0000 0.0000
# 4 0.0000 0.0000 0.0000 25.5362 0.0000 0.0000
# 5 0.0000 0.0000 0.0000 0.0000 33.7303 0.0000
# 6 0.0000 0.0000 0.0000 0.0000 0.0000 34.8590
#
#
#
# Elastic Compliance Matrix: (Units=1/GPa)
#
#
# Indices 1 2 3 4 5 6 
#
# 1 0.011667 -0.006192 -0.004324 0.000000 0.000000 0.000000
# 2 -0.006192 0.015520 -0.004349 0.000000 0.000000 0.000000
# 3 -0.004324 -0.004349 0.027043 0.000000 0.000000 0.000000
# 4 0.000000 0.000000 0.000000 0.039160 0.000000 0.000000
# 5 0.000000 0.000000 0.000000 0.000000 0.029647 0.000000
# 6 0.000000 0.000000 0.000000 0.000000 0.000000 0.028687
#
#
# Mechanical properties :
#
#
# Convention : Reuss Voigt Hill
#
# Bulk Modulus (GPa) = 40.81736 55.48228 48.14982
# Shear Modulus (GPa) = 26.36810 29.14814 27.75812
#
# Velocity S-wave (km/s) = 3.69295 3.88275 3.78903
# Velocity P-wave (km/s) = 6.26857 6.98548 6.63671
#
# Compressibility (1/GPa) = 0.02449938
#
# Stress axis : x y z
#
# Youngs Moduli (GPa) = 85.70955 64.43152 36.97769
#
# Poissons Ratio (x) = 0.39899 0.15991
# Poissons Ratio (y) = 0.53075 0.16081
# Poissons Ratio (z) = 0.37065 0.28021
#
# Static dielectric constant tensor:
#      x y z
#    x 1.711260 0.000000 0.000000 
#    y 0.000000 1.677110 0.000000 
#    z 0.000000 0.000000 1.680060 
# 
# From -- ./inp_files/24468.got.cif
#   From: 2010.05.17/outbox.cif.g08.bks.cpg/sg54_13_cif.got.tgz:24468.got - 2010.06.03 13:09:01.
