data_PCOD9421013
_publ_section_title
;
Structure prediction by ZEFSAII (Michael W. Deem and Ramdas Pophale) SiO2 
 PCOD9421013
Probable space group: P C C A
;
_chemical_formula_sum "Si O2"
_cell_formula_units_Z 60
_cell_length_a 27.212603
_cell_length_b 19.722400
_cell_length_c 5.408326
_cell_angle_alpha 90.000000
_cell_angle_beta 90.000000
_cell_angle_gamma 90.000000
_cell_volume 2902.636890
_symmetry_space_group_name_H-M "P C C A"
_symmetry_group_IT_number 54
_symmetry_cell_setting 'orthorhombic'
loop_
_space_group_symop_operation_xyz
x,y,z
1/2-x,-y,z
1/2+x,-y,1/2-z
-x,y,1/2-z
-x,-y,-z
1/2+x,y,-z
1/2-x,y,1/2+z
x,-y,1/2+z
loop_
_atom_site_type_symbol
_atom_site_label
_atom_site_fract_x
_atom_site_fract_y
_atom_site_fract_z
Si Si1 0.695469 0.954829 0.815702
Si Si2 0.766553 0.177643 0.308945
Si Si3 0.151687 0.481265 0.254399
Si Si4 0.555198 0.581387 0.744780
Si Si5 0.118245 0.198657 0.176901
Si Si6 0.409642 0.646619 0.255556
Si Si7 0.500000 0.957216 0.750000
Si Si8 0.595461 0.129921 0.325044
O O1 0.735642 0.893611 0.814541
O O2 0.643091 0.918154 0.816994
O O3 0.698477 0.999821 0.565246
O O4 0.751322 0.213390 0.561269
O O5 0.825094 0.173655 0.302221
O O6 0.178074 0.500706 0.503689
O O7 0.099726 0.525915 0.252988
O O8 0.136852 0.403474 0.257303
O O9 0.500000 0.551385 0.750000
O O10 0.561209 0.624315 0.492266
O O11 0.562510 0.627717 0.989338
O O12 0.108513 0.276901 0.236158
O O13 0.091103 0.158564 0.397484
O O14 0.102802 0.184024 0.895145
O O15 0.451882 0.911942 0.745038
O O16 0.500000 0.000000 0.500000
#
# Coordination Sequence:
#
# PCOD9421013 Si02
#       8
#     8   8   8   8   8   8   4   8
#     4  12  24  40  64  98 121 145 186 244 321 384
#     4  12  23  43  62  93 127 157 183 246 317 386
#     4   8  16  29  50  77 112 148 192 249 299 340
#     4  10  19  34  54  85 119 151 204 267 308 339
#     4  12  24  45  60  87 129 166 203 242 304 376
#     4  10  21  35  54  79 116 163 200 231 291 366
#     4  12  26  50  70  90 114 160 224 256 298 356
#     4  12  25  46  66  89 124 164 198 262 301 346
#
# _framework density 20.670860999999999
#
# number of rings (size 3 to 8) (size 9 to 14) (size 15 to 20)
#    0.000    1.067    2.667    4.400    0.000    6.400 
#    7.200    0.000    0.000    0.000    0.000    0.000 
#    0.000   28.800    0.000    0.000    0.000    0.000 
#
# Total GULP energy -335082.425548 kJ/mol
# GULP energy per Si atom -5584.707092 kJ/mol
# Density = 2.062381 g / cm^3
# Si number density = 20.670861 Si / 1000 Ang^3
#
#
#
# Elastic Constant Matrix: (Units=GPa)
#
#
# Indices 1 2 3 4 5 6 
#
# 1 46.7399 24.6499 -7.9512 0.0000 0.0000 0.0000
# 2 24.6499 67.5719 -0.7889 0.0000 0.0000 0.0000
# 3 -7.9512 -0.7889 160.2594 0.0000 0.0000 0.0000
# 4 0.0000 0.0000 0.0000 26.3150 0.0000 0.0000
# 5 0.0000 0.0000 0.0000 0.0000 18.1773 0.0000
# 6 0.0000 0.0000 0.0000 0.0000 0.0000 5.9629
#
#
#
# Elastic Compliance Matrix: (Units=1/GPa)
#
#
# Indices 1 2 3 4 5 6 
#
# 1 0.026751 -0.009744 0.001279 0.000000 0.000000 0.000000
# 2 -0.009744 0.018349 -0.000393 0.000000 0.000000 0.000000
# 3 0.001279 -0.000393 0.006301 0.000000 0.000000 0.000000
# 4 0.000000 0.000000 0.000000 0.038001 0.000000 0.000000
# 5 0.000000 0.000000 0.000000 0.000000 0.055014 0.000000
# 6 0.000000 0.000000 0.000000 0.000000 0.000000 0.167705
#
#
# Mechanical properties :
#
#
# Convention : Reuss Voigt Hill
#
# Bulk Modulus (GPa) = 29.68552 34.04342 31.86447
# Shear Modulus (GPa) = 14.65993 27.33512 20.99752
#
# Velocity S-wave (km/s) = 2.66598 3.64042 3.19062
# Velocity P-wave (km/s) = 4.88558 5.84596 5.38721
#
# Compressibility (1/GPa) = 0.03368646
#
# Stress axis : x y z
#
# Youngs Moduli (GPa) = 37.38122 54.49899 158.69441
#
# Poissons Ratio (x) = 0.53103 -0.20302
# Poissons Ratio (y) = 0.36424 0.06238
# Poissons Ratio (z) = -0.04782 0.02142
#
# Static dielectric constant tensor:
#      x y z
#    x 1.714830 0.000000 0.000000 
#    y 0.000000 1.718250 0.000000 
#    z 0.000000 0.000000 1.827920 
# 
# From -- ./inp_files/1989.got.cif
#   From: 2010.05.17/outbox.cif.g08.bks.cpg/sg54_1_cif.got.tgz:1989.got - 2010.06.03 13:09:01.
