data_PCOD9421640
_publ_section_title
;
Structure prediction by ZEFSAII (Michael W. Deem and Ramdas Pophale) SiO2 
 PCOD9421640
Probable space group: P C C A
;
_chemical_formula_sum "Si O2"
_cell_formula_units_Z 52
_cell_length_a 20.191581
_cell_length_b 5.233490
_cell_length_c 26.240957
_cell_angle_alpha 90.000000
_cell_angle_beta 90.000000
_cell_angle_gamma 90.000000
_cell_volume 2772.945882
_symmetry_space_group_name_H-M "P C C A"
_symmetry_group_IT_number 54
_symmetry_cell_setting 'orthorhombic'
loop_
_space_group_symop_operation_xyz
x,y,z
1/2-x,-y,z
1/2+x,-y,1/2-z
-x,y,1/2-z
-x,-y,-z
1/2+x,y,-z
1/2-x,y,1/2+z
x,-y,1/2+z
loop_
_atom_site_type_symbol
_atom_site_label
_atom_site_fract_x
_atom_site_fract_y
_atom_site_fract_z
Si Si1 0.924229 0.905846 0.336785
Si Si2 0.540321 0.726711 0.941050
Si Si3 0.750000 0.500000 0.191191
Si Si4 0.051735 0.772879 0.945107
Si Si5 0.824359 0.116260 0.745418
Si Si6 0.135230 0.787097 0.847669
Si Si7 0.502472 0.594597 0.190945
O O1 0.912229 0.801364 0.393995
O O2 0.863460 0.917797 0.297506
O O3 0.972297 0.685280 0.315246
O O4 0.960794 0.179614 0.336530
O O5 0.496781 0.469208 0.931983
O O6 0.490192 0.966185 0.944037
O O7 0.573212 0.713022 0.996779
O O8 0.692843 0.402757 0.228988
O O9 0.789526 0.309023 0.155068
O O10 0.110556 0.826303 0.905157
O O11 0.750000 0.000000 0.748651
O O12 0.863328 0.002344 0.696616
O O13 0.077192 0.599157 0.828617
O O14 0.500000 0.665481 0.250000
#
# Coordination Sequence:
#
# PCOD9421640 Si02
#       7
#     8   8   4   8   8   8   8
#     4  12  22  37  60  88 122 154 196 244 303 359
#     4  10  20  37  55  94 117 156 184 247 309 351
#     4  10  24  40  58  78 120 166 202 236 302 364
#     4  10  21  35  61  84 126 147 196 242 302 357
#     4  10  24  40  57  83 120 166 204 242 299 366
#     4  11  21  38  57  87 116 161 198 248 297 362
#     4  12  23  33  57  93 121 147 192 252 301 348
#
# _framework density 18.752617999999998
#
# number of rings (size 3 to 8) (size 9 to 14) (size 15 to 20)
#    0.000    1.231    4.615    1.385    6.462    0.000 
#    0.000    0.000    0.000    3.692    0.000    0.000 
#    0.000    0.000    0.000    0.000    0.000    0.000 
#
# Total GULP energy -289611.588644 kJ/mol
# GULP energy per Si atom -5569.453628 kJ/mol
# Density = 1.870994 g / cm^3
# Si number density = 18.752618 Si / 1000 Ang^3
#
#
#
# Elastic Constant Matrix: (Units=GPa)
#
#
# Indices 1 2 3 4 5 6 
#
# 1 65.9554 18.0597 39.6505 0.0000 0.0000 0.0000
# 2 18.0597 84.1344 12.5745 0.0000 0.0000 0.0000
# 3 39.6505 12.5745 163.4875 0.0000 0.0000 0.0000
# 4 0.0000 0.0000 0.0000 25.3742 0.0000 0.0000
# 5 0.0000 0.0000 0.0000 0.0000 25.4451 0.0000
# 6 0.0000 0.0000 0.0000 0.0000 0.0000 19.9762
#
#
#
# Elastic Compliance Matrix: (Units=1/GPa)
#
#
# Indices 1 2 3 4 5 6 
#
# 1 0.018646 -0.003365 -0.004263 0.000000 0.000000 0.000000
# 2 -0.003365 0.012631 -0.000155 0.000000 0.000000 0.000000
# 3 -0.004263 -0.000155 0.007163 0.000000 0.000000 0.000000
# 4 0.000000 0.000000 0.000000 0.039410 0.000000 0.000000
# 5 0.000000 0.000000 0.000000 0.000000 0.039300 0.000000
# 6 0.000000 0.000000 0.000000 0.000000 0.000000 0.050060
#
#
# Mechanical properties :
#
#
# Convention : Reuss Voigt Hill
#
# Bulk Modulus (GPa) = 43.72135 50.46074 47.09104
# Shear Modulus (GPa) = 26.26018 30.37861 28.31940
#
# Velocity S-wave (km/s) = 3.74618 4.02925 3.89029
# Velocity P-wave (km/s) = 6.48670 6.97234 6.73390
#
# Compressibility (1/GPa) = 0.02287212
#
# Stress axis : x y z
#
# Youngs Moduli (GPa) = 53.63003 79.16817 139.61359
#
# Poissons Ratio (x) = 0.26642 0.59523
# Poissons Ratio (y) = 0.18048 0.02169
# Poissons Ratio (z) = 0.22865 0.01230
#
# Static dielectric constant tensor:
#      x y z
#    x 1.634730 0.000000 0.000000 
#    y 0.000000 1.769270 0.000000 
#    z 0.000000 0.000000 1.727920 
# 
# From -- ./inp_files/28314.got.cif
#   From: 2010.05.17/outbox.cif.g08.bks.cpg/sg54_15_cif.got.tgz:28314.got - 2010.06.03 13:09:01.
