data_PCOD9421896
_publ_section_title
;
Structure prediction by ZEFSAII (Michael W. Deem and Ramdas Pophale) SiO2 
 PCOD9421896
Probable space group: P C C A
;
_chemical_formula_sum "Si O2"
_cell_formula_units_Z 56
_cell_length_a 30.136456
_cell_length_b 5.411909
_cell_length_c 15.573171
_cell_angle_alpha 90.000000
_cell_angle_beta 90.000000
_cell_angle_gamma 90.000000
_cell_volume 2539.918120
_symmetry_space_group_name_H-M "P C C A"
_symmetry_group_IT_number 54
_symmetry_cell_setting 'orthorhombic'
loop_
_space_group_symop_operation_xyz
x,y,z
1/2-x,-y,z
1/2+x,-y,1/2-z
-x,y,1/2-z
-x,-y,-z
1/2+x,y,-z
1/2-x,y,1/2+z
x,-y,1/2+z
loop_
_atom_site_type_symbol
_atom_site_label
_atom_site_fract_x
_atom_site_fract_y
_atom_site_fract_z
Si Si1 0.571530 0.376450 0.131915
Si Si2 0.342358 0.515311 0.964172
Si Si3 0.394393 0.754412 0.599974
Si Si4 0.376516 0.971253 0.263575
Si Si5 0.947838 0.597511 0.796343
Si Si6 0.957584 0.863794 0.965661
Si Si7 0.198306 0.974956 0.903110
O O1 0.618694 0.501186 0.107984
O O2 0.539042 0.510935 0.200252
O O3 0.550295 0.341985 0.038532
O O4 0.587067 0.121185 0.178094
O O5 0.310280 0.281489 0.952659
O O6 0.319215 0.780271 0.953217
O O7 0.367930 0.460315 0.052498
O O8 0.437330 0.641424 0.646984
O O9 0.367281 0.873861 0.677280
O O10 0.413706 0.961757 0.535986
O O11 0.400642 0.726059 0.229734
O O12 0.332420 0.954006 0.318958
O O13 0.965924 0.785652 0.867265
O O14 0.000000 0.000000 0.000000
O O15 0.250000 0.000000 0.883953
#
# Coordination Sequence:
#
# PCOD9421896 Si02
#       7
#     8   8   8   8   8   8   8
#     4  10  20  39  67  90 127 183 231 276 336 417
#     4  11  21  40  70  94 129 184 230 276 339 430
#     4  10  21  39  66  94 123 182 236 277 337 429
#     4   9  20  37  64  96 124 175 230 277 330 425
#     4  10  20  40  66  95 123 174 244 272 340 426
#     4  11  24  41  64  99 143 178 229 305 362 401
#     4  11  23  40  66 101 137 174 225 290 358 412
#
# _framework density 22.047955000000002
#
# number of rings (size 3 to 8) (size 9 to 14) (size 15 to 20)
#    0.000    1.714    2.857    2.143    2.000    0.571 
#    0.000    8.571    6.286    0.000    0.000    0.000 
#    0.000    0.000    0.000    0.000    0.000    0.000 
#
# Total GULP energy -312465.840340 kJ/mol
# GULP energy per Si atom -5579.747149 kJ/mol
# Density = 2.199777 g / cm^3
# Si number density = 22.047955 Si / 1000 Ang^3
#
#
#
# Elastic Constant Matrix: (Units=GPa)
#
#
# Indices 1 2 3 4 5 6 
#
# 1 62.6529 12.4073 31.0382 0.0000 0.0000 0.0000
# 2 12.4073 82.3667 33.0700 0.0000 0.0000 0.0000
# 3 31.0382 33.0700 108.9527 0.0000 0.0000 0.0000
# 4 0.0000 0.0000 0.0000 43.8091 0.0000 0.0000
# 5 0.0000 0.0000 0.0000 0.0000 26.5960 0.0000
# 6 0.0000 0.0000 0.0000 0.0000 0.0000 30.2315
#
#
#
# Elastic Compliance Matrix: (Units=1/GPa)
#
#
# Indices 1 2 3 4 5 6 
#
# 1 0.018626 -0.000769 -0.005073 0.000000 0.000000 0.000000
# 2 -0.000769 0.013857 -0.003987 0.000000 0.000000 0.000000
# 3 -0.005073 -0.003987 0.011834 0.000000 0.000000 0.000000
# 4 0.000000 0.000000 0.000000 0.022826 0.000000 0.000000
# 5 0.000000 0.000000 0.000000 0.000000 0.037600 0.000000
# 6 0.000000 0.000000 0.000000 0.000000 0.000000 0.033078
#
#
# Mechanical properties :
#
#
# Convention : Reuss Voigt Hill
#
# Bulk Modulus (GPa) = 40.55213 45.22258 42.88735
# Shear Modulus (GPa) = 30.17521 31.95777 31.06649
#
# Velocity S-wave (km/s) = 3.70350 3.81132 3.75779
# Velocity P-wave (km/s) = 6.05974 6.31852 6.19048
#
# Compressibility (1/GPa) = 0.02465962
#
# Stress axis : x y z
#
# Youngs Moduli (GPa) = 53.68746 72.16333 84.50531
#
# Poissons Ratio (x) = 0.05550 0.42868
# Poissons Ratio (y) = 0.04129 0.33692
# Poissons Ratio (z) = 0.27235 0.28772
#
# Static dielectric constant tensor:
#      x y z
#    x 1.851730 0.000000 0.000000 
#    y 0.000000 1.895340 0.000000 
#    z 0.000000 0.000000 1.844550 
# 
# From -- ./inp_files/15341.got.cif
#   From: 2010.05.17/outbox.cif.g08.bks.cpg/sg54_8_cif.got.tgz:15341.got - 2010.06.03 13:09:01.
