data_PCOD9421284
_publ_section_title
;
Structure prediction by ZEFSAII (Michael W. Deem and Ramdas Pophale) SiO2 
 PCOD9421284
Probable space group: P C C A
;
_chemical_formula_sum "Si O2"
_cell_formula_units_Z 64
_cell_length_a 14.951456
_cell_length_b 18.120265
_cell_length_c 9.563554
_cell_angle_alpha 90.000000
_cell_angle_beta 90.000000
_cell_angle_gamma 90.000000
_cell_volume 2590.999602
_symmetry_space_group_name_H-M "P C C A"
_symmetry_group_IT_number 54
_symmetry_cell_setting 'orthorhombic'
loop_
_space_group_symop_operation_xyz
x,y,z
1/2-x,-y,z
1/2+x,-y,1/2-z
-x,y,1/2-z
-x,-y,-z
1/2+x,y,-z
1/2-x,y,1/2+z
x,-y,1/2+z
loop_
_atom_site_type_symbol
_atom_site_label
_atom_site_fract_x
_atom_site_fract_y
_atom_site_fract_z
Si Si1 0.550259 0.089640 0.381554
Si Si2 0.922916 0.923627 0.858456
Si Si3 0.174810 0.778894 0.711005
Si Si4 0.417298 0.345722 0.572050
Si Si5 0.791109 0.275398 0.613090
Si Si6 0.749251 0.418947 0.785103
Si Si7 0.560606 0.626609 0.886508
Si Si8 0.336410 0.775402 0.566266
O O1 0.500000 0.123527 0.250000
O O2 0.470008 0.080874 0.491738
O O3 0.625096 0.142765 0.438535
O O4 0.593887 0.010901 0.339950
O O5 0.847408 0.863191 0.831373
O O6 0.000000 0.903608 0.750000
O O7 0.090341 0.722947 0.678407
O O8 0.178505 0.766833 0.884356
O O9 0.296807 0.776910 0.745435
O O10 0.390856 0.305254 0.425279
O O11 0.337549 0.400375 0.620676
O O12 0.506398 0.388666 0.530329
O O13 0.751323 0.352862 0.673206
O O14 0.773978 0.249522 0.446319
O O15 0.750000 0.500000 0.722628
O O16 0.842233 0.411382 0.870117
O O17 0.500000 0.608468 0.750000
O O18 0.591041 0.711919 0.905505
#
# Coordination Sequence:
#
# PCOD9421284 Si02
#       8
#     8   8   8   8   8   8   8   8
#     4  10  22  38  59  90 130 173 232 280 338 413
#     4  10  21  39  57  87 132 180 220 282 350 406
#     4  10  20  35  59  89 126 164 216 279 333 394
#     4  10  21  39  63  94 127 168 223 271 333 410
#     4  10  19  41  61  91 127 166 212 279 338 398
#     4  11  24  43  64  96 133 171 215 282 342 416
#     4  12  21  40  67  91 123 173 219 266 333 406
#     4  11  21  36  63  93 122 168 223 282 329 402
#
# _framework density 24.700890000000001
#
# number of rings (size 3 to 8) (size 9 to 14) (size 15 to 20)
#    0.000    1.500    5.000    1.875    0.000    3.500 
#    0.000    3.125    0.000    7.500    0.000    0.000 
#    0.000    0.000    0.000    0.000    0.000    0.000 
#
# Total GULP energy -356533.297724 kJ/mol
# GULP energy per Si atom -5570.832777 kJ/mol
# Density = 2.464467 g / cm^3
# Si number density = 24.700890 Si / 1000 Ang^3
#
#
#
# Elastic Constant Matrix: (Units=GPa)
#
#
# Indices 1 2 3 4 5 6 
#
# 1 108.8006 50.7254 32.1606 0.0000 0.0000 0.0000
# 2 50.7254 132.8810 10.0348 0.0000 0.0000 0.0000
# 3 32.1606 10.0348 116.6007 0.0000 0.0000 0.0000
# 4 0.0000 0.0000 0.0000 20.4652 0.0000 0.0000
# 5 0.0000 0.0000 0.0000 0.0000 45.9609 0.0000
# 6 0.0000 0.0000 0.0000 0.0000 0.0000 11.3613
#
#
#
# Elastic Compliance Matrix: (Units=1/GPa)
#
#
# Indices 1 2 3 4 5 6 
#
# 1 0.012120 -0.004403 -0.002964 0.000000 0.000000 0.000000
# 2 -0.004403 0.009174 0.000425 0.000000 0.000000 0.000000
# 3 -0.002964 0.000425 0.009357 0.000000 0.000000 0.000000
# 4 0.000000 0.000000 0.000000 0.048863 0.000000 0.000000
# 5 0.000000 0.000000 0.000000 0.000000 0.021758 0.000000
# 6 0.000000 0.000000 0.000000 0.000000 0.000000 0.088018
#
#
# Mechanical properties :
#
#
# Convention : Reuss Voigt Hill
#
# Bulk Modulus (GPa) = 59.63938 60.45819 60.04879
# Shear Modulus (GPa) = 23.95051 33.24823 28.59937
#
# Velocity S-wave (km/s) = 3.11725 3.67281 3.40638
# Velocity P-wave (km/s) = 6.09536 6.52038 6.31145
#
# Compressibility (1/GPa) = 0.01676744
#
# Stress axis : x y z
#
# Youngs Moduli (GPa) = 82.50873 109.00199 106.86918
#
# Poissons Ratio (x) = 0.47991 0.31676
# Poissons Ratio (y) = 0.36327 -0.04540
# Poissons Ratio (z) = 0.24455 -0.04631
#
# Static dielectric constant tensor:
#      x y z
#    x 2.106540 0.000000 0.000000 
#    y 0.000000 1.877430 0.000000 
#    z 0.000000 0.000000 2.019230 
# 
# From -- ./inp_files/8557.got.cif
#   From: 2010.05.17/outbox.cif.g08.bks.cpg/sg54_5_cif.got.tgz:8557.got - 2010.06.03 13:09:01.
