data_PCOD9421095
_publ_section_title
;
Structure prediction by ZEFSAII (Michael W. Deem and Ramdas Pophale) SiO2 
 PCOD9421095
Probable space group: P C C A
;
_chemical_formula_sum "Si O2"
_cell_formula_units_Z 64
_cell_length_a 9.438119
_cell_length_b 14.782914
_cell_length_c 22.311449
_cell_angle_alpha 90.000000
_cell_angle_beta 90.000000
_cell_angle_gamma 90.000000
_cell_volume 3112.958101
_symmetry_space_group_name_H-M "P C C A"
_symmetry_group_IT_number 54
_symmetry_cell_setting 'orthorhombic'
loop_
_space_group_symop_operation_xyz
x,y,z
1/2-x,-y,z
1/2+x,-y,1/2-z
-x,y,1/2-z
-x,-y,-z
1/2+x,y,-z
1/2-x,y,1/2+z
x,-y,1/2+z
loop_
_atom_site_type_symbol
_atom_site_label
_atom_site_fract_x
_atom_site_fract_y
_atom_site_fract_z
Si Si1 0.925918 0.432146 0.455665
Si Si2 0.614253 0.936941 0.578013
Si Si3 0.104504 0.609209 0.663822
Si Si4 0.699216 0.677326 0.022920
Si Si5 0.628703 0.070399 0.942216
Si Si6 0.285155 0.602608 0.295043
Si Si7 0.213745 0.238139 0.599589
Si Si8 0.890312 0.254353 0.632502
O O1 0.045659 0.352394 0.454065
O O2 0.000000 0.500000 0.500000
O O3 0.906328 0.467170 0.387960
O O4 0.781139 0.400463 0.486062
O O5 0.583465 0.898625 0.509865
O O6 0.634259 0.853809 0.623987
O O7 0.750000 0.000000 0.579519
O O8 0.489750 0.009133 0.588998
O O9 0.194044 0.594450 0.723567
O O10 0.181066 0.688541 0.627444
O O11 0.942303 0.628188 0.681993
O O12 0.806503 0.704785 0.075162
O O13 0.683560 0.751816 0.971548
O O14 0.698419 0.145234 0.899650
O O15 0.750000 0.000000 0.956466
O O16 0.250000 0.500000 0.317599
O O17 0.175015 0.680990 0.315285
O O18 0.061046 0.255930 0.629379
#
# Coordination Sequence:
#
# PCOD9421095 Si02
#       8
#     8   8   8   8   8   8   8   8
#     4  11  23  38  62  93 135 171 221 282 358 418
#     4  10  22  33  61 100 141 182 223 277 343 432
#     4  10  26  46  67  97 129 179 228 286 349 408
#     4  11  22  35  57  94 133 174 216 272 345 423
#     4  10  19  35  58  97 145 181 218 267 353 436
#     4  11  27  48  72  93 130 181 246 299 341 410
#     4  11  23  39  65  98 142 181 220 284 354 431
#     4  12  23  40  65  95 136 183 233 283 352 417
#
# _framework density 20.559221999999998
#
# number of rings (size 3 to 8) (size 9 to 14) (size 15 to 20)
#    0.000    1.250    5.000    0.375    3.500    4.500 
#    0.000    0.000    0.000    0.750    0.000    0.000 
#    0.000    0.000    0.000    0.000    0.000    0.000 
#
# Total GULP energy -356552.997400 kJ/mol
# GULP energy per Si atom -5571.140584 kJ/mol
# Density = 2.051243 g / cm^3
# Si number density = 20.559222 Si / 1000 Ang^3
#
#
#
# Elastic Constant Matrix: (Units=GPa)
#
#
# Indices 1 2 3 4 5 6 
#
# 1 150.3484 59.9428 38.9359 0.0000 0.0000 0.0000
# 2 59.9428 97.8579 34.9618 0.0000 0.0000 0.0000
# 3 38.9359 34.9618 103.7671 0.0000 0.0000 0.0000
# 4 0.0000 0.0000 0.0000 11.4993 0.0000 0.0000
# 5 0.0000 0.0000 0.0000 0.0000 28.1202 0.0000
# 6 0.0000 0.0000 0.0000 0.0000 0.0000 41.4841
#
#
#
# Elastic Compliance Matrix: (Units=1/GPa)
#
#
# Indices 1 2 3 4 5 6 
#
# 1 0.009069 -0.004933 -0.001741 0.000000 0.000000 0.000000
# 2 -0.004933 0.014301 -0.002967 0.000000 0.000000 0.000000
# 3 -0.001741 -0.002967 0.011290 0.000000 0.000000 0.000000
# 4 0.000000 0.000000 0.000000 0.086962 0.000000 0.000000
# 5 0.000000 0.000000 0.000000 0.000000 0.035562 0.000000
# 6 0.000000 0.000000 0.000000 0.000000 0.000000 0.024106
#
#
# Mechanical properties :
#
#
# Convention : Reuss Voigt Hill
#
# Bulk Modulus (GPa) = 65.03144 68.85051 66.94098
# Shear Modulus (GPa) = 24.30765 30.76292 27.53529
#
# Velocity S-wave (km/s) = 3.44222 3.87241 3.66364
# Velocity P-wave (km/s) = 6.89191 7.31817 7.10824
#
# Compressibility (1/GPa) = 0.01537718
#
# Stress axis : x y z
#
# Youngs Moduli (GPa) = 110.26756 69.92589 88.57491
#
# Poissons Ratio (x) = 0.34496 0.15418
# Poissons Ratio (y) = 0.54397 0.26283
# Poissons Ratio (z) = 0.19195 0.20749
#
# Static dielectric constant tensor:
#      x y z
#    x 1.746350 0.000000 0.000000 
#    y 0.000000 1.823510 0.000000 
#    z 0.000000 0.000000 1.790830 
# 
# From -- ./inp_files/23680.got.cif
#   From: 2010.05.17/outbox.cif.g08.bks.cpg/sg54_12_cif.got.tgz:23680.got - 2010.06.03 13:09:01.
