data_PCOD9421766
_publ_section_title
;
Structure prediction by ZEFSAII (Michael W. Deem and Ramdas Pophale) SiO2 
 PCOD9421766
Probable space group: P C C A
;
_chemical_formula_sum "Si O2"
_cell_formula_units_Z 52
_cell_length_a 7.973096
_cell_length_b 14.054240
_cell_length_c 22.910337
_cell_angle_alpha 90.000000
_cell_angle_beta 90.000000
_cell_angle_gamma 90.000000
_cell_volume 2567.236249
_symmetry_space_group_name_H-M "P C C A"
_symmetry_group_IT_number 54
_symmetry_cell_setting 'orthorhombic'
loop_
_space_group_symop_operation_xyz
x,y,z
1/2-x,-y,z
1/2+x,-y,1/2-z
-x,y,1/2-z
-x,-y,-z
1/2+x,y,-z
1/2-x,y,1/2+z
x,-y,1/2+z
loop_
_atom_site_type_symbol
_atom_site_label
_atom_site_fract_x
_atom_site_fract_y
_atom_site_fract_z
Si Si1 0.109188 0.930038 0.131336
Si Si2 0.291428 0.389561 0.574325
Si Si3 0.500000 0.030700 0.750000
Si Si4 0.179938 0.792305 0.800376
Si Si5 0.175265 0.830599 0.421955
Si Si6 0.559856 0.273641 0.513610
Si Si7 0.209442 0.259010 0.177048
O O1 0.199898 0.829040 0.144097
O O2 0.942884 0.921122 0.091639
O O3 0.250000 0.000000 0.105713
O O4 0.057527 0.971451 0.194356
O O5 0.250000 0.500000 0.569911
O O6 0.475288 0.348061 0.558342
O O7 0.183503 0.335108 0.525913
O O8 0.252908 0.350608 0.638704
O O9 0.355631 0.101705 0.774700
O O10 0.295811 0.791598 0.856590
O O11 0.256270 0.737279 0.745223
O O12 0.992345 0.759027 0.818580
O O13 0.356388 0.815882 0.452238
O O14 0.065453 0.769133 0.466102
#
# Coordination Sequence:
#
# PCOD9421766 Si02
#       7
#     8   8   4   8   8   8   8
#     4  12  21  36  60  95 125 165 214 271 310 384
#     4  11  21  41  70  94 124 163 214 271 321 395
#     4  10  22  36  64  98 126 162 224 258 306 380
#     4  10  20  38  66  92 125 174 204 269 327 387
#     4  11  23  39  68  85 131 169 215 271 325 382
#     4  10  23  42  64  96 119 169 221 267 324 387
#     4  10  20  38  61  94 133 157 210 259 340 380
#
# _framework density 20.255244999999999
#
# number of rings (size 3 to 8) (size 9 to 14) (size 15 to 20)
#    0.000    1.538    6.154    1.385    0.000    0.000 
#    0.000    0.769    6.769    0.000    0.000    0.000 
#    0.000    0.000    0.000    0.000    0.000    0.000 
#
# Total GULP energy -289775.996092 kJ/mol
# GULP energy per Si atom -5572.615309 kJ/mol
# Density = 2.020914 g / cm^3
# Si number density = 20.255245 Si / 1000 Ang^3
#
#
#
# Elastic Constant Matrix: (Units=GPa)
#
#
# Indices 1 2 3 4 5 6 
#
# 1 61.6083 20.3810 35.7752 0.0000 0.0000 0.0000
# 2 20.3810 50.3100 43.8728 0.0000 0.0000 0.0000
# 3 35.7752 43.8728 118.5724 0.0000 0.0000 0.0000
# 4 0.0000 0.0000 0.0000 28.6119 0.0000 0.0000
# 5 0.0000 0.0000 0.0000 0.0000 41.4202 0.0000
# 6 0.0000 0.0000 0.0000 0.0000 0.0000 14.6645
#
#
#
# Elastic Compliance Matrix: (Units=1/GPa)
#
#
# Indices 1 2 3 4 5 6 
#
# 1 0.020277 -0.004251 -0.004545 0.000000 0.000000 0.000000
# 2 -0.004251 0.030237 -0.009905 0.000000 0.000000 0.000000
# 3 -0.004545 -0.009905 0.013470 0.000000 0.000000 0.000000
# 4 0.000000 0.000000 0.000000 0.034951 0.000000 0.000000
# 5 0.000000 0.000000 0.000000 0.000000 0.024143 0.000000
# 6 0.000000 0.000000 0.000000 0.000000 0.000000 0.068192
#
#
# Mechanical properties :
#
#
# Convention : Reuss Voigt Hill
#
# Bulk Modulus (GPa) = 37.62033 47.83876 42.72954
# Shear Modulus (GPa) = 21.04978 25.63676 23.34327
#
# Velocity S-wave (km/s) = 3.22720 3.56151 3.39847
# Velocity P-wave (km/s) = 5.70087 6.37037 6.04490
#
# Compressibility (1/GPa) = 0.02658137
#
# Stress axis : x y z
#
# Youngs Moduli (GPa) = 49.31674 33.07238 74.23893
#
# Poissons Ratio (x) = 0.14059 0.33742
# Poissons Ratio (y) = 0.20964 0.73536
# Poissons Ratio (z) = 0.22415 0.32759
#
# Static dielectric constant tensor:
#      x y z
#    x 1.868460 0.000000 0.000000 
#    y 0.000000 1.715550 0.000000 
#    z 0.000000 0.000000 1.727560 
# 
# From -- ./inp_files/20449.got.cif
#   From: 2010.05.17/outbox.cif.g08.bks.cpg/sg54_11_cif.got.tgz:20449.got - 2010.06.03 13:09:01.
