data_PCOD9421960
_publ_section_title
;
Structure prediction by ZEFSAII (Michael W. Deem and Ramdas Pophale) SiO2 
 PCOD9421960
Probable space group: P C C A
;
_chemical_formula_sum "Si O2"
_cell_formula_units_Z 20
_cell_length_a 4.931091
_cell_length_b 11.166893
_cell_length_c 13.315289
_cell_angle_alpha 90.000000
_cell_angle_beta 90.000000
_cell_angle_gamma 90.000000
_cell_volume 733.205930
_symmetry_space_group_name_H-M "P C C A"
_symmetry_group_IT_number 54
_symmetry_cell_setting 'orthorhombic'
loop_
_space_group_symop_operation_xyz
x,y,z
1/2-x,-y,z
1/2+x,-y,1/2-z
-x,y,1/2-z
-x,-y,-z
1/2+x,y,-z
1/2-x,y,1/2+z
x,-y,1/2+z
loop_
_atom_site_type_symbol
_atom_site_label
_atom_site_fract_x
_atom_site_fract_y
_atom_site_fract_z
Si Si1 0.087808 0.594658 0.910812
Si Si2 0.250000 0.000000 0.675241
Si Si3 0.925302 0.751338 0.366401
O O1 0.250000 0.500000 0.841079
O O2 0.821383 0.657960 0.871582
O O3 0.309221 0.701919 0.924420
O O4 0.500000 0.500000 0.000000
O O5 0.168714 0.114625 0.609379
O O6 0.500000 0.032945 0.750000
O O7 0.000000 0.760359 0.250000
#
# Coordination Sequence:
#
# PCOD9421960 Si02
#       3
#     8   4   8
#     4  12  25  44  67  94 142 193 231 282 350 415
#     4  10  20  40  68 104 144 174 218 294 368 424
#     4  11  23  42  72 106 137 177 233 289 349 423
#
# _framework density 27.277469
#
# number of rings (size 3 to 8) (size 9 to 14) (size 15 to 20)
#    0.000    0.800    0.000   10.800    0.000    3.200 
#    0.000    4.000    0.000   24.000    0.000    0.000 
#    0.000    0.000    0.000    0.000    0.000    0.400 
#
# Total GULP energy -111784.428075 kJ/mol
# GULP energy per Si atom -5589.221404 kJ/mol
# Density = 2.721538 g / cm^3
# Si number density = 27.277469 Si / 1000 Ang^3
#
#
#
# Elastic Constant Matrix: (Units=GPa)
#
#
# Indices 1 2 3 4 5 6 
#
# 1 256.1225 96.9209 8.9115 0.0000 0.0000 0.0000
# 2 96.9209 238.3631 47.0849 0.0000 0.0000 0.0000
# 3 8.9115 47.0849 57.4386 0.0000 0.0000 0.0000
# 4 0.0000 0.0000 0.0000 44.9414 0.0000 0.0000
# 5 0.0000 0.0000 0.0000 0.0000 28.3460 0.0000
# 6 0.0000 0.0000 0.0000 0.0000 0.0000 64.7694
#
#
#
# Elastic Compliance Matrix: (Units=1/GPa)
#
#
# Indices 1 2 3 4 5 6 
#
# 1 0.004661 -0.002091 0.000991 0.000000 0.000000 0.000000
# 2 -0.002091 0.005944 -0.004548 0.000000 0.000000 0.000000
# 3 0.000991 -0.004548 0.020984 0.000000 0.000000 0.000000
# 4 0.000000 0.000000 0.000000 0.022251 0.000000 0.000000
# 5 0.000000 0.000000 0.000000 0.000000 0.035278 0.000000
# 6 0.000000 0.000000 0.000000 0.000000 0.000000 0.015439
#
#
# Mechanical properties :
#
#
# Convention : Reuss Voigt Hill
#
# Bulk Modulus (GPa) = 49.27768 95.30653 72.29210
# Shear Modulus (GPa) = 40.77667 54.21182 47.49425
#
# Velocity S-wave (km/s) = 3.87057 4.46289 4.17724
# Velocity P-wave (km/s) = 6.17087 7.84678 7.05874
#
# Compressibility (1/GPa) = 0.02029316
#
# Stress axis : x y z
#
# Youngs Moduli (GPa) = 214.53783 168.23928 47.65447
#
# Poissons Ratio (x) = 0.35179 -0.04722
# Poissons Ratio (y) = 0.44860 0.21674
# Poissons Ratio (z) = -0.21259 0.76516
#
# Static dielectric constant tensor:
#      x y z
#    x 2.554530 0.000000 0.000000 
#    y 0.000000 2.186820 0.000000 
#    z 0.000000 0.000000 2.380430 
# 
# From -- ./inp_files/10635.got.cif
#   From: 2010.05.17/outbox.cif.g08.bks.cpg/sg54_6_cif.got.tgz:10635.got - 2010.06.03 13:09:01.
