data_PCOD9421868
_publ_section_title
;
Structure prediction by ZEFSAII (Michael W. Deem and Ramdas Pophale) SiO2 
 PCOD9421868
Probable space group: P C C A
;
_chemical_formula_sum "Si O2"
_cell_formula_units_Z 60
_cell_length_a 9.517873
_cell_length_b 17.979989
_cell_length_c 15.899447
_cell_angle_alpha 90.000000
_cell_angle_beta 90.000000
_cell_angle_gamma 90.000000
_cell_volume 2720.892269
_symmetry_space_group_name_H-M "P C C A"
_symmetry_group_IT_number 54
_symmetry_cell_setting 'orthorhombic'
loop_
_space_group_symop_operation_xyz
x,y,z
1/2-x,-y,z
1/2+x,-y,1/2-z
-x,y,1/2-z
-x,-y,-z
1/2+x,y,-z
1/2-x,y,1/2+z
x,-y,1/2+z
loop_
_atom_site_type_symbol
_atom_site_label
_atom_site_fract_x
_atom_site_fract_y
_atom_site_fract_z
Si Si1 0.294009 0.762056 0.316904
Si Si2 0.972150 0.071603 0.057735
Si Si3 0.583442 0.640777 0.677276
Si Si4 0.500000 0.116979 0.750000
Si Si5 0.192621 0.693338 0.087399
Si Si6 0.778764 0.833930 0.007977
Si Si7 0.523104 0.366576 0.841678
Si Si8 0.801078 0.424890 0.054411
O O1 0.364424 0.827654 0.261686
O O2 0.226389 0.792492 0.402759
O O3 0.422582 0.706900 0.340832
O O4 0.169066 0.710321 0.282514
O O5 0.996792 0.071489 0.160361
O O6 0.816428 0.095531 0.031071
O O7 0.072624 0.138073 0.025187
O O8 0.000000 0.000000 0.000000
O O9 0.500000 0.599415 0.750000
O O10 0.463512 0.672779 0.616424
O O11 0.695022 0.589096 0.631579
O O12 0.321025 0.662120 0.143220
O O13 0.214133 0.778956 0.062108
O O14 0.216076 0.645957 0.003339
O O15 0.500000 0.400263 0.750000
O O16 0.459574 0.421506 0.911181
O O17 0.750000 0.500000 0.011693
#
# Coordination Sequence:
#
# PCOD9421868 Si02
#       8
#     8   8   8   4   8   8   8   8
#     4  10  20  39  63 103 128 173 219 286 341 414
#     4  11  25  45  69 100 141 186 230 282 352 430
#     4  11  24  38  62  98 140 158 228 295 343 402
#     4  10  22  42  76  94 138 188 232 270 360 426
#     4  12  22  39  68  98 127 175 226 291 343 401
#     4  11  22  39  69  97 133 172 222 286 336 402
#     4  11  22  39  66  91 134 173 227 272 353 418
#     4  11  26  44  62  92 135 182 234 281 347 426
#
# _framework density 22.051590999999998
#
# number of rings (size 3 to 8) (size 9 to 14) (size 15 to 20)
#    0.000    1.067    3.333    5.200    1.867    2.667 
#    0.000    6.667    1.467    0.000    0.000    0.000 
#    0.000    0.000    0.000    0.000    0.000    0.000 
#
# Total GULP energy -334837.934448 kJ/mol
# GULP energy per Si atom -5580.632241 kJ/mol
# Density = 2.200140 g / cm^3
# Si number density = 22.051591 Si / 1000 Ang^3
#
#
#
# Elastic Constant Matrix: (Units=GPa)
#
#
# Indices 1 2 3 4 5 6 
#
# 1 96.7839 3.7427 21.5237 0.0000 0.0000 0.0000
# 2 3.7427 60.4304 4.9309 0.0000 0.0000 0.0000
# 3 21.5237 4.9309 73.4402 0.0000 0.0000 0.0000
# 4 0.0000 0.0000 0.0000 -0.9171 0.0000 0.0000
# 5 0.0000 0.0000 0.0000 0.0000 39.2924 0.0000
# 6 0.0000 0.0000 0.0000 0.0000 0.0000 20.2760
#
#
#
# Elastic Compliance Matrix: (Units=1/GPa)
#
#
# Indices 1 2 3 4 5 6 
#
# 1 0.011063 -0.000423 -0.003214 0.000000 0.000000 0.000000
# 2 -0.000423 0.016655 -0.000994 0.000000 0.000000 0.000000
# 3 -0.003214 -0.000994 0.014625 0.000000 0.000000 0.000000
# 4 0.000000 0.000000 0.000000 -1.090427 0.000000 0.000000
# 5 0.000000 0.000000 0.000000 0.000000 0.025450 0.000000
# 6 0.000000 0.000000 0.000000 0.000000 0.000000 0.049319
#
#
# Mechanical properties :
#
#
# Convention : Reuss Voigt Hill
#
# Bulk Modulus (GPa) = 30.22851 32.33878 31.28365
# Shear Modulus (GPa) = -5.24646 25.09408 9.92381
#
# Velocity S-wave (km/s) = -1.54413 3.37704 2.12369
# Velocity P-wave (km/s) = 3.24942 5.46834 4.49786
#
# Compressibility (1/GPa) = 0.03308135
#
# Stress axis : x y z
#
# Youngs Moduli (GPa) = 90.38792 60.04097 68.37498
#
# Poissons Ratio (x) = 0.02539 0.21976
# Poissons Ratio (y) = 0.03823 0.06799
# Poissons Ratio (z) = 0.29051 0.05970
#
# Static dielectric constant tensor:
#      x y z
#    x 1.806380 0.000000 0.000000 
#    y 0.000000 1.820500 0.000000 
#    z 0.000000 0.000000 1.905900 
# 
# From -- ./inp_files/16835.got.cif
#   From: 2010.05.17/outbox.cif.g08.bks.cpg/sg54_9_cif.got.tgz:16835.got - 2010.06.03 13:09:01.
