data_PCOD9421483
_publ_section_title
;
Structure prediction by ZEFSAII (Michael W. Deem and Ramdas Pophale) SiO2 
 PCOD9421483
Probable space group: P C C A
;
_chemical_formula_sum "Si O2"
_cell_formula_units_Z 32
_cell_length_a 9.825646
_cell_length_b 8.421088
_cell_length_c 19.838371
_cell_angle_alpha 90.000000
_cell_angle_beta 90.000000
_cell_angle_gamma 90.000000
_cell_volume 1641.478984
_symmetry_space_group_name_H-M "P C C A"
_symmetry_group_IT_number 54
_symmetry_cell_setting 'orthorhombic'
loop_
_space_group_symop_operation_xyz
x,y,z
1/2-x,-y,z
1/2+x,-y,1/2-z
-x,y,1/2-z
-x,-y,-z
1/2+x,y,-z
1/2-x,y,1/2+z
x,-y,1/2+z
loop_
_atom_site_type_symbol
_atom_site_label
_atom_site_fract_x
_atom_site_fract_y
_atom_site_fract_z
Si Si1 0.380716 0.883662 0.638229
Si Si2 0.954310 0.192774 0.150740
Si Si3 0.784938 0.682106 0.771754
Si Si4 0.375918 0.119801 0.991023
O O1 0.348396 0.763527 0.697331
O O2 0.374056 0.800315 0.564847
O O3 0.250000 0.000000 0.636561
O O4 0.504281 0.005381 0.650881
O O5 0.838304 0.232565 0.204435
O O6 0.905035 0.224554 0.074593
O O7 0.088779 0.288880 0.175601
O O8 0.750000 0.500000 0.759949
O O9 0.250000 0.000000 0.980430
O O10 0.500000 0.000000 0.000000
#
# Coordination Sequence:
#
# PCOD9421483 Si02
#       4
#     8   8   8   8
#     4   8  16  34  58  79 104 140 182 232 285 336
#     4   9  19  35  55  78 105 145 192 233 281 353
#     4  10  20  36  52  78 117 148 180 236 295 342
#     4   9  17  33  58  87 111 138 187 245 289 340
#
# _framework density 19.494613999999999
#
# number of rings (size 3 to 8) (size 9 to 14) (size 15 to 20)
#    0.000    3.000    0.000    1.500    0.000    5.000 
#    0.000   27.500    0.000    0.000    0.000    0.000 
#    0.000    0.000    0.000    0.000    0.000    0.000 
#
# Total GULP energy -178141.058848 kJ/mol
# GULP energy per Si atom -5566.908089 kJ/mol
# Density = 1.945024 g / cm^3
# Si number density = 19.494614 Si / 1000 Ang^3
#
#
#
# Elastic Constant Matrix: (Units=GPa)
#
#
# Indices 1 2 3 4 5 6 
#
# 1 64.3246 20.4477 43.4758 0.0000 0.0000 0.0000
# 2 20.4477 60.6280 74.8766 0.0000 0.0000 0.0000
# 3 43.4758 74.8766 158.0416 0.0000 0.0000 0.0000
# 4 0.0000 0.0000 0.0000 -11.5324 0.0000 0.0000
# 5 0.0000 0.0000 0.0000 0.0000 28.5022 0.0000
# 6 0.0000 0.0000 0.0000 0.0000 0.0000 20.4220
#
#
#
# Elastic Compliance Matrix: (Units=1/GPa)
#
#
# Indices 1 2 3 4 5 6 
#
# 1 0.019097 0.000114 -0.005307 0.000000 0.000000 0.000000
# 2 0.000114 0.039757 -0.018867 0.000000 0.000000 0.000000
# 3 -0.005307 -0.018867 0.016726 0.000000 0.000000 0.000000
# 4 0.000000 0.000000 0.000000 -0.086712 0.000000 0.000000
# 5 0.000000 0.000000 0.000000 0.000000 0.035085 0.000000
# 6 0.000000 0.000000 0.000000 0.000000 0.000000 0.048967
#
#
# Mechanical properties :
#
#
# Convention : Reuss Voigt Hill
#
# Bulk Modulus (GPa) = 36.41796 62.28826 49.35311
# Shear Modulus (GPa) = 38.40395 17.09131 27.74763
#
# Velocity S-wave (km/s) = 4.44326 2.96416 3.77682
# Velocity P-wave (km/s) = 6.71156 6.61331 6.66261
#
# Compressibility (1/GPa) = 0.02745898
#
# Stress axis : x y z
#
# Youngs Moduli (GPa) = 52.36394 25.15268 59.78557
#
# Poissons Ratio (x) = -0.00287 0.31731
# Poissons Ratio (y) = -0.00597 1.12800
# Poissons Ratio (z) = 0.27792 0.47457
#
# Static dielectric constant tensor:
#      x y z
#    x 1.717020 0.000000 0.000000 
#    y 0.000000 1.642860 0.000000 
#    z 0.000000 0.000000 1.809400 
# 
# From -- ./inp_files/20935.got.cif
#   From: 2010.05.17/outbox.cif.g08.bks.cpg/sg54_11_cif.got.tgz:20935.got - 2010.06.03 13:09:01.
