data_PCOD9421305
_publ_section_title
;
Structure prediction by ZEFSAII (Michael W. Deem and Ramdas Pophale) SiO2 
 PCOD9421305
Probable space group: P C C A
;
_chemical_formula_sum "Si O2"
_cell_formula_units_Z 48
_cell_length_a 13.784814
_cell_length_b 15.797705
_cell_length_c 10.789745
_cell_angle_alpha 90.000000
_cell_angle_beta 90.000000
_cell_angle_gamma 90.000000
_cell_volume 2349.665775
_symmetry_space_group_name_H-M "P C C A"
_symmetry_group_IT_number 54
_symmetry_cell_setting 'orthorhombic'
loop_
_space_group_symop_operation_xyz
x,y,z
1/2-x,-y,z
1/2+x,-y,1/2-z
-x,y,1/2-z
-x,-y,-z
1/2+x,y,-z
1/2-x,y,1/2+z
x,-y,1/2+z
loop_
_atom_site_type_symbol
_atom_site_label
_atom_site_fract_x
_atom_site_fract_y
_atom_site_fract_z
Si Si1 0.791001 0.094350 0.197499
Si Si2 0.500000 0.842272 0.250000
Si Si3 0.000000 0.563063 0.250000
Si Si4 0.415666 0.337009 0.043596
Si Si5 0.603068 0.691719 0.395934
Si Si6 0.724001 0.193487 0.443938
Si Si7 0.156293 0.440505 0.324070
O O1 0.746241 0.145899 0.314577
O O2 0.765710 0.135206 0.064580
O O3 0.908350 0.102222 0.207224
O O4 0.750000 0.000000 0.203517
O O5 0.547405 0.774744 0.343842
O O6 0.923280 0.619149 0.324273
O O7 0.936319 0.501597 0.165769
O O8 0.523971 0.345036 0.988584
O O9 0.379244 0.240959 0.055249
O O10 0.345482 0.385998 0.949067
O O11 0.698552 0.730752 0.454623
O O12 0.634089 0.625312 0.288714
O O13 0.250000 0.500000 0.307436
#
# Coordination Sequence:
#
# PCOD9421305 Si02
#       7
#     8   4   4   8   8   8   8
#     4  11  24  47  72 109 141 174 226 293 358 426
#     4  10  19  46  73  94 132 196 216 264 361 432
#     4  12  27  40  59  98 134 174 234 298 343 396
#     4  12  24  43  65  93 137 179 235 284 345 410
#     4  11  21  44  70  93 134 185 230 277 346 419
#     4  11  25  43  73 102 134 186 233 282 346 436
#     4  12  25  43  66  96 136 185 233 293 352 399
#
# _framework density 20.428436000000001
#
# number of rings (size 3 to 8) (size 9 to 14) (size 15 to 20)
#    0.000    0.667    5.000    3.000    4.667    0.667 
#    3.000    2.500    0.000    0.000    0.000    0.000 
#    0.000    0.000    0.000    0.000    0.000    0.000 
#
# Total GULP energy -267971.173379 kJ/mol
# GULP energy per Si atom -5582.732779 kJ/mol
# Density = 2.038194 g / cm^3
# Si number density = 20.428436 Si / 1000 Ang^3
#
#
#
# Elastic Constant Matrix: (Units=GPa)
#
#
# Indices 1 2 3 4 5 6 
#
# 1 50.7486 39.2980 13.3992 0.0000 0.0000 0.0000
# 2 39.2980 127.0137 49.4840 0.0000 0.0000 0.0000
# 3 13.3992 49.4840 90.3315 0.0000 0.0000 0.0000
# 4 0.0000 0.0000 0.0000 38.1185 0.0000 0.0000
# 5 0.0000 0.0000 0.0000 0.0000 3.8783 0.0000
# 6 0.0000 0.0000 0.0000 0.0000 0.0000 48.3952
#
#
#
# Elastic Compliance Matrix: (Units=1/GPa)
#
#
# Indices 1 2 3 4 5 6 
#
# 1 0.025948 -0.008300 0.000698 0.000000 0.000000 0.000000
# 2 -0.008300 0.012664 -0.005706 0.000000 0.000000 0.000000
# 3 0.000698 -0.005706 0.014093 0.000000 0.000000 0.000000
# 4 0.000000 0.000000 0.000000 0.026234 0.000000 0.000000
# 5 0.000000 0.000000 0.000000 0.000000 0.257842 0.000000
# 6 0.000000 0.000000 0.000000 0.000000 0.000000 0.020663
#
#
# Mechanical properties :
#
#
# Convention : Reuss Voigt Hill
#
# Bulk Modulus (GPa) = 38.33192 52.49514 45.41353
# Shear Modulus (GPa) = 12.73049 29.13924 20.93486
#
# Velocity S-wave (km/s) = 2.49906 3.78088 3.20471
# Velocity P-wave (km/s) = 5.20882 6.69424 5.99769
#
# Compressibility (1/GPa) = 0.02608792
#
# Stress axis : x y z
#
# Youngs Moduli (GPa) = 38.53835 78.96095 70.95801
#
# Poissons Ratio (x) = 0.65540 -0.04953
# Poissons Ratio (y) = 0.31988 0.40492
# Poissons Ratio (z) = -0.02690 0.45059
#
# Static dielectric constant tensor:
#      x y z
#    x 1.818140 0.000000 0.000000 
#    y 0.000000 1.716250 0.000000 
#    z 0.000000 0.000000 1.740730 
# 
# From -- ./inp_files/3599.got.cif
#   From: 2010.05.17/outbox.cif.g08.bks.cpg/sg54_2_cif.got.tgz:3599.got - 2010.06.03 13:09:01.
