data_PCOD9421805
_publ_section_title
;
Structure prediction by ZEFSAII (Michael W. Deem and Ramdas Pophale) SiO2 
 PCOD9421805
Probable space group: P C C A
;
_chemical_formula_sum "Si O2"
_cell_formula_units_Z 60
_cell_length_a 24.422638
_cell_length_b 8.157416
_cell_length_c 14.359550
_cell_angle_alpha 90.000000
_cell_angle_beta 90.000000
_cell_angle_gamma 90.000000
_cell_volume 2860.790223
_symmetry_space_group_name_H-M "P C C A"
_symmetry_group_IT_number 54
_symmetry_cell_setting 'orthorhombic'
loop_
_space_group_symop_operation_xyz
x,y,z
1/2-x,-y,z
1/2+x,-y,1/2-z
-x,y,1/2-z
-x,-y,-z
1/2+x,y,-z
1/2-x,y,1/2+z
x,-y,1/2+z
loop_
_atom_site_type_symbol
_atom_site_label
_atom_site_fract_x
_atom_site_fract_y
_atom_site_fract_z
Si Si1 0.000000 0.222873 0.250000
Si Si2 0.408365 0.208349 0.059570
Si Si3 0.696938 0.617995 0.949090
Si Si4 0.010946 0.674426 0.545893
Si Si5 0.207276 0.877861 0.211149
Si Si6 0.113470 0.138792 0.969394
Si Si7 0.090359 0.943713 0.257072
Si Si8 0.733875 0.813487 0.582453
O O1 0.998416 0.326718 0.343807
O O2 0.051673 0.099677 0.250754
O O3 0.370327 0.370358 0.039737
O O4 0.421800 0.178571 0.169707
O O5 0.464629 0.214616 0.002627
O O6 0.381086 0.039859 0.018938
O O7 0.750000 0.500000 0.928306
O O8 0.696707 0.737774 0.861058
O O9 0.719469 0.699132 0.042959
O O10 0.000000 0.500000 0.500000
O O11 0.069959 0.752780 0.524856
O O12 0.153971 0.981386 0.238497
O O13 0.228830 0.802780 0.306942
O O14 0.250000 0.000000 0.167391
O O15 0.090670 0.122226 0.863073
O O16 0.174015 0.217990 0.961946
O O17 0.750000 0.000000 0.561931
#
# Coordination Sequence:
#
# PCOD9421805 Si02
#       8
#     4   8   8   8   8   8   8   8
#     4  12  22  42  68  96 126 170 222 272 332 388
#     4  11  22  43  65  95 127 168 226 271 318 397
#     4  11  24  38  62  93 134 171 201 260 336 399
#     4  12  28  42  64  98 135 173 213 273 343 401
#     4   9  21  38  61  95 123 157 219 266 307 379
#     4  11  21  41  68  93 125 169 225 275 318 388
#     4  10  21  37  69  96 117 165 225 271 316 371
#     4  10  20  38  65  93 120 164 218 272 318 378
#
# _framework density 20.973224999999999
#
# number of rings (size 3 to 8) (size 9 to 14) (size 15 to 20)
#    0.000    1.333    4.000    1.600    3.733    1.600 
#    0.000    0.000    0.000    0.000    0.000    0.000 
#    0.000    0.000    0.000    0.000    0.000    0.000 
#
# Total GULP energy -334289.481691 kJ/mol
# GULP energy per Si atom -5571.491362 kJ/mol
# Density = 2.092549 g / cm^3
# Si number density = 20.973225 Si / 1000 Ang^3
#
#
#
# Elastic Constant Matrix: (Units=GPa)
#
#
# Indices 1 2 3 4 5 6 
#
# 1 68.3604 12.5286 32.4070 0.0000 0.0000 0.0000
# 2 12.5286 25.0597 8.2469 0.0000 0.0000 0.0000
# 3 32.4070 8.2469 133.1637 0.0000 0.0000 0.0000
# 4 0.0000 0.0000 0.0000 14.8355 0.0000 0.0000
# 5 0.0000 0.0000 0.0000 0.0000 26.3049 0.0000
# 6 0.0000 0.0000 0.0000 0.0000 0.0000 31.8134
#
#
#
# Elastic Compliance Matrix: (Units=1/GPa)
#
#
# Indices 1 2 3 4 5 6 
#
# 1 0.017869 -0.007658 -0.003874 0.000000 0.000000 0.000000
# 2 -0.007658 0.044017 -0.000862 0.000000 0.000000 0.000000
# 3 -0.003874 -0.000862 0.008506 0.000000 0.000000 0.000000
# 4 0.000000 0.000000 0.000000 0.067406 0.000000 0.000000
# 5 0.000000 0.000000 0.000000 0.000000 0.038016 0.000000
# 6 0.000000 0.000000 0.000000 0.000000 0.000000 0.031433
#
#
# Mechanical properties :
#
#
# Convention : Reuss Voigt Hill
#
# Bulk Modulus (GPa) = 21.92893 36.99431 29.46162
# Shear Modulus (GPa) = 20.22351 26.15084 23.18718
#
# Velocity S-wave (km/s) = 3.10861 3.53493 3.32860
# Velocity P-wave (km/s) = 4.83353 5.85987 5.37127
#
# Compressibility (1/GPa) = 0.04560185
#
# Stress axis : x y z
#
# Youngs Moduli (GPa) = 55.96420 22.71836 117.56687
#
# Poissons Ratio (x) = 0.17399 0.45548
# Poissons Ratio (y) = 0.42860 0.10137
# Poissons Ratio (z) = 0.21682 0.01959
#
# Static dielectric constant tensor:
#      x y z
#    x 1.884140 0.000000 0.000000 
#    y 0.000000 1.780180 0.000000 
#    z 0.000000 0.000000 1.740780 
# 
# From -- ./inp_files/14982.got.cif
#   From: 2010.05.17/outbox.cif.g08.bks.cpg/sg54_8_cif.got.tgz:14982.got - 2010.06.03 13:09:01.
