data_PCOD9421211
_publ_section_title
;
Structure prediction by ZEFSAII (Michael W. Deem and Ramdas Pophale) SiO2 
 PCOD9421211
Probable space group: P C C A
;
_chemical_formula_sum "Si O2"
_cell_formula_units_Z 40
_cell_length_a 10.212407
_cell_length_b 8.294335
_cell_length_c 24.279796
_cell_angle_alpha 90.000000
_cell_angle_beta 90.000000
_cell_angle_gamma 90.000000
_cell_volume 2056.623151
_symmetry_space_group_name_H-M "P C C A"
_symmetry_group_IT_number 54
_symmetry_cell_setting 'orthorhombic'
loop_
_space_group_symop_operation_xyz
x,y,z
1/2-x,-y,z
1/2+x,-y,1/2-z
-x,y,1/2-z
-x,-y,-z
1/2+x,y,-z
1/2-x,y,1/2+z
x,-y,1/2+z
loop_
_atom_site_type_symbol
_atom_site_label
_atom_site_fract_x
_atom_site_fract_y
_atom_site_fract_z
Si Si1 0.873537 0.112203 0.912903
Si Si2 0.855653 0.862355 0.729817
Si Si3 0.623922 0.384518 0.505702
Si Si4 0.453523 0.816410 0.389193
Si Si5 0.283315 0.684194 0.165576
O O1 0.882775 0.254140 0.956870
O O2 0.831473 0.197204 0.855616
O O3 0.750000 0.000000 0.928926
O O4 0.998844 0.995721 0.907274
O O5 0.866227 0.821999 0.665585
O O6 0.816688 0.718290 0.770878
O O7 0.000000 0.915652 0.750000
O O8 0.750000 0.000000 0.738336
O O9 0.750000 0.500000 0.503157
O O10 0.500000 0.500000 0.500000
O O11 0.612857 0.282594 0.562042
O O12 0.588942 0.731291 0.370043
O O13 0.250000 0.500000 0.155863
#
# Coordination Sequence:
#
# PCOD9421211 Si02
#       5
#     8   8   8   8   8
#     4  10  20  39  64  87 117 165 210 241 294 376
#     4  10  21  39  60  87 120 157 201 249 298 359
#     4  12  25  41  62  91 127 160 201 255 310 360
#     4  10  22  38  59  89 122 155 205 258 298 352
#     4  10  19  37  62  86 119 163 204 243 302 371
#
# _framework density 19.449358
#
# number of rings (size 3 to 8) (size 9 to 14) (size 15 to 20)
#    0.000    1.600    0.000    7.800    0.000    3.200 
#    0.000   11.000    0.000    0.000    0.000    0.000 
#    0.000    0.000    0.000    0.000    0.000    0.000 
#
# Total GULP energy -223458.118615 kJ/mol
# GULP energy per Si atom -5586.452965 kJ/mol
# Density = 1.940509 g / cm^3
# Si number density = 19.449358 Si / 1000 Ang^3
#
#
#
# Elastic Constant Matrix: (Units=GPa)
#
#
# Indices 1 2 3 4 5 6 
#
# 1 57.3326 55.0362 35.6311 0.0000 0.0000 0.0000
# 2 55.0362 146.2674 61.0164 0.0000 0.0000 0.0000
# 3 35.6311 61.0164 143.7661 0.0000 0.0000 0.0000
# 4 0.0000 0.0000 0.0000 5.1718 0.0000 0.0000
# 5 0.0000 0.0000 0.0000 0.0000 10.7237 0.0000
# 6 0.0000 0.0000 0.0000 0.0000 0.0000 20.9659
#
#
#
# Elastic Compliance Matrix: (Units=1/GPa)
#
#
# Indices 1 2 3 4 5 6 
#
# 1 0.028355 -0.009402 -0.003037 0.000000 0.000000 0.000000
# 2 -0.009402 0.011425 -0.002519 0.000000 0.000000 0.000000
# 3 -0.003037 -0.002519 0.008777 0.000000 0.000000 0.000000
# 4 0.000000 0.000000 0.000000 0.193358 0.000000 0.000000
# 5 0.000000 0.000000 0.000000 0.000000 0.093251 0.000000
# 6 0.000000 0.000000 0.000000 0.000000 0.000000 0.047696
#
#
# Mechanical properties :
#
#
# Convention : Reuss Voigt Hill
#
# Bulk Modulus (GPa) = 53.64330 72.30373 62.97351
# Shear Modulus (GPa) = 11.93335 20.41777 16.17556
#
# Velocity S-wave (km/s) = 2.47970 3.24356 2.88701
# Velocity P-wave (km/s) = 5.98661 7.16126 6.60012
#
# Compressibility (1/GPa) = 0.01864166
#
# Stress axis : x y z
#
# Youngs Moduli (GPa) = 35.26667 87.52452 113.92782
#
# Poissons Ratio (x) = 0.82294 0.34601
# Poissons Ratio (y) = 0.33159 0.28696
# Poissons Ratio (z) = 0.10711 0.22046
#
# Static dielectric constant tensor:
#      x y z
#    x 1.676560 0.000000 0.000000 
#    y 0.000000 1.637610 0.000000 
#    z 0.000000 0.000000 1.705860 
# 
# From -- ./inp_files/23210.got.cif
#   From: 2010.05.17/outbox.cif.g08.bks.cpg/sg54_12_cif.got.tgz:23210.got - 2010.06.03 13:09:01.
