data_PCOD9421821
_publ_section_title
;
Structure prediction by ZEFSAII (Michael W. Deem and Ramdas Pophale) SiO2 
 PCOD9421821
Probable space group: P C C A
;
_chemical_formula_sum "Si O2"
_cell_formula_units_Z 48
_cell_length_a 8.537687
_cell_length_b 19.120088
_cell_length_c 13.558889
_cell_angle_alpha 90.000000
_cell_angle_beta 90.000000
_cell_angle_gamma 90.000000
_cell_volume 2213.371030
_symmetry_space_group_name_H-M "P C C A"
_symmetry_group_IT_number 54
_symmetry_cell_setting 'orthorhombic'
loop_
_space_group_symop_operation_xyz
x,y,z
1/2-x,-y,z
1/2+x,-y,1/2-z
-x,y,1/2-z
-x,-y,-z
1/2+x,y,-z
1/2-x,y,1/2+z
x,-y,1/2+z
loop_
_atom_site_type_symbol
_atom_site_label
_atom_site_fract_x
_atom_site_fract_y
_atom_site_fract_z
Si Si1 0.486176 0.671775 0.555066
Si Si2 0.200822 0.273914 0.369584
Si Si3 0.500000 0.614169 0.250000
Si Si4 0.295241 0.424417 0.579965
Si Si5 0.794220 0.119469 0.127377
Si Si6 0.041003 0.930569 0.062978
Si Si7 0.250000 0.000000 0.728773
O O1 0.389111 0.717441 0.475045
O O2 0.612462 0.714698 0.617966
O O3 0.354610 0.623659 0.605526
O O4 0.599676 0.618629 0.496415
O O5 0.174236 0.195877 0.329727
O O6 0.121971 0.334167 0.304399
O O7 0.596085 0.567425 0.325302
O O8 0.250000 0.500000 0.539879
O O9 0.611780 0.106583 0.104617
O O10 0.837018 0.054974 0.199011
O O11 0.873913 0.114806 0.020223
O O12 0.145933 0.953683 0.155098
O O13 0.000000 0.000000 0.000000
#
# Coordination Sequence:
#
# PCOD9421821 Si02
#       7
#     8   8   4   8   8   8   4
#     4   9  20  41  65  87 130 159 216 252 292 381
#     4  10  22  43  60  92 121 174 204 254 316 374
#     4  10  24  40  56  92 140 154 208 260 302 372
#     4  10  20  38  66  95 123 167 203 255 310 360
#     4  12  25  42  69  89 125 167 211 261 329 383
#     4  12  23  44  62  90 124 156 203 275 323 372
#     4  12  24  42  64  92 124 152 214 272 314 380
#
# _framework density 21.686375999999999
#
# number of rings (size 3 to 8) (size 9 to 14) (size 15 to 20)
#    0.000    1.333    3.333    2.000    0.000    3.333 
#   15.000    1.667    0.000    0.000    0.000    0.000 
#    0.000    0.000    0.000    0.000    0.000    0.000 
#
# Total GULP energy -268164.340256 kJ/mol
# GULP energy per Si atom -5586.757089 kJ/mol
# Density = 2.163702 g / cm^3
# Si number density = 21.686376 Si / 1000 Ang^3
#
#
#
# Elastic Constant Matrix: (Units=GPa)
#
#
# Indices 1 2 3 4 5 6 
#
# 1 88.5103 -3.6740 6.5943 0.0000 0.0000 0.0000
# 2 -3.6740 81.9868 -9.3196 0.0000 0.0000 0.0000
# 3 6.5943 -9.3196 55.6147 0.0000 0.0000 0.0000
# 4 0.0000 0.0000 0.0000 3.2572 0.0000 0.0000
# 5 0.0000 0.0000 0.0000 0.0000 21.4485 0.0000
# 6 0.0000 0.0000 0.0000 0.0000 0.0000 14.4744
#
#
#
# Elastic Compliance Matrix: (Units=1/GPa)
#
#
# Indices 1 2 3 4 5 6 
#
# 1 0.011409 0.000364 -0.001292 0.000000 0.000000 0.000000
# 2 0.000364 0.012446 0.002042 0.000000 0.000000 0.000000
# 3 -0.001292 0.002042 0.018476 0.000000 0.000000 0.000000
# 4 0.000000 0.000000 0.000000 0.307010 0.000000 0.000000
# 5 0.000000 0.000000 0.000000 0.000000 0.046623 0.000000
# 6 0.000000 0.000000 0.000000 0.000000 0.000000 0.069088
#
#
# Mechanical properties :
#
#
# Convention : Reuss Voigt Hill
#
# Bulk Modulus (GPa) = 22.44096 23.70148 23.07122
# Shear Modulus (GPa) = 10.46734 23.33675 16.90204
#
# Velocity S-wave (km/s) = 2.19936 3.28396 2.79478
# Velocity P-wave (km/s) = 4.10122 5.03310 4.59086
#
# Compressibility (1/GPa) = 0.04456138
#
# Stress axis : x y z
#
# Youngs Moduli (GPa) = 87.64638 80.34983 54.12346
#
# Poissons Ratio (x) = -0.02928 0.06992
# Poissons Ratio (y) = -0.03194 -0.11054
# Poissons Ratio (z) = 0.11322 -0.16410
#
# Static dielectric constant tensor:
#      x y z
#    x 1.813990 0.000000 0.000000 
#    y 0.000000 1.758790 0.000000 
#    z 0.000000 0.000000 1.793930 
# 
# From -- ./inp_files/11760.got.cif
#   From: 2010.05.17/outbox.cif.g08.bks.cpg/sg54_6_cif.got.tgz:11760.got - 2010.06.03 13:09:01.
