data_PCOD9421017
_publ_section_title
;
Structure prediction by ZEFSAII (Michael W. Deem and Ramdas Pophale) SiO2 
 PCOD9421017
Probable space group: P C C A
;
_chemical_formula_sum "Si O2"
_cell_formula_units_Z 52
_cell_length_a 25.487440
_cell_length_b 12.601291
_cell_length_c 8.606547
_cell_angle_alpha 90.000000
_cell_angle_beta 90.000000
_cell_angle_gamma 90.000000
_cell_volume 2764.204706
_symmetry_space_group_name_H-M "P C C A"
_symmetry_group_IT_number 54
_symmetry_cell_setting 'orthorhombic'
loop_
_space_group_symop_operation_xyz
x,y,z
1/2-x,-y,z
1/2+x,-y,1/2-z
-x,y,1/2-z
-x,-y,-z
1/2+x,y,-z
1/2-x,y,1/2+z
x,-y,1/2+z
loop_
_atom_site_type_symbol
_atom_site_label
_atom_site_fract_x
_atom_site_fract_y
_atom_site_fract_z
Si Si1 0.926578 0.041521 0.495261
Si Si2 0.500000 0.064574 0.750000
Si Si3 0.188972 0.537852 0.558609
Si Si4 0.730456 0.886837 0.986239
Si Si5 0.281334 0.260291 0.734947
Si Si6 0.662556 0.347212 0.247133
Si Si7 0.868296 0.120451 0.777922
O O1 0.967544 0.005104 0.626879
O O2 0.906159 0.941277 0.396639
O O3 0.879508 0.085233 0.601328
O O4 0.955966 0.114854 0.365697
O O5 0.250000 0.500000 0.525955
O O6 0.190123 0.630952 0.689103
O O7 0.160355 0.588873 0.412526
O O8 0.160935 0.432904 0.617476
O O9 0.777795 0.818795 0.911625
O O10 0.689039 0.905706 0.847273
O O11 0.750000 0.000000 0.045709
O O12 0.704284 0.810573 0.116060
O O13 0.221516 0.299221 0.757994
O O14 0.625795 0.247255 0.275658
#
# Coordination Sequence:
#
# PCOD9421017 Si02
#       7
#     8   4   8   8   8   8   8
#     4   9  18  37  59  85 117 141 170 226 274 360
#     4   8  16  36  66  84 104 144 176 204 286 358
#     4  10  19  34  55  67  94 144 214 259 276 296
#     4  11  23  33  46  71 112 165 198 221 262 324
#     4  10  20  34  49  65  94 151 209 241 266 303
#     4  10  21  34  49  74 101 142 194 248 280 298
#     4  10  23  34  50  83 120 147 182 231 280 320
#
# _framework density 18.811921000000002
#
# number of rings (size 3 to 8) (size 9 to 14) (size 15 to 20)
#    0.000    2.154    1.538    1.846   10.769    0.000 
#    2.769    0.000    0.000    0.000    0.000    0.000 
#    0.000   61.538    0.000    0.000    0.000    0.000 
#
# Total GULP energy -289540.613929 kJ/mol
# GULP energy per Si atom -5568.088729 kJ/mol
# Density = 1.876910 g / cm^3
# Si number density = 18.811921 Si / 1000 Ang^3
#
#
#
# Elastic Constant Matrix: (Units=GPa)
#
#
# Indices 1 2 3 4 5 6 
#
# 1 33.1360 22.4558 22.0221 0.0000 0.0000 0.0000
# 2 22.4558 121.5985 55.0633 0.0000 0.0000 0.0000
# 3 22.0221 55.0633 102.2726 0.0000 0.0000 0.0000
# 4 0.0000 0.0000 0.0000 40.6236 0.0000 0.0000
# 5 0.0000 0.0000 0.0000 0.0000 29.5297 0.0000
# 6 0.0000 0.0000 0.0000 0.0000 0.0000 -0.9642
#
#
#
# Elastic Compliance Matrix: (Units=1/GPa)
#
#
# Indices 1 2 3 4 5 6 
#
# 1 0.036802 -0.004242 -0.005641 0.000000 0.000000 0.000000
# 2 -0.004242 0.011364 -0.005205 0.000000 0.000000 0.000000
# 3 -0.005641 -0.005205 0.013795 0.000000 0.000000 0.000000
# 4 0.000000 0.000000 0.000000 0.024616 0.000000 0.000000
# 5 0.000000 0.000000 0.000000 0.000000 0.033864 0.000000
# 6 0.000000 0.000000 0.000000 0.000000 0.000000 -1.037160
#
#
# Mechanical properties :
#
#
# Convention : Reuss Voigt Hill
#
# Bulk Modulus (GPa) = 31.46069 50.67663 41.06866
# Shear Modulus (GPa) = -5.70811 24.33553 9.31371
#
# Velocity S-wave (km/s) = -1.74381 3.60060 2.22749
# Velocity P-wave (km/s) = 3.56449 6.65453 5.33800
#
# Compressibility (1/GPa) = 0.03178570
#
# Stress axis : x y z
#
# Youngs Moduli (GPa) = 27.17228 87.99596 72.49149
#
# Poissons Ratio (x) = 0.37329 0.40889
# Poissons Ratio (y) = 0.11527 0.37732
# Poissons Ratio (z) = 0.15327 0.45802
#
# Static dielectric constant tensor:
#      x y z
#    x 1.712620 0.000000 0.000000 
#    y 0.000000 1.686550 0.000000 
#    z 0.000000 0.000000 1.738870 
# 
# From -- ./inp_files/5529.got.cif
#   From: 2010.05.17/outbox.cif.g08.bks.cpg/sg54_3_cif.got.tgz:5529.got - 2010.06.03 13:09:01.
