data_PCOD9421500
_publ_section_title
;
Structure prediction by ZEFSAII (Michael W. Deem and Ramdas Pophale) SiO2 
 PCOD9421500
Probable space group: P C C A
;
_chemical_formula_sum "Si O2"
_cell_formula_units_Z 40
_cell_length_a 8.515602
_cell_length_b 15.869608
_cell_length_c 12.891735
_cell_angle_alpha 90.000000
_cell_angle_beta 90.000000
_cell_angle_gamma 90.000000
_cell_volume 1742.179601
_symmetry_space_group_name_H-M "P C C A"
_symmetry_group_IT_number 54
_symmetry_cell_setting 'orthorhombic'
loop_
_space_group_symop_operation_xyz
x,y,z
1/2-x,-y,z
1/2+x,-y,1/2-z
-x,y,1/2-z
-x,-y,-z
1/2+x,y,-z
1/2-x,y,1/2+z
x,-y,1/2+z
loop_
_atom_site_type_symbol
_atom_site_label
_atom_site_fract_x
_atom_site_fract_y
_atom_site_fract_z
Si Si1 0.376612 0.941064 0.562242
Si Si2 0.000000 0.422643 0.750000
Si Si3 0.351007 0.825703 0.925133
Si Si4 0.409765 0.665867 0.076030
Si Si5 0.221335 0.312751 0.307021
Si Si6 0.750000 0.500000 0.404794
O O1 0.492317 0.872796 0.612513
O O2 0.265825 0.888574 0.484312
O O3 0.250000 0.000000 0.621966
O O4 0.500000 0.000000 0.500000
O O5 0.118478 0.364381 0.813579
O O6 0.107062 0.474632 0.671485
O O7 0.255690 0.783426 0.833147
O O8 0.393070 0.747375 0.002591
O O9 0.329832 0.681762 0.187908
O O10 0.589741 0.654981 0.112689
O O11 0.323071 0.580814 0.037525
#
# Coordination Sequence:
#
# PCOD9421500 Si02
#       6
#     8   4   8   8   8   4
#     4   9  20  37  64  94 116 156 195 246 312 373
#     4  10  20  36  58  84 122 166 204 256 304 352
#     4  11  20  39  66  91 122 162 207 246 308 372
#     4  10  22  39  58  90 125 167 204 258 299 358
#     4  10  22  37  61  90 119 162 209 249 308 354
#     4  10  20  36  56  84 128 162 210 252 306 350
#
# _framework density 22.959744000000001
#
# number of rings (size 3 to 8) (size 9 to 14) (size 15 to 20)
#    0.000    2.000    2.000    2.400    5.600    0.000 
#    0.000    8.000    0.000   18.000    0.000    0.000 
#    0.000    0.000    0.000    0.000    0.000    0.000 
#
# Total GULP energy -223353.737565 kJ/mol
# GULP energy per Si atom -5583.843439 kJ/mol
# Density = 2.290749 g / cm^3
# Si number density = 22.959744 Si / 1000 Ang^3
#
#
#
# Elastic Constant Matrix: (Units=GPa)
#
#
# Indices 1 2 3 4 5 6 
#
# 1 158.1282 64.7702 24.2336 0.0000 0.0000 0.0000
# 2 64.7702 126.6422 27.4256 0.0000 0.0000 0.0000
# 3 24.2336 27.4256 43.2624 0.0000 0.0000 0.0000
# 4 0.0000 0.0000 0.0000 18.7691 0.0000 0.0000
# 5 0.0000 0.0000 0.0000 0.0000 20.1935 0.0000
# 6 0.0000 0.0000 0.0000 0.0000 0.0000 65.1145
#
#
#
# Elastic Compliance Matrix: (Units=1/GPa)
#
#
# Indices 1 2 3 4 5 6 
#
# 1 0.008183 -0.003700 -0.002238 0.000000 0.000000 0.000000
# 2 -0.003700 0.010826 -0.004790 0.000000 0.000000 0.000000
# 3 -0.002238 -0.004790 0.027405 0.000000 0.000000 0.000000
# 4 0.000000 0.000000 0.000000 0.053279 0.000000 0.000000
# 5 0.000000 0.000000 0.000000 0.000000 0.049521 0.000000
# 6 0.000000 0.000000 0.000000 0.000000 0.000000 0.015358
#
#
# Mechanical properties :
#
#
# Convention : Reuss Voigt Hill
#
# Bulk Modulus (GPa) = 40.06902 62.32128 51.19515
# Shear Modulus (GPa) = 25.72717 34.92232 30.32475
#
# Velocity S-wave (km/s) = 3.35107 3.90426 3.63819
# Velocity P-wave (km/s) = 5.69760 6.89398 6.32415
#
# Compressibility (1/GPa) = 0.02495694
#
# Stress axis : x y z
#
# Youngs Moduli (GPa) = 122.21066 92.36886 36.48970
#
# Poissons Ratio (x) = 0.34179 0.08165
# Poissons Ratio (y) = 0.45222 0.17480
# Poissons Ratio (z) = 0.27348 0.44248
#
# Static dielectric constant tensor:
#      x y z
#    x 1.880570 0.000000 0.000000 
#    y 0.000000 1.923370 0.000000 
#    z 0.000000 0.000000 1.768700 
# 
# From -- ./inp_files/11540.got.cif
#   From: 2010.05.17/outbox.cif.g08.bks.cpg/sg54_6_cif.got.tgz:11540.got - 2010.06.03 13:09:01.
