data_PCOD9421230
_publ_section_title
;
Structure prediction by ZEFSAII (Michael W. Deem and Ramdas Pophale) SiO2 
 PCOD9421230
Probable space group: P C C A
;
_chemical_formula_sum "Si O2"
_cell_formula_units_Z 56
_cell_length_a 19.159575
_cell_length_b 12.343792
_cell_length_c 11.452862
_cell_angle_alpha 90.000000
_cell_angle_beta 90.000000
_cell_angle_gamma 90.000000
_cell_volume 2708.622577
_symmetry_space_group_name_H-M "P C C A"
_symmetry_group_IT_number 54
_symmetry_cell_setting 'orthorhombic'
loop_
_space_group_symop_operation_xyz
x,y,z
1/2-x,-y,z
1/2+x,-y,1/2-z
-x,y,1/2-z
-x,-y,-z
1/2+x,y,-z
1/2-x,y,1/2+z
x,-y,1/2+z
loop_
_atom_site_type_symbol
_atom_site_label
_atom_site_fract_x
_atom_site_fract_y
_atom_site_fract_z
Si Si1 0.664761 0.273772 0.793239
Si Si2 0.166679 0.973026 0.779492
Si Si3 0.326827 0.053130 0.032787
Si Si4 0.044637 0.613778 0.135166
Si Si5 0.821267 0.542192 0.619601
Si Si6 0.809863 0.704482 0.412583
Si Si7 0.420021 0.388640 0.518480
O O1 0.654480 0.153216 0.747997
O O2 0.644844 0.366643 0.700782
O O3 0.746551 0.285923 0.823368
O O4 0.623163 0.299804 0.911646
O O5 0.250000 0.000000 0.786588
O O6 0.140328 0.033075 0.661555
O O7 0.140032 0.992581 0.912393
O O8 0.315648 0.181622 0.020580
O O9 0.250000 0.000000 0.040945
O O10 0.115880 0.679009 0.144108
O O11 0.006844 0.652531 0.468058
O O12 0.063081 0.490033 0.102916
O O13 0.000000 0.619685 0.250000
O O14 0.750000 0.500000 0.676685
O O15 0.797924 0.606460 0.502887
O O16 0.872970 0.446082 0.582206
#
# Coordination Sequence:
#
# PCOD9421230 Si02
#       7
#     8   8   8   8   8   8   8
#     4  12  22  36  62  97 120 168 210 274 324 374
#     4  10  20  36  60  91 131 157 203 265 336 383
#     4  10  19  38  58  93 125 162 200 271 327 378
#     4  10  23  42  58  84 124 180 209 251 316 388
#     4  11  23  34  57  90 129 154 205 271 319 370
#     4  11  22  38  60  92 125 159 219 260 318 385
#     4  10  23  41  59  85 128 167 217 258 314 392
#
# _framework density 20.674714000000002
#
# number of rings (size 3 to 8) (size 9 to 14) (size 15 to 20)
#    0.000    1.429    5.714    0.857    6.000    0.000 
#    2.571    0.000    0.000    0.857    0.000    0.000 
#    0.000    0.000    0.000    0.000    0.000    0.000 
#
# Total GULP energy -312500.477017 kJ/mol
# GULP energy per Si atom -5580.365661 kJ/mol
# Density = 2.062766 g / cm^3
# Si number density = 20.674714 Si / 1000 Ang^3
#
#
#
# Elastic Constant Matrix: (Units=GPa)
#
#
# Indices 1 2 3 4 5 6 
#
# 1 61.6883 6.6246 3.2678 0.0000 0.0000 0.0000
# 2 6.6246 36.2394 20.4706 0.0000 0.0000 0.0000
# 3 3.2678 20.4706 84.1845 0.0000 0.0000 0.0000
# 4 0.0000 0.0000 0.0000 27.2772 0.0000 0.0000
# 5 0.0000 0.0000 0.0000 0.0000 3.6482 0.0000
# 6 0.0000 0.0000 0.0000 0.0000 0.0000 5.0208
#
#
#
# Elastic Compliance Matrix: (Units=1/GPa)
#
#
# Indices 1 2 3 4 5 6 
#
# 1 0.016536 -0.003084 0.000108 0.000000 0.000000 0.000000
# 2 -0.003084 0.032563 -0.007798 0.000000 0.000000 0.000000
# 3 0.000108 -0.007798 0.013771 0.000000 0.000000 0.000000
# 4 0.000000 0.000000 0.000000 0.036661 0.000000 0.000000
# 5 0.000000 0.000000 0.000000 0.000000 0.274110 0.000000
# 6 0.000000 0.000000 0.000000 0.000000 0.000000 0.199173
#
#
# Mechanical properties :
#
#
# Convention : Reuss Voigt Hill
#
# Bulk Modulus (GPa) = 24.20059 26.98204 25.59132
# Shear Modulus (GPa) = 8.22185 17.30585 12.76385
#
# Velocity S-wave (km/s) = 1.99635 2.89633 2.48738
# Velocity P-wave (km/s) = 4.12852 4.92585 4.54471
#
# Compressibility (1/GPa) = 0.04132130
#
# Stress axis : x y z
#
# Youngs Moduli (GPa) = 60.47425 30.70962 72.61750
#
# Poissons Ratio (x) = 0.09470 -0.00784
# Poissons Ratio (y) = 0.18649 0.56630
# Poissons Ratio (z) = -0.00653 0.23949
#
# Static dielectric constant tensor:
#      x y z
#    x 1.732090 0.000000 0.000000 
#    y 0.000000 1.789170 0.000000 
#    z 0.000000 0.000000 1.818900 
# 
# From -- ./inp_files/9544.got.cif
#   From: 2010.05.17/outbox.cif.g08.bks.cpg/sg54_5_cif.got.tgz:9544.got - 2010.06.03 13:09:01.
