data_PCOD9421688
_publ_section_title
;
Structure prediction by ZEFSAII (Michael W. Deem and Ramdas Pophale) SiO2 
 PCOD9421688
Probable space group: P C C A
;
_chemical_formula_sum "Si O2"
_cell_formula_units_Z 52
_cell_length_a 8.238295
_cell_length_b 20.645445
_cell_length_c 16.048762
_cell_angle_alpha 90.000000
_cell_angle_beta 90.000000
_cell_angle_gamma 90.000000
_cell_volume 2729.625861
_symmetry_space_group_name_H-M "P C C A"
_symmetry_group_IT_number 54
_symmetry_cell_setting 'orthorhombic'
loop_
_space_group_symop_operation_xyz
x,y,z
1/2-x,-y,z
1/2+x,-y,1/2-z
-x,y,1/2-z
-x,-y,-z
1/2+x,y,-z
1/2-x,y,1/2+z
x,-y,1/2+z
loop_
_atom_site_type_symbol
_atom_site_label
_atom_site_fract_x
_atom_site_fract_y
_atom_site_fract_z
Si Si1 0.500000 0.348285 0.750000
Si Si2 0.700544 0.573744 0.387867
Si Si3 0.750000 0.000000 0.319268
Si Si4 0.000000 0.097571 0.250000
Si Si5 0.190812 0.712358 0.898694
Si Si6 0.995741 0.065332 0.944576
Si Si7 0.010525 0.362758 0.968955
Si Si8 0.323326 0.860619 0.412228
O O1 0.389965 0.393002 0.689780
O O2 0.389073 0.304395 0.810104
O O3 0.750000 0.500000 0.372261
O O4 0.583078 0.582804 0.468515
O O5 0.864233 0.611516 0.413086
O O6 0.648804 0.949510 0.267338
O O7 0.872585 0.956249 0.373192
O O8 0.946406 0.133776 0.166107
O O9 0.344745 0.666587 0.914951
O O10 0.236058 0.786952 0.910428
O O11 0.060364 0.692043 0.969247
O O12 0.169727 0.090076 0.911773
O O13 0.921358 0.120244 0.004563
O O14 0.000000 0.000000 0.000000
#
# Coordination Sequence:
#
# PCOD9421688 Si02
#       8
#     4   8   4   4   8   8   8   8
#     4  10  23  38  56  86 132 161 194 248 304 340
#     4  10  20  37  62  92 122 161 204 247 299 356
#     4  12  24  40  60  80 120 142 180 232 308 352
#     4  12  25  38  58  88 114 151 182 240 294 364
#     4  10  21  40  58  86 117 159 200 245 289 355
#     4  12  22  41  62  87 111 149 189 247 295 357
#     4   9  20  38  62  86 119 159 202 254 292 332
#     4  12  23  39  64  87 115 154 201 237 297 363
#
# _framework density 19.050229999999999
#
# number of rings (size 3 to 8) (size 9 to 14) (size 15 to 20)
#    0.000    1.231    3.077    2.769    0.000    1.846 
#    0.000    7.692    0.000    0.000    0.000    0.000 
#    0.000    0.000    0.000    0.000    0.000    0.000 
#
# Total GULP energy -290367.473404 kJ/mol
# GULP energy per Si atom -5583.989873 kJ/mol
# Density = 1.900687 g / cm^3
# Si number density = 19.050230 Si / 1000 Ang^3
#
#
#
# Elastic Constant Matrix: (Units=GPa)
#
#
# Indices 1 2 3 4 5 6 
#
# 1 86.1948 11.4431 27.4566 0.0000 0.0000 0.0000
# 2 11.4431 89.7997 23.4884 0.0000 0.0000 0.0000
# 3 27.4566 23.4884 69.3107 0.0000 0.0000 0.0000
# 4 0.0000 0.0000 0.0000 -200.4957 0.0000 0.0000
# 5 0.0000 0.0000 0.0000 0.0000 43.2110 0.0000
# 6 0.0000 0.0000 0.0000 0.0000 0.0000 22.8389
#
#
#
# Elastic Compliance Matrix: (Units=1/GPa)
#
#
# Indices 1 2 3 4 5 6 
#
# 1 0.013287 -0.000347 -0.005146 0.000000 0.000000 0.000000
# 2 -0.000347 0.012228 -0.004006 0.000000 0.000000 0.000000
# 3 -0.005146 -0.004006 0.017824 0.000000 0.000000 0.000000
# 4 0.000000 0.000000 0.000000 -0.004988 0.000000 0.000000
# 5 0.000000 0.000000 0.000000 0.000000 0.023142 0.000000
# 6 0.000000 0.000000 0.000000 0.000000 0.000000 0.043785
#
#
# Mechanical properties :
#
#
# Convention : Reuss Voigt Hill
#
# Bulk Modulus (GPa) = 41.08432 41.12014 41.10223
# Shear Modulus (GPa) = 37.76705 -14.69469 11.53618
#
# Velocity S-wave (km/s) = 4.45736 -2.78036 2.46350
# Velocity P-wave (km/s) = 6.93569 3.36523 5.45108
#
# Compressibility (1/GPa) = 0.02434019
#
# Stress axis : x y z
#
# Youngs Moduli (GPa) = 75.26228 81.77911 56.10432
#
# Poissons Ratio (x) = 0.02839 0.28870
# Poissons Ratio (y) = 0.02613 0.22477
# Poissons Ratio (z) = 0.38728 0.32764
#
# Static dielectric constant tensor:
#      x y z
#    x 1.645970 0.000000 0.000000 
#    y 0.000000 1.640800 0.000000 
#    z 0.000000 0.000000 1.665830 
# 
# From -- ./inp_files/11860.got.cif
#   From: 2010.05.17/outbox.cif.g08.bks.cpg/sg54_6_cif.got.tgz:11860.got - 2010.06.03 13:09:01.
