data_PCOD9421826
_publ_section_title
;
Structure prediction by ZEFSAII (Michael W. Deem and Ramdas Pophale) SiO2 
 PCOD9421826
Probable space group: P C C A
;
_chemical_formula_sum "Si O2"
_cell_formula_units_Z 52
_cell_length_a 19.929541
_cell_length_b 5.416597
_cell_length_c 20.265327
_cell_angle_alpha 90.000000
_cell_angle_beta 90.000000
_cell_angle_gamma 90.000000
_cell_volume 2187.647967
_symmetry_space_group_name_H-M "P C C A"
_symmetry_group_IT_number 54
_symmetry_cell_setting 'orthorhombic'
loop_
_space_group_symop_operation_xyz
x,y,z
1/2-x,-y,z
1/2+x,-y,1/2-z
-x,y,1/2-z
-x,-y,-z
1/2+x,y,-z
1/2-x,y,1/2+z
x,-y,1/2+z
loop_
_atom_site_type_symbol
_atom_site_label
_atom_site_fract_x
_atom_site_fract_y
_atom_site_fract_z
Si Si1 0.750000 0.500000 0.002718
Si Si2 0.887779 0.973127 0.300162
Si Si3 0.822756 0.894262 0.440411
Si Si4 0.560927 0.258415 0.509335
Si Si5 0.170225 0.526057 0.763475
Si Si6 0.491097 0.912276 0.888667
Si Si7 0.859181 0.353201 0.593717
O O1 0.694133 0.607280 0.953175
O O2 0.710239 0.318137 0.053236
O O3 0.863211 0.220390 0.263041
O O4 0.848991 0.970285 0.370058
O O5 0.866320 0.717503 0.265560
O O6 0.965594 0.961601 0.323716
O O7 0.879700 0.940948 0.494631
O O8 0.750000 0.000000 0.450214
O O9 0.529377 0.286547 0.436378
O O10 0.595824 0.485327 0.544156
O O11 0.510083 0.144944 0.561930
O O12 0.250000 0.500000 0.747599
O O13 0.161223 0.512208 0.842229
O O14 0.413222 0.844529 0.878597
#
# Coordination Sequence:
#
# PCOD9421826 Si02
#       7
#     4   8   8   8   8   8   8
#     4  10  22  40  66 112 134 182 246 300 384 434
#     4  11  28  46  74 103 144 193 244 295 364 426
#     4  10  20  38  67 102 138 181 235 303 360 440
#     4   9  21  40  66 102 138 180 231 304 371 427
#     4  12  27  51  71 102 145 197 244 299 354 438
#     4  10  22  44  68 103 138 184 238 302 368 435
#     4  11  23  42  70  99 146 188 241 301 367 441
#
# _framework density 23.769818999999998
#
# number of rings (size 3 to 8) (size 9 to 14) (size 15 to 20)
#    0.000    1.538    0.769    2.769    7.538    0.615 
#    5.538    0.000    0.000    0.000    0.000    0.000 
#    0.000    0.000    0.000    0.000    0.000    0.000 
#
# Total GULP energy -289874.297115 kJ/mol
# GULP energy per Si atom -5574.505714 kJ/mol
# Density = 2.371572 g / cm^3
# Si number density = 23.769819 Si / 1000 Ang^3
#
#
#
# Elastic Constant Matrix: (Units=GPa)
#
#
# Indices 1 2 3 4 5 6 
#
# 1 83.4272 6.8239 11.1963 0.0000 0.0000 0.0000
# 2 6.8239 81.7063 23.0225 0.0000 0.0000 0.0000
# 3 11.1963 23.0225 74.2339 0.0000 0.0000 0.0000
# 4 0.0000 0.0000 0.0000 6.9589 0.0000 0.0000
# 5 0.0000 0.0000 0.0000 0.0000 27.1309 0.0000
# 6 0.0000 0.0000 0.0000 0.0000 0.0000 31.9190
#
#
#
# Elastic Compliance Matrix: (Units=1/GPa)
#
#
# Indices 1 2 3 4 5 6 
#
# 1 0.012257 -0.000551 -0.001678 0.000000 0.000000 0.000000
# 2 -0.000551 0.013436 -0.004084 0.000000 0.000000 0.000000
# 3 -0.001678 -0.004084 0.014990 0.000000 0.000000 0.000000
# 4 0.000000 0.000000 0.000000 0.143700 0.000000 0.000000
# 5 0.000000 0.000000 0.000000 0.000000 0.036858 0.000000
# 6 0.000000 0.000000 0.000000 0.000000 0.000000 0.031329
#
#
# Mechanical properties :
#
#
# Convention : Reuss Voigt Hill
#
# Bulk Modulus (GPa) = 35.64044 35.71697 35.67870
# Shear Modulus (GPa) = 18.21173 26.42341 22.31757
#
# Velocity S-wave (km/s) = 2.77098 3.33774 3.06748
# Velocity P-wave (km/s) = 5.02636 5.46926 5.25248
#
# Compressibility (1/GPa) = 0.02805801
#
# Stress axis : x y z
#
# Youngs Moduli (GPa) = 81.58789 74.42884 66.70898
#
# Poissons Ratio (x) = 0.04100 0.11192
# Poissons Ratio (y) = 0.04495 0.27242
# Poissons Ratio (z) = 0.13688 0.30395
#
# Static dielectric constant tensor:
#      x y z
#    x 2.031350 0.000000 0.000000 
#    y 0.000000 2.100840 0.000000 
#    z 0.000000 0.000000 1.863180 
# 
# From -- ./inp_files/22163.got.cif
#   From: 2010.05.17/outbox.cif.g08.bks.cpg/sg54_12_cif.got.tgz:22163.got - 2010.06.03 13:09:01.
