data_PCOD9421763
_publ_section_title
;
Structure prediction by ZEFSAII (Michael W. Deem and Ramdas Pophale) SiO2 
 PCOD9421763
Probable space group: P C C A
;
_chemical_formula_sum "Si O2"
_cell_formula_units_Z 52
_cell_length_a 17.173896
_cell_length_b 6.993614
_cell_length_c 16.471837
_cell_angle_alpha 90.000000
_cell_angle_beta 90.000000
_cell_angle_gamma 90.000000
_cell_volume 1978.392801
_symmetry_space_group_name_H-M "P C C A"
_symmetry_group_IT_number 54
_symmetry_cell_setting 'orthorhombic'
loop_
_space_group_symop_operation_xyz
x,y,z
1/2-x,-y,z
1/2+x,-y,1/2-z
-x,y,1/2-z
-x,-y,-z
1/2+x,y,-z
1/2-x,y,1/2+z
x,-y,1/2+z
loop_
_atom_site_type_symbol
_atom_site_label
_atom_site_fract_x
_atom_site_fract_y
_atom_site_fract_z
Si Si1 0.250000 0.500000 0.994591
Si Si2 0.356941 0.220214 0.736383
Si Si3 0.128789 0.225023 0.412860
Si Si4 0.673754 0.760085 0.770162
Si Si5 0.920414 0.174933 0.916365
Si Si6 0.905490 0.201164 0.610870
Si Si7 0.123246 0.258484 0.065051
O O1 0.206504 0.352485 0.053263
O O2 0.299047 0.356838 0.937590
O O3 0.396302 0.271030 0.821537
O O4 0.265501 0.279841 0.735076
O O5 0.401825 0.298351 0.657491
O O6 0.346595 0.988990 0.731497
O O7 0.072890 0.249070 0.490878
O O8 0.142833 0.995325 0.404245
O O9 0.633278 0.705369 0.855350
O O10 0.631703 0.693974 0.687455
O O11 0.004474 0.146967 0.875982
O O12 0.880817 0.970531 0.931775
O O13 0.908568 0.310256 0.524698
#
# Coordination Sequence:
#
# PCOD9421763 Si02
#       7
#     4   8   8   8   8   8   8
#     4  12  24  36  54  84 116 156 192 240 296 330
#     4   9  18  33  54  84 116 152 186 234 290 332
#     4  10  21  36  56  83 117 149 191 234 282 338
#     4   9  17  30  58  90 115 141 186 242 286 329
#     4  10  20  38  61  87 115 153 191 231 280 341
#     4  10  20  38  61  87 115 153 191 231 280 341
#     4  10  21  36  56  83 117 149 191 234 282 338
#
# _framework density 26.283963
#
# number of rings (size 3 to 8) (size 9 to 14) (size 15 to 20)
#    0.000    2.154    0.000    4.154    0.000   10.462 
#    0.000    6.923    0.000    0.000    0.000    8.615 
#    0.000    0.000    0.000    0.000    0.000    0.000 
#
# Total GULP energy -289954.405262 kJ/mol
# GULP energy per Si atom -5576.046255 kJ/mol
# Density = 2.622414 g / cm^3
# Si number density = 26.283963 Si / 1000 Ang^3
#
#
#
# Elastic Constant Matrix: (Units=GPa)
#
#
# Indices 1 2 3 4 5 6 
#
# 1 66.4947 5.0124 14.1639 0.0000 0.0000 0.0000
# 2 5.0124 104.2525 -47.2362 0.0000 0.0000 0.0000
# 3 14.1639 -47.2362 203.3188 0.0000 0.0000 0.0000
# 4 0.0000 0.0000 0.0000 -15.3743 0.0000 0.0000
# 5 0.0000 0.0000 0.0000 0.0000 103.1934 0.0000
# 6 0.0000 0.0000 0.0000 0.0000 0.0000 -10.6008
#
#
#
# Elastic Compliance Matrix: (Units=1/GPa)
#
#
# Indices 1 2 3 4 5 6 
#
# 1 0.015440 -0.001374 -0.001395 0.000000 0.000000 0.000000
# 2 -0.001374 0.010843 0.002615 0.000000 0.000000 0.000000
# 3 -0.001395 0.002615 0.005623 0.000000 0.000000 0.000000
# 4 0.000000 0.000000 0.000000 -0.065044 0.000000 0.000000
# 5 0.000000 0.000000 0.000000 0.000000 0.009691 0.000000
# 6 0.000000 0.000000 0.000000 0.000000 0.000000 -0.094333
#
#
# Mechanical properties :
#
#
# Convention : Reuss Voigt Hill
#
# Bulk Modulus (GPa) = 31.64878 35.32736 33.48807
# Shear Modulus (GPa) = -46.75551 42.25206 -2.25172
#
# Velocity S-wave (km/s) = -4.22223 4.01374 -0.92658
# Velocity P-wave (km/s) = 3.42088 5.91185 3.40937
#
# Compressibility (1/GPa) = 0.03159679
#
# Stress axis : x y z
#
# Youngs Moduli (GPa) = 64.76887 92.22595 177.83951
#
# Poissons Ratio (x) = 0.12675 0.24806
# Poissons Ratio (y) = 0.08901 -0.46502
# Poissons Ratio (z) = 0.09034 -0.24116
#
# Static dielectric constant tensor:
#      x y z
#    x 1.341650 0.000000 0.000000 
#    y 0.000000 2.091370 0.000000 
#    z 0.000000 0.000000 2.148490 
# 
# From -- ./inp_files/18582.got.cif
#   From: 2010.05.17/outbox.cif.g08.bks.cpg/sg54_10_cif.got.tgz:18582.got - 2010.06.03 13:09:01.
