data_PCOD9421235
_publ_section_title
;
Structure prediction by ZEFSAII (Michael W. Deem and Ramdas Pophale) SiO2 
 PCOD9421235
Probable space group: P C C A
;
_chemical_formula_sum "Si O2"
_cell_formula_units_Z 48
_cell_length_a 9.213054
_cell_length_b 15.107664
_cell_length_c 15.684715
_cell_angle_alpha 90.000000
_cell_angle_beta 90.000000
_cell_angle_gamma 90.000000
_cell_volume 2183.119786
_symmetry_space_group_name_H-M "P C C A"
_symmetry_group_IT_number 54
_symmetry_cell_setting 'orthorhombic'
loop_
_space_group_symop_operation_xyz
x,y,z
1/2-x,-y,z
1/2+x,-y,1/2-z
-x,y,1/2-z
-x,-y,-z
1/2+x,y,-z
1/2-x,y,1/2+z
x,-y,1/2+z
loop_
_atom_site_type_symbol
_atom_site_label
_atom_site_fract_x
_atom_site_fract_y
_atom_site_fract_z
Si Si1 0.617265 0.311100 0.040137
Si Si2 0.092292 0.045135 0.425463
Si Si3 0.152778 0.804441 0.038813
Si Si4 0.641680 0.584316 0.369937
Si Si5 0.388946 0.945130 0.688862
Si Si6 0.805795 0.399459 0.187111
O O1 0.692399 0.230738 0.989196
O O2 0.630780 0.385334 0.967793
O O3 0.455653 0.276367 0.060165
O O4 0.710301 0.341279 0.121906
O O5 0.102988 0.145914 0.452485
O O6 0.250000 0.000000 0.422771
O O7 0.000000 0.000000 0.500000
O O8 0.998368 0.020663 0.344861
O O9 0.156555 0.877561 0.113528
O O10 0.750000 0.500000 0.372003
O O11 0.701661 0.636139 0.285098
O O12 0.028909 0.414386 0.344300
O O13 0.500000 0.892705 0.750000
O O14 0.250000 0.000000 0.720322
O O15 0.750000 0.500000 0.188695
#
# Coordination Sequence:
#
# PCOD9421235 Si02
#       6
#     8   8   8   8   8   8
#     4  12  23  39  63  96 134 170 208 269 335 402
#     4  10  19  38  62  85 117 160 211 259 307 385
#     4  11  23  38  61  92 127 164 204 263 336 390
#     4  10  23  43  65  91 126 170 222 271 319 385
#     4  11  23  41  64  91 122 166 222 270 324 392
#     4  10  23  43  66  92 124 173 223 268 321 387
#
# _framework density 21.986882999999999
#
# number of rings (size 3 to 8) (size 9 to 14) (size 15 to 20)
#    0.000    1.333    1.667    6.000    2.333    2.667 
#    0.000    1.667    0.000    0.000    0.000    0.000 
#    0.000    0.000    0.000    0.000    0.000    0.000 
#
# Total GULP energy -267260.444235 kJ/mol
# GULP energy per Si atom -5567.925922 kJ/mol
# Density = 2.193684 g / cm^3
# Si number density = 21.986883 Si / 1000 Ang^3
#
#
#
# Elastic Constant Matrix: (Units=GPa)
#
#
# Indices 1 2 3 4 5 6 
#
# 1 111.1495 3.4804 22.9811 0.0000 0.0000 0.0000
# 2 3.4804 28.9835 1.9694 0.0000 0.0000 0.0000
# 3 22.9811 1.9694 90.7898 0.0000 0.0000 0.0000
# 4 0.0000 0.0000 0.0000 0.9105 0.0000 0.0000
# 5 0.0000 0.0000 0.0000 0.0000 17.8410 0.0000
# 6 0.0000 0.0000 0.0000 0.0000 0.0000 27.8583
#
#
#
# Elastic Compliance Matrix: (Units=1/GPa)
#
#
# Indices 1 2 3 4 5 6 
#
# 1 0.009522 -0.000981 -0.002389 0.000000 0.000000 0.000000
# 2 -0.000981 0.034654 -0.000503 0.000000 0.000000 0.000000
# 3 -0.002389 -0.000503 0.011630 0.000000 0.000000 0.000000
# 4 0.000000 0.000000 0.000000 1.098244 0.000000 0.000000
# 5 0.000000 0.000000 0.000000 0.000000 0.056051 0.000000
# 6 0.000000 0.000000 0.000000 0.000000 0.000000 0.035896
#
#
# Mechanical properties :
#
#
# Convention : Reuss Voigt Hill
#
# Bulk Modulus (GPa) = 20.80760 31.97607 26.39183
# Shear Modulus (GPa) = 3.93774 22.82143 13.37958
#
# Velocity S-wave (km/s) = 1.33972 3.22523 2.46951
# Velocity P-wave (km/s) = 3.44635 5.33332 4.49008
#
# Compressibility (1/GPa) = 0.04805937
#
# Stress axis : x y z
#
# Youngs Moduli (GPa) = 105.02516 28.85640 85.98413
#
# Poissons Ratio (x) = 0.02831 0.20540
# Poissons Ratio (y) = 0.10304 0.04328
# Poissons Ratio (z) = 0.25089 0.01453
#
# Static dielectric constant tensor:
#      x y z
#    x 1.768310 0.000000 0.000000 
#    y 0.000000 1.777620 0.000000 
#    z 0.000000 0.000000 2.084010 
# 
# From -- ./inp_files/16614.got.cif
#   From: 2010.05.17/outbox.cif.g08.bks.cpg/sg54_9_cif.got.tgz:16614.got - 2010.06.03 13:09:01.
