data_PCOD9421222
_publ_section_title
;
Structure prediction by ZEFSAII (Michael W. Deem and Ramdas Pophale) SiO2 
 PCOD9421222
Probable space group: P C C A
;
_chemical_formula_sum "Si O2"
_cell_formula_units_Z 60
_cell_length_a 9.916872
_cell_length_b 17.669327
_cell_length_c 17.544127
_cell_angle_alpha 90.000000
_cell_angle_beta 90.000000
_cell_angle_gamma 90.000000
_cell_volume 3074.160078
_symmetry_space_group_name_H-M "P C C A"
_symmetry_group_IT_number 54
_symmetry_cell_setting 'orthorhombic'
loop_
_space_group_symop_operation_xyz
x,y,z
1/2-x,-y,z
1/2+x,-y,1/2-z
-x,y,1/2-z
-x,-y,-z
1/2+x,y,-z
1/2-x,y,1/2+z
x,-y,1/2+z
loop_
_atom_site_type_symbol
_atom_site_label
_atom_site_fract_x
_atom_site_fract_y
_atom_site_fract_z
Si Si1 0.302178 0.776805 0.888619
Si Si2 0.006996 0.800808 0.660382
Si Si3 0.624566 0.697554 0.457033
Si Si4 0.877499 0.956046 0.904150
Si Si5 0.250000 0.500000 0.907076
Si Si6 0.636270 0.941221 0.581473
Si Si7 0.887009 0.601865 0.476757
Si Si8 0.569982 0.622005 0.668349
O O1 0.143043 0.785576 0.872483
O O2 0.360522 0.860785 0.877142
O O3 0.374226 0.707818 0.843565
O O4 0.331827 0.754735 0.976197
O O5 0.000000 0.791828 0.750000
O O6 0.107717 0.741046 0.621532
O O7 0.062817 0.883702 0.638843
O O8 0.738351 0.633849 0.459954
O O9 0.481451 0.661214 0.478701
O O10 0.750000 0.000000 0.869521
O O11 0.839029 0.930452 0.990454
O O12 0.994421 0.017897 0.910850
O O13 0.193608 0.433389 0.853652
O O14 0.362694 0.467268 0.965283
O O15 0.750000 0.000000 0.609170
O O16 0.960982 0.597759 0.395821
O O17 0.500000 0.613306 0.750000
#
# Coordination Sequence:
#
# PCOD9421222 Si02
#       8
#     8   8   8   8   4   8   8   8
#     4  11  22  44  68  92 134 177 234 276 335 413
#     4  12  25  41  63  97 138 176 219 288 357 408
#     4  11  22  42  71  99 128 178 230 280 333 413
#     4  10  22  37  60  96 125 166 232 281 335 396
#     4  12  22  48  72 102 138 182 236 278 342 422
#     4  10  19  37  69  93 120 175 232 284 323 395
#     4  11  23  43  73  98 132 178 231 276 330 424
#     4  11  27  45  67 107 142 176 228 288 355 414
#
# _framework density 19.517526
#
# number of rings (size 3 to 8) (size 9 to 14) (size 15 to 20)
#    0.000    1.067    6.667    0.400    1.867    2.667 
#    2.400    0.667    0.000    0.000    0.000    0.000 
#    0.000    0.000    0.000    0.000    0.000    0.000 
#
# Total GULP energy -334809.278356 kJ/mol
# GULP energy per Si atom -5580.154639 kJ/mol
# Density = 1.947310 g / cm^3
# Si number density = 19.517526 Si / 1000 Ang^3
#
#
#
# Elastic Constant Matrix: (Units=GPa)
#
#
# Indices 1 2 3 4 5 6 
#
# 1 89.6484 46.8584 33.0068 0.0000 0.0000 0.0000
# 2 46.8584 125.9269 60.8125 0.0000 0.0000 0.0000
# 3 33.0068 60.8125 99.0110 0.0000 0.0000 0.0000
# 4 0.0000 0.0000 0.0000 9.3690 0.0000 0.0000
# 5 0.0000 0.0000 0.0000 0.0000 8.9008 0.0000
# 6 0.0000 0.0000 0.0000 0.0000 0.0000 21.9530
#
#
#
# Elastic Compliance Matrix: (Units=1/GPa)
#
#
# Indices 1 2 3 4 5 6 
#
# 1 0.014151 -0.004247 -0.002109 0.000000 0.000000 0.000000
# 2 -0.004247 0.012565 -0.006301 0.000000 0.000000 0.000000
# 3 -0.002109 -0.006301 0.014673 0.000000 0.000000 0.000000
# 4 0.000000 0.000000 0.000000 0.106735 0.000000 0.000000
# 5 0.000000 0.000000 0.000000 0.000000 0.112349 0.000000
# 6 0.000000 0.000000 0.000000 0.000000 0.000000 0.045552
#
#
# Mechanical properties :
#
#
# Convention : Reuss Voigt Hill
#
# Bulk Modulus (GPa) = 62.21199 66.21574 64.21387
# Shear Modulus (GPa) = 14.85013 19.63847 17.24430
#
# Velocity S-wave (km/s) = 2.76136 3.17550 2.97565
# Velocity P-wave (km/s) = 6.48930 6.88804 6.69164
#
# Compressibility (1/GPa) = 0.01607407
#
# Stress axis : x y z
#
# Youngs Moduli (GPa) = 70.66552 79.58875 68.15199
#
# Poissons Ratio (x) = 0.33805 0.14372
# Poissons Ratio (y) = 0.30015 0.42944
# Poissons Ratio (z) = 0.14902 0.50151
#
# Static dielectric constant tensor:
#      x y z
#    x 1.699590 0.000000 0.000000 
#    y 0.000000 1.695190 0.000000 
#    z 0.000000 0.000000 1.663900 
# 
# From -- ./inp_files/16844.got.cif
#   From: 2010.05.17/outbox.cif.g08.bks.cpg/sg54_9_cif.got.tgz:16844.got - 2010.06.03 13:09:01.
