data_PCOD9421397
_publ_section_title
;
Structure prediction by ZEFSAII (Michael W. Deem and Ramdas Pophale) SiO2 
 PCOD9421397
Probable space group: P C C A
;
_chemical_formula_sum "Si O2"
_cell_formula_units_Z 48
_cell_length_a 11.578310
_cell_length_b 9.247459
_cell_length_c 19.195318
_cell_angle_alpha 90.000000
_cell_angle_beta 90.000000
_cell_angle_gamma 90.000000
_cell_volume 2055.241681
_symmetry_space_group_name_H-M "P C C A"
_symmetry_group_IT_number 54
_symmetry_cell_setting 'orthorhombic'
loop_
_space_group_symop_operation_xyz
x,y,z
1/2-x,-y,z
1/2+x,-y,1/2-z
-x,y,1/2-z
-x,-y,-z
1/2+x,y,-z
1/2-x,y,1/2+z
x,-y,1/2+z
loop_
_atom_site_type_symbol
_atom_site_label
_atom_site_fract_x
_atom_site_fract_y
_atom_site_fract_z
Si Si1 0.981513 0.636607 0.586745
Si Si2 0.388232 0.859735 0.603556
Si Si3 0.370915 0.935586 0.227734
Si Si4 0.310516 0.855710 0.445449
Si Si5 0.411337 0.669953 0.934557
Si Si6 0.204179 0.348723 0.179196
O O1 0.910469 0.783166 0.600699
O O2 0.910400 0.489304 0.598244
O O3 0.015585 0.651508 0.505565
O O4 0.100475 0.619156 0.626674
O O5 0.357898 0.888967 0.523068
O O6 0.515387 0.788984 0.607872
O O7 0.303639 0.739443 0.637777
O O8 0.373648 0.005006 0.647843
O O9 0.500000 0.976952 0.250000
O O10 0.350260 0.764773 0.232537
O O11 0.250000 0.000000 0.257065
O O12 0.213010 0.732868 0.451693
O O13 0.250000 0.000000 0.418768
O O14 0.250000 0.500000 0.207706
#
# Coordination Sequence:
#
# PCOD9421397 Si02
#       6
#     8   8   8   8   8   8
#     4  10  21  33  56  87 130 173 210 252 301 380
#     4  10  21  38  62  90 128 176 212 261 324 389
#     4  10  24  47  73  97 127 167 221 288 353 396
#     4  11  22  33  52  88 134 176 216 254 297 376
#     4  10  20  34  55  88 132 176 209 248 304 373
#     4  11  20  39  66  92 123 168 214 258 320 395
#
# _framework density 23.354915999999999
#
# number of rings (size 3 to 8) (size 9 to 14) (size 15 to 20)
#    0.000    1.667    3.333    2.000    2.333    1.333 
#    3.000    3.333    0.000    0.000    0.000    0.000 
#    0.000    0.000    0.000    0.000    0.000    0.000 
#
# Total GULP energy -268174.881408 kJ/mol
# GULP energy per Si atom -5586.976696 kJ/mol
# Density = 2.330176 g / cm^3
# Si number density = 23.354916 Si / 1000 Ang^3
#
#
#
# Elastic Constant Matrix: (Units=GPa)
#
#
# Indices 1 2 3 4 5 6 
#
# 1 103.6937 37.1482 18.4372 0.0000 0.0000 0.0000
# 2 37.1482 114.8007 5.0177 0.0000 0.0000 0.0000
# 3 18.4372 5.0177 46.8159 0.0000 0.0000 0.0000
# 4 0.0000 0.0000 0.0000 82.6601 0.0000 0.0000
# 5 0.0000 0.0000 0.0000 0.0000 18.9921 0.0000
# 6 0.0000 0.0000 0.0000 0.0000 0.0000 38.4031
#
#
#
# Elastic Compliance Matrix: (Units=1/GPa)
#
#
# Indices 1 2 3 4 5 6 
#
# 1 0.011681 -0.003596 -0.004215 0.000000 0.000000 0.000000
# 2 -0.003596 0.009859 0.000359 0.000000 0.000000 0.000000
# 3 -0.004215 0.000359 0.022982 0.000000 0.000000 0.000000
# 4 0.000000 0.000000 0.000000 0.012098 0.000000 0.000000
# 5 0.000000 0.000000 0.000000 0.000000 0.052653 0.000000
# 6 0.000000 0.000000 0.000000 0.000000 0.000000 0.026040
#
#
# Mechanical properties :
#
#
# Convention : Reuss Voigt Hill
#
# Bulk Modulus (GPa) = 33.76203 42.94627 38.35415
# Shear Modulus (GPa) = 31.23280 41.65821 36.44551
#
# Velocity S-wave (km/s) = 3.66089 4.22797 3.95461
# Velocity P-wave (km/s) = 5.68832 6.50098 6.10818
#
# Compressibility (1/GPa) = 0.02961908
#
# Stress axis : x y z
#
# Youngs Moduli (GPa) = 85.60613 101.43448 43.51284
#
# Poissons Ratio (x) = 0.36473 0.18341
# Poissons Ratio (y) = 0.30782 -0.01564
# Poissons Ratio (z) = 0.36083 -0.03646
#
# Static dielectric constant tensor:
#      x y z
#    x 1.824490 0.000000 0.000000 
#    y 0.000000 1.899930 0.000000 
#    z 0.000000 0.000000 1.876090 
# 
# From -- ./inp_files/24080.got.cif
#   From: 2010.05.17/outbox.cif.g08.bks.cpg/sg54_13_cif.got.tgz:24080.got - 2010.06.03 13:09:01.
