data_PCOD9422981
_publ_section_title
;
Structure prediction by ZEFSAII (Michael W. Deem and Ramdas Pophale) SiO2 
 PCOD9422981
Probable space group: P C C A
;
_chemical_formula_sum "Si O2"
_cell_formula_units_Z 40
_cell_length_a 15.483451
_cell_length_b 5.638808
_cell_length_c 18.965282
_cell_angle_alpha 90.000000
_cell_angle_beta 90.000000
_cell_angle_gamma 90.000000
_cell_volume 1655.824774
_symmetry_space_group_name_H-M "P C C A"
_symmetry_group_IT_number 54
_symmetry_cell_setting 'orthorhombic'
loop_
_space_group_symop_operation_xyz
x,y,z
1/2-x,-y,z
1/2+x,-y,1/2-z
-x,y,1/2-z
-x,-y,-z
1/2+x,y,-z
1/2-x,y,1/2+z
x,-y,1/2+z
loop_
_atom_site_type_symbol
_atom_site_label
_atom_site_fract_x
_atom_site_fract_y
_atom_site_fract_z
Si Si1 0.048640 0.702581 0.043219
Si Si2 0.354349 0.753734 0.277861
Si Si3 0.159073 0.250167 0.831584
Si Si4 0.871760 0.903857 0.022507
Si Si5 0.344038 0.616413 0.122765
O O1 0.088630 0.596855 0.112815
O O2 0.969318 0.878080 0.053987
O O3 0.000000 0.500000 0.000000
O O4 0.126405 0.820520 0.998731
O O5 0.384314 0.504288 0.313716
O O6 0.251017 0.749433 0.292027
O O7 0.366144 0.750104 0.194153
O O8 0.386488 0.004398 0.308289
O O9 0.180892 0.211559 0.914345
O O10 0.853525 0.772357 0.948487
O O11 0.250000 0.500000 0.127387
#
# Coordination Sequence:
#
# PCOD9422981 Si02
#       5
#     8   8   8   8   8
#     4   9  22  43  65  94 134 168 231 284 338 403
#     4  10  23  41  61  97 144 175 212 286 342 411
#     4  10  22  40  65  93 137 176 222 277 346 398
#     4  10  23  41  72  95 127 184 232 287 338 411
#     4  11  23  39  70  99 133 174 226 280 348 408
#
# _framework density 24.157146999999998
#
# number of rings (size 3 to 8) (size 9 to 14) (size 15 to 20)
#    0.000    2.000    2.000    0.000   11.200    2.400 
#    0.000    1.000    0.000    0.000    0.000    0.000 
#    0.000    0.000    0.000    0.000    0.000    0.000 
#
# Total GULP energy -223077.470478 kJ/mol
# GULP energy per Si atom -5576.936762 kJ/mol
# Density = 2.410216 g / cm^3
# Si number density = 24.157147 Si / 1000 Ang^3
#
#
#
# Elastic Constant Matrix: (Units=GPa)
#
#
# Indices 1 2 3 4 5 6 
#
# 1 38.2937 4.4694 6.7117 0.0000 0.0000 0.0000
# 2 4.4694 171.8892 70.3318 0.0000 0.0000 0.0000
# 3 6.7117 70.3318 194.5396 0.0000 0.0000 0.0000
# 4 0.0000 0.0000 0.0000 74.5700 0.0000 0.0000
# 5 0.0000 0.0000 0.0000 0.0000 33.6690 0.0000
# 6 0.0000 0.0000 0.0000 0.0000 0.0000 16.5225
#
#
#
# Elastic Compliance Matrix: (Units=1/GPa)
#
#
# Indices 1 2 3 4 5 6 
#
# 1 0.026292 -0.000367 -0.000775 0.000000 0.000000 0.000000
# 2 -0.000367 0.006833 -0.002458 0.000000 0.000000 0.000000
# 3 -0.000775 -0.002458 0.006056 0.000000 0.000000 0.000000
# 4 0.000000 0.000000 0.000000 0.013410 0.000000 0.000000
# 5 0.000000 0.000000 0.000000 0.000000 0.029701 0.000000
# 6 0.000000 0.000000 0.000000 0.000000 0.000000 0.060523
#
#
# Mechanical properties :
#
#
# Convention : Reuss Voigt Hill
#
# Bulk Modulus (GPa) = 31.26647 63.08314 47.17481
# Shear Modulus (GPa) = 31.11887 46.49962 38.80924
#
# Velocity S-wave (km/s) = 3.59302 4.39211 4.01251
# Velocity P-wave (km/s) = 5.49401 7.20355 6.40606
#
# Compressibility (1/GPa) = 0.03198314
#
# Stress axis : x y z
#
# Youngs Moduli (GPa) = 38.03368 146.35251 165.13742
#
# Poissons Ratio (x) = 0.05367 0.12790
# Poissons Ratio (y) = 0.01395 0.40584
# Poissons Ratio (z) = 0.02946 0.35968
#
# Static dielectric constant tensor:
#      x y z
#    x 2.062880 0.000000 0.000000 
#    y 0.000000 2.131050 0.000000 
#    z 0.000000 0.000000 1.960080 
# 
# From -- ./inp_files/18377.got.cif
#   From: 2010.05.17/outbox.cif.g08.bks.cpg/sg54_10_cif.got.tgz:18377.got - 2010.06.03 13:09:01.
