data_PCOD9422329
_publ_section_title
;
Structure prediction by ZEFSAII (Michael W. Deem and Ramdas Pophale) SiO2 
 PCOD9422329
Probable space group: P C C A
;
_chemical_formula_sum "Si O2"
_cell_formula_units_Z 60
_cell_length_a 5.469361
_cell_length_b 22.627483
_cell_length_c 23.501230
_cell_angle_alpha 90.000000
_cell_angle_beta 90.000000
_cell_angle_gamma 90.000000
_cell_volume 2908.462239
_symmetry_space_group_name_H-M "P C C A"
_symmetry_group_IT_number 54
_symmetry_cell_setting 'orthorhombic'
loop_
_space_group_symop_operation_xyz
x,y,z
1/2-x,-y,z
1/2+x,-y,1/2-z
-x,y,1/2-z
-x,-y,-z
1/2+x,y,-z
1/2-x,y,1/2+z
x,-y,1/2+z
loop_
_atom_site_type_symbol
_atom_site_label
_atom_site_fract_x
_atom_site_fract_y
_atom_site_fract_z
Si Si1 0.029156 0.670036 0.818276
Si Si2 0.500000 0.897488 0.250000
Si Si3 0.084226 0.143462 0.810347
Si Si4 0.993281 0.261264 0.513818
Si Si5 0.506332 0.128656 0.969717
Si Si6 0.966098 0.266776 0.854474
Si Si7 0.719331 0.065707 0.864381
Si Si8 0.000856 0.468468 0.319135
O O1 0.793326 0.701580 0.845968
O O2 0.011927 0.600737 0.833045
O O3 0.000000 0.676268 0.750000
O O4 0.293913 0.695679 0.836557
O O5 0.634887 0.852901 0.205685
O O6 0.389634 0.938292 0.199750
O O7 0.968669 0.206696 0.818835
O O8 0.000000 0.116723 0.750000
O O9 0.978255 0.099845 0.857371
O O10 0.742526 0.294017 0.500909
O O11 0.994022 0.200472 0.476676
O O12 0.999851 0.247175 0.580300
O O13 0.556020 0.104650 0.906927
O O14 0.245173 0.108996 0.994315
O O15 0.750000 0.000000 0.887297
O O16 0.750000 0.500000 0.338578
O O17 0.250000 0.500000 0.338914
O O18 0.000000 0.472319 0.250000
#
# Coordination Sequence:
#
# PCOD9422329 Si02
#       8
#     8   4   8   8   8   8   8   8
#     4  11  23  37  58  97 137 179 220 263 311 379
#     4  10  26  40  68  88 128 164 218 256 332 414
#     4  10  23  40  58  88 118 169 207 251 322 399
#     4  10  21  38  61  85 114 157 204 259 327 382
#     4  10  23  43  67  93 120 154 206 263 330 391
#     4  12  24  37  63  89 130 167 214 270 328 383
#     4  11  26  43  68  92 123 163 212 274 333 406
#     4   9  17  32  55  82 128 182 225 259 303 359
#
# _framework density 20.629459000000001
#
# number of rings (size 3 to 8) (size 9 to 14) (size 15 to 20)
#    0.000    1.600    0.000    4.400   13.067    2.667 
#    0.000    0.000    0.000    0.000    0.000    0.000 
#    0.000   37.333    0.000    0.000    0.000    0.000 
#
# Total GULP energy -334377.953141 kJ/mol
# GULP energy per Si atom -5572.965886 kJ/mol
# Density = 2.058251 g / cm^3
# Si number density = 20.629459 Si / 1000 Ang^3
#
#
#
# Elastic Constant Matrix: (Units=GPa)
#
#
# Indices 1 2 3 4 5 6 
#
# 1 140.9929 38.0023 25.5696 0.0000 0.0000 0.0000
# 2 38.0023 90.9490 6.6002 0.0000 0.0000 0.0000
# 3 25.5696 6.6002 75.1870 0.0000 0.0000 0.0000
# 4 0.0000 0.0000 0.0000 8.8538 0.0000 0.0000
# 5 0.0000 0.0000 0.0000 0.0000 35.5746 0.0000
# 6 0.0000 0.0000 0.0000 0.0000 0.0000 51.4902
#
#
#
# Elastic Compliance Matrix: (Units=1/GPa)
#
#
# Indices 1 2 3 4 5 6 
#
# 1 0.008464 -0.003349 -0.002584 0.000000 0.000000 0.000000
# 2 -0.003349 0.012391 0.000051 0.000000 0.000000 0.000000
# 3 -0.002584 0.000051 0.014175 0.000000 0.000000 0.000000
# 4 0.000000 0.000000 0.000000 0.112946 0.000000 0.000000
# 5 0.000000 0.000000 0.000000 0.000000 0.028110 0.000000
# 6 0.000000 0.000000 0.000000 0.000000 0.000000 0.019421
#
#
# Mechanical properties :
#
#
# Convention : Reuss Voigt Hill
#
# Bulk Modulus (GPa) = 42.98325 49.71923 46.35124
# Shear Modulus (GPa) = 23.25296 34.98083 29.11690
#
# Velocity S-wave (km/s) = 3.36098 4.12232 3.76097
# Velocity P-wave (km/s) = 5.99522 6.84189 6.43250
#
# Compressibility (1/GPa) = 0.02326488
#
# Stress axis : x y z
#
# Youngs Moduli (GPa) = 118.14850 80.70488 70.54885
#
# Poissons Ratio (x) = 0.27028 0.18233
# Poissons Ratio (y) = 0.39568 -0.00361
# Poissons Ratio (z) = 0.30535 -0.00413
#
# Static dielectric constant tensor:
#      x y z
#    x -9.548470 0.000000 0.000000 
#    y 0.000000 1.734250 0.000000 
#    z 0.000000 0.000000 1.788960 
# 
# From -- ./inp_files/23017.got.cif
#   From: 2010.05.17/outbox.cif.g08.bks.cpg/sg54_12_cif.got.tgz:23017.got - 2010.06.03 13:09:01.
