data_PCOD9422322
_publ_section_title
;
Structure prediction by ZEFSAII (Michael W. Deem and Ramdas Pophale) SiO2 
 PCOD9422322
Probable space group: P C C A
;
_chemical_formula_sum "Si O2"
_cell_formula_units_Z 40
_cell_length_a 4.999978
_cell_length_b 30.179831
_cell_length_c 11.374538
_cell_angle_alpha 90.000000
_cell_angle_beta 90.000000
_cell_angle_gamma 90.000000
_cell_volume 1716.400621
_symmetry_space_group_name_H-M "P C C A"
_symmetry_group_IT_number 54
_symmetry_cell_setting 'orthorhombic'
loop_
_space_group_symop_operation_xyz
x,y,z
1/2-x,-y,z
1/2+x,-y,1/2-z
-x,y,1/2-z
-x,-y,-z
1/2+x,y,-z
1/2-x,y,1/2+z
x,-y,1/2+z
loop_
_atom_site_type_symbol
_atom_site_label
_atom_site_fract_x
_atom_site_fract_y
_atom_site_fract_z
Si Si1 0.750000 0.000000 0.911800
Si Si2 0.324716 0.310275 0.426212
Si Si3 0.500000 0.234288 0.250000
Si Si4 0.071668 0.088472 0.079648
Si Si5 0.799194 0.449314 0.419207
Si Si6 0.000000 0.168859 0.250000
Si Si7 0.000000 0.385765 0.750000
O O1 0.693974 0.046446 0.847099
O O2 0.500000 0.000000 0.000000
O O3 0.512552 0.310630 0.541587
O O4 0.435049 0.267608 0.356932
O O5 0.379091 0.353250 0.347989
O O6 0.750708 0.201635 0.246755
O O7 0.077911 0.134572 0.146638
O O8 0.268368 0.086449 0.966976
O O9 0.750000 0.500000 0.379732
O O10 0.594688 0.443206 0.529231
O O11 0.712999 0.416373 0.317028
#
# Coordination Sequence:
#
# PCOD9422322 Si02
#       7
#     4   8   4   8   8   4   4
#     4   8  16  34  56  80 114 156 198 240 296 356
#     4  11  25  45  68  94 125 166 212 265 328 384
#     4  11  26  42  63  92 126 161 208 264 321 392
#     4  10  21  38  60  87 123 162 202 254 305 363
#     4  10  23  41  62  93 132 172 211 254 311 373
#     4  12  24  40  63  97 123 161 216 256 318 390
#     4  11  24  42  70  99 129 168 220 272 313 374
#
# _framework density 23.304580000000001
#
# number of rings (size 3 to 8) (size 9 to 14) (size 15 to 20)
#    0.000    1.600    0.000    3.600    0.000   12.000 
#    0.000    7.000    0.000    0.000    0.000    0.000 
#    0.000    0.000    0.000    0.000    0.000    0.000 
#
# Total GULP energy -223521.531805 kJ/mol
# GULP energy per Si atom -5588.038295 kJ/mol
# Density = 2.325154 g / cm^3
# Si number density = 23.304580 Si / 1000 Ang^3
#
#
#
# Elastic Constant Matrix: (Units=GPa)
#
#
# Indices 1 2 3 4 5 6 
#
# 1 124.0493 44.2192 5.1863 0.0000 0.0000 0.0000
# 2 44.2192 196.1657 49.3165 0.0000 0.0000 0.0000
# 3 5.1863 49.3165 42.1465 0.0000 0.0000 0.0000
# 4 0.0000 0.0000 0.0000 32.6375 0.0000 0.0000
# 5 0.0000 0.0000 0.0000 0.0000 28.2880 0.0000
# 6 0.0000 0.0000 0.0000 0.0000 0.0000 40.4968
#
#
#
# Elastic Compliance Matrix: (Units=1/GPa)
#
#
# Indices 1 2 3 4 5 6 
#
# 1 0.008857 -0.002441 0.001766 0.000000 0.000000 0.000000
# 2 -0.002441 0.007895 -0.008938 0.000000 0.000000 0.000000
# 3 0.001766 -0.008938 0.033967 0.000000 0.000000 0.000000
# 4 0.000000 0.000000 0.000000 0.030640 0.000000 0.000000
# 5 0.000000 0.000000 0.000000 0.000000 0.035351 0.000000
# 6 0.000000 0.000000 0.000000 0.000000 0.000000 0.024693
#
#
# Mechanical properties :
#
#
# Convention : Reuss Voigt Hill
#
# Bulk Modulus (GPa) = 31.75097 62.20064 46.97580
# Shear Modulus (GPa) = 29.21820 37.86044 33.53932
#
# Velocity S-wave (km/s) = 3.54468 4.03500 3.79776
# Velocity P-wave (km/s) = 5.51425 6.96107 6.27947
#
# Compressibility (1/GPa) = 0.03149510
#
# Stress axis : x y z
#
# Youngs Moduli (GPa) = 112.89925 126.66583 29.43995
#
# Poissons Ratio (x) = 0.30913 -0.05198
# Poissons Ratio (y) = 0.27554 0.26312
# Poissons Ratio (z) = -0.19936 1.13208
#
# Static dielectric constant tensor:
#      x y z
#    x 1.808410 0.000000 0.000000 
#    y 0.000000 2.410220 0.000000 
#    z 0.000000 0.000000 1.927440 
# 
# From -- ./inp_files/6509.got.cif
#   From: 2010.05.17/outbox.cif.g08.bks.cpg/sg54_4_cif.got.tgz:6509.got - 2010.06.03 13:09:01.
