data_PCOD9422397
_publ_section_title
;
Structure prediction by ZEFSAII (Michael W. Deem and Ramdas Pophale) SiO2 
 PCOD9422397
Probable space group: P C C A
;
_chemical_formula_sum "Si O2"
_cell_formula_units_Z 64
_cell_length_a 23.429597
_cell_length_b 8.022355
_cell_length_c 13.196335
_cell_angle_alpha 90.000000
_cell_angle_beta 90.000000
_cell_angle_gamma 90.000000
_cell_volume 2480.390314
_symmetry_space_group_name_H-M "P C C A"
_symmetry_group_IT_number 54
_symmetry_cell_setting 'orthorhombic'
loop_
_space_group_symop_operation_xyz
x,y,z
1/2-x,-y,z
1/2+x,-y,1/2-z
-x,y,1/2-z
-x,-y,-z
1/2+x,y,-z
1/2-x,y,1/2+z
x,-y,1/2+z
loop_
_atom_site_type_symbol
_atom_site_label
_atom_site_fract_x
_atom_site_fract_y
_atom_site_fract_z
Si Si1 0.967360 0.731001 0.519364
Si Si2 0.606254 0.390700 0.332936
Si Si3 0.770053 0.691686 0.352266
Si Si4 0.147239 0.771493 0.653035
Si Si5 0.659982 0.260357 0.082140
Si Si6 0.106597 0.928656 0.838393
Si Si7 0.447287 0.598218 0.873703
Si Si8 0.278323 0.817448 0.423073
O O1 0.918831 0.684969 0.436092
O O2 0.947024 0.878704 0.592511
O O3 0.976208 0.575526 0.596352
O O4 0.022911 0.733173 0.447271
O O5 0.667670 0.313934 0.303301
O O6 0.620451 0.587059 0.340528
O O7 0.559809 0.367895 0.244715
O O8 0.750000 0.500000 0.370424
O O9 0.713310 0.776712 0.306993
O O10 0.782790 0.781557 0.458096
O O11 0.156003 0.803625 0.534214
O O12 0.106501 0.890121 0.718649
O O13 0.725229 0.298626 0.109326
O O14 0.618851 0.417031 0.092026
O O15 0.628938 0.112622 0.141985
O O16 0.158981 0.812118 0.877660
O O17 0.250000 0.000000 0.406403
#
# Coordination Sequence:
#
# PCOD9422397 Si02
#       8
#     8   8   8   8   8   8   8   8
#     4  11  23  41  64  89 122 160 216 259 300 370
#     4  11  20  39  64  92 123 162 207 264 307 358
#     4   9  19  34  58  89 121 159 203 250 302 364
#     4  10  21  39  60  94 131 160 201 254 314 379
#     4  10  23  42  61  91 131 161 205 255 307 372
#     4  11  22  40  64  92 124 169 205 245 317 373
#     4  11  24  40  63  90 120 166 209 260 308 361
#     4   9  19  37  58  88 124 164 193 248 307 365
#
# _framework density 25.802391
#
# number of rings (size 3 to 8) (size 9 to 14) (size 15 to 20)
#    0.000    1.750    3.750    0.375    1.750    1.500 
#    2.250    3.750    0.000    0.000    0.000    0.000 
#    0.000    0.000    0.000    0.000    0.000    0.000 
#
# Total GULP energy -357715.211546 kJ/mol
# GULP energy per Si atom -5589.300180 kJ/mol
# Density = 2.574366 g / cm^3
# Si number density = 25.802391 Si / 1000 Ang^3
#
#
#
# Elastic Constant Matrix: (Units=GPa)
#
#
# Indices 1 2 3 4 5 6 
#
# 1 96.3064 0.6298 -15.7973 0.0000 0.0000 0.0000
# 2 0.6298 48.5405 6.1528 0.0000 0.0000 0.0000
# 3 -15.7973 6.1528 78.9602 0.0000 0.0000 0.0000
# 4 0.0000 0.0000 0.0000 26.4890 0.0000 0.0000
# 5 0.0000 0.0000 0.0000 0.0000 33.8804 0.0000
# 6 0.0000 0.0000 0.0000 0.0000 0.0000 29.2431
#
#
#
# Elastic Compliance Matrix: (Units=1/GPa)
#
#
# Indices 1 2 3 4 5 6 
#
# 1 0.010744 -0.000416 0.002182 0.000000 0.000000 0.000000
# 2 -0.000416 0.020823 -0.001706 0.000000 0.000000 0.000000
# 3 0.002182 -0.001706 0.013234 0.000000 0.000000 0.000000
# 4 0.000000 0.000000 0.000000 0.037751 0.000000 0.000000
# 5 0.000000 0.000000 0.000000 0.000000 0.029516 0.000000
# 6 0.000000 0.000000 0.000000 0.000000 0.000000 0.034196
#
#
# Mechanical properties :
#
#
# Convention : Reuss Voigt Hill
#
# Bulk Modulus (GPa) = 22.26104 22.86419 22.56261
# Shear Modulus (GPa) = 31.03319 33.44396 32.23857
#
# Velocity S-wave (km/s) = 3.47180 3.60412 3.53858
# Velocity P-wave (km/s) = 4.97166 5.11861 5.04567
#
# Compressibility (1/GPa) = 0.04492154
#
# Stress axis : x y z
#
# Youngs Moduli (GPa) = 93.07385 48.02393 75.56252
#
# Poissons Ratio (x) = 0.01998 -0.16487
# Poissons Ratio (y) = 0.03872 0.12890
# Poissons Ratio (z) = -0.20308 0.08192
#
# Static dielectric constant tensor:
#      x y z
#    x 2.093120 0.000000 0.000000 
#    y 0.000000 2.034600 0.000000 
#    z 0.000000 0.000000 2.096490 
# 
# From -- ./inp_files/15008.got.cif
#   From: 2010.05.17/outbox.cif.g08.bks.cpg/sg54_8_cif.got.tgz:15008.got - 2010.06.03 13:09:01.
