data_PCOD9422361
_publ_section_title
;
Structure prediction by ZEFSAII (Michael W. Deem and Ramdas Pophale) SiO2 
 PCOD9422361
Probable space group: P C C A
;
_chemical_formula_sum "Si O2"
_cell_formula_units_Z 56
_cell_length_a 21.976442
_cell_length_b 7.798675
_cell_length_c 15.137411
_cell_angle_alpha 90.000000
_cell_angle_beta 90.000000
_cell_angle_gamma 90.000000
_cell_volume 2594.357409
_symmetry_space_group_name_H-M "P C C A"
_symmetry_group_IT_number 54
_symmetry_cell_setting 'orthorhombic'
loop_
_space_group_symop_operation_xyz
x,y,z
1/2-x,-y,z
1/2+x,-y,1/2-z
-x,y,1/2-z
-x,-y,-z
1/2+x,y,-z
1/2-x,y,1/2+z
x,-y,1/2+z
loop_
_atom_site_type_symbol
_atom_site_label
_atom_site_fract_x
_atom_site_fract_y
_atom_site_fract_z
Si Si1 0.086200 0.034806 0.406281
Si Si2 0.629871 0.391104 0.415763
Si Si3 0.684222 0.933542 0.948779
Si Si4 0.818016 0.960434 0.744682
Si Si5 0.005821 0.246876 0.645387
Si Si6 0.918735 0.549039 0.593819
Si Si7 0.181151 0.445000 0.260573
O O1 0.129563 0.999810 0.490302
O O2 0.128280 0.986678 0.321350
O O3 0.071510 0.241726 0.403838
O O4 0.028270 0.910676 0.402162
O O5 0.681233 0.271534 0.459011
O O6 0.575220 0.267966 0.383491
O O7 0.601641 0.499861 0.494939
O O8 0.656988 0.480583 0.331210
O O9 0.822769 0.030390 0.844268
O O10 0.750000 0.000000 0.976600
O O11 0.821421 0.757363 0.749061
O O12 0.750000 0.000000 0.710664
O O13 0.974540 0.429303 0.621425
O O14 0.000000 0.220597 0.750000
O O15 0.864561 0.506253 0.661303
O O16 0.250000 0.500000 0.277617
#
# Coordination Sequence:
#
# PCOD9422361 Si02
#       7
#     8   8   8   8   8   8   8
#     4  10  24  42  66 100 128 175 220 272 336 391
#     4  11  24  45  65  99 131 175 227 266 340 397
#     4  10  21  41  66  96 134 168 218 273 328 402
#     4  10  21  38  63  96 132 171 215 268 330 399
#     4  12  24  44  71  93 136 178 222 280 328 401
#     4  10  25  45  65 100 134 174 225 276 332 397
#     4  11  23  41  66  96 135 173 216 278 330 396
#
# _framework density 21.585305999999999
#
# number of rings (size 3 to 8) (size 9 to 14) (size 15 to 20)
#    0.000    1.429    1.429    3.429    4.000    3.429 
#    2.571    0.000    0.000    0.000    0.000    0.000 
#    0.000    0.000    0.000    0.000    0.000    0.000 
#
# Total GULP energy -313034.145739 kJ/mol
# GULP energy per Si atom -5589.895460 kJ/mol
# Density = 2.153618 g / cm^3
# Si number density = 21.585306 Si / 1000 Ang^3
#
#
#
# Elastic Constant Matrix: (Units=GPa)
#
#
# Indices 1 2 3 4 5 6 
#
# 1 89.3129 39.5181 0.8340 0.0000 0.0000 0.0000
# 2 39.5181 49.1775 1.2646 0.0000 0.0000 0.0000
# 3 0.8340 1.2646 65.4410 0.0000 0.0000 0.0000
# 4 0.0000 0.0000 0.0000 29.8745 0.0000 0.0000
# 5 0.0000 0.0000 0.0000 0.0000 50.4798 0.0000
# 6 0.0000 0.0000 0.0000 0.0000 0.0000 37.5587
#
#
#
# Elastic Compliance Matrix: (Units=1/GPa)
#
#
# Indices 1 2 3 4 5 6 
#
# 1 0.017374 -0.013963 0.000048 0.000000 0.000000 0.000000
# 2 -0.013963 0.031566 -0.000432 0.000000 0.000000 0.000000
# 3 0.000048 -0.000432 0.015289 0.000000 0.000000 0.000000
# 4 0.000000 0.000000 0.000000 0.033473 0.000000 0.000000
# 5 0.000000 0.000000 0.000000 0.000000 0.019810 0.000000
# 6 0.000000 0.000000 0.000000 0.000000 0.000000 0.026625
#
#
# Mechanical properties :
#
#
# Convention : Reuss Voigt Hill
#
# Bulk Modulus (GPa) = 28.14062 31.90720 30.02391
# Shear Modulus (GPa) = 27.07454 34.40358 30.73906
#
# Velocity S-wave (km/s) = 3.54546 3.99663 3.77778
# Velocity P-wave (km/s) = 5.46128 6.00927 5.74182
#
# Compressibility (1/GPa) = 0.03553582
#
# Stress axis : x y z
#
# Youngs Moduli (GPa) = 57.55638 31.67976 65.40795
#
# Poissons Ratio (x) = 0.44234 -0.00317
# Poissons Ratio (y) = 0.80365 0.02826
# Poissons Ratio (z) = -0.00279 0.01369
#
# Static dielectric constant tensor:
#      x y z
#    x 1.729570 0.000000 0.000000 
#    y 0.000000 1.783460 0.000000 
#    z 0.000000 0.000000 1.824900 
# 
# From -- ./inp_files/14688.got.cif
#   From: 2010.05.17/outbox.cif.g08.bks.cpg/sg54_8_cif.got.tgz:14688.got - 2010.06.03 13:09:01.
