data_PCOD9422778
_publ_section_title
;
Structure prediction by ZEFSAII (Michael W. Deem and Ramdas Pophale) SiO2 
 PCOD9422778
Probable space group: P C C A
;
_chemical_formula_sum "Si O2"
_cell_formula_units_Z 28
_cell_length_a 5.208202
_cell_length_b 20.594690
_cell_length_c 9.193914
_cell_angle_alpha 90.000000
_cell_angle_beta 90.000000
_cell_angle_gamma 90.000000
_cell_volume 986.151220
_symmetry_space_group_name_H-M "P C C A"
_symmetry_group_IT_number 54
_symmetry_cell_setting 'orthorhombic'
loop_
_space_group_symop_operation_xyz
x,y,z
1/2-x,-y,z
1/2+x,-y,1/2-z
-x,y,1/2-z
-x,-y,-z
1/2+x,y,-z
1/2-x,y,1/2+z
x,-y,1/2+z
loop_
_atom_site_type_symbol
_atom_site_label
_atom_site_fract_x
_atom_site_fract_y
_atom_site_fract_z
Si Si1 0.744265 0.294755 0.654217
Si Si2 0.202123 0.070236 0.594470
Si Si3 0.500000 0.822241 0.250000
Si Si4 0.250274 0.431064 0.852679
O O1 0.500000 0.314203 0.750000
O O2 0.628926 0.223166 0.621694
O O3 0.729088 0.361374 0.063387
O O4 0.000000 0.285018 0.750000
O O5 0.416635 0.071737 0.467172
O O6 0.281194 0.131760 0.688508
O O7 0.250000 0.000000 0.666917
O O8 0.250000 0.500000 0.936121
O O9 0.500000 0.436713 0.750000
O O10 0.000000 0.427912 0.750000
#
# Coordination Sequence:
#
# PCOD9422778 Si02
#       4
#     8   8   4   8
#     4   8  16  26  43  74 100 135 179 214 264 327
#     4  10  24  41  58  85 112 142 187 225 272 342
#     4  10  22  36  64  78 116 146 178 234 288 310
#     4   8  12  20  34  57  97 134 160 215 259 296
#
# _framework density 28.393211000000001
#
# number of rings (size 3 to 8) (size 9 to 14) (size 15 to 20)
#    0.857    2.286    0.000    0.000    4.000    3.429 
#    0.000    0.000    0.000    0.000    0.000    0.000 
#    0.000    6.857    0.000    0.000    0.000    0.000 
#
# Total GULP energy -156021.234390 kJ/mol
# GULP energy per Si atom -5572.186942 kJ/mol
# Density = 2.832859 g / cm^3
# Si number density = 28.393211 Si / 1000 Ang^3
#
#
#
# Elastic Constant Matrix: (Units=GPa)
#
#
# Indices 1 2 3 4 5 6 
#
# 1 223.0409 -0.5044 58.0168 0.0000 0.0000 0.0000
# 2 -0.5044 273.1349 38.8607 0.0000 0.0000 0.0000
# 3 58.0168 38.8607 55.1905 0.0000 0.0000 0.0000
# 4 0.0000 0.0000 0.0000 -119.1258 0.0000 0.0000
# 5 0.0000 0.0000 0.0000 0.0000 93.8327 0.0000
# 6 0.0000 0.0000 0.0000 0.0000 0.0000 118.0978
#
#
#
# Elastic Compliance Matrix: (Units=1/GPa)
#
#
# Indices 1 2 3 4 5 6 
#
# 1 0.006448 0.001085 -0.007542 0.000000 0.000000 0.000000
# 2 0.001085 0.004251 -0.004134 0.000000 0.000000 0.000000
# 3 -0.007542 -0.004134 0.028958 0.000000 0.000000 0.000000
# 4 0.000000 0.000000 0.000000 -0.008394 0.000000 0.000000
# 5 0.000000 0.000000 0.000000 0.000000 0.010657 0.000000
# 6 0.000000 0.000000 0.000000 0.000000 0.000000 0.008468
#
#
# Mechanical properties :
#
#
# Convention : Reuss Voigt Hill
#
# Bulk Modulus (GPa) = 54.12640 82.67915 68.40277
# Shear Modulus (GPa) = 64.32756 48.89385 56.61070
#
# Velocity S-wave (km/s) = 4.76499 4.15423 4.47006
# Velocity P-wave (km/s) = 7.02695 7.22445 7.12639
#
# Compressibility (1/GPa) = 0.01847527
#
# Stress axis : x y z
#
# Youngs Moduli (GPa) = 155.09454 235.21883 34.53300
#
# Poissons Ratio (x) = -0.25519 0.26044
# Poissons Ratio (y) = -0.16827 0.14276
# Poissons Ratio (z) = 1.16969 0.97238
#
# Static dielectric constant tensor:
#      x y z
#    x 2.117860 0.000000 0.000000 
#    y 0.000000 2.458640 0.000000 
#    z 0.000000 0.000000 3.987600 
# 
# From -- ./inp_files/6229.got.cif
#   From: 2010.05.17/outbox.cif.g08.bks.cpg/sg54_4_cif.got.tgz:6229.got - 2010.06.03 13:09:01.
