data_PCOD9422902
_publ_section_title
;
Structure prediction by ZEFSAII (Michael W. Deem and Ramdas Pophale) SiO2 
 PCOD9422902
Probable space group: P C C A
;
_chemical_formula_sum "Si O2"
_cell_formula_units_Z 60
_cell_length_a 15.438111
_cell_length_b 15.930015
_cell_length_c 12.368149
_cell_angle_alpha 90.000000
_cell_angle_beta 90.000000
_cell_angle_gamma 90.000000
_cell_volume 3041.690718
_symmetry_space_group_name_H-M "P C C A"
_symmetry_group_IT_number 54
_symmetry_cell_setting 'orthorhombic'
loop_
_space_group_symop_operation_xyz
x,y,z
1/2-x,-y,z
1/2+x,-y,1/2-z
-x,y,1/2-z
-x,-y,-z
1/2+x,y,-z
1/2-x,y,1/2+z
x,-y,1/2+z
loop_
_atom_site_type_symbol
_atom_site_label
_atom_site_fract_x
_atom_site_fract_y
_atom_site_fract_z
Si Si1 0.898388 0.400069 0.780036
Si Si2 0.405064 0.065211 0.274894
Si Si3 0.250000 0.000000 0.631966
Si Si4 0.102895 0.413697 0.269630
Si Si5 0.685146 0.771869 0.731049
Si Si6 0.302789 0.589511 0.493396
Si Si7 0.327402 0.867221 0.973862
Si Si8 0.822445 0.717221 0.900389
O O1 0.865031 0.490696 0.743013
O O2 0.851491 0.321927 0.723068
O O3 0.870713 0.402082 0.906279
O O4 0.000000 0.394100 0.750000
O O5 0.500000 0.034276 0.250000
O O6 0.391492 0.162926 0.239023
O O7 0.387100 0.070669 0.403361
O O8 0.331640 0.015805 0.209965
O O9 0.229897 0.922313 0.553093
O O10 0.142429 0.391187 0.385790
O O11 0.132887 0.348885 0.178587
O O12 0.000000 0.417677 0.250000
O O13 0.721358 0.816507 0.622864
O O14 0.755616 0.766442 0.823742
O O15 0.250000 0.500000 0.492538
O O16 0.231152 0.660184 0.516434
O O17 0.373644 0.790935 0.038032
#
# Coordination Sequence:
#
# PCOD9422902 Si02
#       8
#     8   8   4   8   8   8   8   8
#     4  10  22  40  64  90 130 170 220 275 323 381
#     4  10  23  43  67 101 131 168 220 270 329 411
#     4  12  22  44  70  98 136 166 218 270 348 406
#     4  11  26  41  58  95 136 166 220 282 328 382
#     4   9  21  37  65  95 124 170 215 263 318 394
#     4  11  24  38  65  88 121 176 220 271 329 388
#     4  10  22  39  66  94 128 171 210 272 329 400
#     4  11  21  43  62  94 125 173 222 262 328 394
#
# _framework density 19.725873
#
# number of rings (size 3 to 8) (size 9 to 14) (size 15 to 20)
#    0.800    0.800    2.667    1.600    5.600    3.733 
#    2.400    0.667    0.000    0.000    0.000    0.000 
#    0.000    0.000    0.000    0.000    0.000    0.000 
#
# Total GULP energy -334006.066528 kJ/mol
# GULP energy per Si atom -5566.767775 kJ/mol
# Density = 1.968098 g / cm^3
# Si number density = 19.725873 Si / 1000 Ang^3
#
#
#
# Elastic Constant Matrix: (Units=GPa)
#
#
# Indices 1 2 3 4 5 6 
#
# 1 94.0276 28.6669 55.0781 0.0000 0.0000 0.0000
# 2 28.6669 99.7746 54.7161 0.0000 0.0000 0.0000
# 3 55.0781 54.7161 116.5252 0.0000 0.0000 0.0000
# 4 0.0000 0.0000 0.0000 19.2567 0.0000 0.0000
# 5 0.0000 0.0000 0.0000 0.0000 18.3073 0.0000
# 6 0.0000 0.0000 0.0000 0.0000 0.0000 49.4455
#
#
#
# Elastic Compliance Matrix: (Units=1/GPa)
#
#
# Indices 1 2 3 4 5 6 
#
# 1 0.014730 -0.000558 -0.006701 0.000000 0.000000 0.000000
# 2 -0.000558 0.013520 -0.006085 0.000000 0.000000 0.000000
# 3 -0.006701 -0.006085 0.014606 0.000000 0.000000 0.000000
# 4 0.000000 0.000000 0.000000 0.051930 0.000000 0.000000
# 5 0.000000 0.000000 0.000000 0.000000 0.054623 0.000000
# 6 0.000000 0.000000 0.000000 0.000000 0.000000 0.020224
#
#
# Mechanical properties :
#
#
# Convention : Reuss Voigt Hill
#
# Bulk Modulus (GPa) = 61.84310 65.24995 63.54653
# Shear Modulus (GPa) = 24.78812 28.85966 26.82389
#
# Velocity S-wave (km/s) = 3.54874 3.82912 3.69159
# Velocity P-wave (km/s) = 6.94340 7.25945 7.10318
#
# Compressibility (1/GPa) = 0.01616995
#
# Stress axis : x y z
#
# Youngs Moduli (GPa) = 67.88770 73.96625 68.46376
#
# Poissons Ratio (x) = 0.04124 0.45876
# Poissons Ratio (y) = 0.03785 0.41659
# Poissons Ratio (z) = 0.45490 0.45007
#
# Static dielectric constant tensor:
#      x y z
#    x 1.676300 0.000000 0.000000 
#    y 0.000000 1.736340 0.000000 
#    z 0.000000 0.000000 1.731440 
# 
# From -- ./inp_files/8534.got.cif
#   From: 2010.05.17/outbox.cif.g08.bks.cpg/sg54_5_cif.got.tgz:8534.got - 2010.06.03 13:09:01.
