data_PCOD9422830
_publ_section_title
;
Structure prediction by ZEFSAII (Michael W. Deem and Ramdas Pophale) SiO2 
 PCOD9422830
Probable space group: P C C A
;
_chemical_formula_sum "Si O2"
_cell_formula_units_Z 52
_cell_length_a 22.624834
_cell_length_b 5.111048
_cell_length_c 18.836602
_cell_angle_alpha 90.000000
_cell_angle_beta 90.000000
_cell_angle_gamma 90.000000
_cell_volume 2178.200848
_symmetry_space_group_name_H-M "P C C A"
_symmetry_group_IT_number 54
_symmetry_cell_setting 'orthorhombic'
loop_
_space_group_symop_operation_xyz
x,y,z
1/2-x,-y,z
1/2+x,-y,1/2-z
-x,y,1/2-z
-x,-y,-z
1/2+x,y,-z
1/2-x,y,1/2+z
x,-y,1/2+z
loop_
_atom_site_type_symbol
_atom_site_label
_atom_site_fract_x
_atom_site_fract_y
_atom_site_fract_z
Si Si1 0.369579 0.815968 0.393694
Si Si2 0.459669 0.751538 0.515766
Si Si3 0.750000 0.000000 0.143687
Si Si4 0.115783 0.036690 0.124972
Si Si5 0.677188 0.431759 0.224906
Si Si6 0.933143 0.063071 0.734889
Si Si7 0.314158 0.520095 0.617594
O O1 0.402862 0.736415 0.464130
O O2 0.308891 0.975883 0.404508
O O3 0.341858 0.597394 0.343040
O O4 0.419053 0.949250 0.342855
O O5 0.500000 0.500000 0.500000
O O6 0.433459 0.843107 0.590967
O O7 0.500000 0.000000 0.500000
O O8 0.727277 0.229366 0.197269
O O9 0.169299 0.826937 0.123403
O O10 0.087050 0.121336 0.200053
O O11 0.138375 0.306186 0.088524
O O12 0.691705 0.567982 0.299527
O O13 0.615881 0.284549 0.241976
O O14 0.000000 0.140289 0.750000
O O15 0.250000 0.500000 0.582372
#
# Coordination Sequence:
#
# PCOD9422830 Si02
#       7
#     8   8   4   8   8   8   8
#     4  11  23  43  69 101 138 189 246 296 375 433
#     4  12  29  50  75  98 147 197 244 299 373 448
#     4  10  22  40  68 102 142 184 248 310 358 450
#     4  11  24  44  64 105 134 185 239 290 357 433
#     4  10  22  38  67 105 138 185 239 303 368 433
#     4  10  22  38  65  98 138 178 235 300 354 426
#     4  11  22  41  68 100 144 181 227 292 366 427
#
# _framework density 23.872914999999999
#
# number of rings (size 3 to 8) (size 9 to 14) (size 15 to 20)
#    0.000    1.231    1.538    3.692   10.769    0.615 
#    2.769    0.000    0.000    0.000    0.000    0.000 
#    0.000    0.000    0.000    0.000    0.000    0.000 
#
# Total GULP energy -289667.446152 kJ/mol
# GULP energy per Si atom -5570.527811 kJ/mol
# Density = 2.381858 g / cm^3
# Si number density = 23.872915 Si / 1000 Ang^3
#
#
#
# Elastic Constant Matrix: (Units=GPa)
#
#
# Indices 1 2 3 4 5 6 
#
# 1 128.5720 1.8641 15.2099 0.0000 0.0000 0.0000
# 2 1.8641 73.6009 -3.9705 0.0000 0.0000 0.0000
# 3 15.2099 -3.9705 48.9665 0.0000 0.0000 0.0000
# 4 0.0000 0.0000 0.0000 20.5460 0.0000 0.0000
# 5 0.0000 0.0000 0.0000 0.0000 34.1106 0.0000
# 6 0.0000 0.0000 0.0000 0.0000 0.0000 31.1033
#
#
#
# Elastic Compliance Matrix: (Units=1/GPa)
#
#
# Indices 1 2 3 4 5 6 
#
# 1 0.008083 -0.000342 -0.002538 0.000000 0.000000 0.000000
# 2 -0.000342 0.013661 0.001214 0.000000 0.000000 0.000000
# 3 -0.002538 0.001214 0.021309 0.000000 0.000000 0.000000
# 4 0.000000 0.000000 0.000000 0.048671 0.000000 0.000000
# 5 0.000000 0.000000 0.000000 0.000000 0.029316 0.000000
# 6 0.000000 0.000000 0.000000 0.000000 0.000000 0.032151
#
#
# Mechanical properties :
#
#
# Convention : Reuss Voigt Hill
#
# Bulk Modulus (GPa) = 25.17595 30.81627 27.99611
# Shear Modulus (GPa) = 29.45263 33.02105 31.23684
#
# Velocity S-wave (km/s) = 3.51625 3.72318 3.62119
# Velocity P-wave (km/s) = 5.20136 5.60528 5.40709
#
# Compressibility (1/GPa) = 0.03972045
#
# Stress axis : x y z
#
# Youngs Moduli (GPa) = 123.71652 73.20144 46.92845
#
# Poissons Ratio (x) = 0.02501 0.11912
# Poissons Ratio (y) = 0.04227 -0.05696
# Poissons Ratio (z) = 0.31405 -0.08886
#
# Static dielectric constant tensor:
#      x y z
#    x 2.477940 0.000000 0.000000 
#    y 0.000000 2.073800 0.000000 
#    z 0.000000 0.000000 2.000790 
# 
# From -- ./inp_files/22169.got.cif
#   From: 2010.05.17/outbox.cif.g08.bks.cpg/sg54_12_cif.got.tgz:22169.got - 2010.06.03 13:09:01.
