data_PCOD9422470
_publ_section_title
;
Structure prediction by ZEFSAII (Michael W. Deem and Ramdas Pophale) SiO2 
 PCOD9422470
Probable space group: P C C A
;
_chemical_formula_sum "Si O2"
_cell_formula_units_Z 56
_cell_length_a 31.337559
_cell_length_b 5.330563
_cell_length_c 14.622363
_cell_angle_alpha 90.000000
_cell_angle_beta 90.000000
_cell_angle_gamma 90.000000
_cell_volume 2442.619423
_symmetry_space_group_name_H-M "P C C A"
_symmetry_group_IT_number 54
_symmetry_cell_setting 'orthorhombic'
loop_
_space_group_symop_operation_xyz
x,y,z
1/2-x,-y,z
1/2+x,-y,1/2-z
-x,y,1/2-z
-x,-y,-z
1/2+x,y,-z
1/2-x,y,1/2+z
x,-y,1/2+z
loop_
_atom_site_type_symbol
_atom_site_label
_atom_site_fract_x
_atom_site_fract_y
_atom_site_fract_z
Si Si1 0.298818 0.452517 0.790388
Si Si2 0.582868 0.011972 0.839291
Si Si3 0.929370 0.619063 0.502942
Si Si4 0.993978 0.204077 0.419099
Si Si5 0.864484 0.757487 0.992687
Si Si6 0.724771 0.736810 0.412393
Si Si7 0.646033 0.961113 0.673128
O O1 0.250000 0.500000 0.823591
O O2 0.292673 0.376897 0.683248
O O3 0.325436 0.709614 0.806523
O O4 0.323794 0.206408 0.825701
O O5 0.608525 0.958178 0.748214
O O6 0.534064 0.106233 0.834650
O O7 0.578794 0.793973 0.915344
O O8 0.613550 0.200942 0.895200
O O9 0.962102 0.408852 0.462865
O O10 0.884287 0.500259 0.527562
O O11 0.957372 0.707931 0.589962
O O12 0.000000 0.000000 0.500000
O O13 0.814811 0.783959 0.977807
O O14 0.875773 0.944888 0.073803
O O15 0.750000 0.500000 0.452366
O O16 0.750000 0.000000 0.398363
#
# Coordination Sequence:
#
# PCOD9422470 Si02
#       7
#     8   8   8   8   8   8   8
#     4  11  24  45  67  91 132 174 228 275 331 396
#     4  10  21  39  66  94 134 171 225 271 339 396
#     4   9  18  36  66  92 127 170 216 269 330 392
#     4   8  16  34  63  96 122 168 217 267 327 395
#     4  11  25  39  65  97 135 172 223 275 331 402
#     4  11  24  42  68  94 129 178 224 271 335 391
#     4  12  26  41  67 100 133 177 222 276 340 396
#
# _framework density 22.926207999999999
#
# number of rings (size 3 to 8) (size 9 to 14) (size 15 to 20)
#    0.000    1.714    1.429    3.000    6.000    1.714 
#    0.000    0.000    0.000   39.429    0.000    0.000 
#    0.000    0.000    0.000    0.000    0.000    0.000 
#
# Total GULP energy -312081.287280 kJ/mol
# GULP energy per Si atom -5572.880130 kJ/mol
# Density = 2.287403 g / cm^3
# Si number density = 22.926208 Si / 1000 Ang^3
#
#
#
# Elastic Constant Matrix: (Units=GPa)
#
#
# Indices 1 2 3 4 5 6 
#
# 1 52.1614 20.0024 19.7153 0.0000 0.0000 0.0000
# 2 20.0024 105.6198 -2.9284 0.0000 0.0000 0.0000
# 3 19.7153 -2.9284 79.0006 0.0000 0.0000 0.0000
# 4 0.0000 0.0000 0.0000 -3.9600 0.0000 0.0000
# 5 0.0000 0.0000 0.0000 0.0000 -10.9357 0.0000
# 6 0.0000 0.0000 0.0000 0.0000 0.0000 47.5566
#
#
#
# Elastic Compliance Matrix: (Units=1/GPa)
#
#
# Indices 1 2 3 4 5 6 
#
# 1 0.023166 -0.004552 -0.005950 0.000000 0.000000 0.000000
# 2 -0.004552 0.010372 0.001521 0.000000 0.000000 0.000000
# 3 -0.005950 0.001521 0.014199 0.000000 0.000000 0.000000
# 4 0.000000 0.000000 0.000000 -0.252522 0.000000 0.000000
# 5 0.000000 0.000000 0.000000 0.000000 -0.091444 0.000000
# 6 0.000000 0.000000 0.000000 0.000000 0.000000 0.021028
#
#
# Mechanical properties :
#
#
# Convention : Reuss Voigt Hill
#
# Bulk Modulus (GPa) = 33.58623 34.48450 34.03537
# Shear Modulus (GPa) = -20.21729 19.86499 -0.17615
#
# Velocity S-wave (km/s) = -2.97280 2.94679 -0.27749
# Velocity P-wave (km/s) = 1.70238 5.16258 3.84385
#
# Compressibility (1/GPa) = 0.02977410
#
# Stress axis : x y z
#
# Youngs Moduli (GPa) = 43.16712 96.41184 70.42569
#
# Poissons Ratio (x) = 0.43888 0.41903
# Poissons Ratio (y) = 0.19650 -0.10708
# Poissons Ratio (z) = 0.25684 -0.14659
#
# Static dielectric constant tensor:
#      x y z
#    x 1.822710 0.000000 0.000000 
#    y 0.000000 1.999350 0.000000 
#    z 0.000000 0.000000 1.846290 
# 
# From -- ./inp_files/15353.got.cif
#   From: 2010.05.17/outbox.cif.g08.bks.cpg/sg54_8_cif.got.tgz:15353.got - 2010.06.03 13:09:01.
