data_PCOD9422716
_publ_section_title
;
Structure prediction by ZEFSAII (Michael W. Deem and Ramdas Pophale) SiO2 
 PCOD9422716
Probable space group: P C C A
;
_chemical_formula_sum "Si O2"
_cell_formula_units_Z 64
_cell_length_a 15.848700
_cell_length_b 17.674838
_cell_length_c 10.980121
_cell_angle_alpha 90.000000
_cell_angle_beta 90.000000
_cell_angle_gamma 90.000000
_cell_volume 3075.786686
_symmetry_space_group_name_H-M "P C C A"
_symmetry_group_IT_number 54
_symmetry_cell_setting 'orthorhombic'
loop_
_space_group_symop_operation_xyz
x,y,z
1/2-x,-y,z
1/2+x,-y,1/2-z
-x,y,1/2-z
-x,-y,-z
1/2+x,y,-z
1/2-x,y,1/2+z
x,-y,1/2+z
loop_
_atom_site_type_symbol
_atom_site_label
_atom_site_fract_x
_atom_site_fract_y
_atom_site_fract_z
Si Si1 0.358453 0.432083 0.749258
Si Si2 0.910825 0.666256 0.974424
Si Si3 0.658433 0.752359 0.860630
Si Si4 0.596750 0.694198 0.084947
Si Si5 0.456652 0.899866 0.616510
Si Si6 0.341090 0.604330 0.777061
Si Si7 0.439189 0.930117 0.130590
Si Si8 0.159264 0.211974 0.190730
O O1 0.403899 0.392109 0.637324
O O2 0.390774 0.390982 0.870102
O O3 0.374521 0.520924 0.746938
O O4 0.259091 0.407610 0.749042
O O5 0.861695 0.740291 0.929837
O O6 0.007356 0.694241 0.983521
O O7 0.866287 0.625411 0.086189
O O8 0.601780 0.826209 0.879986
O O9 0.624444 0.676973 0.794937
O O10 0.742130 0.775574 0.788428
O O11 0.670917 0.720892 0.996776
O O12 0.603563 0.749713 0.201783
O O13 0.500000 0.898792 0.750000
O O14 0.515460 0.900921 0.494446
O O15 0.413342 0.982765 0.609495
O O16 0.500000 0.928408 0.250000
O O17 0.364775 0.873758 0.166316
#
# Coordination Sequence:
#
# PCOD9422716 Si02
#       8
#     8   8   8   8   8   8   8   8
#     4  10  23  43  64  88 123 176 222 262 322 401
#     4  11  23  42  63  91 126 167 219 275 322 388
#     4  12  25  39  63  99 130 162 214 276 326 382
#     4  11  24  43  64  92 126 168 224 264 323 396
#     4  10  24  41  64  98 137 166 212 268 330 391
#     4  11  25  39  65  92 129 170 212 272 344 375
#     4  10  21  44  69  93 127 180 215 254 324 406
#     4  11  22  39  70  90 125 170 219 260 316 397
#
# _framework density 20.807686
#
# number of rings (size 3 to 8) (size 9 to 14) (size 15 to 20)
#    0.000    1.250    2.500    4.500    5.250    2.000 
#    2.250    0.000    0.000    6.000    0.000    0.000 
#    0.000    0.000    0.000    0.000    0.000    0.000 
#
# Total GULP energy -356910.658354 kJ/mol
# GULP energy per Si atom -5576.729037 kJ/mol
# Density = 2.076033 g / cm^3
# Si number density = 20.807686 Si / 1000 Ang^3
#
#
#
# Elastic Constant Matrix: (Units=GPa)
#
#
# Indices 1 2 3 4 5 6 
#
# 1 47.6929 24.8757 11.7898 0.0000 0.0000 0.0000
# 2 24.8757 165.6675 23.0643 0.0000 0.0000 0.0000
# 3 11.7898 23.0643 73.0804 0.0000 0.0000 0.0000
# 4 0.0000 0.0000 0.0000 20.3744 0.0000 0.0000
# 5 0.0000 0.0000 0.0000 0.0000 -0.0706 0.0000
# 6 0.0000 0.0000 0.0000 0.0000 0.0000 -118.5053
#
#
#
# Elastic Compliance Matrix: (Units=1/GPa)
#
#
# Indices 1 2 3 4 5 6 
#
# 1 0.023275 -0.003109 -0.002774 0.000000 0.000000 0.000000
# 2 -0.003109 0.006729 -0.001622 0.000000 0.000000 0.000000
# 3 -0.002774 -0.001622 0.014643 0.000000 0.000000 0.000000
# 4 0.000000 0.000000 0.000000 0.049081 0.000000 0.000000
# 5 0.000000 0.000000 0.000000 0.000000-14.165792 0.000000
# 6 0.000000 0.000000 0.000000 0.000000 0.000000 -0.008438
#
#
# Mechanical properties :
#
#
# Convention : Reuss Voigt Hill
#
# Bulk Modulus (GPa) = 33.74115 45.10007 39.42061
# Shear Modulus (GPa) = -0.35573 -4.52623 -2.44098
#
# Velocity S-wave (km/s) = -0.41392 -1.47648 -1.08428
# Velocity P-wave (km/s) = 4.00281 4.33764 4.17358
#
# Compressibility (1/GPa) = 0.02963740
#
# Stress axis : x y z
#
# Youngs Moduli (GPa) = 42.96540 148.61514 68.29214
#
# Poissons Ratio (x) = 0.46199 0.18942
# Poissons Ratio (y) = 0.13356 0.11078
# Poissons Ratio (z) = 0.11917 0.24107
#
# Static dielectric constant tensor:
#      x y z
#    x 1.768910 0.000000 0.000000 
#    y 0.000000 1.739320 0.000000 
#    z 0.000000 0.000000 1.823210 
# 
# From -- ./inp_files/8544.got.cif
#   From: 2010.05.17/outbox.cif.g08.bks.cpg/sg54_5_cif.got.tgz:8544.got - 2010.06.03 13:09:01.
