data_PCOD9422202
_publ_section_title
;
Structure prediction by ZEFSAII (Michael W. Deem and Ramdas Pophale) SiO2 
 PCOD9422202
Probable space group: P C C A
;
_chemical_formula_sum "Si O2"
_cell_formula_units_Z 56
_cell_length_a 30.041160
_cell_length_b 6.394737
_cell_length_c 14.869106
_cell_angle_alpha 90.000000
_cell_angle_beta 90.000000
_cell_angle_gamma 90.000000
_cell_volume 2856.434327
_symmetry_space_group_name_H-M "P C C A"
_symmetry_group_IT_number 54
_symmetry_cell_setting 'orthorhombic'
loop_
_space_group_symop_operation_xyz
x,y,z
1/2-x,-y,z
1/2+x,-y,1/2-z
-x,y,1/2-z
-x,-y,-z
1/2+x,y,-z
1/2-x,y,1/2+z
x,-y,1/2+z
loop_
_atom_site_type_symbol
_atom_site_label
_atom_site_fract_x
_atom_site_fract_y
_atom_site_fract_z
Si Si1 0.828171 0.269958 0.897419
Si Si2 0.750000 0.000000 0.462303
Si Si3 0.074578 0.253325 0.230478
Si Si4 0.359612 0.585751 0.795635
Si Si5 0.000000 0.410117 0.750000
Si Si6 0.397051 0.053304 0.542844
Si Si7 0.941728 0.121118 0.639722
Si Si8 0.685154 0.339978 0.023015
O O1 0.838551 0.330334 0.795846
O O2 0.789342 0.099070 0.903697
O O3 0.812090 0.468843 0.954079
O O4 0.872862 0.169534 0.941368
O O5 0.772986 0.184506 0.519276
O O6 0.118173 0.363074 0.272660
O O7 0.039705 0.440616 0.217756
O O8 0.056096 0.088316 0.301821
O O9 0.085058 0.137692 0.137550
O O10 0.398805 0.745449 0.826163
O O11 0.325341 0.577398 0.877617
O O12 0.016909 0.265192 0.831730
O O13 0.433621 0.063565 0.464051
O O14 0.357550 0.206251 0.509800
#
# Coordination Sequence:
#
# PCOD9422202 Si02
#       8
#     8   4   8   8   4   8   8   8
#     4  11  20  40  61  91 119 155 198 253 295 362
#     4  10  24  38  58  86 130 158 192 242 304 356
#     4  11  20  40  61  90 120 159 203 253 299 366
#     4  10  21  36  66  87 115 156 204 245 298 349
#     4  10  24  38  58  86 130 160 198 250 306 358
#     4  10  21  36  66  88 116 158 203 247 302 352
#     4  10  21  40  58  90 121 157 199 251 297 362
#     4  10  21  40  58  89 121 157 197 245 292 363
#
# _framework density 19.604861
#
# number of rings (size 3 to 8) (size 9 to 14) (size 15 to 20)
#    0.000    1.714    2.857    1.714    0.000    1.143 
#    0.000    5.714    0.000    0.000    0.000    0.000 
#    0.000    0.000    0.000    0.000    0.000    0.000 
#
# Total GULP energy -312765.012662 kJ/mol
# GULP energy per Si atom -5585.089512 kJ/mol
# Density = 1.956024 g / cm^3
# Si number density = 19.604861 Si / 1000 Ang^3
#
#
#
# Elastic Constant Matrix: (Units=GPa)
#
#
# Indices 1 2 3 4 5 6 
#
# 1 32.7991 18.0527 4.9534 0.0000 0.0000 0.0000
# 2 18.0527 81.3969 40.8484 0.0000 0.0000 0.0000
# 3 4.9534 40.8484 98.5764 0.0000 0.0000 0.0000
# 4 0.0000 0.0000 0.0000 17.3794 0.0000 0.0000
# 5 0.0000 0.0000 0.0000 0.0000 1.0632 0.0000
# 6 0.0000 0.0000 0.0000 0.0000 0.0000 15.4380
#
#
#
# Elastic Compliance Matrix: (Units=1/GPa)
#
#
# Indices 1 2 3 4 5 6 
#
# 1 0.034990 -0.008684 0.001840 0.000000 0.000000 0.000000
# 2 -0.008684 0.017666 -0.006884 0.000000 0.000000 0.000000
# 3 0.001840 -0.006884 0.012905 0.000000 0.000000 0.000000
# 4 0.000000 0.000000 0.000000 0.057539 0.000000 0.000000
# 5 0.000000 0.000000 0.000000 0.000000 0.940514 0.000000
# 6 0.000000 0.000000 0.000000 0.000000 0.000000 0.064775
#
#
# Mechanical properties :
#
#
# Convention : Reuss Voigt Hill
#
# Bulk Modulus (GPa) = 26.24296 37.83125 32.03711
# Shear Modulus (GPa) = 4.27882 16.70400 10.49141
#
# Velocity S-wave (km/s) = 1.47894 2.92213 2.31583
# Velocity P-wave (km/s) = 4.04121 5.54291 4.85053
#
# Compressibility (1/GPa) = 0.03810545
#
# Stress axis : x y z
#
# Youngs Moduli (GPa) = 28.57936 56.60519 77.49143
#
# Poissons Ratio (x) = 0.49155 -0.14260
# Poissons Ratio (y) = 0.24818 0.53347
# Poissons Ratio (z) = -0.05259 0.38968
#
# Static dielectric constant tensor:
#      x y z
#    x 1.714920 0.000000 0.000000 
#    y 0.000000 1.683170 0.000000 
#    z 0.000000 0.000000 1.637420 
# 
# From -- ./inp_files/15374.got.cif
#   From: 2010.05.17/outbox.cif.g08.bks.cpg/sg54_8_cif.got.tgz:15374.got - 2010.06.03 13:09:01.
