data_PCOD9422331
_publ_section_title
;
Structure prediction by ZEFSAII (Michael W. Deem and Ramdas Pophale) SiO2 
 PCOD9422331
Probable space group: P C C A
;
_chemical_formula_sum "Si O2"
_cell_formula_units_Z 40
_cell_length_a 24.735680
_cell_length_b 5.102374
_cell_length_c 15.846647
_cell_angle_alpha 90.000000
_cell_angle_beta 90.000000
_cell_angle_gamma 90.000000
_cell_volume 2000.016260
_symmetry_space_group_name_H-M "P C C A"
_symmetry_group_IT_number 54
_symmetry_cell_setting 'orthorhombic'
loop_
_space_group_symop_operation_xyz
x,y,z
1/2-x,-y,z
1/2+x,-y,1/2-z
-x,y,1/2-z
-x,-y,-z
1/2+x,y,-z
1/2-x,y,1/2+z
x,-y,1/2+z
loop_
_atom_site_type_symbol
_atom_site_label
_atom_site_fract_x
_atom_site_fract_y
_atom_site_fract_z
Si Si1 0.030365 0.132302 0.920841
Si Si2 0.080636 0.953459 0.139256
Si Si3 0.602363 0.540280 0.474676
Si Si4 0.631486 0.934917 0.180159
Si Si5 0.687583 0.428792 0.115988
O O1 0.982679 0.125271 0.852523
O O2 0.082063 0.977856 0.885579
O O3 0.055230 0.406392 0.954773
O O4 0.000000 0.000000 0.000000
O O5 0.101925 0.726409 0.077249
O O6 0.090957 0.226444 0.091068
O O7 0.108955 0.984062 0.228896
O O8 0.658125 0.565915 0.525169
O O9 0.655366 0.644895 0.171578
O O10 0.677122 0.142726 0.153752
O O11 0.750000 0.500000 0.111272
#
# Coordination Sequence:
#
# PCOD9422331 Si02
#       5
#     8   8   8   8   8
#     4   9  19  36  60  87 121 158 189 226 281 352
#     4  11  21  37  58  91 125 149 184 241 296 348
#     4  10  21  38  61  86 116 155 200 237 283 353
#     4  11  23  38  61  90 119 152 194 240 295 350
#     4  11  23  43  62  80 110 156 202 244 288 343
#
# _framework density 19.999835999999998
#
# number of rings (size 3 to 8) (size 9 to 14) (size 15 to 20)
#    0.000    1.600    0.000    6.600    0.000    4.800 
#    0.000   14.000    0.000    0.000    0.000    0.000 
#    0.000    0.000    0.000    0.000    0.000    0.000 
#
# Total GULP energy -223313.514514 kJ/mol
# GULP energy per Si atom -5582.837863 kJ/mol
# Density = 1.995432 g / cm^3
# Si number density = 19.999836 Si / 1000 Ang^3
#
#
#
# Elastic Constant Matrix: (Units=GPa)
#
#
# Indices 1 2 3 4 5 6 
#
# 1 107.7767 -15.1363 34.2035 0.0000 0.0000 0.0000
# 2 -15.1363 59.3254 6.3667 0.0000 0.0000 0.0000
# 3 34.2035 6.3667 73.8455 0.0000 0.0000 0.0000
# 4 0.0000 0.0000 0.0000 23.8693 0.0000 0.0000
# 5 0.0000 0.0000 0.0000 0.0000 14.7334 0.0000
# 6 0.0000 0.0000 0.0000 0.0000 0.0000 24.7230
#
#
#
# Elastic Compliance Matrix: (Units=1/GPa)
#
#
# Indices 1 2 3 4 5 6 
#
# 1 0.011578 0.003563 -0.005670 0.000000 0.000000 0.000000
# 2 0.003563 0.018110 -0.003211 0.000000 0.000000 0.000000
# 3 -0.005670 -0.003211 0.016445 0.000000 0.000000 0.000000
# 4 0.000000 0.000000 0.000000 0.041895 0.000000 0.000000
# 5 0.000000 0.000000 0.000000 0.000000 0.067873 0.000000
# 6 0.000000 0.000000 0.000000 0.000000 0.000000 0.040448
#
#
# Mechanical properties :
#
#
# Convention : Reuss Voigt Hill
#
# Bulk Modulus (GPa) = 28.17286 32.42393 30.29839
# Shear Modulus (GPa) = 22.85003 27.03271 24.94137
#
# Velocity S-wave (km/s) = 3.38377 3.68046 3.53523
# Velocity P-wave (km/s) = 5.42067 5.85734 5.64323
#
# Compressibility (1/GPa) = 0.03549516
#
# Stress axis : x y z
#
# Youngs Moduli (GPa) = 86.36973 55.21884 60.80949
#
# Poissons Ratio (x) = -0.19672 0.34478
# Poissons Ratio (y) = -0.30769 0.19529
# Poissons Ratio (z) = 0.48970 0.17733
#
# Static dielectric constant tensor:
#      x y z
#    x 1.713950 0.000000 0.000000 
#    y 0.000000 1.715930 0.000000 
#    z 0.000000 0.000000 1.720320 
# 
# From -- ./inp_files/14825.got.cif
#   From: 2010.05.17/outbox.cif.g08.bks.cpg/sg54_8_cif.got.tgz:14825.got - 2010.06.03 13:09:01.
