data_PCOD9422445
_publ_section_title
;
Structure prediction by ZEFSAII (Michael W. Deem and Ramdas Pophale) SiO2 
 PCOD9422445
Probable space group: P C C A
;
_chemical_formula_sum "Si O2"
_cell_formula_units_Z 28
_cell_length_a 5.118594
_cell_length_b 8.432069
_cell_length_c 29.472462
_cell_angle_alpha 90.000000
_cell_angle_beta 90.000000
_cell_angle_gamma 90.000000
_cell_volume 1272.041415
_symmetry_space_group_name_H-M "P C C A"
_symmetry_group_IT_number 54
_symmetry_cell_setting 'orthorhombic'
loop_
_space_group_symop_operation_xyz
x,y,z
1/2-x,-y,z
1/2+x,-y,1/2-z
-x,y,1/2-z
-x,-y,-z
1/2+x,y,-z
1/2-x,y,1/2+z
x,-y,1/2+z
loop_
_atom_site_type_symbol
_atom_site_label
_atom_site_fract_x
_atom_site_fract_y
_atom_site_fract_z
Si Si1 0.512049 0.605784 0.103226
Si Si2 0.398799 0.667085 0.198467
Si Si3 0.713215 0.810320 0.474461
Si Si4 0.250000 0.000000 0.217643
O O1 0.250000 0.500000 0.105521
O O2 0.585511 0.658030 0.154646
O O3 0.420807 0.748910 0.071310
O O4 0.750000 0.500000 0.085498
O O5 0.250000 0.500000 0.198619
O O6 0.500000 0.678210 0.250000
O O7 0.248979 0.833587 0.191036
O O8 0.004764 0.755312 0.487171
O O9 0.250000 0.000000 0.526522
O O10 0.500000 0.006623 0.250000
#
# Coordination Sequence:
#
# PCOD9422445 Si02
#       4
#     8   8   8   4
#     4  11  24  39  62  94 123 163 213 255 322 380
#     4  10  21  39  64  89 131 168 211 264 316 379
#     4  10  22  41  64  90 124 164 206 258 325 382
#     4  10  22  38  60  90 116 164 218 258 316 378
#
# _framework density 22.011862000000001
#
# number of rings (size 3 to 8) (size 9 to 14) (size 15 to 20)
#    0.000    1.714    0.000    3.429    2.000   10.286 
#    0.000    0.000    3.143    0.000    0.000    0.000 
#    0.000    0.000    0.000    0.000    0.000    0.000 
#
# Total GULP energy -155975.984890 kJ/mol
# GULP energy per Si atom -5570.570889 kJ/mol
# Density = 2.196176 g / cm^3
# Si number density = 22.011862 Si / 1000 Ang^3
#
#
#
# Elastic Constant Matrix: (Units=GPa)
#
#
# Indices 1 2 3 4 5 6 
#
# 1 121.4988 39.6314 26.4999 0.0000 0.0000 0.0000
# 2 39.6314 136.8874 32.5634 0.0000 0.0000 0.0000
# 3 26.4999 32.5634 118.4332 0.0000 0.0000 0.0000
# 4 0.0000 0.0000 0.0000 91.5469 0.0000 0.0000
# 5 0.0000 0.0000 0.0000 0.0000 11.9911 0.0000
# 6 0.0000 0.0000 0.0000 0.0000 0.0000 33.0369
#
#
#
# Elastic Compliance Matrix: (Units=1/GPa)
#
#
# Indices 1 2 3 4 5 6 
#
# 1 0.009312 -0.002354 -0.001436 0.000000 0.000000 0.000000
# 2 -0.002354 0.008412 -0.001786 0.000000 0.000000 0.000000
# 3 -0.001436 -0.001786 0.009256 0.000000 0.000000 0.000000
# 4 0.000000 0.000000 0.000000 0.010923 0.000000 0.000000
# 5 0.000000 0.000000 0.000000 0.000000 0.083395 0.000000
# 6 0.000000 0.000000 0.000000 0.000000 0.000000 0.030269
#
#
# Mechanical properties :
#
#
# Convention : Reuss Voigt Hill
#
# Bulk Modulus (GPa) = 63.18551 63.80098 63.49325
# Shear Modulus (GPa) = 29.76270 45.85662 37.80966
#
# Velocity S-wave (km/s) = 3.68111 4.56924 4.14900
# Velocity P-wave (km/s) = 6.84361 7.54221 7.20139
#
# Compressibility (1/GPa) = 0.01582641
#
# Stress axis : x y z
#
# Youngs Moduli (GPa) = 107.39157 118.88132 108.03780
#
# Poissons Ratio (x) = 0.27988 0.15517
# Poissons Ratio (y) = 0.25283 0.19296
# Poissons Ratio (z) = 0.15424 0.21233
#
# Static dielectric constant tensor:
#      x y z
#    x 1.814110 0.000000 0.000000 
#    y 0.000000 2.000420 0.000000 
#    z 0.000000 0.000000 1.895790 
# 
# From -- ./inp_files/25017.got.cif
#   From: 2010.05.17/outbox.cif.g08.bks.cpg/sg54_13_cif.got.tgz:25017.got - 2010.06.03 13:09:01.
