data_PCOD9422197
_publ_section_title
;
Structure prediction by ZEFSAII (Michael W. Deem and Ramdas Pophale) SiO2 
 PCOD9422197
Probable space group: P C C A
;
_chemical_formula_sum "Si O2"
_cell_formula_units_Z 48
_cell_length_a 28.918188
_cell_length_b 8.516378
_cell_length_c 9.125641
_cell_angle_alpha 90.000000
_cell_angle_beta 90.000000
_cell_angle_gamma 90.000000
_cell_volume 2247.446623
_symmetry_space_group_name_H-M "P C C A"
_symmetry_group_IT_number 54
_symmetry_cell_setting 'orthorhombic'
loop_
_space_group_symop_operation_xyz
x,y,z
1/2-x,-y,z
1/2+x,-y,1/2-z
-x,y,1/2-z
-x,-y,-z
1/2+x,y,-z
1/2-x,y,1/2+z
x,-y,1/2+z
loop_
_atom_site_type_symbol
_atom_site_label
_atom_site_fract_x
_atom_site_fract_y
_atom_site_fract_z
Si Si1 0.252392 0.235728 0.714294
Si Si2 0.406177 0.131116 0.090524
Si Si3 0.812047 0.774900 0.536920
Si Si4 0.690416 0.600988 0.536466
Si Si5 0.401302 0.802175 0.937585
Si Si6 0.498610 0.331961 0.076211
O O1 0.217985 0.157352 0.597792
O O2 0.283835 0.346278 0.611524
O O3 0.289703 0.149898 0.817944
O O4 0.218028 0.322482 0.827637
O O5 0.365367 0.209313 0.997920
O O6 0.398967 0.151667 0.264976
O O7 0.454872 0.215802 0.049259
O O8 0.398906 0.951734 0.043101
O O9 0.806497 0.586070 0.548028
O O10 0.638945 0.674388 0.535218
O O11 0.452779 0.742713 0.965754
O O12 0.500000 0.357741 0.250000
O O13 0.500000 0.500000 0.000000
#
# Coordination Sequence:
#
# PCOD9422197 Si02
#       6
#     8   8   8   8   8   8
#     4  10  21  36  63  92 123 166 211 270 313 364
#     4  11  25  43  63  92 131 168 206 252 311 376
#     4  11  20  38  63  92 124 162 217 263 316 360
#     4  11  20  38  63  92 124 162 217 263 316 360
#     4  11  25  43  63  92 131 168 206 252 311 376
#     4  10  23  46  72 100 124 156 205 260 310 370
#
# _framework density 21.357571
#
# number of rings (size 3 to 8) (size 9 to 14) (size 15 to 20)
#    0.000    1.333    1.667    5.500    2.333    1.333 
#    0.000    5.000    0.000    0.000    0.000    0.000 
#    0.000    0.000    0.000    0.000    0.000    0.000 
#
# Total GULP energy -268046.917908 kJ/mol
# GULP energy per Si atom -5584.310790 kJ/mol
# Density = 2.130896 g / cm^3
# Si number density = 21.357571 Si / 1000 Ang^3
#
#
#
# Elastic Constant Matrix: (Units=GPa)
#
#
# Indices 1 2 3 4 5 6 
#
# 1 160.1389 18.0912 34.3888 0.0000 0.0000 0.0000
# 2 18.0912 40.2759 12.4502 0.0000 0.0000 0.0000
# 3 34.3888 12.4502 79.2814 0.0000 0.0000 0.0000
# 4 0.0000 0.0000 0.0000 27.0057 0.0000 0.0000
# 5 0.0000 0.0000 0.0000 0.0000 31.9278 0.0000
# 6 0.0000 0.0000 0.0000 0.0000 0.0000 17.1565
#
#
#
# Elastic Compliance Matrix: (Units=1/GPa)
#
#
# Indices 1 2 3 4 5 6 
#
# 1 0.007091 -0.002348 -0.002707 0.000000 0.000000 0.000000
# 2 -0.002348 0.026873 -0.003201 0.000000 0.000000 0.000000
# 3 -0.002707 -0.003201 0.014290 0.000000 0.000000 0.000000
# 4 0.000000 0.000000 0.000000 0.037029 0.000000 0.000000
# 5 0.000000 0.000000 0.000000 0.000000 0.031321 0.000000
# 6 0.000000 0.000000 0.000000 0.000000 0.000000 0.058287
#
#
# Mechanical properties :
#
#
# Convention : Reuss Voigt Hill
#
# Bulk Modulus (GPa) = 31.50522 45.50630 38.50576
# Shear Modulus (GPa) = 24.75420 29.53571 27.14495
#
# Velocity S-wave (km/s) = 3.40816 3.72279 3.56894
# Velocity P-wave (km/s) = 5.50188 6.31126 5.92042
#
# Compressibility (1/GPa) = 0.03174077
#
# Stress axis : x y z
#
# Youngs Moduli (GPa) = 141.01960 37.21170 69.97769
#
# Poissons Ratio (x) = 0.08739 0.18943
# Poissons Ratio (y) = 0.33118 0.22403
# Poissons Ratio (z) = 0.38175 0.11913
#
# Static dielectric constant tensor:
#      x y z
#    x 1.875340 0.000000 0.000000 
#    y 0.000000 1.926150 0.000000 
#    z 0.000000 0.000000 1.771890 
# 
# From -- ./inp_files/5830.got.cif
#   From: 2010.05.17/outbox.cif.g08.bks.cpg/sg54_3_cif.got.tgz:5830.got - 2010.06.03 13:09:01.
