data_PCOD9422718
_publ_section_title
;
Structure prediction by ZEFSAII (Michael W. Deem and Ramdas Pophale) SiO2 
 PCOD9422718
Probable space group: P C C A
;
_chemical_formula_sum "Si O2"
_cell_formula_units_Z 36
_cell_length_a 21.066442
_cell_length_b 5.462285
_cell_length_c 13.736063
_cell_angle_alpha 90.000000
_cell_angle_beta 90.000000
_cell_angle_gamma 90.000000
_cell_volume 1580.621271
_symmetry_space_group_name_H-M "P C C A"
_symmetry_group_IT_number 54
_symmetry_cell_setting 'orthorhombic'
loop_
_space_group_symop_operation_xyz
x,y,z
1/2-x,-y,z
1/2+x,-y,1/2-z
-x,y,1/2-z
-x,-y,-z
1/2+x,y,-z
1/2-x,y,1/2+z
x,-y,1/2+z
loop_
_atom_site_type_symbol
_atom_site_label
_atom_site_fract_x
_atom_site_fract_y
_atom_site_fract_z
Si Si1 0.666089 0.275662 0.781999
Si Si2 0.685370 0.347354 0.555246
Si Si3 0.577237 0.524679 0.918951
Si Si4 0.250000 0.000000 0.079727
Si Si5 0.455217 0.026193 0.656699
O O1 0.680356 0.300710 0.669528
O O2 0.627481 0.499773 0.828922
O O3 0.616203 0.057108 0.801767
O O4 0.725767 0.211333 0.848636
O O5 0.750000 0.500000 0.539355
O O6 0.622038 0.473232 0.513486
O O7 0.695562 0.101306 0.491844
O O8 0.536611 0.276963 0.905364
O O9 0.540425 0.776039 0.902743
O O10 0.500000 0.026082 0.750000
#
# Coordination Sequence:
#
# PCOD9422718 Si02
#       5
#     8   8   8   4   8
#     4  10  25  38  65  97 132 170 221 266 333 392
#     4  12  23  39  64  95 133 180 213 270 335 400
#     4  10  22  43  63  95 134 163 224 271 322 390
#     4  12  22  44  62  96 136 172 218 278 320 408
#     4  10  21  44  70  90 131 176 219 279 332 376
#
# _framework density 22.775853000000001
#
# number of rings (size 3 to 8) (size 9 to 14) (size 15 to 20)
#    1.333    0.000    4.444    1.333    3.111    1.778 
#    0.000    2.222    0.000    0.000    0.000    0.000 
#    0.000    0.000    0.000    0.000    0.000    0.000 
#
# Total GULP energy -200992.440723 kJ/mol
# GULP energy per Si atom -5583.123353 kJ/mol
# Density = 2.272401 g / cm^3
# Si number density = 22.775853 Si / 1000 Ang^3
#
#
#
# Elastic Constant Matrix: (Units=GPa)
#
#
# Indices 1 2 3 4 5 6 
#
# 1 39.5663 14.1717 27.8886 0.0000 0.0000 0.0000
# 2 14.1717 139.8837 35.1333 0.0000 0.0000 0.0000
# 3 27.8886 35.1333 180.3761 0.0000 0.0000 0.0000
# 4 0.0000 0.0000 0.0000 126.2813 0.0000 0.0000
# 5 0.0000 0.0000 0.0000 0.0000 40.5179 0.0000
# 6 0.0000 0.0000 0.0000 0.0000 0.0000 62.9848
#
#
#
# Elastic Compliance Matrix: (Units=1/GPa)
#
#
# Indices 1 2 3 4 5 6 
#
# 1 0.028835 -0.001894 -0.004089 0.000000 0.000000 0.000000
# 2 -0.001894 0.007641 -0.001195 0.000000 0.000000 0.000000
# 3 -0.004089 -0.001195 0.006409 0.000000 0.000000 0.000000
# 4 0.000000 0.000000 0.000000 0.007919 0.000000 0.000000
# 5 0.000000 0.000000 0.000000 0.000000 0.024680 0.000000
# 6 0.000000 0.000000 0.000000 0.000000 0.000000 0.015877
#
#
# Mechanical properties :
#
#
# Convention : Reuss Voigt Hill
#
# Bulk Modulus (GPa) = 35.05446 57.13479 46.09463
# Shear Modulus (GPa) = 43.39227 64.79897 54.09562
#
# Velocity S-wave (km/s) = 4.36958 5.33971 4.87882
# Velocity P-wave (km/s) = 6.39391 7.94713 7.21245
#
# Compressibility (1/GPa) = 0.02852704
#
# Stress axis : x y z
#
# Youngs Moduli (GPa) = 34.68022 130.87393 156.02869
#
# Poissons Ratio (x) = 0.24790 0.63805
# Poissons Ratio (y) = 0.06569 0.18652
# Poissons Ratio (z) = 0.14182 0.15645
#
# Static dielectric constant tensor:
#      x y z
#    x 1.950320 0.000000 0.000000 
#    y 0.000000 1.915650 0.000000 
#    z 0.000000 0.000000 1.781010 
# 
# From -- ./inp_files/14782.got.cif
#   From: 2010.05.17/outbox.cif.g08.bks.cpg/sg54_8_cif.got.tgz:14782.got - 2010.06.03 13:09:01.
