data_PCOD9422196
_publ_section_title
;
Structure prediction by ZEFSAII (Michael W. Deem and Ramdas Pophale) SiO2 
 PCOD9422196
Probable space group: P C C A
;
_chemical_formula_sum "Si O2"
_cell_formula_units_Z 64
_cell_length_a 23.032053
_cell_length_b 15.203780
_cell_length_c 9.304680
_cell_angle_alpha 90.000000
_cell_angle_beta 90.000000
_cell_angle_gamma 90.000000
_cell_volume 3258.259496
_symmetry_space_group_name_H-M "P C C A"
_symmetry_group_IT_number 54
_symmetry_cell_setting 'orthorhombic'
loop_
_space_group_symop_operation_xyz
x,y,z
1/2-x,-y,z
1/2+x,-y,1/2-z
-x,y,1/2-z
-x,-y,-z
1/2+x,y,-z
1/2-x,y,1/2+z
x,-y,1/2+z
loop_
_atom_site_type_symbol
_atom_site_label
_atom_site_fract_x
_atom_site_fract_y
_atom_site_fract_z
Si Si1 0.335554 0.491201 0.072750
Si Si2 0.644414 0.621502 0.182081
Si Si3 0.112825 0.121185 0.548934
Si Si4 0.375927 0.921656 0.101628
Si Si5 0.716682 0.618466 0.668964
Si Si6 0.717667 0.086677 0.656690
Si Si7 0.832063 0.190344 0.669012
Si Si8 0.061634 0.213993 0.300016
O O1 0.371485 0.427406 0.967061
O O2 0.301037 0.553162 0.960121
O O3 0.366776 0.556803 0.183713
O O4 0.298921 0.429232 0.180888
O O5 0.714305 0.636345 0.170817
O O6 0.610442 0.711141 0.204519
O O7 0.173248 0.126310 0.458469
O O8 0.125634 0.164464 0.701470
O O9 0.064620 0.172526 0.458787
O O10 0.100788 0.017011 0.557095
O O11 0.321478 0.939546 0.207416
O O12 0.420961 0.865248 0.193881
O O13 0.354562 0.861289 0.970788
O O14 0.678633 0.706240 0.651367
O O15 0.767886 0.152711 0.701660
O O16 0.750000 0.000000 0.599147
O O17 0.000000 0.249419 0.250000
#
# Coordination Sequence:
#
# PCOD9422196 Si02
#       8
#     8   8   8   8   8   8   8   8
#     4  10  21  36  61  88 125 152 174 228 291 370
#     4  11  20  38  58  86 113 152 190 229 293 358
#     4  11  22  38  58  85 119 160 201 239 293 346
#     4  11  22  38  58  85 119 160 201 239 293 346
#     4  11  20  33  55  90 124 155 186 218 285 368
#     4  11  20  34  54  89 132 163 181 221 285 356
#     4  12  22  32  57  94 125 160 195 235 284 361
#     4  11  26  45  61  78 110 154 208 268 303 338
#
# _framework density 19.642389000000001
#
# number of rings (size 3 to 8) (size 9 to 14) (size 15 to 20)
#    0.000    1.000    2.500    7.500    0.000    2.500 
#    0.000    1.250    0.000    0.000    0.000    0.000 
#    0.000    0.000    0.000    0.000    0.000    0.000 
#
# Total GULP energy -357665.861147 kJ/mol
# GULP energy per Si atom -5588.529080 kJ/mol
# Density = 1.959768 g / cm^3
# Si number density = 19.642389 Si / 1000 Ang^3
#
#
#
# Elastic Constant Matrix: (Units=GPa)
#
#
# Indices 1 2 3 4 5 6 
#
# 1 17.5199 7.6310 -1.4611 0.0000 0.0000 0.0000
# 2 7.6310 104.4643 5.2190 0.0000 0.0000 0.0000
# 3 -1.4611 5.2190 82.5990 0.0000 0.0000 0.0000
# 4 0.0000 0.0000 0.0000 20.8365 0.0000 0.0000
# 5 0.0000 0.0000 0.0000 0.0000 6.5391 0.0000
# 6 0.0000 0.0000 0.0000 0.0000 0.0000 6.9618
#
#
#
# Elastic Compliance Matrix: (Units=1/GPa)
#
#
# Indices 1 2 3 4 5 6 
#
# 1 0.059097 -0.004383 0.001322 0.000000 0.000000 0.000000
# 2 -0.004383 0.009928 -0.000705 0.000000 0.000000 0.000000
# 3 0.001322 -0.000705 0.012175 0.000000 0.000000 0.000000
# 4 0.000000 0.000000 0.000000 0.047993 0.000000 0.000000
# 5 0.000000 0.000000 0.000000 0.000000 0.152925 0.000000
# 6 0.000000 0.000000 0.000000 0.000000 0.000000 0.143641
#
#
# Mechanical properties :
#
#
# Convention : Reuss Voigt Hill
#
# Bulk Modulus (GPa) = 13.57430 25.26235 19.41833
# Shear Modulus (GPa) = 10.92071 19.74710 15.33390
#
# Velocity S-wave (km/s) = 2.36047 3.17414 2.79705
# Velocity P-wave (km/s) = 3.78878 5.13055 4.50985
#
# Compressibility (1/GPa) = 0.07366864
#
# Stress axis : x y z
#
# Youngs Moduli (GPa) = 16.92128 100.72476 82.13818
#
# Poissons Ratio (x) = 0.44148 -0.10861
# Poissons Ratio (y) = 0.07417 0.05789
# Poissons Ratio (z) = -0.02238 0.07099
#
# Static dielectric constant tensor:
#      x y z
#    x 1.685800 0.000000 0.000000 
#    y 0.000000 1.712690 0.000000 
#    z 0.000000 0.000000 1.708760 
# 
# From -- ./inp_files/5314.got.cif
#   From: 2010.05.17/outbox.cif.g08.bks.cpg/sg54_3_cif.got.tgz:5314.got - 2010.06.03 13:09:01.
