data_PCOD9422676
_publ_section_title
;
Structure prediction by ZEFSAII (Michael W. Deem and Ramdas Pophale) SiO2 
 PCOD9422676
Probable space group: P C C A
;
_chemical_formula_sum "Si O2"
_cell_formula_units_Z 32
_cell_length_a 14.890673
_cell_length_b 7.692313
_cell_length_c 12.391062
_cell_angle_alpha 90.000000
_cell_angle_beta 90.000000
_cell_angle_gamma 90.000000
_cell_volume 1419.318305
_symmetry_space_group_name_H-M "P C C A"
_symmetry_group_IT_number 54
_symmetry_cell_setting 'orthorhombic'
loop_
_space_group_symop_operation_xyz
x,y,z
1/2-x,-y,z
1/2+x,-y,1/2-z
-x,y,1/2-z
-x,-y,-z
1/2+x,y,-z
1/2-x,y,1/2+z
x,-y,1/2+z
loop_
_atom_site_type_symbol
_atom_site_label
_atom_site_fract_x
_atom_site_fract_y
_atom_site_fract_z
Si Si1 0.384702 0.157668 0.039766
Si Si2 0.192463 0.771333 0.587912
Si Si3 0.946579 0.368787 0.577707
Si Si4 0.906312 0.696885 0.699050
O O1 0.297938 0.265055 0.077254
O O2 0.480495 0.213683 0.091220
O O3 0.348561 0.966401 0.069491
O O4 0.391407 0.196635 0.911445
O O5 0.140333 0.678825 0.490891
O O6 0.165903 0.723158 0.708750
O O7 0.917436 0.491080 0.675328
O O8 0.000000 0.500000 0.500000
O O9 0.000000 0.757817 0.750000
#
# Coordination Sequence:
#
# PCOD9422676 Si02
#       4
#     8   8   8   8
#     4  10  24  44  73 102 141 180 231 299 342 410
#     4  11  23  46  70 104 141 176 238 289 349 411
#     4  10  21  43  63 101 136 175 225 285 336 413
#     4  11  23  45  66  99 139 184 233 275 355 415
#
# _framework density 22.546033999999999
#
# number of rings (size 3 to 8) (size 9 to 14) (size 15 to 20)
#    0.000    1.500    5.000    0.750    0.000    8.000 
#   13.500    0.000    0.000    0.000    0.000    0.000 
#    0.000    0.000    0.000    0.000    0.000    0.000 
#
# Total GULP energy -178550.980507 kJ/mol
# GULP energy per Si atom -5579.718141 kJ/mol
# Density = 2.249472 g / cm^3
# Si number density = 22.546034 Si / 1000 Ang^3
#
#
#
# Elastic Constant Matrix: (Units=GPa)
#
#
# Indices 1 2 3 4 5 6 
#
# 1 71.1450 1.6660 56.4248 0.0000 0.0000 0.0000
# 2 1.6660 53.3732 35.6305 0.0000 0.0000 0.0000
# 3 56.4248 35.6305 143.6436 0.0000 0.0000 0.0000
# 4 0.0000 0.0000 0.0000 29.9823 0.0000 0.0000
# 5 0.0000 0.0000 0.0000 0.0000 36.6342 0.0000
# 6 0.0000 0.0000 0.0000 0.0000 0.0000 22.0286
#
#
#
# Elastic Compliance Matrix: (Units=1/GPa)
#
#
# Indices 1 2 3 4 5 6 
#
# 1 0.021946 0.006076 -0.010128 0.000000 0.000000 0.000000
# 2 0.006076 0.024136 -0.008374 0.000000 0.000000 0.000000
# 3 -0.010128 -0.008374 0.013017 0.000000 0.000000 0.000000
# 4 0.000000 0.000000 0.000000 0.033353 0.000000 0.000000
# 5 0.000000 0.000000 0.000000 0.000000 0.027297 0.000000
# 6 0.000000 0.000000 0.000000 0.000000 0.000000 0.045396
#
#
# Mechanical properties :
#
#
# Convention : Reuss Voigt Hill
#
# Bulk Modulus (GPa) = 29.19851 50.62272 39.91061
# Shear Modulus (GPa) = 24.82481 29.35840 27.09161
#
# Velocity S-wave (km/s) = 3.32184 3.61245 3.47019
# Velocity P-wave (km/s) = 5.26228 6.31677 5.81348
#
# Compressibility (1/GPa) = 0.03424832
#
# Stress axis : x y z
#
# Youngs Moduli (GPa) = 45.56694 41.43124 76.82263
#
# Poissons Ratio (x) = -0.25173 0.77803
# Poissons Ratio (y) = -0.27686 0.64329
# Poissons Ratio (z) = 0.46149 0.34693
#
# Static dielectric constant tensor:
#      x y z
#    x 2.037670 0.000000 0.000000 
#    y 0.000000 1.987150 0.000000 
#    z 0.000000 0.000000 1.761290 
# 
# From -- ./inp_files/7928.got.cif
#   From: 2010.05.17/outbox.cif.g08.bks.cpg/sg54_4_cif.got.tgz:7928.got - 2010.06.03 13:09:01.
