data_PCOD9422631
_publ_section_title
;
Structure prediction by ZEFSAII (Michael W. Deem and Ramdas Pophale) SiO2 
 PCOD9422631
Probable space group: P C C A
;
_chemical_formula_sum "Si O2"
_cell_formula_units_Z 44
_cell_length_a 23.866815
_cell_length_b 5.472741
_cell_length_c 15.560751
_cell_angle_alpha 90.000000
_cell_angle_beta 90.000000
_cell_angle_gamma 90.000000
_cell_volume 2032.497010
_symmetry_space_group_name_H-M "P C C A"
_symmetry_group_IT_number 54
_symmetry_cell_setting 'orthorhombic'
loop_
_space_group_symop_operation_xyz
x,y,z
1/2-x,-y,z
1/2+x,-y,1/2-z
-x,y,1/2-z
-x,-y,-z
1/2+x,y,-z
1/2-x,y,1/2+z
x,-y,1/2+z
loop_
_atom_site_type_symbol
_atom_site_label
_atom_site_fract_x
_atom_site_fract_y
_atom_site_fract_z
Si Si1 0.873465 0.433502 0.468097
Si Si2 0.813810 0.077422 0.009198
Si Si3 0.593058 0.583978 0.655930
Si Si4 0.592264 0.779671 0.302580
Si Si5 0.684224 0.033336 0.204924
Si Si6 0.500000 0.899540 0.750000
O O1 0.831043 0.662955 0.469215
O O2 0.909288 0.460967 0.554743
O O3 0.903204 0.420531 0.376429
O O4 0.848513 0.159224 0.478772
O O5 0.750000 0.000000 0.994449
O O6 0.821988 0.102541 0.112598
O O7 0.584018 0.342744 0.710285
O O8 0.544375 0.756572 0.691755
O O9 0.653593 0.707030 0.682382
O O10 0.649331 0.927868 0.284833
O O11 0.539013 0.948422 0.314861
O O12 0.750000 0.000000 0.224451
#
# Coordination Sequence:
#
# PCOD9422631 Si02
#       6
#     8   8   8   8   8   4
#     4  11  24  40  69  97 136 178 221 280 337 402
#     4  10  21  42  64  97 139 181 219 268 332 398
#     4  10  22  44  64  94 134 169 229 280 345 403
#     4  11  23  42  65  96 131 173 233 276 340 405
#     4   9  20  39  66  93 134 179 216 270 336 402
#     4  10  24  44  68  90 126 180 224 300 336 400
#
# _framework density 21.648250000000001
#
# number of rings (size 3 to 8) (size 9 to 14) (size 15 to 20)
#    0.000    1.818    1.818    1.091    5.091    2.182 
#    3.273    3.636    0.000    0.000    0.000    0.000 
#    0.000    0.000    0.000    0.000    0.000    0.000 
#
# Total GULP energy -245398.782728 kJ/mol
# GULP energy per Si atom -5577.245062 kJ/mol
# Density = 2.159898 g / cm^3
# Si number density = 21.648250 Si / 1000 Ang^3
#
#
#
# Elastic Constant Matrix: (Units=GPa)
#
#
# Indices 1 2 3 4 5 6 
#
# 1 100.8341 28.4544 1.2030 0.0000 0.0000 0.0000
# 2 28.4544 71.8563 11.1867 0.0000 0.0000 0.0000
# 3 1.2030 11.1867 63.8871 0.0000 0.0000 0.0000
# 4 0.0000 0.0000 0.0000 -39.7277 0.0000 0.0000
# 5 0.0000 0.0000 0.0000 0.0000 0.3181 0.0000
# 6 0.0000 0.0000 0.0000 0.0000 0.0000 14.0634
#
#
#
# Elastic Compliance Matrix: (Units=1/GPa)
#
#
# Indices 1 2 3 4 5 6 
#
# 1 0.011186 -0.004520 0.000581 0.000000 0.000000 0.000000
# 2 -0.004520 0.016133 -0.002740 0.000000 0.000000 0.000000
# 3 0.000581 -0.002740 0.016121 0.000000 0.000000 0.000000
# 4 0.000000 0.000000 0.000000 -0.025171 0.000000 0.000000
# 5 0.000000 0.000000 0.000000 0.000000 3.144108 0.000000
# 6 0.000000 0.000000 0.000000 0.000000 0.000000 0.071106
#
#
# Mechanical properties :
#
#
# Convention : Reuss Voigt Hill
#
# Bulk Modulus (GPa) = 33.24194 35.36287 34.30241
# Shear Modulus (GPa) = 1.53522 7.97966 4.75744
#
# Velocity S-wave (km/s) = 0.84303 1.92199 1.48404
# Velocity P-wave (km/s) = 4.04183 4.61477 4.33777
#
# Compressibility (1/GPa) = 0.03008248
#
# Stress axis : x y z
#
# Youngs Moduli (GPa) = 89.39890 61.98460 62.02931
#
# Poissons Ratio (x) = 0.28016 -0.03603
# Poissons Ratio (y) = 0.40407 0.16995
# Poissons Ratio (z) = -0.05192 0.16983
#
# Static dielectric constant tensor:
#      x y z
#    x 1.997890 0.000000 0.000000 
#    y 0.000000 1.834100 0.000000 
#    z 0.000000 0.000000 1.788250 
# 
# From -- ./inp_files/15064.got.cif
#   From: 2010.05.17/outbox.cif.g08.bks.cpg/sg54_8_cif.got.tgz:15064.got - 2010.06.03 13:09:01.
