data_PCOD9422808
_publ_section_title
;
Structure prediction by ZEFSAII (Michael W. Deem and Ramdas Pophale) SiO2 
 PCOD9422808
Probable space group: P C C A
;
_chemical_formula_sum "Si O2"
_cell_formula_units_Z 28
_cell_length_a 14.054325
_cell_length_b 8.347337
_cell_length_c 12.114133
_cell_angle_alpha 90.000000
_cell_angle_beta 90.000000
_cell_angle_gamma 90.000000
_cell_volume 1421.183893
_symmetry_space_group_name_H-M "P C C A"
_symmetry_group_IT_number 54
_symmetry_cell_setting 'orthorhombic'
loop_
_space_group_symop_operation_xyz
x,y,z
1/2-x,-y,z
1/2+x,-y,1/2-z
-x,y,1/2-z
-x,-y,-z
1/2+x,y,-z
1/2-x,y,1/2+z
x,-y,1/2+z
loop_
_atom_site_type_symbol
_atom_site_label
_atom_site_fract_x
_atom_site_fract_y
_atom_site_fract_z
Si Si1 0.500000 0.089610 0.750000
Si Si2 0.438094 0.205811 0.389134
Si Si3 0.343696 0.718599 0.116738
Si Si4 0.131971 0.341066 0.659039
O O1 0.585150 0.192779 0.800223
O O2 0.544663 0.972102 0.657339
O O3 0.373496 0.225574 0.495086
O O4 0.544150 0.272573 0.411164
O O5 0.395628 0.307236 0.286444
O O6 0.358629 0.528255 0.132868
O O7 0.231920 0.745468 0.136714
#
# Coordination Sequence:
#
# PCOD9422808 Si02
#       4
#     4   8   8   8
#     4  10  22  38  58  90 118 152 196 232 288 360
#     4  10  22  40  56  84 124 154 190 244 292 342
#     4  11  21  38  63  86 115 157 195 242 292 337
#     4   9  22  38  59  87 114 151 202 240 286 350
#
# _framework density 19.701885000000001
#
# number of rings (size 3 to 8) (size 9 to 14) (size 15 to 20)
#    0.000    2.286    0.000    3.429    0.000   11.429 
#    0.000    5.714    0.000    0.000    0.000    0.000 
#    0.000    0.000    0.000    0.000    0.000    0.000 
#
# Total GULP energy -156395.876473 kJ/mol
# GULP energy per Si atom -5585.567017 kJ/mol
# Density = 1.965704 g / cm^3
# Si number density = 19.701885 Si / 1000 Ang^3
#
#
#
# Elastic Constant Matrix: (Units=GPa)
#
#
# Indices 1 2 3 4 5 6 
#
# 1 175.7358 43.7114 83.8647 0.0000 0.0000 0.0000
# 2 43.7114 72.2866 37.9918 0.0000 0.0000 0.0000
# 3 83.8647 37.9918 65.4874 0.0000 0.0000 0.0000
# 4 0.0000 0.0000 0.0000 9.6138 0.0000 0.0000
# 5 0.0000 0.0000 0.0000 0.0000 28.1185 0.0000
# 6 0.0000 0.0000 0.0000 0.0000 0.0000 56.1002
#
#
#
# Elastic Compliance Matrix: (Units=1/GPa)
#
#
# Indices 1 2 3 4 5 6 
#
# 1 0.014738 0.001450 -0.019715 0.000000 0.000000 0.000000
# 2 0.001450 0.020045 -0.013485 0.000000 0.000000 0.000000
# 3 -0.019715 -0.013485 0.048341 0.000000 0.000000 0.000000
# 4 0.000000 0.000000 0.000000 0.104017 0.000000 0.000000
# 5 0.000000 0.000000 0.000000 0.000000 0.035564 0.000000
# 6 0.000000 0.000000 0.000000 0.000000 0.000000 0.017825
#
#
# Mechanical properties :
#
#
# Convention : Reuss Voigt Hill
#
# Bulk Modulus (GPa) = 50.96141 71.62731 61.29436
# Shear Modulus (GPa) = 16.09935 28.62929 22.36432
#
# Velocity S-wave (km/s) = 2.86168 3.81612 3.37283
# Velocity P-wave (km/s) = 6.06971 7.47339 6.80782
#
# Compressibility (1/GPa) = 0.01962269
#
# Stress axis : x y z
#
# Youngs Moduli (GPa) = 67.85064 49.88863 20.68641
#
# Poissons Ratio (x) = -0.07232 0.40783
# Poissons Ratio (y) = -0.09835 0.27896
# Poissons Ratio (z) = 1.33768 0.67275
#
# Static dielectric constant tensor:
#      x y z
#    x 1.686830 0.000000 0.000000 
#    y 0.000000 1.688310 0.000000 
#    z 0.000000 0.000000 1.675600 
# 
# From -- ./inp_files/7836.got.cif
#   From: 2010.05.17/outbox.cif.g08.bks.cpg/sg54_4_cif.got.tgz:7836.got - 2010.06.03 13:09:01.
