data_PCOD9422364
_publ_section_title
;
Structure prediction by ZEFSAII (Michael W. Deem and Ramdas Pophale) SiO2 
 PCOD9422364
Probable space group: P C C A
;
_chemical_formula_sum "Si O2"
_cell_formula_units_Z 44
_cell_length_a 9.423524
_cell_length_b 16.899117
_cell_length_c 12.691430
_cell_angle_alpha 90.000000
_cell_angle_beta 90.000000
_cell_angle_gamma 90.000000
_cell_volume 2021.100514
_symmetry_space_group_name_H-M "P C C A"
_symmetry_group_IT_number 54
_symmetry_cell_setting 'orthorhombic'
loop_
_space_group_symop_operation_xyz
x,y,z
1/2-x,-y,z
1/2+x,-y,1/2-z
-x,y,1/2-z
-x,-y,-z
1/2+x,y,-z
1/2-x,y,1/2+z
x,-y,1/2+z
loop_
_atom_site_type_symbol
_atom_site_label
_atom_site_fract_x
_atom_site_fract_y
_atom_site_fract_z
Si Si1 0.430294 0.385568 0.939317
Si Si2 0.113928 0.041651 0.429380
Si Si3 0.813328 0.278953 0.512287
Si Si4 0.409663 0.472098 0.162067
Si Si5 0.000000 0.054881 0.750000
Si Si6 0.073302 0.823119 0.071583
O O1 0.569775 0.332076 0.953749
O O2 0.396577 0.424407 0.053081
O O3 0.290899 0.333001 0.915393
O O4 0.481529 0.455542 0.863746
O O5 0.098390 0.132755 0.458613
O O6 0.250000 0.000000 0.475281
O O7 0.097133 0.006291 0.313977
O O8 0.000000 0.000000 0.500000
O O9 0.703260 0.238250 0.430530
O O10 0.917019 0.216325 0.570693
O O11 0.250000 0.500000 0.190604
O O12 0.500000 0.425184 0.250000
O O13 0.924385 0.113307 0.834025
#
# Coordination Sequence:
#
# PCOD9422364 Si02
#       6
#     8   8   8   8   4   8
#     4  10  22  44  64  91 130 175 211 264 318 370
#     4  10  21  38  64  89 121 162 213 271 318 371
#     4  10  21  41  62  82 130 173 204 253 328 388
#     4  11  24  40  69 100 126 165 228 262 309 372
#     4  10  22  38  62  96 118 158 216 274 318 366
#     4  10  21  40  62  89 124 168 211 261 330 393
#
# _framework density 21.770318
#
# number of rings (size 3 to 8) (size 9 to 14) (size 15 to 20)
#    0.000    1.818    1.818    2.182    2.545    4.364 
#    9.818    0.000    4.000    0.000    0.000    0.000 
#    0.000    0.000    0.000    0.000    0.000    0.000 
#
# Total GULP energy -245057.499257 kJ/mol
# GULP energy per Si atom -5569.488619 kJ/mol
# Density = 2.172077 g / cm^3
# Si number density = 21.770318 Si / 1000 Ang^3
#
#
#
# Elastic Constant Matrix: (Units=GPa)
#
#
# Indices 1 2 3 4 5 6 
#
# 1 182.7903 34.5413 27.7110 0.0000 0.0000 0.0000
# 2 34.5413 75.0934 12.7977 0.0000 0.0000 0.0000
# 3 27.7110 12.7977 61.2515 0.0000 0.0000 0.0000
# 4 0.0000 0.0000 0.0000 3.9428 0.0000 0.0000
# 5 0.0000 0.0000 0.0000 0.0000 22.1617 0.0000
# 6 0.0000 0.0000 0.0000 0.0000 0.0000 30.7274
#
#
#
# Elastic Compliance Matrix: (Units=1/GPa)
#
#
# Indices 1 2 3 4 5 6 
#
# 1 0.006296 -0.002499 -0.002326 0.000000 0.000000 0.000000
# 2 -0.002499 0.014801 -0.001962 0.000000 0.000000 0.000000
# 3 -0.002326 -0.001962 0.017788 0.000000 0.000000 0.000000
# 4 0.000000 0.000000 0.000000 0.253625 0.000000 0.000000
# 5 0.000000 0.000000 0.000000 0.000000 0.045123 0.000000
# 6 0.000000 0.000000 0.000000 0.000000 0.000000 0.032544
#
#
# Mechanical properties :
#
#
# Convention : Reuss Voigt Hill
#
# Bulk Modulus (GPa) = 39.50926 52.13723 45.82325
# Shear Modulus (GPa) = 12.74900 27.63875 20.19387
#
# Velocity S-wave (km/s) = 2.42257 3.56696 3.04894
# Velocity P-wave (km/s) = 5.10027 6.40039 5.78696
#
# Compressibility (1/GPa) = 0.02531052
#
# Stress axis : x y z
#
# Youngs Moduli (GPa) = 158.83881 67.56413 56.21673
#
# Poissons Ratio (x) = 0.16887 0.13076
# Poissons Ratio (y) = 0.39701 0.11028
# Poissons Ratio (z) = 0.36946 0.13254
#
# Static dielectric constant tensor:
#      x y z
#    x 1.771770 0.000000 0.000000 
#    y 0.000000 1.929020 0.000000 
#    z 0.000000 0.000000 1.895690 
# 
# From -- ./inp_files/11639.got.cif
#   From: 2010.05.17/outbox.cif.g08.bks.cpg/sg54_6_cif.got.tgz:11639.got - 2010.06.03 13:09:01.
