data_PCOD9422442
_publ_section_title
;
Structure prediction by ZEFSAII (Michael W. Deem and Ramdas Pophale) SiO2 
 PCOD9422442
Probable space group: P C C A
;
_chemical_formula_sum "Si O2"
_cell_formula_units_Z 36
_cell_length_a 18.020249
_cell_length_b 5.718918
_cell_length_c 14.088038
_cell_angle_alpha 90.000000
_cell_angle_beta 90.000000
_cell_angle_gamma 90.000000
_cell_volume 1451.861442
_symmetry_space_group_name_H-M "P C C A"
_symmetry_group_IT_number 54
_symmetry_cell_setting 'orthorhombic'
loop_
_space_group_symop_operation_xyz
x,y,z
1/2-x,-y,z
1/2+x,-y,1/2-z
-x,y,1/2-z
-x,-y,-z
1/2+x,y,-z
1/2-x,y,1/2+z
x,-y,1/2+z
loop_
_atom_site_type_symbol
_atom_site_label
_atom_site_fract_x
_atom_site_fract_y
_atom_site_fract_z
Si Si1 0.287777 0.250227 0.426207
Si Si2 0.604387 0.526179 0.444717
Si Si3 0.500000 0.884168 0.750000
Si Si4 0.357487 0.573857 0.748606
Si Si5 0.447378 0.740693 0.392457
O O1 0.250000 0.500000 0.454055
O O2 0.365890 0.278496 0.481359
O O3 0.300381 0.282394 0.312940
O O4 0.250000 0.000000 0.444919
O O5 0.659985 0.516184 0.355889
O O6 0.523148 0.594676 0.406325
O O7 0.593803 0.290857 0.507202
O O8 0.427297 0.738990 0.728354
O O9 0.523277 0.028633 0.657040
O O10 0.390599 0.370648 0.815912
#
# Coordination Sequence:
#
# PCOD9422442 Si02
#       5
#     8   8   4   8   8
#     4  11  29  51  72 102 149 203 256 306 352 440
#     4  10  21  44  70 102 144 186 244 300 372 442
#     4  12  20  36  72 106 144 182 226 304 402 434
#     4  11  23  44  70 105 147 186 235 309 382 441
#     4  10  21  39  64 110 145 169 231 304 376 447
#
# _framework density 24.795753999999999
#
# number of rings (size 3 to 8) (size 9 to 14) (size 15 to 20)
#    0.000    1.333    4.444    0.000    6.222    3.556 
#    0.000    2.222    0.000    0.000    0.000    0.000 
#    0.000    0.000    0.000    0.000    0.000    0.000 
#
# Total GULP energy -201084.751166 kJ/mol
# GULP energy per Si atom -5585.687532 kJ/mol
# Density = 2.473932 g / cm^3
# Si number density = 24.795754 Si / 1000 Ang^3
#
#
#
# Elastic Constant Matrix: (Units=GPa)
#
#
# Indices 1 2 3 4 5 6 
#
# 1 70.5441 22.0521 7.6820 0.0000 0.0000 0.0000
# 2 22.0521 75.1511 -1.4824 0.0000 0.0000 0.0000
# 3 7.6820 -1.4824 144.8193 0.0000 0.0000 0.0000
# 4 0.0000 0.0000 0.0000 23.6803 0.0000 0.0000
# 5 0.0000 0.0000 0.0000 0.0000 13.1113 0.0000
# 6 0.0000 0.0000 0.0000 0.0000 0.0000 28.3933
#
#
#
# Elastic Compliance Matrix: (Units=1/GPa)
#
#
# Indices 1 2 3 4 5 6 
#
# 1 0.015719 -0.004630 -0.000881 0.000000 0.000000 0.000000
# 2 -0.004630 0.014673 0.000396 0.000000 0.000000 0.000000
# 3 -0.000881 0.000396 0.006956 0.000000 0.000000 0.000000
# 4 0.000000 0.000000 0.000000 0.042229 0.000000 0.000000
# 5 0.000000 0.000000 0.000000 0.000000 0.076270 0.000000
# 6 0.000000 0.000000 0.000000 0.000000 0.000000 0.035220
#
#
# Mechanical properties :
#
#
# Convention : Reuss Voigt Hill
#
# Bulk Modulus (GPa) = 36.87707 38.55752 37.71730
# Shear Modulus (GPa) = 23.77148 30.52116 27.14632
#
# Velocity S-wave (km/s) = 3.09963 3.51223 3.31236
# Velocity P-wave (km/s) = 5.26450 5.65964 5.46564
#
# Compressibility (1/GPa) = 0.02711712
#
# Stress axis : x y z
#
# Youngs Moduli (GPa) = 63.61817 68.15283 143.76178
#
# Poissons Ratio (x) = 0.31554 0.12668
# Poissons Ratio (y) = 0.29454 -0.05690
# Poissons Ratio (z) = 0.05606 -0.02697
#
# Static dielectric constant tensor:
#      x y z
#    x 2.056620 0.000000 0.000000 
#    y 0.000000 2.019360 0.000000 
#    z 0.000000 0.000000 2.092480 
# 
# From -- ./inp_files/14460.got.cif
#   From: 2010.05.17/outbox.cif.g08.bks.cpg/sg54_8_cif.got.tgz:14460.got - 2010.06.03 13:09:01.
