data_PCOD9422683
_publ_section_title
;
Structure prediction by ZEFSAII (Michael W. Deem and Ramdas Pophale) SiO2 
 PCOD9422683
Probable space group: P C C A
;
_chemical_formula_sum "Si O2"
_cell_formula_units_Z 24
_cell_length_a 5.542458
_cell_length_b 13.152738
_cell_length_c 14.121123
_cell_angle_alpha 90.000000
_cell_angle_beta 90.000000
_cell_angle_gamma 90.000000
_cell_volume 1029.408656
_symmetry_space_group_name_H-M "P C C A"
_symmetry_group_IT_number 54
_symmetry_cell_setting 'orthorhombic'
loop_
_space_group_symop_operation_xyz
x,y,z
1/2-x,-y,z
1/2+x,-y,1/2-z
-x,y,1/2-z
-x,-y,-z
1/2+x,y,-z
1/2-x,y,1/2+z
x,-y,1/2+z
loop_
_atom_site_type_symbol
_atom_site_label
_atom_site_fract_x
_atom_site_fract_y
_atom_site_fract_z
Si Si1 0.145162 0.864896 0.032699
Si Si2 0.250000 0.000000 0.197398
Si Si3 0.399045 0.633239 0.460152
Si Si4 0.500000 0.435570 0.750000
O O1 0.120989 0.748795 0.999571
O O2 0.373161 0.906000 0.973471
O O3 0.231795 0.896487 0.135969
O O4 0.500000 0.992996 0.250000
O O5 0.630206 0.591446 0.518248
O O6 0.460026 0.625387 0.348583
O O7 0.250000 0.500000 0.738181
#
# Coordination Sequence:
#
# PCOD9422683 Si02
#       4
#     8   4   8   4
#     4  10  21  43  66  93 142 186 228 287 349 412
#     4  12  24  40  66 108 140 186 246 294 338 410
#     4  10  23  45  68 103 142 185 227 291 358 423
#     4  12  26  44  74 110 138 182 242 292 358 436
#
# _framework density 23.314356
#
# number of rings (size 3 to 8) (size 9 to 14) (size 15 to 20)
#    0.000    1.333    0.000    5.000    0.000    4.000 
#   36.000    0.000    0.000    0.000    0.000    0.000 
#    0.000    0.000    0.000    0.000    0.000    0.000 
#
# Total GULP energy -133777.181265 kJ/mol
# GULP energy per Si atom -5574.049219 kJ/mol
# Density = 2.326129 g / cm^3
# Si number density = 23.314356 Si / 1000 Ang^3
#
#
#
# Elastic Constant Matrix: (Units=GPa)
#
#
# Indices 1 2 3 4 5 6 
#
# 1 214.3140 56.0098 69.9305 0.0000 0.0000 0.0000
# 2 56.0098 112.0302 50.0904 0.0000 0.0000 0.0000
# 3 69.9305 50.0904 171.5058 0.0000 0.0000 0.0000
# 4 0.0000 0.0000 0.0000 73.2720 0.0000 0.0000
# 5 0.0000 0.0000 0.0000 0.0000 49.3585 0.0000
# 6 0.0000 0.0000 0.0000 0.0000 0.0000 44.5417
#
#
#
# Elastic Compliance Matrix: (Units=1/GPa)
#
#
# Indices 1 2 3 4 5 6 
#
# 1 0.005787 -0.002114 -0.001742 0.000000 0.000000 0.000000
# 2 -0.002114 0.011039 -0.002362 0.000000 0.000000 0.000000
# 3 -0.001742 -0.002362 0.007231 0.000000 0.000000 0.000000
# 4 0.000000 0.000000 0.000000 0.013648 0.000000 0.000000
# 5 0.000000 0.000000 0.000000 0.000000 0.020260 0.000000
# 6 0.000000 0.000000 0.000000 0.000000 0.000000 0.022451
#
#
# Mechanical properties :
#
#
# Convention : Reuss Voigt Hill
#
# Bulk Modulus (GPa) = 86.05645 94.43458 90.24552
# Shear Modulus (GPa) = 51.69221 54.88909 53.29065
#
# Velocity S-wave (km/s) = 4.71381 4.85738 4.78613
# Velocity P-wave (km/s) = 8.16199 8.48833 8.32676
#
# Compressibility (1/GPa) = 0.01162028
#
# Stress axis : x y z
#
# Youngs Moduli (GPa) = 172.79888 90.58510 138.29493
#
# Poissons Ratio (x) = 0.19153 0.24093
# Poissons Ratio (y) = 0.36535 0.32666
# Poissons Ratio (z) = 0.30104 0.21397
#
# Static dielectric constant tensor:
#      x y z
#    x 3.763320 0.000000 0.000000 
#    y 0.000000 1.785290 0.000000 
#    z 0.000000 0.000000 1.876540 
# 
# From -- ./inp_files/6153.got.cif
#   From: 2010.05.17/outbox.cif.g08.bks.cpg/sg54_4_cif.got.tgz:6153.got - 2010.06.03 13:09:01.
