data_PCOD9422786
_publ_section_title
;
Structure prediction by ZEFSAII (Michael W. Deem and Ramdas Pophale) SiO2 
 PCOD9422786
Probable space group: P C C A
;
_chemical_formula_sum "Si O2"
_cell_formula_units_Z 60
_cell_length_a 17.349409
_cell_length_b 18.612893
_cell_length_c 9.123591
_cell_angle_alpha 90.000000
_cell_angle_beta 90.000000
_cell_angle_gamma 90.000000
_cell_volume 2946.214579
_symmetry_space_group_name_H-M "P C C A"
_symmetry_group_IT_number 54
_symmetry_cell_setting 'orthorhombic'
loop_
_space_group_symop_operation_xyz
x,y,z
1/2-x,-y,z
1/2+x,-y,1/2-z
-x,y,1/2-z
-x,-y,-z
1/2+x,y,-z
1/2-x,y,1/2+z
x,-y,1/2+z
loop_
_atom_site_type_symbol
_atom_site_label
_atom_site_fract_x
_atom_site_fract_y
_atom_site_fract_z
Si Si1 0.175267 0.090387 0.662107
Si Si2 0.273942 0.776775 0.040097
Si Si3 0.565643 0.455683 0.417244
Si Si4 0.166332 0.465140 0.310644
Si Si5 0.250000 0.000000 0.921026
Si Si6 0.334698 0.698928 0.320891
Si Si7 0.906268 0.797264 0.187199
Si Si8 0.049871 0.289749 0.565036
O O1 0.221587 0.157074 0.591678
O O2 0.096406 0.127863 0.720878
O O3 0.184299 0.031444 0.531900
O O4 0.215834 0.057838 0.806673
O O5 0.315252 0.747911 0.184353
O O6 0.227161 0.716376 0.948839
O O7 0.338478 0.802864 0.927769
O O8 0.500000 0.500000 0.500000
O O9 0.598338 0.490944 0.269995
O O10 0.641017 0.458558 0.520732
O O11 0.536273 0.373867 0.407222
O O12 0.250000 0.500000 0.293127
O O13 0.167180 0.382251 0.262630
O O14 0.415061 0.715497 0.403357
O O15 0.890514 0.735775 0.309235
O O16 0.979642 0.764386 0.100342
#
# Coordination Sequence:
#
# PCOD9422786 Si02
#       8
#     8   8   8   8   4   8   8   8
#     4  11  20  40  65 108 129 173 203 267 308 397
#     4  12  22  39  68  96 131 166 222 277 326 391
#     4  11  26  45  63  88 129 179 234 281 354 422
#     4  11  27  40  64  92 129 170 227 298 354 408
#     4  10  22  36  70 106 142 162 212 248 330 388
#     4  11  24  39  62  94 129 168 225 280 348 390
#     4  11  23  40  69  92 131 170 224 269 324 388
#     4  10  25  43  63  91 124 186 225 278 337 398
#
# _framework density 20.365114999999999
#
# number of rings (size 3 to 8) (size 9 to 14) (size 15 to 20)
#    0.000    1.067    4.000    0.800   13.067    0.533 
#    0.000    0.000    0.000    3.200    0.000    0.000 
#    0.000    0.000    0.000    0.000    0.000    0.000 
#
# Total GULP energy -334392.003563 kJ/mol
# GULP energy per Si atom -5573.200059 kJ/mol
# Density = 2.031876 g / cm^3
# Si number density = 20.365115 Si / 1000 Ang^3
#
#
#
# Elastic Constant Matrix: (Units=GPa)
#
#
# Indices 1 2 3 4 5 6 
#
# 1 75.7924 38.3777 18.2624 0.0000 0.0000 0.0000
# 2 38.3777 85.6658 22.4658 0.0000 0.0000 0.0000
# 3 18.2624 22.4658 71.2796 0.0000 0.0000 0.0000
# 4 0.0000 0.0000 0.0000 34.3577 0.0000 0.0000
# 5 0.0000 0.0000 0.0000 0.0000 6.3558 0.0000
# 6 0.0000 0.0000 0.0000 0.0000 0.0000 33.9675
#
#
#
# Elastic Compliance Matrix: (Units=1/GPa)
#
#
# Indices 1 2 3 4 5 6 
#
# 1 0.017370 -0.007210 -0.002178 0.000000 0.000000 0.000000
# 2 -0.007210 0.015718 -0.003107 0.000000 0.000000 0.000000
# 3 -0.002178 -0.003107 0.015566 0.000000 0.000000 0.000000
# 4 0.000000 0.000000 0.000000 0.029106 0.000000 0.000000
# 5 0.000000 0.000000 0.000000 0.000000 0.157336 0.000000
# 6 0.000000 0.000000 0.000000 0.000000 0.000000 0.029440
#
#
# Mechanical properties :
#
#
# Convention : Reuss Voigt Hill
#
# Bulk Modulus (GPa) = 42.25701 43.43883 42.84792
# Shear Modulus (GPa) = 16.81162 25.17833 20.99498
#
# Velocity S-wave (km/s) = 2.87629 3.51999 3.21429
# Velocity P-wave (km/s) = 5.64141 6.15603 5.90433
#
# Compressibility (1/GPa) = 0.02366471
#
# Stress axis : x y z
#
# Youngs Moduli (GPa) = 57.57162 63.62052 64.24110
#
# Poissons Ratio (x) = 0.45873 0.13990
# Poissons Ratio (y) = 0.41511 0.19958
# Poissons Ratio (z) = 0.12537 0.19765
#
# Static dielectric constant tensor:
#      x y z
#    x 1.802410 0.000000 0.000000 
#    y 0.000000 1.745460 0.000000 
#    z 0.000000 0.000000 1.755180 
# 
# From -- ./inp_files/4350.got.cif
#   From: 2010.05.17/outbox.cif.g08.bks.cpg/sg54_3_cif.got.tgz:4350.got - 2010.06.03 13:09:01.
