data_PCOD9422824
_publ_section_title
;
Structure prediction by ZEFSAII (Michael W. Deem and Ramdas Pophale) SiO2 
 PCOD9422824
Probable space group: P C C A
;
_chemical_formula_sum "Si O2"
_cell_formula_units_Z 60
_cell_length_a 25.970098
_cell_length_b 9.297731
_cell_length_c 11.796761
_cell_angle_alpha 90.000000
_cell_angle_beta 90.000000
_cell_angle_gamma 90.000000
_cell_volume 2848.481127
_symmetry_space_group_name_H-M "P C C A"
_symmetry_group_IT_number 54
_symmetry_cell_setting 'orthorhombic'
loop_
_space_group_symop_operation_xyz
x,y,z
1/2-x,-y,z
1/2+x,-y,1/2-z
-x,y,1/2-z
-x,-y,-z
1/2+x,y,-z
1/2-x,y,1/2+z
x,-y,1/2+z
loop_
_atom_site_type_symbol
_atom_site_label
_atom_site_fract_x
_atom_site_fract_y
_atom_site_fract_z
Si Si1 0.393895 0.032677 0.510772
Si Si2 0.135590 0.727184 0.664439
Si Si3 0.208863 0.882967 0.385995
Si Si4 0.422574 0.244359 0.895743
Si Si5 0.741281 0.330630 0.946382
Si Si6 0.906550 0.584085 0.369834
Si Si7 0.665778 0.813825 0.837415
Si Si8 0.000000 0.566655 0.750000
O O1 0.430091 0.920485 0.441521
O O2 0.368347 0.934447 0.606784
O O3 0.402771 0.177215 0.584231
O O4 0.347718 0.075848 0.427996
O O5 0.121071 0.755114 0.796088
O O6 0.196278 0.738813 0.633667
O O7 0.124291 0.563823 0.629604
O O8 0.223355 0.725386 0.431147
O O9 0.203743 0.879903 0.253052
O O10 0.250000 0.000000 0.426921
O O11 0.469194 0.327528 0.834565
O O12 0.409930 0.339370 0.007534
O O13 0.750000 0.500000 0.933605
O O14 0.796916 0.262604 0.925672
O O15 0.874212 0.694666 0.291954
O O16 0.960984 0.536520 0.318075
#
# Coordination Sequence:
#
# PCOD9422824 Si02
#       8
#     8   8   8   8   8   8   8   4
#     4  10  22  40  59  90 128 169 213 262 310 384
#     4  10  22  38  63  91 132 172 211 257 317 385
#     4  11  24  37  62  89 131 182 215 254 307 376
#     4  10  22  42  69  92 126 166 211 273 331 389
#     4  11  23  40  55  90 133 171 217 257 308 376
#     4  10  22  43  65  95 126 163 212 273 327 396
#     4  11  23  38  58  90 128 167 217 254 314 374
#     4  10  22  42  72 100 120 166 216 276 350 398
#
# _framework density 21.063858
#
# number of rings (size 3 to 8) (size 9 to 14) (size 15 to 20)
#    0.000    1.600    2.667    1.200    5.600    4.800 
#    0.000    2.667    0.000   19.200    0.000    0.000 
#    0.000    0.000    0.000    0.000    0.000    0.000 
#
# Total GULP energy -334296.580772 kJ/mol
# GULP energy per Si atom -5571.609680 kJ/mol
# Density = 2.101592 g / cm^3
# Si number density = 21.063858 Si / 1000 Ang^3
#
#
#
# Elastic Constant Matrix: (Units=GPa)
#
#
# Indices 1 2 3 4 5 6 
#
# 1 64.7417 3.2345 14.5524 0.0000 0.0000 0.0000
# 2 3.2345 89.8717 17.0528 0.0000 0.0000 0.0000
# 3 14.5524 17.0528 65.6068 0.0000 0.0000 0.0000
# 4 0.0000 0.0000 0.0000 -149.5796 0.0000 0.0000
# 5 0.0000 0.0000 0.0000 0.0000 31.7990 0.0000
# 6 0.0000 0.0000 0.0000 0.0000 0.0000 29.9789
#
#
#
# Elastic Compliance Matrix: (Units=1/GPa)
#
#
# Indices 1 2 3 4 5 6 
#
# 1 0.016257 0.000104 -0.003633 0.000000 0.000000 0.000000
# 2 0.000104 0.011705 -0.003066 0.000000 0.000000 0.000000
# 3 -0.003633 -0.003066 0.016845 0.000000 0.000000 0.000000
# 4 0.000000 0.000000 0.000000 -0.006685 0.000000 0.000000
# 5 0.000000 0.000000 0.000000 0.000000 0.031448 0.000000
# 6 0.000000 0.000000 0.000000 0.000000 0.000000 0.033357
#
#
# Mechanical properties :
#
#
# Convention : Reuss Voigt Hill
#
# Bulk Modulus (GPa) = 31.62710 32.21107 31.91908
# Shear Modulus (GPa) = 39.47745 -5.20163 17.13791
#
# Velocity S-wave (km/s) = 4.33388 -1.57316 2.85549
# Velocity P-wave (km/s) = 6.33173 3.46779 5.10472
#
# Compressibility (1/GPa) = 0.03161846
#
# Stress axis : x y z
#
# Youngs Moduli (GPa) = 61.51034 85.43441 59.36483
#
# Poissons Ratio (x) = -0.00891 0.21568
# Poissons Ratio (y) = -0.00641 0.18198
# Poissons Ratio (z) = 0.22348 0.26190
#
# Static dielectric constant tensor:
#      x y z
#    x 1.791910 0.000000 0.000000 
#    y 0.000000 1.784600 0.000000 
#    z 0.000000 0.000000 1.799420 
# 
# From -- ./inp_files/10359.got.cif
#   From: 2010.05.17/outbox.cif.g08.bks.cpg/sg54_6_cif.got.tgz:10359.got - 2010.06.03 13:09:01.
