data_PCOD9422376
_publ_section_title
;
Structure prediction by ZEFSAII (Michael W. Deem and Ramdas Pophale) SiO2 
 PCOD9422376
Probable space group: P C C A
;
_chemical_formula_sum "Si O2"
_cell_formula_units_Z 60
_cell_length_a 23.037740
_cell_length_b 5.058376
_cell_length_c 25.700307
_cell_angle_alpha 90.000000
_cell_angle_beta 90.000000
_cell_angle_gamma 90.000000
_cell_volume 2994.948039
_symmetry_space_group_name_H-M "P C C A"
_symmetry_group_IT_number 54
_symmetry_cell_setting 'orthorhombic'
loop_
_space_group_symop_operation_xyz
x,y,z
1/2-x,-y,z
1/2+x,-y,1/2-z
-x,y,1/2-z
-x,-y,-z
1/2+x,y,-z
1/2-x,y,1/2+z
x,-y,1/2+z
loop_
_atom_site_type_symbol
_atom_site_label
_atom_site_fract_x
_atom_site_fract_y
_atom_site_fract_z
Si Si1 0.750000 0.000000 0.523763
Si Si2 0.930894 0.254059 0.253838
Si Si3 0.926693 0.837452 0.873916
Si Si4 0.000100 0.661996 0.393482
Si Si5 0.865096 0.999407 0.469447
Si Si6 0.308371 0.385708 0.392219
Si Si7 0.902640 0.522742 0.530429
Si Si8 0.597831 0.736217 0.690475
O O1 0.801484 0.902352 0.486485
O O2 0.719481 0.795276 0.562714
O O3 0.917672 0.160602 0.312347
O O4 0.897543 0.516961 0.235600
O O5 0.000000 0.303653 0.250000
O O6 0.915470 0.018548 0.214753
O O7 0.947300 0.541649 0.887396
O O8 0.874093 0.943368 0.908916
O O9 0.978130 0.037567 0.891307
O O10 0.038621 0.572156 0.442194
O O11 0.043363 0.640421 0.344319
O O12 0.907269 0.779203 0.494480
O O13 0.879935 0.276816 0.496859
O O14 0.250000 0.500000 0.366961
O O15 0.354325 0.571395 0.423675
O O16 0.347771 0.250449 0.348578
#
# Coordination Sequence:
#
# PCOD9422376 Si02
#       8
#     4   8   8   8   8   8   8   8
#     4  10  22  42  66  84 126 156 200 252 314 366
#     4  12  22  41  61  88 123 167 199 252 302 364
#     4  12  24  36  61  84 120 164 211 231 296 365
#     4  11  21  37  57  92 122 158 193 249 293 369
#     4  11  23  39  58  88 113 167 197 245 297 365
#     4  10  21  38  66  93 119 154 201 258 308 374
#     4  10  22  37  59  89 126 152 196 238 313 351
#     4  11  23  37  65  92 120 158 207 252 315 359
#
# _framework density 20.033736000000001
#
# number of rings (size 3 to 8) (size 9 to 14) (size 15 to 20)
#    0.000    1.067    4.000    2.800    1.867    5.333 
#    0.000    0.000    2.933    0.000    0.000    0.000 
#    0.000    0.000    0.000    0.000    0.000    0.000 
#
# Total GULP energy -335055.862446 kJ/mol
# GULP energy per Si atom -5584.264374 kJ/mol
# Density = 1.998814 g / cm^3
# Si number density = 20.033736 Si / 1000 Ang^3
#
#
#
# Elastic Constant Matrix: (Units=GPa)
#
#
# Indices 1 2 3 4 5 6 
#
# 1 61.3920 -0.2866 31.5413 0.0000 0.0000 0.0000
# 2 -0.2866 55.1032 -9.2935 0.0000 0.0000 0.0000
# 3 31.5413 -9.2935 71.8357 0.0000 0.0000 0.0000
# 4 0.0000 0.0000 0.0000 26.6366 0.0000 0.0000
# 5 0.0000 0.0000 0.0000 0.0000 30.0308 0.0000
# 6 0.0000 0.0000 0.0000 0.0000 0.0000 13.5165
#
#
#
# Elastic Compliance Matrix: (Units=1/GPa)
#
#
# Indices 1 2 3 4 5 6 
#
# 1 0.021152 -0.001489 -0.009480 0.000000 0.000000 0.000000
# 2 -0.001489 0.018657 0.003067 0.000000 0.000000 0.000000
# 3 -0.009480 0.003067 0.018480 0.000000 0.000000 0.000000
# 4 0.000000 0.000000 0.000000 0.037542 0.000000 0.000000
# 5 0.000000 0.000000 0.000000 0.000000 0.033299 0.000000
# 6 0.000000 0.000000 0.000000 0.000000 0.000000 0.073984
#
#
# Mechanical properties :
#
#
# Convention : Reuss Voigt Hill
#
# Bulk Modulus (GPa) = 23.53678 25.80592 24.67135
# Shear Modulus (GPa) = 21.45186 25.12810 23.28998
#
# Velocity S-wave (km/s) = 3.27584 3.54544 3.41330
# Velocity P-wave (km/s) = 5.10708 5.44696 5.27975
#
# Compressibility (1/GPa) = 0.04248670
#
# Stress axis : x y z
#
# Youngs Moduli (GPa) = 47.27597 53.59814 54.11259
#
# Poissons Ratio (x) = 0.07980 0.51299
# Poissons Ratio (y) = 0.07039 -0.16599
# Poissons Ratio (z) = 0.44818 -0.16441
#
# Static dielectric constant tensor:
#      x y z
#    x 1.743830 0.000000 0.000000 
#    y 0.000000 1.738360 0.000000 
#    z 0.000000 0.000000 1.735600 
# 
# From -- ./inp_files/24797.got.cif
#   From: 2010.05.17/outbox.cif.g08.bks.cpg/sg54_13_cif.got.tgz:24797.got - 2010.06.03 13:09:01.
