data_PCOD9422715
_publ_section_title
;
Structure prediction by ZEFSAII (Michael W. Deem and Ramdas Pophale) SiO2 
 PCOD9422715
Probable space group: P C C A
;
_chemical_formula_sum "Si O2"
_cell_formula_units_Z 48
_cell_length_a 24.732432
_cell_length_b 8.171054
_cell_length_c 9.379025
_cell_angle_alpha 90.000000
_cell_angle_beta 90.000000
_cell_angle_gamma 90.000000
_cell_volume 1895.407513
_symmetry_space_group_name_H-M "P C C A"
_symmetry_group_IT_number 54
_symmetry_cell_setting 'orthorhombic'
loop_
_space_group_symop_operation_xyz
x,y,z
1/2-x,-y,z
1/2+x,-y,1/2-z
-x,y,1/2-z
-x,-y,-z
1/2+x,y,-z
1/2-x,y,1/2+z
x,-y,1/2+z
loop_
_atom_site_type_symbol
_atom_site_label
_atom_site_fract_x
_atom_site_fract_y
_atom_site_fract_z
Si Si1 0.648151 0.222619 0.260855
Si Si2 0.204177 0.137962 0.166192
Si Si3 0.951679 0.409452 0.636571
Si Si4 0.620149 0.979440 0.013867
Si Si5 0.750914 0.680817 0.601023
Si Si6 0.479437 0.769579 0.410010
O O1 0.599189 0.335893 0.215207
O O2 0.646019 0.173157 0.425859
O O3 0.701927 0.311522 0.214551
O O4 0.640761 0.057523 0.162382
O O5 0.200421 0.259212 0.299727
O O6 0.250000 0.000000 0.214498
O O7 0.144230 0.113476 0.097053
O O8 0.235216 0.202099 0.026511
O O9 0.945558 0.598134 0.590884
O O10 0.000000 0.410377 0.750000
O O11 0.970711 0.287565 0.510222
O O12 0.558674 0.916474 0.033729
O O13 0.750000 0.500000 0.541891
O O14 0.500000 0.806168 0.250000
#
# Coordination Sequence:
#
# PCOD9422715 Si02
#       6
#     8   8   8   8   8   8
#     4  11  25  44  66 103 137 181 232 295 341 426
#     4  11  23  44  71  97 142 182 232 295 357 424
#     4  10  21  44  68  98 140 181 232 286 344 409
#     4  11  25  43  66 102 134 182 232 281 352 418
#     4  11  25  46  70 103 139 185 237 296 359 425
#     4  10  23  43  70  99 139 189 227 287 352 419
#
# _framework density 25.324368
#
# number of rings (size 3 to 8) (size 9 to 14) (size 15 to 20)
#    0.000    1.333    3.333    1.000    4.667    2.667 
#    6.000    0.000    0.000    0.000    0.000    0.000 
#    0.000    0.000    0.000    0.000    0.000    0.000 
#
# Total GULP energy -267874.666745 kJ/mol
# GULP energy per Si atom -5580.722224 kJ/mol
# Density = 2.526673 g / cm^3
# Si number density = 25.324368 Si / 1000 Ang^3
#
#
#
# Elastic Constant Matrix: (Units=GPa)
#
#
# Indices 1 2 3 4 5 6 
#
# 1 96.9245 29.8961 11.2901 0.0000 0.0000 0.0000
# 2 29.8961 88.2500 4.3083 0.0000 0.0000 0.0000
# 3 11.2901 4.3083 114.7141 0.0000 0.0000 0.0000
# 4 0.0000 0.0000 0.0000 21.6475 0.0000 0.0000
# 5 0.0000 0.0000 0.0000 0.0000 40.3477 0.0000
# 6 0.0000 0.0000 0.0000 0.0000 0.0000 21.1433
#
#
#
# Elastic Compliance Matrix: (Units=1/GPa)
#
#
# Indices 1 2 3 4 5 6 
#
# 1 0.011634 -0.003893 -0.000999 0.000000 0.000000 0.000000
# 2 -0.003893 0.012655 -0.000092 0.000000 0.000000 0.000000
# 3 -0.000999 -0.000092 0.008819 0.000000 0.000000 0.000000
# 4 0.000000 0.000000 0.000000 0.046195 0.000000 0.000000
# 5 0.000000 0.000000 0.000000 0.000000 0.024785 0.000000
# 6 0.000000 0.000000 0.000000 0.000000 0.000000 0.047296
#
#
# Mechanical properties :
#
#
# Convention : Reuss Voigt Hill
#
# Bulk Modulus (GPa) = 43.21358 43.43086 43.32222
# Shear Modulus (GPa) = 29.57455 33.58731 31.58093
#
# Velocity S-wave (km/s) = 3.42106 3.64577 3.53520
# Velocity P-wave (km/s) = 5.71891 5.90840 5.81443
#
# Compressibility (1/GPa) = 0.02314087
#
# Stress axis : x y z
#
# Youngs Moduli (GPa) = 85.95272 79.02259 113.39035
#
# Poissons Ratio (x) = 0.30760 0.11326
# Poissons Ratio (y) = 0.33457 0.01045
# Poissons Ratio (z) = 0.08585 0.00728
#
# Static dielectric constant tensor:
#      x y z
#    x 2.102970 0.000000 0.000000 
#    y 0.000000 2.254580 0.000000 
#    z 0.000000 0.000000 1.980390 
# 
# From -- ./inp_files/5857.got.cif
#   From: 2010.05.17/outbox.cif.g08.bks.cpg/sg54_3_cif.got.tgz:5857.got - 2010.06.03 13:09:01.
