data_PCOD9422764
_publ_section_title
;
Structure prediction by ZEFSAII (Michael W. Deem and Ramdas Pophale) SiO2 
 PCOD9422764
Probable space group: P C C A
;
_chemical_formula_sum "Si O2"
_cell_formula_units_Z 48
_cell_length_a 7.496357
_cell_length_b 19.023769
_cell_length_c 13.835415
_cell_angle_alpha 90.000000
_cell_angle_beta 90.000000
_cell_angle_gamma 90.000000
_cell_volume 1973.054198
_symmetry_space_group_name_H-M "P C C A"
_symmetry_group_IT_number 54
_symmetry_cell_setting 'orthorhombic'
loop_
_space_group_symop_operation_xyz
x,y,z
1/2-x,-y,z
1/2+x,-y,1/2-z
-x,y,1/2-z
-x,-y,-z
1/2+x,y,-z
1/2-x,y,1/2+z
x,-y,1/2+z
loop_
_atom_site_type_symbol
_atom_site_label
_atom_site_fract_x
_atom_site_fract_y
_atom_site_fract_z
Si Si1 0.143101 0.719118 0.163235
Si Si2 0.000000 0.295458 0.250000
Si Si3 0.978795 0.419254 0.632154
Si Si4 0.500000 0.948409 0.250000
Si Si5 0.250000 0.500000 0.996865
Si Si6 0.750000 0.000000 0.403141
Si Si7 0.175548 0.167379 0.352081
Si Si8 0.191169 0.846794 0.539801
O O1 0.331191 0.675163 0.189895
O O2 0.209713 0.786732 0.103052
O O3 0.000000 0.738411 0.250000
O O4 0.032773 0.660174 0.106930
O O5 0.875333 0.241893 0.190053
O O6 0.792344 0.437456 0.580219
O O7 0.000000 0.426520 0.750000
O O8 0.102977 0.472583 0.572781
O O9 0.426776 0.993937 0.163031
O O10 0.334924 0.895481 0.275328
O O11 0.737417 0.073465 0.457903
O O12 0.329740 0.172859 0.428007
O O13 0.003726 0.149607 0.416025
#
# Coordination Sequence:
#
# PCOD9422764 Si02
#       8
#     8   4   8   4   4   4   8   8
#     4  10  23  42  64  99 134 174 229 273 347 412
#     4   9  20  42  60  88 134 173 210 276 332 397
#     4  10  22  44  68 108 141 186 235 283 349 429
#     4   9  20  36  52  74 108 149 208 266 334 401
#     4  10  22  44  74  98 148 184 230 288 344 422
#     4  10  22  36  54  84 110 160 222 266 338 400
#     4   9  20  37  55  80 115 157 209 272 335 392
#     4  10  22  36  57  88 118 161 222 273 333 406
#
# _framework density 24.327763999999998
#
# number of rings (size 3 to 8) (size 9 to 14) (size 15 to 20)
#    0.000    2.333    0.000    1.500    3.500    7.333 
#   16.500    0.000    0.000    0.000    0.000    0.000 
#    0.000    0.000    0.000    0.000    0.000    0.000 
#
# Total GULP energy -267247.708588 kJ/mol
# GULP energy per Si atom -5567.660596 kJ/mol
# Density = 2.427239 g / cm^3
# Si number density = 24.327764 Si / 1000 Ang^3
#
#
#
# Elastic Constant Matrix: (Units=GPa)
#
#
# Indices 1 2 3 4 5 6 
#
# 1 69.0512 12.1946 8.8249 0.0000 0.0000 0.0000
# 2 12.1946 79.9689 11.5239 0.0000 0.0000 0.0000
# 3 8.8249 11.5239 77.3741 0.0000 0.0000 0.0000
# 4 0.0000 0.0000 0.0000 -12.6123 0.0000 0.0000
# 5 0.0000 0.0000 0.0000 0.0000 24.8669 0.0000
# 6 0.0000 0.0000 0.0000 0.0000 0.0000 -11.0668
#
#
#
# Elastic Compliance Matrix: (Units=1/GPa)
#
#
# Indices 1 2 3 4 5 6 
#
# 1 0.015030 -0.002090 -0.001403 0.000000 0.000000 0.000000
# 2 -0.002090 0.013070 -0.001708 0.000000 0.000000 0.000000
# 3 -0.001403 -0.001708 0.013339 0.000000 0.000000 0.000000
# 4 0.000000 0.000000 0.000000 -0.079287 0.000000 0.000000
# 5 0.000000 0.000000 0.000000 0.000000 0.040214 0.000000
# 6 0.000000 0.000000 0.000000 0.000000 0.000000 -0.090361
#
#
# Mechanical properties :
#
#
# Convention : Reuss Voigt Hill
#
# Bulk Modulus (GPa) = 32.22002 32.38677 32.30340
# Shear Modulus (GPa) = -74.35206 13.16096 -30.59555
#
# Velocity S-wave (km/s) = -5.53435 2.32843 -3.55017
# Velocity P-wave (km/s) = 5.25031 4.53546 1.87021
#
# Compressibility (1/GPa) = 0.03103660
#
# Stress axis : x y z
#
# Youngs Moduli (GPa) = 66.53195 76.51287 74.97008
#
# Poissons Ratio (x) = 0.15990 0.10519
# Poissons Ratio (y) = 0.13904 0.12807
# Poissons Ratio (z) = 0.09335 0.13070
#
# Static dielectric constant tensor:
#      x y z
#    x 2.083960 0.000000 0.000000 
#    y 0.000000 1.920750 0.000000 
#    z 0.000000 0.000000 2.122840 
# 
# From -- ./inp_files/11825.got.cif
#   From: 2010.05.17/outbox.cif.g08.bks.cpg/sg54_6_cif.got.tgz:11825.got - 2010.06.03 13:09:01.
