data_PCOD9422754
_publ_section_title
;
Structure prediction by ZEFSAII (Michael W. Deem and Ramdas Pophale) SiO2 
 PCOD9422754
Probable space group: P C C A
;
_chemical_formula_sum "Si O2"
_cell_formula_units_Z 64
_cell_length_a 9.517097
_cell_length_b 15.524365
_cell_length_c 24.409620
_cell_angle_alpha 90.000000
_cell_angle_beta 90.000000
_cell_angle_gamma 90.000000
_cell_volume 3606.445382
_symmetry_space_group_name_H-M "P C C A"
_symmetry_group_IT_number 54
_symmetry_cell_setting 'orthorhombic'
loop_
_space_group_symop_operation_xyz
x,y,z
1/2-x,-y,z
1/2+x,-y,1/2-z
-x,y,1/2-z
-x,-y,-z
1/2+x,y,-z
1/2-x,y,1/2+z
x,-y,1/2+z
loop_
_atom_site_type_symbol
_atom_site_label
_atom_site_fract_x
_atom_site_fract_y
_atom_site_fract_z
Si Si1 0.706152 0.802177 0.913147
Si Si2 0.464355 0.325061 0.575502
Si Si3 0.167021 0.088927 0.688759
Si Si4 0.187198 0.797289 0.905835
Si Si5 0.448126 0.302868 0.446997
Si Si6 0.164348 0.911169 0.315456
Si Si7 0.130309 0.063970 0.490510
Si Si8 0.578889 0.495150 0.058362
O O1 0.815126 0.723383 0.921036
O O2 0.729935 0.845151 0.854651
O O3 0.555048 0.758101 0.916230
O O4 0.691942 0.880186 0.958133
O O5 0.570901 0.270206 0.612058
O O6 0.496271 0.312808 0.510209
O O7 0.502409 0.424644 0.588239
O O8 0.178496 0.117077 0.752026
O O9 0.001948 0.075736 0.674962
O O10 0.250000 0.000000 0.683476
O O11 0.298178 0.744083 0.942858
O O12 0.270040 0.843970 0.857748
O O13 0.105615 0.866634 0.943206
O O14 0.445462 0.397997 0.421225
O O15 0.250000 0.000000 0.321515
O O16 0.250000 0.000000 0.470273
O O17 0.000000 0.000000 0.500000
O O18 0.750000 0.500000 0.052983
O O19 0.500000 0.500000 0.000000
#
# Coordination Sequence:
#
# PCOD9422754 Si02
#       8
#     8   8   8   8   8   8   8   8
#     4  12  23  37  56  82 115 153 190 238 287 335
#     4  11  22  36  55  85 119 149 185 233 282 352
#     4  10  23  42  58  81 113 148 200 249 286 327
#     4  12  21  37  58  82 113 153 193 235 281 340
#     4  11  20  38  56  81 120 150 186 234 276 352
#     4  10  23  40  61  82 107 153 202 245 284 330
#     4  12  24  35  50  77 119 155 188 226 281 345
#     4  10  22  35  55  82 116 155 188 226 289 344
#
# _framework density 17.746005
#
# number of rings (size 3 to 8) (size 9 to 14) (size 15 to 20)
#    0.000    1.000    5.000    2.250    8.750    0.000 
#    0.000    0.000    0.000    0.000    0.000    5.250 
#    0.000    0.000    0.000    0.000    0.000    0.000 
#
# Total GULP energy -356671.766663 kJ/mol
# GULP energy per Si atom -5572.996354 kJ/mol
# Density = 1.770561 g / cm^3
# Si number density = 17.746005 Si / 1000 Ang^3
#
#
#
# Elastic Constant Matrix: (Units=GPa)
#
#
# Indices 1 2 3 4 5 6 
#
# 1 54.8483 10.3098 3.5080 0.0000 0.0000 0.0000
# 2 10.3098 102.2374 24.5618 0.0000 0.0000 0.0000
# 3 3.5080 24.5618 49.7592 0.0000 0.0000 0.0000
# 4 0.0000 0.0000 0.0000 14.1539 0.0000 0.0000
# 5 0.0000 0.0000 0.0000 0.0000 19.6571 0.0000
# 6 0.0000 0.0000 0.0000 0.0000 0.0000 30.5429
#
#
#
# Elastic Compliance Matrix: (Units=1/GPa)
#
#
# Indices 1 2 3 4 5 6 
#
# 1 0.018593 -0.001770 -0.000437 0.000000 0.000000 0.000000
# 2 -0.001770 0.011266 -0.005436 0.000000 0.000000 0.000000
# 3 -0.000437 -0.005436 0.022811 0.000000 0.000000 0.000000
# 4 0.000000 0.000000 0.000000 0.070652 0.000000 0.000000
# 5 0.000000 0.000000 0.000000 0.000000 0.050872 0.000000
# 6 0.000000 0.000000 0.000000 0.000000 0.000000 0.032741
#
#
# Mechanical properties :
#
#
# Convention : Reuss Voigt Hill
#
# Bulk Modulus (GPa) = 26.75011 31.51158 29.13085
# Shear Modulus (GPa) = 21.30551 24.10182 22.70366
#
# Velocity S-wave (km/s) = 3.46870 3.68931 3.58071
# Velocity P-wave (km/s) = 5.58114 5.99530 5.79192
#
# Compressibility (1/GPa) = 0.03738302
#
# Stress axis : x y z
#
# Youngs Moduli (GPa) = 53.78438 88.76561 43.83864
#
# Poissons Ratio (x) = 0.15711 0.01916
# Poissons Ratio (y) = 0.09519 0.23831
# Poissons Ratio (z) = 0.02351 0.48254
#
# Static dielectric constant tensor:
#      x y z
#    x 1.745120 0.000000 0.000000 
#    y 0.000000 1.574310 0.000000 
#    z 0.000000 0.000000 1.624460 
# 
# From -- ./inp_files/23685.got.cif
#   From: 2010.05.17/outbox.cif.g08.bks.cpg/sg54_12_cif.got.tgz:23685.got - 2010.06.03 13:09:01.
