data_PCOD9422412
_publ_section_title
;
Structure prediction by ZEFSAII (Michael W. Deem and Ramdas Pophale) SiO2 
 PCOD9422412
Probable space group: P C C A
;
_chemical_formula_sum "Si O2"
_cell_formula_units_Z 32
_cell_length_a 24.588618
_cell_length_b 6.267381
_cell_length_c 9.373539
_cell_angle_alpha 90.000000
_cell_angle_beta 90.000000
_cell_angle_gamma 90.000000
_cell_volume 1444.520825
_symmetry_space_group_name_H-M "P C C A"
_symmetry_group_IT_number 54
_symmetry_cell_setting 'orthorhombic'
loop_
_space_group_symop_operation_xyz
x,y,z
1/2-x,-y,z
1/2+x,-y,1/2-z
-x,y,1/2-z
-x,-y,-z
1/2+x,y,-z
1/2-x,y,1/2+z
x,-y,1/2+z
loop_
_atom_site_type_symbol
_atom_site_label
_atom_site_fract_x
_atom_site_fract_y
_atom_site_fract_z
Si Si1 0.959388 0.701611 0.498600
Si Si2 0.000000 0.021459 0.250000
Si Si3 0.347146 0.231246 0.109050
Si Si4 0.750000 0.500000 0.462486
Si Si5 0.194804 0.109218 0.881130
O O1 0.897491 0.645444 0.459392
O O2 0.000000 0.500000 0.500000
O O3 0.974131 0.867096 0.370514
O O4 0.963681 0.821747 0.650737
O O5 0.295206 0.381258 0.127413
O O6 0.328466 0.043682 0.003683
O O7 0.352947 0.137796 0.266602
O O8 0.716814 0.672374 0.553151
O O9 0.250000 0.000000 0.818449
#
# Coordination Sequence:
#
# PCOD9422412 Si02
#       5
#     8   4   8   4   8
#     4  11  24  43  67  94 127 170 219 271 330 390
#     4  10  24  44  64  94 126 164 218 274 330 390
#     4  11  23  40  64  91 125 164 207 257 312 380
#     4  10  22  36  62  96 126 162 204 250 308 376
#     4  10  21  39  61  92 128 163 203 252 313 380
#
# _framework density 22.152676
#
# number of rings (size 3 to 8) (size 9 to 14) (size 15 to 20)
#    0.000    1.500    0.000    5.250    0.000   10.000 
#    0.000    0.000    0.000    0.000    0.000    0.000 
#    0.000    0.000    0.000    0.000    0.000    0.000 
#
# Total GULP energy -178692.292997 kJ/mol
# GULP energy per Si atom -5584.134156 kJ/mol
# Density = 2.210226 g / cm^3
# Si number density = 22.152676 Si / 1000 Ang^3
#
#
#
# Elastic Constant Matrix: (Units=GPa)
#
#
# Indices 1 2 3 4 5 6 
#
# 1 55.0907 31.0964 8.1020 0.0000 0.0000 0.0000
# 2 31.0964 89.3226 9.2427 0.0000 0.0000 0.0000
# 3 8.1020 9.2427 63.6233 0.0000 0.0000 0.0000
# 4 0.0000 0.0000 0.0000 17.3450 0.0000 0.0000
# 5 0.0000 0.0000 0.0000 0.0000 -7.5773 0.0000
# 6 0.0000 0.0000 0.0000 0.0000 0.0000 30.6899
#
#
#
# Elastic Compliance Matrix: (Units=1/GPa)
#
#
# Indices 1 2 3 4 5 6 
#
# 1 0.022787 -0.007749 -0.001776 0.000000 0.000000 0.000000
# 2 -0.007749 0.014002 -0.001047 0.000000 0.000000 0.000000
# 3 -0.001776 -0.001047 0.016096 0.000000 0.000000 0.000000
# 4 0.000000 0.000000 0.000000 0.057654 0.000000 0.000000
# 5 0.000000 0.000000 0.000000 0.000000 -0.131974 0.000000
# 6 0.000000 0.000000 0.000000 0.000000 0.000000 0.032584
#
#
# Mechanical properties :
#
#
# Convention : Reuss Voigt Hill
#
# Bulk Modulus (GPa) = 31.50648 33.87987 32.69318
# Shear Modulus (GPa) = 116.62220 18.73123 67.67672
#
# Velocity S-wave (km/s) = 7.26354 2.91099 5.53321
# Velocity P-wave (km/s) = 9.19775 5.15999 7.45735
#
# Compressibility (1/GPa) = 0.03173950
#
# Stress axis : x y z
#
# Youngs Moduli (GPa) = 43.88429 71.42078 62.12798
#
# Poissons Ratio (x) = 0.55346 0.11034
# Poissons Ratio (y) = 0.34007 0.06506
# Poissons Ratio (z) = 0.07794 0.07479
#
# Static dielectric constant tensor:
#      x y z
#    x 1.841500 0.000000 0.000000 
#    y 0.000000 1.848330 0.000000 
#    z 0.000000 0.000000 1.814410 
# 
# From -- ./inp_files/5667.got.cif
#   From: 2010.05.17/outbox.cif.g08.bks.cpg/sg54_3_cif.got.tgz:5667.got - 2010.06.03 13:09:01.
