data_PCOD9422706
_publ_section_title
;
Structure prediction by ZEFSAII (Michael W. Deem and Ramdas Pophale) SiO2 
 PCOD9422706
Probable space group: P C C A
;
_chemical_formula_sum "Si O2"
_cell_formula_units_Z 64
_cell_length_a 8.779075
_cell_length_b 11.904492
_cell_length_c 29.459227
_cell_angle_alpha 90.000000
_cell_angle_beta 90.000000
_cell_angle_gamma 90.000000
_cell_volume 3078.796425
_symmetry_space_group_name_H-M "P C C A"
_symmetry_group_IT_number 54
_symmetry_cell_setting 'orthorhombic'
loop_
_space_group_symop_operation_xyz
x,y,z
1/2-x,-y,z
1/2+x,-y,1/2-z
-x,y,1/2-z
-x,-y,-z
1/2+x,y,-z
1/2-x,y,1/2+z
x,-y,1/2+z
loop_
_atom_site_type_symbol
_atom_site_label
_atom_site_fract_x
_atom_site_fract_y
_atom_site_fract_z
Si Si1 0.930949 0.986885 0.351937
Si Si2 0.371143 0.250419 0.433406
Si Si3 0.403050 0.351774 0.614658
Si Si4 0.448606 0.774957 0.800402
Si Si5 0.079353 0.955317 0.044460
Si Si6 0.847719 0.181351 0.147209
Si Si7 0.875157 0.589254 0.983496
Si Si8 0.562135 0.388926 0.363720
O O1 0.062884 0.071047 0.335210
O O2 0.750000 0.000000 0.342145
O O3 0.953747 0.003373 0.405760
O O4 0.974160 0.864367 0.334465
O O5 0.511154 0.170917 0.449780
O O6 0.248231 0.182620 0.401566
O O7 0.320570 0.324181 0.477355
O O8 0.439667 0.341208 0.398949
O O9 0.517540 0.269508 0.639247
O O10 0.427815 0.343124 0.560573
O O11 0.432453 0.478782 0.630292
O O12 0.225337 0.333888 0.624784
O O13 0.500000 0.803404 0.750000
O O14 0.272150 0.783006 0.814123
O O15 0.511198 0.653472 0.814628
O O16 0.250000 0.000000 0.037332
O O17 0.000000 0.000000 0.000000
O O18 0.750000 0.500000 0.966593
O O19 0.000000 0.500000 0.000000
#
# Coordination Sequence:
#
# PCOD9422706 Si02
#       8
#     8   8   8   8   8   8   8   8
#     4  11  24  47  68  99 138 176 230 294 352 422
#     4  11  24  40  60  96 142 187 239 297 333 417
#     4  11  22  40  66  95 139 188 224 281 344 419
#     4  11  25  47  74 100 131 169 226 297 360 431
#     4  11  27  41  62  91 137 194 234 287 344 405
#     4  11  25  41  72  99 137 183 230 281 364 422
#     4  12  22  37  60  98 137 183 244 284 334 398
#     4  10  21  44  64  93 139 179 226 284 360 407
#
# _framework density 20.787343
#
# number of rings (size 3 to 8) (size 9 to 14) (size 15 to 20)
#    0.000    1.000    5.000    1.875    5.250    3.500 
#    0.000    4.375    0.000    0.000    0.000    0.000 
#    0.000    0.000    0.000    0.000    0.000    0.000 
#
# Total GULP energy -356828.094492 kJ/mol
# GULP energy per Si atom -5575.438976 kJ/mol
# Density = 2.074003 g / cm^3
# Si number density = 20.787343 Si / 1000 Ang^3
#
#
#
# Elastic Constant Matrix: (Units=GPa)
#
#
# Indices 1 2 3 4 5 6 
#
# 1 48.8353 12.1422 7.9511 0.0000 0.0000 0.0000
# 2 12.1422 50.1184 2.4508 0.0000 0.0000 0.0000
# 3 7.9511 2.4508 69.1479 0.0000 0.0000 0.0000
# 4 0.0000 0.0000 0.0000 11.9420 0.0000 0.0000
# 5 0.0000 0.0000 0.0000 0.0000 14.8948 0.0000
# 6 0.0000 0.0000 0.0000 0.0000 0.0000 37.7204
#
#
#
# Elastic Compliance Matrix: (Units=1/GPa)
#
#
# Indices 1 2 3 4 5 6 
#
# 1 0.022168 -0.005255 -0.002363 0.000000 0.000000 0.000000
# 2 -0.005255 0.021233 -0.000148 0.000000 0.000000 0.000000
# 3 -0.002363 -0.000148 0.014739 0.000000 0.000000 0.000000
# 4 0.000000 0.000000 0.000000 0.083738 0.000000 0.000000
# 5 0.000000 0.000000 0.000000 0.000000 0.067138 0.000000
# 6 0.000000 0.000000 0.000000 0.000000 0.000000 0.026511
#
#
# Mechanical properties :
#
#
# Convention : Reuss Voigt Hill
#
# Bulk Modulus (GPa) = 23.46999 23.68778 23.57889
# Shear Modulus (GPa) = 18.84928 22.61526 20.73227
#
# Velocity S-wave (km/s) = 3.01452 3.30196 3.16151
# Velocity P-wave (km/s) = 4.84061 5.09483 4.96935
#
# Compressibility (1/GPa) = 0.04260760
#
# Stress axis : x y z
#
# Youngs Moduli (GPa) = 45.10944 47.09608 67.84859
#
# Poissons Ratio (x) = 0.24750 0.16031
# Poissons Ratio (y) = 0.23706 0.01006
# Poissons Ratio (z) = 0.10659 0.00698
#
# Static dielectric constant tensor:
#      x y z
#    x 1.816830 0.000000 0.000000 
#    y 0.000000 1.698840 0.000000 
#    z 0.000000 0.000000 1.716680 
# 
# From -- ./inp_files/27951.got.cif
#   From: 2010.05.17/outbox.cif.g08.bks.cpg/sg54_14_cif.got.tgz:27951.got - 2010.06.03 13:09:01.
