data_PCOD9422261
_publ_section_title
;
Structure prediction by ZEFSAII (Michael W. Deem and Ramdas Pophale) SiO2 
 PCOD9422261
Probable space group: P C C A
;
_chemical_formula_sum "Si O2"
_cell_formula_units_Z 64
_cell_length_a 10.069552
_cell_length_b 13.857853
_cell_length_c 22.881385
_cell_angle_alpha 90.000000
_cell_angle_beta 90.000000
_cell_angle_gamma 90.000000
_cell_volume 3192.922724
_symmetry_space_group_name_H-M "P C C A"
_symmetry_group_IT_number 54
_symmetry_cell_setting 'orthorhombic'
loop_
_space_group_symop_operation_xyz
x,y,z
1/2-x,-y,z
1/2+x,-y,1/2-z
-x,y,1/2-z
-x,-y,-z
1/2+x,y,-z
1/2-x,y,1/2+z
x,-y,1/2+z
loop_
_atom_site_type_symbol
_atom_site_label
_atom_site_fract_x
_atom_site_fract_y
_atom_site_fract_z
Si Si1 0.891718 0.516417 0.700029
Si Si2 0.972204 0.664776 0.122224
Si Si3 0.740582 0.102179 0.891565
Si Si4 0.529918 0.924790 0.180920
Si Si5 0.987716 0.135095 0.680055
Si Si6 0.779213 0.690607 0.903471
Si Si7 0.871977 0.433681 0.511620
Si Si8 0.528890 0.717124 0.180737
O O1 0.750000 0.500000 0.728463
O O2 0.925629 0.427964 0.658393
O O3 0.889250 0.620326 0.668391
O O4 0.000000 0.519679 0.750000
O O5 0.933998 0.766628 0.151641
O O6 0.912931 0.647657 0.058096
O O7 0.133122 0.663100 0.118842
O O8 0.610481 0.088061 0.851955
O O9 0.730214 0.199840 0.928296
O O10 0.866065 0.119625 0.848689
O O11 0.750000 0.000000 0.924397
O O12 0.500000 0.927852 0.250000
O O13 0.595659 0.820914 0.166811
O O14 0.584544 0.032070 0.167597
O O15 0.000000 0.147779 0.750000
O O16 0.889582 0.700290 0.852797
O O17 0.826515 0.615870 0.951665
O O18 0.750000 0.500000 0.533131
O O19 0.000000 0.500000 0.500000
O O20 0.500000 0.720898 0.250000
#
# Coordination Sequence:
#
# PCOD9422261 Si02
#       8
#     8   8   8   8   8   8   8   8
#     4  11  25  40  59  89 125 168 198 246 305 370
#     4  11  23  39  61  87 124 156 205 254 310 360
#     4   8  15  30  56  85 116 155 201 238 291 366
#     4   8  14  29  52  83 116 155 201 237 281 353
#     4   9  17  32  55  87 121 156 194 238 298 358
#     4  10  21  37  63  89 117 162 201 255 305 362
#     4  12  24  42  65  91 115 157 212 260 306 362
#     4   9  19  34  59  90 122 159 201 243 297 364
#
# _framework density 20.044331
#
# number of rings (size 3 to 8) (size 9 to 14) (size 15 to 20)
#    0.000    2.250    1.250    1.500    3.500    0.000 
#    6.750    0.000    0.000   12.000    0.000    0.000 
#    0.000    0.000    0.000    0.000    0.000    0.000 
#
# Total GULP energy -356626.217792 kJ/mol
# GULP energy per Si atom -5572.284653 kJ/mol
# Density = 1.999871 g / cm^3
# Si number density = 20.044331 Si / 1000 Ang^3
#
#
#
# Elastic Constant Matrix: (Units=GPa)
#
#
# Indices 1 2 3 4 5 6 
#
# 1 67.0968 45.2908 19.3476 0.0000 0.0000 0.0000
# 2 45.2908 198.3447 35.7248 0.0000 0.0000 0.0000
# 3 19.3476 35.7248 46.0046 0.0000 0.0000 0.0000
# 4 0.0000 0.0000 0.0000 5.3679 0.0000 0.0000
# 5 0.0000 0.0000 0.0000 0.0000 15.0787 0.0000
# 6 0.0000 0.0000 0.0000 0.0000 0.0000 8.9942
#
#
#
# Elastic Compliance Matrix: (Units=1/GPa)
#
#
# Indices 1 2 3 4 5 6 
#
# 1 0.018660 -0.003310 -0.005277 0.000000 0.000000 0.000000
# 2 -0.003310 0.006449 -0.003616 0.000000 0.000000 0.000000
# 3 -0.005277 -0.003616 0.026764 0.000000 0.000000 0.000000
# 4 0.000000 0.000000 0.000000 0.186292 0.000000 0.000000
# 5 0.000000 0.000000 0.000000 0.000000 0.066319 0.000000
# 6 0.000000 0.000000 0.000000 0.000000 0.000000 0.111183
#
#
# Mechanical properties :
#
#
# Convention : Reuss Voigt Hill
#
# Bulk Modulus (GPa) = 36.40750 56.90806 46.65778
# Shear Modulus (GPa) = 11.13021 19.96035 15.54528
#
# Velocity S-wave (km/s) = 2.35899 3.15907 2.78788
# Velocity P-wave (km/s) = 5.06189 6.46212 5.80438
#
# Compressibility (1/GPa) = 0.02746687
#
# Stress axis : x y z
#
# Youngs Moduli (GPa) = 53.59044 155.06565 37.36374
#
# Poissons Ratio (x) = 0.51334 0.19716
# Poissons Ratio (y) = 0.17741 0.13509
# Poissons Ratio (z) = 0.28279 0.56066
#
# Static dielectric constant tensor:
#      x y z
#    x 1.710820 0.000000 0.000000 
#    y 0.000000 1.815930 0.000000 
#    z 0.000000 0.000000 1.680690 
# 
# From -- ./inp_files/23703.got.cif
#   From: 2010.05.17/outbox.cif.g08.bks.cpg/sg54_12_cif.got.tgz:23703.got - 2010.06.03 13:09:01.
