data_PCOD9422199
_publ_section_title
;
Structure prediction by ZEFSAII (Michael W. Deem and Ramdas Pophale) SiO2 
 PCOD9422199
Probable space group: P C C A
;
_chemical_formula_sum "Si O2"
_cell_formula_units_Z 60
_cell_length_a 17.975265
_cell_length_b 10.017185
_cell_length_c 14.699280
_cell_angle_alpha 90.000000
_cell_angle_beta 90.000000
_cell_angle_gamma 90.000000
_cell_volume 2646.775213
_symmetry_space_group_name_H-M "P C C A"
_symmetry_group_IT_number 54
_symmetry_cell_setting 'orthorhombic'
loop_
_space_group_symop_operation_xyz
x,y,z
1/2-x,-y,z
1/2+x,-y,1/2-z
-x,y,1/2-z
-x,-y,-z
1/2+x,y,-z
1/2-x,y,1/2+z
x,-y,1/2+z
loop_
_atom_site_type_symbol
_atom_site_label
_atom_site_fract_x
_atom_site_fract_y
_atom_site_fract_z
Si Si1 0.448596 0.112785 0.670147
Si Si2 0.907659 0.790424 0.014096
Si Si3 0.250000 0.500000 0.348836
Si Si4 0.457529 0.805329 0.623213
Si Si5 0.200689 0.868741 0.769295
Si Si6 0.821714 0.655312 0.296477
Si Si7 0.645455 0.095478 0.535143
Si Si8 0.250280 0.308193 0.012520
O O1 0.500000 0.167072 0.750000
O O2 0.456056 0.190432 0.576491
O O3 0.360773 0.119451 0.691480
O O4 0.467847 0.956619 0.658098
O O5 0.838796 0.695001 0.992643
O O6 0.961914 0.749224 0.096097
O O7 0.875469 0.939625 0.033902
O O8 0.315972 0.461949 0.277877
O O9 0.227059 0.385223 0.420571
O O10 0.402554 0.720784 0.687357
O O11 0.412435 0.829202 0.529520
O O12 0.261376 0.757441 0.746573
O O13 0.152110 0.861000 0.860711
O O14 0.250000 0.000000 0.778899
O O15 0.788023 0.630571 0.397576
O O16 0.722006 0.154016 0.492869
#
# Coordination Sequence:
#
# PCOD9422199 Si02
#       8
#     8   8   4   8   8   8   8   8
#     4  11  21  33  58  97 147 174 205 253 330 416
#     4  11  21  38  63 101 138 173 210 262 348 414
#     4  12  26  46  68  90 118 172 238 292 336 374
#     4  10  22  39  60  97 141 174 207 261 335 411
#     4  12  20  35  60  96 133 168 216 267 327 410
#     4  11  24  43  67  96 125 175 228 283 330 395
#     4  10  21  36  64  98 136 178 208 258 340 412
#     4  11  23  42  69  93 130 171 227 290 326 392
#
# _framework density 22.669096
#
# number of rings (size 3 to 8) (size 9 to 14) (size 15 to 20)
#    0.000    1.067    4.000    4.800    0.000    1.067 
#    0.000    0.000    0.000   12.000    0.000    0.000 
#    0.000    0.000    0.000    0.000    0.000    0.000 
#
# Total GULP energy -334950.690454 kJ/mol
# GULP energy per Si atom -5582.511508 kJ/mol
# Density = 2.261750 g / cm^3
# Si number density = 22.669096 Si / 1000 Ang^3
#
#
#
# Elastic Constant Matrix: (Units=GPa)
#
#
# Indices 1 2 3 4 5 6 
#
# 1 80.2591 -1.8992 40.4939 0.0000 0.0000 0.0000
# 2 -1.8992 28.0479 30.1740 0.0000 0.0000 0.0000
# 3 40.4939 30.1740 150.9654 0.0000 0.0000 0.0000
# 4 0.0000 0.0000 0.0000 210.2091 0.0000 0.0000
# 5 0.0000 0.0000 0.0000 0.0000 12.9604 0.0000
# 6 0.0000 0.0000 0.0000 0.0000 0.0000 -14.8017
#
#
#
# Elastic Compliance Matrix: (Units=1/GPa)
#
#
# Indices 1 2 3 4 5 6 
#
# 1 0.015417 0.006997 -0.005534 0.000000 0.000000 0.000000
# 2 0.006997 0.048596 -0.011590 0.000000 0.000000 0.000000
# 3 -0.005534 -0.011590 0.010425 0.000000 0.000000 0.000000
# 4 0.000000 0.000000 0.000000 0.004757 0.000000 0.000000
# 5 0.000000 0.000000 0.000000 0.000000 0.077158 0.000000
# 6 0.000000 0.000000 0.000000 0.000000 0.000000 -0.067560
#
#
# Mechanical properties :
#
#
# Convention : Reuss Voigt Hill
#
# Bulk Modulus (GPa) = 18.45533 44.08997 31.27265
# Shear Modulus (GPa) = 39.33668 54.37382 46.85525
#
# Velocity S-wave (km/s) = 4.17016 4.90285 4.55127
# Velocity P-wave (km/s) = 5.59873 7.17929 6.43770
#
# Compressibility (1/GPa) = 0.05418488
#
# Stress axis : x y z
#
# Youngs Moduli (GPa) = 64.86192 20.57803 95.92356
#
# Poissons Ratio (x) = -0.14399 0.53085
# Poissons Ratio (y) = -0.45387 1.11175
# Poissons Ratio (z) = 0.35895 0.23850
#
# Static dielectric constant tensor:
#      x y z
#    x 1.881180 0.000000 0.000000 
#    y 0.000000 1.821320 0.000000 
#    z 0.000000 0.000000 1.890520 
# 
# From -- ./inp_files/14295.got.cif
#   From: 2010.05.17/outbox.cif.g08.bks.cpg/sg54_8_cif.got.tgz:14295.got - 2010.06.03 13:09:01.
