data_PCOD9422241
_publ_section_title
;
Structure prediction by ZEFSAII (Michael W. Deem and Ramdas Pophale) SiO2 
 PCOD9422241
Probable space group: P C C A
;
_chemical_formula_sum "Si O2"
_cell_formula_units_Z 56
_cell_length_a 22.513152
_cell_length_b 7.446661
_cell_length_c 14.559415
_cell_angle_alpha 90.000000
_cell_angle_beta 90.000000
_cell_angle_gamma 90.000000
_cell_volume 2440.854054
_symmetry_space_group_name_H-M "P C C A"
_symmetry_group_IT_number 54
_symmetry_cell_setting 'orthorhombic'
loop_
_space_group_symop_operation_xyz
x,y,z
1/2-x,-y,z
1/2+x,-y,1/2-z
-x,y,1/2-z
-x,-y,-z
1/2+x,y,-z
1/2-x,y,1/2+z
x,-y,1/2+z
loop_
_atom_site_type_symbol
_atom_site_label
_atom_site_fract_x
_atom_site_fract_y
_atom_site_fract_z
Si Si1 0.387121 0.697484 0.412980
Si Si2 0.569510 0.156027 0.266788
Si Si3 0.514725 0.680532 0.445048
Si Si4 0.670080 0.805876 0.905175
Si Si5 0.094304 0.258732 0.203546
Si Si6 0.118587 0.732580 0.428474
Si Si7 0.199917 0.219177 0.084154
O O1 0.452165 0.776177 0.436051
O O2 0.344461 0.783456 0.487470
O O3 0.381259 0.721127 0.305200
O O4 0.384479 0.482996 0.424932
O O5 0.500000 0.208868 0.250000
O O6 0.612592 0.246324 0.344298
O O7 0.603715 0.186050 0.170261
O O8 0.571064 0.947565 0.297497
O O9 0.500000 0.500000 0.500000
O O10 0.539039 0.638860 0.343113
O O11 0.565361 0.784949 0.501090
O O12 0.734455 0.716103 0.892194
O O13 0.686456 0.013757 0.886020
O O14 0.148607 0.319877 0.138879
O O15 0.181115 0.776165 0.477009
#
# Coordination Sequence:
#
# PCOD9422241 Si02
#       7
#     8   8   8   8   8   8   8
#     4  11  21  35  58  87 114 151 191 237 300 356
#     4  11  22  37  59  91 123 156 200 253 308 365
#     4   9  19  36  57  84 118 154 191 237 293 358
#     4  10  22  39  61  80 110 154 198 245 294 358
#     4  10  21  37  60  87 119 155 196 246 297 362
#     4  10  22  36  56  83 117 152 192 242 295 357
#     4   9  21  42  58  79 110 152 201 242 293 354
#
# _framework density 22.942789999999999
#
# number of rings (size 3 to 8) (size 9 to 14) (size 15 to 20)
#    0.000    2.000    0.000    3.000    0.000    7.429 
#    0.000    8.571    0.000    0.000    0.000    0.000 
#    0.000    0.000    0.000    0.000    0.000    0.000 
#
# Total GULP energy -312224.471979 kJ/mol
# GULP energy per Si atom -5575.437000 kJ/mol
# Density = 2.289057 g / cm^3
# Si number density = 22.942790 Si / 1000 Ang^3
#
#
#
# Elastic Constant Matrix: (Units=GPa)
#
#
# Indices 1 2 3 4 5 6 
#
# 1 129.8833 26.9837 34.7541 0.0000 0.0000 0.0000
# 2 26.9837 46.3521 11.9076 0.0000 0.0000 0.0000
# 3 34.7541 11.9076 127.7878 0.0000 0.0000 0.0000
# 4 0.0000 0.0000 0.0000 1.1809 0.0000 0.0000
# 5 0.0000 0.0000 0.0000 0.0000 22.7942 0.0000
# 6 0.0000 0.0000 0.0000 0.0000 0.0000 15.4436
#
#
#
# Elastic Compliance Matrix: (Units=1/GPa)
#
#
# Indices 1 2 3 4 5 6 
#
# 1 0.009262 -0.004861 -0.002066 0.000000 0.000000 0.000000
# 2 -0.004861 0.024654 -0.000975 0.000000 0.000000 0.000000
# 3 -0.002066 -0.000975 0.008478 0.000000 0.000000 0.000000
# 4 0.000000 0.000000 0.000000 0.846803 0.000000 0.000000
# 5 0.000000 0.000000 0.000000 0.000000 0.043871 0.000000
# 6 0.000000 0.000000 0.000000 0.000000 0.000000 0.064752
#
#
# Mechanical properties :
#
#
# Convention : Reuss Voigt Hill
#
# Bulk Modulus (GPa) = 37.60830 50.14600 43.87715
# Shear Modulus (GPa) = 4.89003 23.24226 14.06615
#
# Velocity S-wave (km/s) = 1.46152 3.18630 2.47876
# Velocity P-wave (km/s) = 4.39043 5.95324 5.23053
#
# Compressibility (1/GPa) = 0.02658987
#
# Stress axis : x y z
#
# Youngs Moduli (GPa) = 107.96886 40.56067 117.94906
#
# Poissons Ratio (x) = 0.19717 0.24368
# Poissons Ratio (y) = 0.52484 0.11504
# Poissons Ratio (z) = 0.22306 0.03956
#
# Static dielectric constant tensor:
#      x y z
#    x 1.857720 0.000000 0.000000 
#    y 0.000000 1.953240 0.000000 
#    z 0.000000 0.000000 1.980820 
# 
# From -- ./inp_files/14695.got.cif
#   From: 2010.05.17/outbox.cif.g08.bks.cpg/sg54_8_cif.got.tgz:14695.got - 2010.06.03 13:09:01.
