data_PCOD9422054
_publ_section_title
;
Structure prediction by ZEFSAII (Michael W. Deem and Ramdas Pophale) SiO2 
 PCOD9422054
Probable space group: P C C A
;
_chemical_formula_sum "Si O2"
_cell_formula_units_Z 56
_cell_length_a 15.773259
_cell_length_b 20.258168
_cell_length_c 9.039748
_cell_angle_alpha 90.000000
_cell_angle_beta 90.000000
_cell_angle_gamma 90.000000
_cell_volume 2888.536946
_symmetry_space_group_name_H-M "P C C A"
_symmetry_group_IT_number 54
_symmetry_cell_setting 'orthorhombic'
loop_
_space_group_symop_operation_xyz
x,y,z
1/2-x,-y,z
1/2+x,-y,1/2-z
-x,y,1/2-z
-x,-y,-z
1/2+x,y,-z
1/2-x,y,1/2+z
x,-y,1/2+z
loop_
_atom_site_type_symbol
_atom_site_label
_atom_site_fract_x
_atom_site_fract_y
_atom_site_fract_z
Si Si1 0.946810 0.035005 0.372909
Si Si2 0.820614 0.728559 0.921316
Si Si3 0.507228 0.699094 0.573723
Si Si4 0.473997 0.431960 0.922497
Si Si5 0.686100 0.059064 0.279265
Si Si6 0.206415 0.124266 0.007130
Si Si7 0.340642 0.325517 0.912093
O O1 0.873157 0.082120 0.432940
O O2 0.000000 0.073550 0.250000
O O3 0.903679 0.974860 0.283761
O O4 0.000000 0.000000 0.500000
O O5 0.834237 0.698926 0.757364
O O6 0.788946 0.803653 0.925581
O O7 0.748848 0.686199 0.007501
O O8 0.910335 0.733684 0.007373
O O9 0.500000 0.704994 0.750000
O O10 0.521706 0.623685 0.519206
O O11 0.416757 0.714826 0.495517
O O12 0.500000 0.432271 0.750000
O O13 0.378131 0.400709 0.923008
O O14 0.500000 0.500000 0.000000
O O15 0.711555 0.083757 0.440773
O O16 0.697590 0.119132 0.167868
O O17 0.750000 0.000000 0.735830
#
# Coordination Sequence:
#
# PCOD9422054 Si02
#       7
#     8   8   8   8   8   8   8
#     4  11  22  40  60  86 124 159 208 277 330 376
#     4  12  22  44  64  95 138 172 232 264 343 402
#     4  10  21  41  67  93 134 177 211 274 336 380
#     4  10  20  42  72  97 129 174 220 268 327 387
#     4  10  21  40  60  82 122 158 211 267 334 373
#     4  11  24  38  62  91 116 174 211 264 319 411
#     4  10  23  41  68  93 136 177 209 283 326 385
#
# _framework density 19.386977999999999
#
# number of rings (size 3 to 8) (size 9 to 14) (size 15 to 20)
#    0.857    0.571    2.857    3.857    2.000    1.143 
#    5.143    0.714    0.000    0.000    0.000    0.000 
#    0.000    0.000    0.000    0.000    0.000    0.000 
#
# Total GULP energy -311770.222302 kJ/mol
# GULP energy per Si atom -5567.325398 kJ/mol
# Density = 1.934285 g / cm^3
# Si number density = 19.386978 Si / 1000 Ang^3
#
#
#
# Elastic Constant Matrix: (Units=GPa)
#
#
# Indices 1 2 3 4 5 6 
#
# 1 80.0257 -7.1108 41.3869 0.0000 0.0000 0.0000
# 2 -7.1108 62.9998 9.3128 0.0000 0.0000 0.0000
# 3 41.3869 9.3128 142.6103 0.0000 0.0000 0.0000
# 4 0.0000 0.0000 0.0000 22.3502 0.0000 0.0000
# 5 0.0000 0.0000 0.0000 0.0000 31.1220 0.0000
# 6 0.0000 0.0000 0.0000 0.0000 0.0000 12.5815
#
#
#
# Elastic Compliance Matrix: (Units=1/GPa)
#
#
# Indices 1 2 3 4 5 6 
#
# 1 0.015044 0.002366 -0.004520 0.000000 0.000000 0.000000
# 2 0.002366 0.016400 -0.001758 0.000000 0.000000 0.000000
# 3 -0.004520 -0.001758 0.008439 0.000000 0.000000 0.000000
# 4 0.000000 0.000000 0.000000 0.044742 0.000000 0.000000
# 5 0.000000 0.000000 0.000000 0.000000 0.032132 0.000000
# 6 0.000000 0.000000 0.000000 0.000000 0.000000 0.079482
#
#
# Mechanical properties :
#
#
# Convention : Reuss Voigt Hill
#
# Bulk Modulus (GPa) = 31.19240 41.42373 36.30807
# Shear Modulus (GPa) = 23.28304 29.34719 26.31511
#
# Velocity S-wave (km/s) = 3.46925 3.89493 3.68823
# Velocity P-wave (km/s) = 5.67203 6.45294 6.07504
#
# Compressibility (1/GPa) = 0.03205909
#
# Stress axis : x y z
#
# Youngs Moduli (GPa) = 66.47132 60.97573 118.50056
#
# Poissons Ratio (x) = -0.14428 0.53568
# Poissons Ratio (y) = -0.15729 0.20828
# Poissons Ratio (z) = 0.30048 0.10718
#
# Static dielectric constant tensor:
#      x y z
#    x 1.661910 0.000000 0.000000 
#    y 0.000000 1.677570 0.000000 
#    z 0.000000 0.000000 2.254210 
# 
# From -- ./inp_files/3692.got.cif
#   From: 2010.05.17/outbox.cif.g08.bks.cpg/sg54_2_cif.got.tgz:3692.got - 2010.06.03 13:09:01.
