data_PCOD9422587
_publ_section_title
;
Structure prediction by ZEFSAII (Michael W. Deem and Ramdas Pophale) SiO2 
 PCOD9422587
Probable space group: P C C A
;
_chemical_formula_sum "Si O2"
_cell_formula_units_Z 56
_cell_length_a 22.512764
_cell_length_b 13.268494
_cell_length_c 9.750632
_cell_angle_alpha 90.000000
_cell_angle_beta 90.000000
_cell_angle_gamma 90.000000
_cell_volume 2912.615907
_symmetry_space_group_name_H-M "P C C A"
_symmetry_group_IT_number 54
_symmetry_cell_setting 'orthorhombic'
loop_
_space_group_symop_operation_xyz
x,y,z
1/2-x,-y,z
1/2+x,-y,1/2-z
-x,y,1/2-z
-x,-y,-z
1/2+x,y,-z
1/2-x,y,1/2+z
x,-y,1/2+z
loop_
_atom_site_type_symbol
_atom_site_label
_atom_site_fract_x
_atom_site_fract_y
_atom_site_fract_z
Si Si1 0.542933 0.021186 0.376122
Si Si2 0.376874 0.350462 0.024345
Si Si3 0.312041 0.445798 0.519078
Si Si4 0.986967 0.244245 0.903694
Si Si5 0.609933 0.162984 0.969996
Si Si6 0.686665 0.713419 0.251952
Si Si7 0.679224 0.736339 0.697026
O O1 0.500000 0.993857 0.250000
O O2 0.550903 0.141171 0.377083
O O3 0.500000 0.000000 0.500000
O O4 0.597456 0.947830 0.407813
O O5 0.362018 0.468759 0.025090
O O6 0.445934 0.322419 0.017247
O O7 0.352128 0.299885 0.163865
O O8 0.342961 0.304354 0.894375
O O9 0.250000 0.500000 0.486584
O O10 0.305569 0.391535 0.665937
O O11 0.322961 0.359394 0.406835
O O12 0.000000 0.282775 0.750000
O O13 0.046648 0.213407 0.985552
O O14 0.644288 0.222134 0.850809
O O15 0.648047 0.174373 0.110120
O O16 0.752199 0.758542 0.230990
#
# Coordination Sequence:
#
# PCOD9422587 Si02
#       7
#     8   8   8   8   8   8   8
#     4   9  20  38  67  94 115 158 210 250 301 380
#     4  12  22  34  63  88 122 160 212 261 308 367
#     4  11  21  38  61  89 118 162 217 260 303 373
#     4  10  21  41  64  93 121 166 208 258 322 372
#     4  10  22  40  63  93 130 158 203 263 315 381
#     4  11  23  36  61  95 122 160 209 267 311 366
#     4  11  21  39  60  89 124 164 211 252 317 375
#
# _framework density 19.226702
#
# number of rings (size 3 to 8) (size 9 to 14) (size 15 to 20)
#    0.000    1.429    4.286    1.714    4.000    0.000 
#    0.000    2.857    0.000    5.143    0.000    0.000 
#    0.000    0.000    0.000    0.000    0.000    0.000 
#
# Total GULP energy -312395.994696 kJ/mol
# GULP energy per Si atom -5578.499905 kJ/mol
# Density = 1.918294 g / cm^3
# Si number density = 19.226702 Si / 1000 Ang^3
#
#
#
# Elastic Constant Matrix: (Units=GPa)
#
#
# Indices 1 2 3 4 5 6 
#
# 1 108.7940 45.6668 23.8556 0.0000 0.0000 0.0000
# 2 45.6668 45.0069 21.9458 0.0000 0.0000 0.0000
# 3 23.8556 21.9458 123.4802 0.0000 0.0000 0.0000
# 4 0.0000 0.0000 0.0000 18.7132 0.0000 0.0000
# 5 0.0000 0.0000 0.0000 0.0000 32.4782 0.0000
# 6 0.0000 0.0000 0.0000 0.0000 0.0000 30.0790
#
#
#
# Elastic Compliance Matrix: (Units=1/GPa)
#
#
# Indices 1 2 3 4 5 6 
#
# 1 0.016017 -0.016142 -0.000226 0.000000 0.000000 0.000000
# 2 -0.016142 0.040594 -0.004096 0.000000 0.000000 0.000000
# 3 -0.000226 -0.004096 0.008870 0.000000 0.000000 0.000000
# 4 0.000000 0.000000 0.000000 0.053438 0.000000 0.000000
# 5 0.000000 0.000000 0.000000 0.000000 0.030790 0.000000
# 6 0.000000 0.000000 0.000000 0.000000 0.000000 0.033246
#
#
# Mechanical properties :
#
#
# Convention : Reuss Voigt Hill
#
# Bulk Modulus (GPa) = 40.72583 51.13528 45.93056
# Shear Modulus (GPa) = 21.54555 28.64160 25.09357
#
# Velocity S-wave (km/s) = 3.35118 3.86382 3.61659
# Velocity P-wave (km/s) = 6.01679 6.82343 6.43277
#
# Compressibility (1/GPa) = 0.02455444
#
# Stress axis : x y z
#
# Youngs Moduli (GPa) = 62.43518 24.63391 112.73875
#
# Poissons Ratio (x) = 0.39763 0.02542
# Poissons Ratio (y) = 1.00780 0.46181
# Poissons Ratio (z) = 0.01408 0.10091
#
# Static dielectric constant tensor:
#      x y z
#    x 1.704220 0.000000 0.000000 
#    y 0.000000 1.760610 0.000000 
#    z 0.000000 0.000000 1.672100 
# 
# From -- ./inp_files/4819.got.cif
#   From: 2010.05.17/outbox.cif.g08.bks.cpg/sg54_3_cif.got.tgz:4819.got - 2010.06.03 13:09:01.
