data_PCOD9422608
_publ_section_title
;
Structure prediction by ZEFSAII (Michael W. Deem and Ramdas Pophale) SiO2 
 PCOD9422608
Probable space group: P C C A
;
_chemical_formula_sum "Si O2"
_cell_formula_units_Z 48
_cell_length_a 27.991049
_cell_length_b 8.513542
_cell_length_c 8.828641
_cell_angle_alpha 90.000000
_cell_angle_beta 90.000000
_cell_angle_gamma 90.000000
_cell_volume 2103.891383
_symmetry_space_group_name_H-M "P C C A"
_symmetry_group_IT_number 54
_symmetry_cell_setting 'orthorhombic'
loop_
_space_group_symop_operation_xyz
x,y,z
1/2-x,-y,z
1/2+x,-y,1/2-z
-x,y,1/2-z
-x,-y,-z
1/2+x,y,-z
1/2-x,y,1/2+z
x,-y,1/2+z
loop_
_atom_site_type_symbol
_atom_site_label
_atom_site_fract_x
_atom_site_fract_y
_atom_site_fract_z
Si Si1 0.459517 0.805294 0.546055
Si Si2 0.211521 0.221521 0.731591
Si Si3 0.250000 0.000000 0.970551
Si Si4 0.500000 0.038386 0.750000
Si Si5 0.342491 0.505785 0.109164
Si Si6 0.500000 0.466636 0.250000
Si Si7 0.598183 0.618051 0.139308
Si Si8 0.750000 0.500000 0.597671
O O1 0.489356 0.868275 0.402498
O O2 0.483751 0.648477 0.613287
O O3 0.410024 0.770484 0.463026
O O4 0.458550 0.922097 0.688708
O O5 0.227203 0.131654 0.579931
O O6 0.167350 0.338129 0.694108
O O7 0.250562 0.347421 0.794979
O O8 0.211706 0.088252 0.861765
O O9 0.360749 0.625006 0.235974
O O10 0.384549 0.504288 0.986541
O O11 0.295332 0.525570 0.009400
O O12 0.547529 0.564817 0.209083
#
# Coordination Sequence:
#
# PCOD9422608 Si02
#       8
#     8   8   4   4   8   4   8   4
#     4  10  21  41  68  97 137 182 232 283 361 426
#     4  11  23  44  71 105 142 191 236 300 363 437
#     4  10  24  42  74 104 144 196 234 290 392 432
#     4   9  21  40  70  98 133 197 230 278 366 459
#     4  12  26  41  71 107 139 186 244 303 362 432
#     4  11  23  42  70 102 141 175 226 314 368 415
#     4  12  25  42  68 109 140 179 240 306 368 425
#     4  12  24  44  78 102 150 190 252 308 360 422
#
# _framework density 22.814867
#
# number of rings (size 3 to 8) (size 9 to 14) (size 15 to 20)
#    0.000    1.000    5.000    1.500    2.333    0.000 
#    0.000    1.667    0.000    0.000    0.000    0.000 
#    0.000    0.000    0.000    0.000    0.000    0.000 
#
# Total GULP energy -267497.497215 kJ/mol
# GULP energy per Si atom -5572.864525 kJ/mol
# Density = 2.276294 g / cm^3
# Si number density = 22.814867 Si / 1000 Ang^3
#
#
#
# Elastic Constant Matrix: (Units=GPa)
#
#
# Indices 1 2 3 4 5 6 
#
# 1 100.9827 19.7784 43.1326 0.0000 0.0000 0.0000
# 2 19.7784 67.7973 38.2427 0.0000 0.0000 0.0000
# 3 43.1326 38.2427 142.9158 0.0000 0.0000 0.0000
# 4 0.0000 0.0000 0.0000 50.8480 0.0000 0.0000
# 5 0.0000 0.0000 0.0000 0.0000 49.7578 0.0000
# 6 0.0000 0.0000 0.0000 0.0000 0.0000 21.3291
#
#
#
# Elastic Compliance Matrix: (Units=1/GPa)
#
#
# Indices 1 2 3 4 5 6 
#
# 1 0.011523 -0.001649 -0.003036 0.000000 0.000000 0.000000
# 2 -0.001649 0.017608 -0.004214 0.000000 0.000000 0.000000
# 3 -0.003036 -0.004214 0.009041 0.000000 0.000000 0.000000
# 4 0.000000 0.000000 0.000000 0.019666 0.000000 0.000000
# 5 0.000000 0.000000 0.000000 0.000000 0.020097 0.000000
# 6 0.000000 0.000000 0.000000 0.000000 0.000000 0.046884
#
#
# Mechanical properties :
#
#
# Convention : Reuss Voigt Hill
#
# Bulk Modulus (GPa) = 49.08401 57.11148 53.09774
# Shear Modulus (GPa) = 33.46517 38.42311 35.94414
#
# Velocity S-wave (km/s) = 3.83406 4.10826 3.97353
# Velocity P-wave (km/s) = 6.41566 6.89860 6.66151
#
# Compressibility (1/GPa) = 0.02037323
#
# Stress axis : x y z
#
# Youngs Moduli (GPa) = 86.78655 56.79271 110.60523
#
# Poissons Ratio (x) = 0.09363 0.33584
# Poissons Ratio (y) = 0.14309 0.46610
# Poissons Ratio (z) = 0.26352 0.23933
#
# Static dielectric constant tensor:
#      x y z
#    x 1.919300 0.000000 0.000000 
#    y 0.000000 1.961300 0.000000 
#    z 0.000000 0.000000 1.909440 
# 
# From -- ./inp_files/5891.got.cif
#   From: 2010.05.17/outbox.cif.g08.bks.cpg/sg54_3_cif.got.tgz:5891.got - 2010.06.03 13:09:01.
