data_PCOD9422761
_publ_section_title
;
Structure prediction by ZEFSAII (Michael W. Deem and Ramdas Pophale) SiO2 
 PCOD9422761
Probable space group: P C C A
;
_chemical_formula_sum "Si O2"
_cell_formula_units_Z 64
_cell_length_a 9.311421
_cell_length_b 20.945776
_cell_length_c 17.259979
_cell_angle_alpha 90.000000
_cell_angle_beta 90.000000
_cell_angle_gamma 90.000000
_cell_volume 3366.298943
_symmetry_space_group_name_H-M "P C C A"
_symmetry_group_IT_number 54
_symmetry_cell_setting 'orthorhombic'
loop_
_space_group_symop_operation_xyz
x,y,z
1/2-x,-y,z
1/2+x,-y,1/2-z
-x,y,1/2-z
-x,-y,-z
1/2+x,y,-z
1/2-x,y,1/2+z
x,-y,1/2+z
loop_
_atom_site_type_symbol
_atom_site_label
_atom_site_fract_x
_atom_site_fract_y
_atom_site_fract_z
Si Si1 0.282941 0.926284 0.930287
Si Si2 0.144838 0.746248 0.431159
Si Si3 0.995371 0.366314 0.657747
Si Si4 0.793437 0.333766 0.422351
Si Si5 0.880383 0.451402 0.524125
Si Si6 0.919663 0.853540 0.445941
Si Si7 0.645822 0.165558 0.663727
Si Si8 0.167603 0.796737 0.659352
O O1 0.450517 0.904518 0.930153
O O2 0.213770 0.903886 0.848743
O O3 0.250000 0.000000 0.943932
O O4 0.188988 0.886724 0.993727
O O5 0.222460 0.706910 0.498654
O O6 0.261259 0.789609 0.391028
O O7 0.079690 0.699996 0.366167
O O8 0.016490 0.790460 0.464667
O O9 0.152661 0.360536 0.619475
O O10 0.000000 0.376176 0.750000
O O11 0.911824 0.418840 0.606934
O O12 0.873229 0.395702 0.458212
O O13 0.850905 0.277884 0.365019
O O14 0.750000 0.500000 0.528862
O O15 0.000000 0.500000 0.500000
O O16 0.809736 0.827250 0.379563
O O17 0.480173 0.167109 0.638395
O O18 0.670126 0.193221 0.748834
#
# Coordination Sequence:
#
# PCOD9422761 Si02
#       8
#     8   8   8   8   8   8   8   8
#     4  11  23  40  60  89 123 169 222 266 319 401
#     4  10  22  35  65  94 125 166 207 270 330 394
#     4  11  23  40  66 100 130 163 215 277 323 388
#     4  11  22  37  68  92 126 163 216 265 317 392
#     4  11  24  45  66  90 129 176 218 256 316 392
#     4  11  22  37  65  89 125 165 213 278 328 387
#     4  10  23  39  60  89 134 165 207 268 337 391
#     4  11  22  39  61  95 126 162 210 271 338 388
#
# _framework density 19.011977000000002
#
# number of rings (size 3 to 8) (size 9 to 14) (size 15 to 20)
#    0.000    1.250    2.500    4.125    3.500    1.500 
#    2.250    3.125    0.000    0.000    0.000    0.000 
#    0.000    0.000    0.000    0.000    0.000    0.000 
#
# Total GULP energy -356426.196042 kJ/mol
# GULP energy per Si atom -5569.159313 kJ/mol
# Density = 1.896871 g / cm^3
# Si number density = 19.011977 Si / 1000 Ang^3
#
#
#
# Elastic Constant Matrix: (Units=GPa)
#
#
# Indices 1 2 3 4 5 6 
#
# 1 124.4780 58.0827 66.8016 0.0000 0.0000 0.0000
# 2 58.0827 123.2596 48.8509 0.0000 0.0000 0.0000
# 3 66.8016 48.8509 101.4783 0.0000 0.0000 0.0000
# 4 0.0000 0.0000 0.0000 15.3986 0.0000 0.0000
# 5 0.0000 0.0000 0.0000 0.0000 25.4862 0.0000
# 6 0.0000 0.0000 0.0000 0.0000 0.0000 14.9338
#
#
#
# Elastic Compliance Matrix: (Units=1/GPa)
#
#
# Indices 1 2 3 4 5 6 
#
# 1 0.013557 -0.003524 -0.007228 0.000000 0.000000 0.000000
# 2 -0.003524 0.010942 -0.002948 0.000000 0.000000 0.000000
# 3 -0.007228 -0.002948 0.016031 0.000000 0.000000 0.000000
# 4 0.000000 0.000000 0.000000 0.064941 0.000000 0.000000
# 5 0.000000 0.000000 0.000000 0.000000 0.039237 0.000000
# 6 0.000000 0.000000 0.000000 0.000000 0.000000 0.066962
#
#
# Mechanical properties :
#
#
# Convention : Reuss Voigt Hill
#
# Bulk Modulus (GPa) = 76.15435 77.40959 76.78197
# Shear Modulus (GPa) = 20.53852 22.86241 21.70046
#
# Velocity S-wave (km/s) = 3.29035 3.47151 3.38214
# Velocity P-wave (km/s) = 7.38770 7.54143 7.46496
#
# Compressibility (1/GPa) = 0.01313123
#
# Stress axis : x y z
#
# Youngs Moduli (GPa) = 73.76518 91.39438 62.37797
#
# Poissons Ratio (x) = 0.32203 0.45086
# Poissons Ratio (y) = 0.25992 0.18387
# Poissons Ratio (z) = 0.53316 0.26940
#
# Static dielectric constant tensor:
#      x y z
#    x 1.630510 0.000000 0.000000 
#    y 0.000000 1.685830 0.000000 
#    z 0.000000 0.000000 1.692680 
# 
# From -- ./inp_files/16869.got.cif
#   From: 2010.05.17/outbox.cif.g08.bks.cpg/sg54_9_cif.got.tgz:16869.got - 2010.06.03 13:09:01.
