data_PCOD9422643
_publ_section_title
;
Structure prediction by ZEFSAII (Michael W. Deem and Ramdas Pophale) SiO2 
 PCOD9422643
Probable space group: P C C A
;
_chemical_formula_sum "Si O2"
_cell_formula_units_Z 56
_cell_length_a 11.095396
_cell_length_b 14.531094
_cell_length_c 16.238922
_cell_angle_alpha 90.000000
_cell_angle_beta 90.000000
_cell_angle_gamma 90.000000
_cell_volume 2618.172850
_symmetry_space_group_name_H-M "P C C A"
_symmetry_group_IT_number 54
_symmetry_cell_setting 'orthorhombic'
loop_
_space_group_symop_operation_xyz
x,y,z
1/2-x,-y,z
1/2+x,-y,1/2-z
-x,y,1/2-z
-x,-y,-z
1/2+x,y,-z
1/2-x,y,1/2+z
x,-y,1/2+z
loop_
_atom_site_type_symbol
_atom_site_label
_atom_site_fract_x
_atom_site_fract_y
_atom_site_fract_z
Si Si1 0.626806 0.540268 0.526211
Si Si2 0.226367 0.097747 0.060719
Si Si3 0.874648 0.469241 0.213596
Si Si4 0.294442 0.735280 0.283069
Si Si5 0.416327 0.204940 0.170846
Si Si6 0.133305 0.256807 0.942980
Si Si7 0.368524 0.937440 0.231710
O O1 0.750000 0.500000 0.489357
O O2 0.500000 0.500000 0.500000
O O3 0.630825 0.515400 0.623406
O O4 0.629450 0.648187 0.508766
O O5 0.341964 0.132347 0.114422
O O6 0.133922 0.076982 0.133888
O O7 0.250000 0.000000 0.017519
O O8 0.171974 0.173130 0.000672
O O9 0.750000 0.500000 0.256224
O O10 0.871054 0.357988 0.216774
O O11 0.000000 0.502400 0.250000
O O12 0.188712 0.734129 0.213457
O O13 0.232353 0.736011 0.371780
O O14 0.355483 0.835208 0.270503
O O15 0.500000 0.176641 0.250000
O O16 0.507671 0.248234 0.105597
O O17 0.500000 0.976803 0.250000
O O18 0.250000 0.000000 0.253701
#
# Coordination Sequence:
#
# PCOD9422643 Si02
#       7
#     8   8   8   8   8   8   8
#     4  11  26  45  66  97 140 184 228 281 349 417
#     4  10  24  42  65 100 136 177 232 286 346 419
#     4  11  24  42  69 102 134 172 231 287 337 406
#     4  10  21  42  67  95 135 176 229 276 346 407
#     4   9  22  41  68  96 133 182 226 281 351 410
#     4  11  23  41  67  94 139 178 230 286 336 417
#     4  10  23  43  70 100 136 176 226 282 346 415
#
# _framework density 21.388963
#
# number of rings (size 3 to 8) (size 9 to 14) (size 15 to 20)
#    0.000    1.714    2.857    0.429    4.000   14.857 
#    0.000    2.143    0.000    0.000    0.000    0.000 
#    0.000    0.000    0.000    0.000    0.000    0.000 
#
# Total GULP energy -312278.534751 kJ/mol
# GULP energy per Si atom -5576.402406 kJ/mol
# Density = 2.134028 g / cm^3
# Si number density = 21.388963 Si / 1000 Ang^3
#
#
#
# Elastic Constant Matrix: (Units=GPa)
#
#
# Indices 1 2 3 4 5 6 
#
# 1 133.4675 11.9346 23.0220 0.0000 0.0000 0.0000
# 2 11.9346 111.6562 4.6321 0.0000 0.0000 0.0000
# 3 23.0220 4.6321 26.8781 0.0000 0.0000 0.0000
# 4 0.0000 0.0000 0.0000 17.2739 0.0000 0.0000
# 5 0.0000 0.0000 0.0000 0.0000 8.8791 0.0000
# 6 0.0000 0.0000 0.0000 0.0000 0.0000 4.4946
#
#
#
# Elastic Compliance Matrix: (Units=1/GPa)
#
#
# Indices 1 2 3 4 5 6 
#
# 1 0.008836 -0.000635 -0.007459 0.000000 0.000000 0.000000
# 2 -0.000635 0.009066 -0.001019 0.000000 0.000000 0.000000
# 3 -0.007459 -0.001019 0.043769 0.000000 0.000000 0.000000
# 4 0.000000 0.000000 0.000000 0.057891 0.000000 0.000000
# 5 0.000000 0.000000 0.000000 0.000000 0.112625 0.000000
# 6 0.000000 0.000000 0.000000 0.000000 0.000000 0.222490
#
#
# Mechanical properties :
#
#
# Convention : Reuss Voigt Hill
#
# Bulk Modulus (GPa) = 23.01670 39.01989 31.01830
# Shear Modulus (GPa) = 10.25887 21.62371 15.94129
#
# Velocity S-wave (km/s) = 2.19243 3.18303 2.73299
# Velocity P-wave (km/s) = 4.14649 5.63840 4.94899
#
# Compressibility (1/GPa) = 0.04344671
#
# Stress axis : x y z
#
# Youngs Moduli (GPa) = 113.17573 110.29993 22.84706
#
# Poissons Ratio (x) = 0.07004 0.17041
# Poissons Ratio (y) = 0.07187 0.02327
# Poissons Ratio (z) = 0.84415 0.11235
#
# Static dielectric constant tensor:
#      x y z
#    x 1.863610 0.000000 0.000000 
#    y 0.000000 1.848350 0.000000 
#    z 0.000000 0.000000 1.760590 
# 
# From -- ./inp_files/12718.got.cif
#   From: 2010.05.17/outbox.cif.g08.bks.cpg/sg54_7_cif.got.tgz:12718.got - 2010.06.03 13:09:01.
