data_PCOD9422931
_publ_section_title
;
Structure prediction by ZEFSAII (Michael W. Deem and Ramdas Pophale) SiO2 
 PCOD9422931
Probable space group: P C C A
;
_chemical_formula_sum "Si O2"
_cell_formula_units_Z 48
_cell_length_a 9.455983
_cell_length_b 13.661389
_cell_length_c 17.382147
_cell_angle_alpha 90.000000
_cell_angle_beta 90.000000
_cell_angle_gamma 90.000000
_cell_volume 2245.458117
_symmetry_space_group_name_H-M "P C C A"
_symmetry_group_IT_number 54
_symmetry_cell_setting 'orthorhombic'
loop_
_space_group_symop_operation_xyz
x,y,z
1/2-x,-y,z
1/2+x,-y,1/2-z
-x,y,1/2-z
-x,-y,-z
1/2+x,y,-z
1/2-x,y,1/2+z
x,-y,1/2+z
loop_
_atom_site_type_symbol
_atom_site_label
_atom_site_fract_x
_atom_site_fract_y
_atom_site_fract_z
Si Si1 0.508991 0.264304 0.611791
Si Si2 0.354765 0.929051 0.735504
Si Si3 0.246080 0.887937 0.407934
Si Si4 0.302494 0.734069 0.664385
Si Si5 0.758439 0.384122 0.683845
Si Si6 0.454795 0.711525 0.944906
O O1 0.606325 0.171359 0.587655
O O2 0.361497 0.239668 0.652342
O O3 0.609054 0.332536 0.663691
O O4 0.464032 0.318758 0.533280
O O5 0.500000 0.984121 0.750000
O O6 0.287043 0.898077 0.816638
O O7 0.383922 0.831613 0.689825
O O8 0.250000 0.000000 0.692073
O O9 0.123795 0.818234 0.442864
O O10 0.250000 0.000000 0.437838
O O11 0.311119 0.658231 0.734523
O O12 0.386069 0.705533 0.588041
O O13 0.750000 0.500000 0.687316
O O14 0.861288 0.350968 0.614553
#
# Coordination Sequence:
#
# PCOD9422931 Si02
#       6
#     8   8   8   8   8   8
#     4  11  25  41  66  95 129 168 212 256 322 381
#     4  11  22  36  62  95 129 171 218 268 315 365
#     4  10  22  40  61  91 133 171 214 262 305 368
#     4  12  22  40  68  93 125 166 215 265 312 376
#     4  11  25  45  68  94 123 160 213 269 323 386
#     4  11  23  45  64  92 132 172 204 261 323 382
#
# _framework density 21.376484999999999
#
# number of rings (size 3 to 8) (size 9 to 14) (size 15 to 20)
#    0.000    1.000    5.000    3.000    4.667    4.000 
#    0.000    3.333    0.000    0.000    0.000    0.000 
#    0.000    0.000    0.000    0.000    0.000    0.000 
#
# Total GULP energy -268070.092626 kJ/mol
# GULP energy per Si atom -5584.793596 kJ/mol
# Density = 2.132783 g / cm^3
# Si number density = 21.376485 Si / 1000 Ang^3
#
#
#
# Elastic Constant Matrix: (Units=GPa)
#
#
# Indices 1 2 3 4 5 6 
#
# 1 126.8729 24.7392 -2.5205 0.0000 0.0000 0.0000
# 2 24.7392 110.4085 -2.1808 0.0000 0.0000 0.0000
# 3 -2.5205 -2.1808 58.2601 0.0000 0.0000 0.0000
# 4 0.0000 0.0000 0.0000 -11.1796 0.0000 0.0000
# 5 0.0000 0.0000 0.0000 0.0000 -7.5834 0.0000
# 6 0.0000 0.0000 0.0000 0.0000 0.0000 9.5760
#
#
#
# Elastic Compliance Matrix: (Units=1/GPa)
#
#
# Indices 1 2 3 4 5 6 
#
# 1 0.008247 -0.001842 0.000288 0.000000 0.000000 0.000000
# 2 -0.001842 0.009475 0.000275 0.000000 0.000000 0.000000
# 3 0.000288 0.000275 0.017187 0.000000 0.000000 0.000000
# 4 0.000000 0.000000 0.000000 -0.089449 0.000000 0.000000
# 5 0.000000 0.000000 0.000000 0.000000 -0.131867 0.000000
# 6 0.000000 0.000000 0.000000 0.000000 0.000000 0.104427
#
#
# Mechanical properties :
#
#
# Convention : Reuss Voigt Hill
#
# Bulk Modulus (GPa) = 30.91118 37.29080 34.10099
# Shear Modulus (GPa) = -72.84771 16.52952 -28.15909
#
# Velocity S-wave (km/s) = -5.84401 2.78377 -3.63339
# Velocity P-wave (km/s) = 5.57179 5.27400 1.27076
#
# Compressibility (1/GPa) = 0.03235076
#
# Stress axis : x y z
#
# Youngs Moduli (GPa) = 121.25870 105.53557 58.18298
#
# Poissons Ratio (x) = 0.19442 -0.01675
# Poissons Ratio (y) = 0.22338 -0.01600
# Poissons Ratio (z) = -0.03490 -0.02902
#
# Static dielectric constant tensor:
#      x y z
#    x 1.799160 0.000000 0.000000 
#    y 0.000000 1.775440 0.000000 
#    z 0.000000 0.000000 1.754890 
# 
# From -- ./inp_files/16607.got.cif
#   From: 2010.05.17/outbox.cif.g08.bks.cpg/sg54_9_cif.got.tgz:16607.got - 2010.06.03 13:09:01.
