data_PCOD9422982
_publ_section_title
;
Structure prediction by ZEFSAII (Michael W. Deem and Ramdas Pophale) SiO2 
 PCOD9422982
Probable space group: P C C A
;
_chemical_formula_sum "Si O2"
_cell_formula_units_Z 32
_cell_length_a 28.106684
_cell_length_b 7.847515
_cell_length_c 5.512299
_cell_angle_alpha 90.000000
_cell_angle_beta 90.000000
_cell_angle_gamma 90.000000
_cell_volume 1215.834695
_symmetry_space_group_name_H-M "P C C A"
_symmetry_group_IT_number 54
_symmetry_cell_setting 'orthorhombic'
loop_
_space_group_symop_operation_xyz
x,y,z
1/2-x,-y,z
1/2+x,-y,1/2-z
-x,y,1/2-z
-x,-y,-z
1/2+x,y,-z
1/2-x,y,1/2+z
x,-y,1/2+z
loop_
_atom_site_type_symbol
_atom_site_label
_atom_site_fract_x
_atom_site_fract_y
_atom_site_fract_z
Si Si1 0.093893 0.460466 0.940732
Si Si2 0.052109 0.215435 0.269095
Si Si3 0.268345 0.695703 0.292043
Si Si4 0.351021 0.089246 0.937202
O O1 0.119320 0.470233 0.683114
O O2 0.051429 0.597917 0.899756
O O3 0.074618 0.275361 0.011613
O O4 0.092370 0.116089 0.412407
O O5 0.000000 0.141222 0.250000
O O6 0.250000 0.500000 0.274305
O O7 0.240671 0.769974 0.524927
O O8 0.322092 0.741293 0.362830
O O9 0.339136 0.965017 0.710335
#
# Coordination Sequence:
#
# PCOD9422982 Si02
#       4
#     8   8   8   8
#     4   8  19  34  60  92 121 166 233 298 338 368
#     4  10  22  40  65  95 140 186 231 280 336 397
#     4  10  23  47  77 105 129 168 226 289 351 412
#     4  12  29  45  65 102 143 185 229 278 344 425
#
# _framework density 26.319368000000001
#
# number of rings (size 3 to 8) (size 9 to 14) (size 15 to 20)
#    1.500    0.500    0.000    2.250    3.500    8.000 
#    0.000    0.000    0.000    0.000    0.000    0.000 
#    0.000    0.000    0.000    0.000    0.000    0.000 
#
# Total GULP energy -178415.281257 kJ/mol
# GULP energy per Si atom -5575.477539 kJ/mol
# Density = 2.625946 g / cm^3
# Si number density = 26.319368 Si / 1000 Ang^3
#
#
#
# Elastic Constant Matrix: (Units=GPa)
#
#
# Indices 1 2 3 4 5 6 
#
# 1 85.4808 51.9873 45.4263 0.0000 0.0000 0.0000
# 2 51.9873 60.5793 20.9128 0.0000 0.0000 0.0000
# 3 45.4263 20.9128 231.8297 0.0000 0.0000 0.0000
# 4 0.0000 0.0000 0.0000 49.3864 0.0000 0.0000
# 5 0.0000 0.0000 0.0000 0.0000 27.9174 0.0000
# 6 0.0000 0.0000 0.0000 0.0000 0.0000 30.1389
#
#
#
# Elastic Compliance Matrix: (Units=1/GPa)
#
#
# Indices 1 2 3 4 5 6 
#
# 1 0.026663 -0.021755 -0.003262 0.000000 0.000000 0.000000
# 2 -0.021755 0.034789 0.001125 0.000000 0.000000 0.000000
# 3 -0.003262 0.001125 0.004851 0.000000 0.000000 0.000000
# 4 0.000000 0.000000 0.000000 0.020249 0.000000 0.000000
# 5 0.000000 0.000000 0.000000 0.000000 0.035820 0.000000
# 6 0.000000 0.000000 0.000000 0.000000 0.000000 0.033180
#
#
# Mechanical properties :
#
#
# Convention : Reuss Voigt Hill
#
# Bulk Modulus (GPa) = 54.00237 68.28251 61.14244
# Shear Modulus (GPa) = 23.86529 38.79276 31.32903
#
# Velocity S-wave (km/s) = 3.01451 3.84334 3.45387
# Velocity P-wave (km/s) = 5.71656 6.75982 6.25996
#
# Compressibility (1/GPa) = 0.01851771
#
# Stress axis : x y z
#
# Youngs Moduli (GPa) = 37.50503 28.74491 206.13264
#
# Poissons Ratio (x) = 0.62535 0.67242
# Poissons Ratio (y) = 0.81593 -0.23183
# Poissons Ratio (z) = 0.12234 -0.03233
#
# Static dielectric constant tensor:
#      x y z
#    x 2.012090 0.000000 0.000000 
#    y 0.000000 1.974860 0.000000 
#    z 0.000000 0.000000 2.120310 
# 
# From -- ./inp_files/2069.got.cif
#   From: 2010.05.17/outbox.cif.g08.bks.cpg/sg54_2_cif.got.tgz:2069.got - 2010.06.03 13:09:01.
