data_PCOD9422590
_publ_section_title
;
Structure prediction by ZEFSAII (Michael W. Deem and Ramdas Pophale) SiO2 
 PCOD9422590
Probable space group: P C C A
;
_chemical_formula_sum "Si O2"
_cell_formula_units_Z 40
_cell_length_a 23.049190
_cell_length_b 8.214493
_cell_length_c 8.863012
_cell_angle_alpha 90.000000
_cell_angle_beta 90.000000
_cell_angle_gamma 90.000000
_cell_volume 1678.099736
_symmetry_space_group_name_H-M "P C C A"
_symmetry_group_IT_number 54
_symmetry_cell_setting 'orthorhombic'
loop_
_space_group_symop_operation_xyz
x,y,z
1/2-x,-y,z
1/2+x,-y,1/2-z
-x,y,1/2-z
-x,-y,-z
1/2+x,y,-z
1/2-x,y,1/2+z
x,-y,1/2+z
loop_
_atom_site_type_symbol
_atom_site_label
_atom_site_fract_x
_atom_site_fract_y
_atom_site_fract_z
Si Si1 0.217583 0.327354 0.364428
Si Si2 0.452794 0.715737 0.952948
Si Si3 0.294398 0.135790 0.152165
Si Si4 0.000000 0.466005 0.250000
Si Si5 0.380444 0.144715 0.681490
Si Si6 0.500000 0.986679 0.750000
O O1 0.250000 0.500000 0.351886
O O2 0.265645 0.202584 0.302501
O O3 0.201360 0.282763 0.535097
O O4 0.160307 0.274936 0.267427
O O5 0.450429 0.585323 0.818315
O O6 0.492800 0.862140 0.890799
O O7 0.478267 0.627907 0.102159
O O8 0.393018 0.789214 0.013624
O O9 0.250000 0.000000 0.089618
O O10 0.351168 0.031591 0.176673
O O11 0.443200 0.099505 0.749662
#
# Coordination Sequence:
#
# PCOD9422590 Si02
#       6
#     8   8   8   4   8   4
#     4  11  24  46  70 106 141 187 241 306 370 428
#     4  10  21  41  64  98 141 189 237 283 356 424
#     4  10  22  44  72  97 135 184 243 298 359 433
#     4   9  21  42  62  92 150 188 228 290 346 432
#     4  11  23  42  73 108 142 191 240 304 358 444
#     4  11  23  42  74 108 144 198 248 294 354 448
#
# _framework density 23.836487000000002
#
# number of rings (size 3 to 8) (size 9 to 14) (size 15 to 20)
#    0.000    1.600    0.000    4.800    0.000    3.200 
#   21.600    0.000    0.000    0.000    0.000    0.000 
#    0.000    0.000    0.000    0.000    0.000    0.000 
#
# Total GULP energy -223315.456325 kJ/mol
# GULP energy per Si atom -5582.886408 kJ/mol
# Density = 2.378223 g / cm^3
# Si number density = 23.836487 Si / 1000 Ang^3
#
#
#
# Elastic Constant Matrix: (Units=GPa)
#
#
# Indices 1 2 3 4 5 6 
#
# 1 133.0422 53.3778 29.1051 0.0000 0.0000 0.0000
# 2 53.3778 143.2817 50.4853 0.0000 0.0000 0.0000
# 3 29.1051 50.4853 98.2800 0.0000 0.0000 0.0000
# 4 0.0000 0.0000 0.0000 116.8729 0.0000 0.0000
# 5 0.0000 0.0000 0.0000 0.0000 23.6685 0.0000
# 6 0.0000 0.0000 0.0000 0.0000 0.0000 7.6864
#
#
#
# Elastic Compliance Matrix: (Units=1/GPa)
#
#
# Indices 1 2 3 4 5 6 
#
# 1 0.008941 -0.002928 -0.001144 0.000000 0.000000 0.000000
# 2 -0.002928 0.009480 -0.004003 0.000000 0.000000 0.000000
# 3 -0.001144 -0.004003 0.012570 0.000000 0.000000 0.000000
# 4 0.000000 0.000000 0.000000 0.008556 0.000000 0.000000
# 5 0.000000 0.000000 0.000000 0.000000 0.042250 0.000000
# 6 0.000000 0.000000 0.000000 0.000000 0.000000 0.130101
#
#
# Mechanical properties :
#
#
# Convention : Reuss Voigt Hill
#
# Bulk Modulus (GPa) = 67.37471 71.17113 69.27292
# Shear Modulus (GPa) = 21.45961 45.75461 33.60711
#
# Velocity S-wave (km/s) = 3.00373 4.38599 3.75894
# Velocity P-wave (km/s) = 6.35268 7.45467 6.92563
#
# Compressibility (1/GPa) = 0.01484236
#
# Stress axis : x y z
#
# Youngs Moduli (GPa) = 111.83967 105.48020 79.55436
#
# Poissons Ratio (x) = 0.30884 0.09100
# Poissons Ratio (y) = 0.32746 0.31845
# Poissons Ratio (z) = 0.12793 0.42223
#
# Static dielectric constant tensor:
#      x y z
#    x 2.068840 0.000000 0.000000 
#    y 0.000000 2.003490 0.000000 
#    z 0.000000 0.000000 1.940270 
# 
# From -- ./inp_files/5045.got.cif
#   From: 2010.05.17/outbox.cif.g08.bks.cpg/sg54_3_cif.got.tgz:5045.got - 2010.06.03 13:09:01.
