data_PCOD9422205
_publ_section_title
;
Structure prediction by ZEFSAII (Michael W. Deem and Ramdas Pophale) SiO2 
 PCOD9422205
Probable space group: P C C A
;
_chemical_formula_sum "Si O2"
_cell_formula_units_Z 40
_cell_length_a 14.237381
_cell_length_b 8.659725
_cell_length_c 15.132129
_cell_angle_alpha 90.000000
_cell_angle_beta 90.000000
_cell_angle_gamma 90.000000
_cell_volume 1865.667485
_symmetry_space_group_name_H-M "P C C A"
_symmetry_group_IT_number 54
_symmetry_cell_setting 'orthorhombic'
loop_
_space_group_symop_operation_xyz
x,y,z
1/2-x,-y,z
1/2+x,-y,1/2-z
-x,y,1/2-z
-x,-y,-z
1/2+x,y,-z
1/2-x,y,1/2+z
x,-y,1/2+z
loop_
_atom_site_type_symbol
_atom_site_label
_atom_site_fract_x
_atom_site_fract_y
_atom_site_fract_z
Si Si1 0.681630 0.126655 0.303983
Si Si2 0.894636 0.803737 0.127298
Si Si3 0.236975 0.812921 0.011336
Si Si4 0.511803 0.095382 0.850183
Si Si5 0.030732 0.676232 0.000957
O O1 0.638963 0.228806 0.226272
O O2 0.738379 0.209873 0.382163
O O3 0.750000 0.000000 0.259809
O O4 0.600377 0.020330 0.347442
O O5 0.816695 0.756352 0.055829
O O6 0.922449 0.985957 0.127425
O O7 0.990900 0.727962 0.095767
O O8 0.250000 0.000000 0.002741
O O9 0.138774 0.727636 0.988900
O O10 0.500000 0.155007 0.750000
O O11 0.520540 0.223800 0.924577
O O12 0.000000 0.500000 0.000000
#
# Coordination Sequence:
#
# PCOD9422205 Si02
#       5
#     8   8   8   8   8
#     4  10  21  36  68 107 120 167 234 292 340 407
#     4  11  22  41  68  93 135 174 233 288 350 419
#     4  11  21  39  69  94 128 171 232 282 344 417
#     4  10  21  40  65  98 127 174 234 292 340 418
#     4  12  25  42  64  99 138 188 225 287 373 432
#
# _framework density 21.440048999999998
#
# number of rings (size 3 to 8) (size 9 to 14) (size 15 to 20)
#    0.000    1.200    4.000    3.600    2.800    0.800 
#    3.600    0.000    0.000    2.400    0.000    0.000 
#    0.000    0.000    0.000    0.000    0.000    0.000 
#
# Total GULP energy -222917.299341 kJ/mol
# GULP energy per Si atom -5572.932484 kJ/mol
# Density = 2.139125 g / cm^3
# Si number density = 21.440049 Si / 1000 Ang^3
#
#
#
# Elastic Constant Matrix: (Units=GPa)
#
#
# Indices 1 2 3 4 5 6 
#
# 1 135.5889 25.2089 46.9001 0.0000 0.0000 0.0000
# 2 25.2089 73.1560 34.8448 0.0000 0.0000 0.0000
# 3 46.9001 34.8448 114.3001 0.0000 0.0000 0.0000
# 4 0.0000 0.0000 0.0000 9.9159 0.0000 0.0000
# 5 0.0000 0.0000 0.0000 0.0000 52.4505 0.0000
# 6 0.0000 0.0000 0.0000 0.0000 0.0000 18.1563
#
#
#
# Elastic Compliance Matrix: (Units=1/GPa)
#
#
# Indices 1 2 3 4 5 6 
#
# 1 0.008738 -0.001525 -0.003121 0.000000 0.000000 0.000000
# 2 -0.001525 0.016257 -0.004331 0.000000 0.000000 0.000000
# 3 -0.003121 -0.004331 0.011350 0.000000 0.000000 0.000000
# 4 0.000000 0.000000 0.000000 0.100848 0.000000 0.000000
# 5 0.000000 0.000000 0.000000 0.000000 0.019066 0.000000
# 6 0.000000 0.000000 0.000000 0.000000 0.000000 0.055077
#
#
# Mechanical properties :
#
#
# Convention : Reuss Voigt Hill
#
# Bulk Modulus (GPa) = 54.36728 59.66137 57.01433
# Shear Modulus (GPa) = 21.23877 30.51063 25.87470
#
# Velocity S-wave (km/s) = 3.15081 3.77645 3.47773
# Velocity P-wave (km/s) = 6.21689 6.84857 6.54036
#
# Compressibility (1/GPa) = 0.01839342
#
# Stress axis : x y z
#
# Youngs Moduli (GPa) = 114.44082 61.51019 88.10916
#
# Poissons Ratio (x) = 0.09378 0.27496
# Poissons Ratio (y) = 0.17449 0.38156
# Poissons Ratio (z) = 0.35713 0.26637
#
# Static dielectric constant tensor:
#      x y z
#    x 1.885630 0.000000 0.000000 
#    y 0.000000 1.791540 0.000000 
#    z 0.000000 0.000000 1.829000 
# 
# From -- ./inp_files/13196.got.cif
#   From: 2010.05.17/outbox.cif.g08.bks.cpg/sg54_7_cif.got.tgz:13196.got - 2010.06.03 13:09:01.
