data_PCOD9422704
_publ_section_title
;
Structure prediction by ZEFSAII (Michael W. Deem and Ramdas Pophale) SiO2 
 PCOD9422704
Probable space group: P C C A
;
_chemical_formula_sum "Si O2"
_cell_formula_units_Z 48
_cell_length_a 26.292639
_cell_length_b 8.502520
_cell_length_c 9.325982
_cell_angle_alpha 90.000000
_cell_angle_beta 90.000000
_cell_angle_gamma 90.000000
_cell_volume 2084.857679
_symmetry_space_group_name_H-M "P C C A"
_symmetry_group_IT_number 54
_symmetry_cell_setting 'orthorhombic'
loop_
_space_group_symop_operation_xyz
x,y,z
1/2-x,-y,z
1/2+x,-y,1/2-z
-x,y,1/2-z
-x,-y,-z
1/2+x,y,-z
1/2-x,y,1/2+z
x,-y,1/2+z
loop_
_atom_site_type_symbol
_atom_site_label
_atom_site_fract_x
_atom_site_fract_y
_atom_site_fract_z
Si Si1 0.890765 0.467924 0.974297
Si Si2 0.286532 0.347906 0.906198
Si Si3 0.632760 0.703322 0.696559
Si Si4 0.239617 0.819455 0.178670
Si Si5 0.454124 0.917795 0.862800
Si Si6 0.479536 0.258976 0.910269
O O1 0.843837 0.373342 0.044722
O O2 0.876669 0.638137 0.037063
O O3 0.944936 0.398590 0.026329
O O4 0.885365 0.434027 0.805696
O O5 0.250000 0.500000 0.924834
O O6 0.283192 0.290645 0.744220
O O7 0.265630 0.213886 0.011345
O O8 0.688867 0.755413 0.741459
O O9 0.594991 0.848329 0.712608
O O10 0.250000 0.000000 0.206989
O O11 0.500000 0.922011 0.750000
O O12 0.446123 0.097985 0.908295
O O13 0.474349 0.802129 0.988625
O O14 0.500000 0.294910 0.750000
#
# Coordination Sequence:
#
# PCOD9422704 Si02
#       6
#     8   8   8   8   8   8
#     4  11  25  42  65  99 128 177 219 272 340 398
#     4  11  23  45  68  94 138 173 220 279 339 407
#     4  11  25  43  66  97 133 173 224 278 332 404
#     4  11  25  44  66 100 132 176 223 275 336 404
#     4  10  21  44  64  90 133 174 220 280 331 391
#     4  10  23  42  66  95 132 177 223 276 340 401
#
# _framework density 23.023154000000002
#
# number of rings (size 3 to 8) (size 9 to 14) (size 15 to 20)
#    0.000    1.333    3.333    1.000    7.000    1.333 
#    0.000    0.000    0.000    0.000    0.000    0.000 
#    0.000    0.000    0.000    0.000    0.000    0.000 
#
# Total GULP energy -268227.541476 kJ/mol
# GULP energy per Si atom -5588.073781 kJ/mol
# Density = 2.297075 g / cm^3
# Si number density = 23.023154 Si / 1000 Ang^3
#
#
#
# Elastic Constant Matrix: (Units=GPa)
#
#
# Indices 1 2 3 4 5 6 
#
# 1 54.9917 15.4839 8.9930 0.0000 0.0000 0.0000
# 2 15.4839 66.5478 6.3325 0.0000 0.0000 0.0000
# 3 8.9930 6.3325 52.5416 0.0000 0.0000 0.0000
# 4 0.0000 0.0000 0.0000 22.6585 0.0000 0.0000
# 5 0.0000 0.0000 0.0000 0.0000 17.8923 0.0000
# 6 0.0000 0.0000 0.0000 0.0000 0.0000 25.9415
#
#
#
# Elastic Compliance Matrix: (Units=1/GPa)
#
#
# Indices 1 2 3 4 5 6 
#
# 1 0.019881 -0.004352 -0.002878 0.000000 0.000000 0.000000
# 2 -0.004352 0.016154 -0.001202 0.000000 0.000000 0.000000
# 3 -0.002878 -0.001202 0.019670 0.000000 0.000000 0.000000
# 4 0.000000 0.000000 0.000000 0.044134 0.000000 0.000000
# 5 0.000000 0.000000 0.000000 0.000000 0.055890 0.000000
# 6 0.000000 0.000000 0.000000 0.000000 0.000000 0.038548
#
#
# Mechanical properties :
#
#
# Convention : Reuss Voigt Hill
#
# Bulk Modulus (GPa) = 25.74656 26.18888 25.96772
# Shear Modulus (GPa) = 22.31275 22.84989 22.58132
#
# Velocity S-wave (km/s) = 3.11648 3.15377 3.13518
# Velocity P-wave (km/s) = 4.91499 4.96603 4.94058
#
# Compressibility (1/GPa) = 0.03884013
#
# Stress axis : x y z
#
# Youngs Moduli (GPa) = 50.30035 61.90525 50.83872
#
# Poissons Ratio (x) = 0.26940 0.14633
# Poissons Ratio (y) = 0.21890 0.06111
# Poissons Ratio (z) = 0.14478 0.07441
#
# Static dielectric constant tensor:
#      x y z
#    x 1.864390 0.000000 0.000000 
#    y 0.000000 1.898930 0.000000 
#    z 0.000000 0.000000 1.863780 
# 
# From -- ./inp_files/5854.got.cif
#   From: 2010.05.17/outbox.cif.g08.bks.cpg/sg54_3_cif.got.tgz:5854.got - 2010.06.03 13:09:01.
