data_PCOD9422469
_publ_section_title
;
Structure prediction by ZEFSAII (Michael W. Deem and Ramdas Pophale) SiO2 
 PCOD9422469
Probable space group: P C C A
;
_chemical_formula_sum "Si O2"
_cell_formula_units_Z 56
_cell_length_a 11.687837
_cell_length_b 15.055311
_cell_length_c 13.506830
_cell_angle_alpha 90.000000
_cell_angle_beta 90.000000
_cell_angle_gamma 90.000000
_cell_volume 2376.716117
_symmetry_space_group_name_H-M "P C C A"
_symmetry_group_IT_number 54
_symmetry_cell_setting 'orthorhombic'
loop_
_space_group_symop_operation_xyz
x,y,z
1/2-x,-y,z
1/2+x,-y,1/2-z
-x,y,1/2-z
-x,-y,-z
1/2+x,y,-z
1/2-x,y,1/2+z
x,-y,1/2+z
loop_
_atom_site_type_symbol
_atom_site_label
_atom_site_fract_x
_atom_site_fract_y
_atom_site_fract_z
Si Si1 0.293186 0.127614 0.593275
Si Si2 0.632379 0.481081 0.526137
Si Si3 0.173192 0.701896 0.708011
Si Si4 0.066890 0.806573 0.415934
Si Si5 0.052671 0.704764 0.911008
Si Si6 0.380938 0.623029 0.802194
Si Si7 0.941756 0.025963 0.896988
O O1 0.270933 0.213522 0.657625
O O2 0.329836 0.159384 0.484389
O O3 0.178706 0.072886 0.586688
O O4 0.397403 0.069704 0.642988
O O5 0.750000 0.500000 0.465993
O O6 0.500000 0.500000 0.500000
O O7 0.625791 0.376611 0.547858
O O8 0.645482 0.548313 0.617980
O O9 0.118637 0.733885 0.812256
O O10 0.272374 0.632525 0.730785
O O11 0.070546 0.672881 0.634386
O O12 0.098543 0.720315 0.352291
O O13 0.976247 0.772373 0.500452
O O14 0.021920 0.893938 0.358221
O O15 0.500000 0.599528 0.750000
O O16 0.000000 0.000000 0.000000
#
# Coordination Sequence:
#
# PCOD9422469 Si02
#       7
#     8   8   8   8   8   8   8
#     4   9  19  37  66  92 128 176 227 280 339 411
#     4  12  26  46  70 103 139 182 243 290 353 424
#     4  10  22  41  68  94 133 178 232 288 343 421
#     4  10  21  39  66  94 131 173 225 280 354 430
#     4  10  22  43  69  95 127 181 234 288 346 426
#     4  12  26  40  65 101 141 183 221 292 358 414
#     4   9  18  35  65  93 128 171 221 280 340 420
#
# _framework density 23.561921000000002
#
# number of rings (size 3 to 8) (size 9 to 14) (size 15 to 20)
#    0.000    1.714    2.857    0.857    4.000    1.143 
#    0.000    0.000   53.429    0.000    0.000    0.000 
#    0.000    0.000    0.000    0.000    0.000    0.000 
#
# Total GULP energy -312448.404385 kJ/mol
# GULP energy per Si atom -5579.435793 kJ/mol
# Density = 2.350829 g / cm^3
# Si number density = 23.561921 Si / 1000 Ang^3
#
#
#
# Elastic Constant Matrix: (Units=GPa)
#
#
# Indices 1 2 3 4 5 6 
#
# 1 112.5104 1.0070 20.3581 0.0000 0.0000 0.0000
# 2 1.0070 56.2228 6.4969 0.0000 0.0000 0.0000
# 3 20.3581 6.4969 47.0594 0.0000 0.0000 0.0000
# 4 0.0000 0.0000 0.0000 5.6266 0.0000 0.0000
# 5 0.0000 0.0000 0.0000 0.0000 26.2615 0.0000
# 6 0.0000 0.0000 0.0000 0.0000 0.0000 38.6588
#
#
#
# Elastic Compliance Matrix: (Units=1/GPa)
#
#
# Indices 1 2 3 4 5 6 
#
# 1 0.009648 0.000315 -0.004217 0.000000 0.000000 0.000000
# 2 0.000315 0.018085 -0.002633 0.000000 0.000000 0.000000
# 3 -0.004217 -0.002633 0.023438 0.000000 0.000000 0.000000
# 4 0.000000 0.000000 0.000000 0.177726 0.000000 0.000000
# 5 0.000000 0.000000 0.000000 0.000000 0.038079 0.000000
# 6 0.000000 0.000000 0.000000 0.000000 0.000000 0.025867
#
#
# Mechanical properties :
#
#
# Convention : Reuss Voigt Hill
#
# Bulk Modulus (GPa) = 26.24690 30.16849 28.20769
# Shear Modulus (GPa) = 15.69295 26.63809 21.16552
#
# Velocity S-wave (km/s) = 2.58356 3.36602 3.00041
# Velocity P-wave (km/s) = 4.47922 5.28569 4.89908
#
# Compressibility (1/GPa) = 0.03809974
#
# Stress axis : x y z
#
# Youngs Moduli (GPa) = 103.64459 55.29446 42.66638
#
# Poissons Ratio (x) = -0.01739 0.17994
# Poissons Ratio (y) = -0.03260 0.11233
# Poissons Ratio (z) = 0.43710 0.14558
#
# Static dielectric constant tensor:
#      x y z
#    x 1.960590 0.000000 0.000000 
#    y 0.000000 1.879190 0.000000 
#    z 0.000000 0.000000 1.917480 
# 
# From -- ./inp_files/12699.got.cif
#   From: 2010.05.17/outbox.cif.g08.bks.cpg/sg54_7_cif.got.tgz:12699.got - 2010.06.03 13:09:01.
