data_PCOD9422471
_publ_section_title
;
Structure prediction by ZEFSAII (Michael W. Deem and Ramdas Pophale) SiO2 
 PCOD9422471
Probable space group: P C C A
;
_chemical_formula_sum "Si O2"
_cell_formula_units_Z 64
_cell_length_a 27.821293
_cell_length_b 8.397045
_cell_length_c 13.074911
_cell_angle_alpha 90.000000
_cell_angle_beta 90.000000
_cell_angle_gamma 90.000000
_cell_volume 3054.516897
_symmetry_space_group_name_H-M "P C C A"
_symmetry_group_IT_number 54
_symmetry_cell_setting 'orthorhombic'
loop_
_space_group_symop_operation_xyz
x,y,z
1/2-x,-y,z
1/2+x,-y,1/2-z
-x,y,1/2-z
-x,-y,-z
1/2+x,y,-z
1/2-x,y,1/2+z
x,-y,1/2+z
loop_
_atom_site_type_symbol
_atom_site_label
_atom_site_fract_x
_atom_site_fract_y
_atom_site_fract_z
Si Si1 0.138904 0.437267 0.126447
Si Si2 0.453144 0.969935 0.817556
Si Si3 0.156630 0.679983 0.968121
Si Si4 0.562386 0.138378 0.480991
Si Si5 0.219575 0.637986 0.776946
Si Si6 0.623227 0.073653 0.825337
Si Si7 0.951643 0.353695 0.795329
Si Si8 0.714473 0.869313 0.857835
O O1 0.148850 0.502480 0.012933
O O2 0.187400 0.453358 0.192664
O O3 0.130403 0.249872 0.133224
O O4 0.094180 0.536421 0.176713
O O5 0.500000 0.004790 0.750000
O O6 0.408642 0.069948 0.775148
O O7 0.440137 0.785927 0.788112
O O8 0.461887 0.033226 0.931159
O O9 0.103649 0.753073 0.968663
O O10 0.188862 0.764488 0.055644
O O11 0.182872 0.702430 0.861025
O O12 0.535639 0.256128 0.400564
O O13 0.591710 0.019726 0.408314
O O14 0.250000 0.500000 0.830910
O O15 0.253913 0.766098 0.721734
O O16 0.671712 0.973389 0.808190
O O17 0.000000 0.434528 0.750000
O O18 0.750000 0.000000 0.906362
#
# Coordination Sequence:
#
# PCOD9422471 Si02
#       8
#     8   8   8   8   8   8   8   8
#     4  11  22  43  61  92 135 165 212 270 325 386
#     4  10  21  39  66  95 127 164 215 267 323 382
#     4  10  24  43  60  93 129 164 211 269 320 386
#     4   9  20  41  64  91 126 163 213 268 314 379
#     4  12  25  38  65  91 127 175 211 262 331 390
#     4  10  22  39  65  90 124 171 212 267 318 382
#     4   9  21  39  65  93 129 170 207 265 326 385
#     4  11  23  43  62  90 127 165 219 272 313 377
#
# _framework density 20.952577999999999
#
# number of rings (size 3 to 8) (size 9 to 14) (size 15 to 20)
#    0.000    1.750    2.500    1.500    1.750    6.500 
#    2.250    0.000    0.000    6.750    0.000    0.000 
#    0.000    0.000    0.000    0.000    0.000    0.000 
#
# Total GULP energy -356858.890533 kJ/mol
# GULP energy per Si atom -5575.920165 kJ/mol
# Density = 2.090489 g / cm^3
# Si number density = 20.952578 Si / 1000 Ang^3
#
#
#
# Elastic Constant Matrix: (Units=GPa)
#
#
# Indices 1 2 3 4 5 6 
#
# 1 90.1039 20.9379 32.8008 0.0000 0.0000 0.0000
# 2 20.9379 70.2360 18.5477 0.0000 0.0000 0.0000
# 3 32.8008 18.5477 79.5377 0.0000 0.0000 0.0000
# 4 0.0000 0.0000 0.0000 0.3691 0.0000 0.0000
# 5 0.0000 0.0000 0.0000 0.0000 35.0594 0.0000
# 6 0.0000 0.0000 0.0000 0.0000 0.0000 5.9667
#
#
#
# Elastic Compliance Matrix: (Units=1/GPa)
#
#
# Indices 1 2 3 4 5 6 
#
# 1 0.013532 -0.002728 -0.004944 0.000000 0.000000 0.000000
# 2 -0.002728 0.015722 -0.002541 0.000000 0.000000 0.000000
# 3 -0.004944 -0.002541 0.015204 0.000000 0.000000 0.000000
# 4 0.000000 0.000000 0.000000 2.709352 0.000000 0.000000
# 5 0.000000 0.000000 0.000000 0.000000 0.028523 0.000000
# 6 0.000000 0.000000 0.000000 0.000000 0.000000 0.167596
#
#
# Mechanical properties :
#
#
# Convention : Reuss Voigt Hill
#
# Bulk Modulus (GPa) = 41.61316 42.71671 42.16494
# Shear Modulus (GPa) = 1.67877 19.45178 10.56528
#
# Velocity S-wave (km/s) = 0.89608 3.05022 2.24798
# Velocity P-wave (km/s) = 4.57978 5.73034 5.18706
#
# Compressibility (1/GPa) = 0.02403086
#
# Stress axis : x y z
#
# Youngs Moduli (GPa) = 73.89769 63.60465 65.77104
#
# Poissons Ratio (x) = 0.17354 0.32520
# Poissons Ratio (y) = 0.20162 0.16713
# Poissons Ratio (z) = 0.36538 0.16163
#
# Static dielectric constant tensor:
#      x y z
#    x 1.789700 0.000000 0.000000 
#    y 0.000000 1.777930 0.000000 
#    z 0.000000 0.000000 1.762900 
# 
# From -- ./inp_files/10534.got.cif
#   From: 2010.05.17/outbox.cif.g08.bks.cpg/sg54_6_cif.got.tgz:10534.got - 2010.06.03 13:09:01.
