data_PCOD9422661
_publ_section_title
;
Structure prediction by ZEFSAII (Michael W. Deem and Ramdas Pophale) SiO2 
 PCOD9422661
Probable space group: P C C A
;
_chemical_formula_sum "Si O2"
_cell_formula_units_Z 64
_cell_length_a 10.189700
_cell_length_b 9.915278
_cell_length_c 29.059616
_cell_angle_alpha 90.000000
_cell_angle_beta 90.000000
_cell_angle_gamma 90.000000
_cell_volume 2936.000764
_symmetry_space_group_name_H-M "P C C A"
_symmetry_group_IT_number 54
_symmetry_cell_setting 'orthorhombic'
loop_
_space_group_symop_operation_xyz
x,y,z
1/2-x,-y,z
1/2+x,-y,1/2-z
-x,y,1/2-z
-x,-y,-z
1/2+x,y,-z
1/2-x,y,1/2+z
x,-y,1/2+z
loop_
_atom_site_type_symbol
_atom_site_label
_atom_site_fract_x
_atom_site_fract_y
_atom_site_fract_z
Si Si1 0.122081 0.596900 0.871402
Si Si2 0.014985 0.143041 0.803937
Si Si3 0.972151 0.872623 0.636537
Si Si4 0.394641 0.011285 0.452767
Si Si5 0.886822 0.576671 0.526185
Si Si6 0.393795 0.431893 0.290111
Si Si7 0.762326 0.838743 0.363384
Si Si8 0.389443 0.825556 0.537790
O O1 0.250000 0.500000 0.874459
O O2 0.134127 0.754253 0.858788
O O3 0.064449 0.599069 0.922183
O O4 0.046227 0.518606 0.831924
O O5 0.877192 0.194409 0.827040
O O6 0.000000 0.106195 0.750000
O O7 0.110168 0.273561 0.804170
O O8 0.049550 0.007210 0.832781
O O9 0.112349 0.800225 0.647139
O O10 0.978678 0.923287 0.583383
O O11 0.455930 0.160525 0.449946
O O12 0.250000 0.000000 0.432855
O O13 0.380546 0.959502 0.505538
O O14 0.750000 0.500000 0.526896
O O15 0.860377 0.712407 0.498660
O O16 0.000000 0.500000 0.500000
O O17 0.250000 0.500000 0.279716
O O18 0.500000 0.439039 0.250000
O O19 0.809446 0.808362 0.415525
O O20 0.750000 0.000000 0.361810
#
# Coordination Sequence:
#
# PCOD9422661 Si02
#       8
#     8   8   8   8   8   8   8   8
#     4  10  24  45  64  95 150 190 233 289 349 432
#     4  10  23  45  73 108 140 177 233 305 373 428
#     4  11  23  45  71 106 139 189 242 301 364 424
#     4  11  24  35  65  99 130 183 233 291 365 428
#     4  11  27  42  63  96 139 192 241 291 353 428
#     4  10  24  48  77 103 143 188 241 296 367 442
#     4  10  21  42  70 101 140 177 231 304 366 424
#     4  11  23  41  65  93 139 176 241 297 353 431
#
# _framework density 21.798359999999999
#
# number of rings (size 3 to 8) (size 9 to 14) (size 15 to 20)
#    0.000    1.500    3.750    0.375    7.000    4.500 
#    0.000   15.000    0.000    0.000    0.000    0.000 
#    0.000    0.000    0.000    0.000    0.000    0.000 
#
# Total GULP energy -356498.352521 kJ/mol
# GULP energy per Si atom -5570.286758 kJ/mol
# Density = 2.174875 g / cm^3
# Si number density = 21.798360 Si / 1000 Ang^3
#
#
#
# Elastic Constant Matrix: (Units=GPa)
#
#
# Indices 1 2 3 4 5 6 
#
# 1 97.2264 36.0315 43.5013 0.0000 0.0000 0.0000
# 2 36.0315 115.4501 59.3466 0.0000 0.0000 0.0000
# 3 43.5013 59.3466 157.3690 0.0000 0.0000 0.0000
# 4 0.0000 0.0000 0.0000 23.1084 0.0000 0.0000
# 5 0.0000 0.0000 0.0000 0.0000 20.9370 0.0000
# 6 0.0000 0.0000 0.0000 0.0000 0.0000 30.9442
#
#
#
# Elastic Compliance Matrix: (Units=1/GPa)
#
#
# Indices 1 2 3 4 5 6 
#
# 1 0.012336 -0.002601 -0.002429 0.000000 0.000000 0.000000
# 2 -0.002601 0.011293 -0.003540 0.000000 0.000000 0.000000
# 3 -0.002429 -0.003540 0.008361 0.000000 0.000000 0.000000
# 4 0.000000 0.000000 0.000000 0.043274 0.000000 0.000000
# 5 0.000000 0.000000 0.000000 0.000000 0.047762 0.000000
# 6 0.000000 0.000000 0.000000 0.000000 0.000000 0.032316
#
#
# Mechanical properties :
#
#
# Convention : Reuss Voigt Hill
#
# Bulk Modulus (GPa) = 67.34099 71.97827 69.65963
# Shear Modulus (GPa) = 28.17958 30.40900 29.29429
#
# Velocity S-wave (km/s) = 3.59937 3.73904 3.66987
# Velocity P-wave (km/s) = 6.94505 7.19252 7.06986
#
# Compressibility (1/GPa) = 0.01484980
#
# Stress axis : x y z
#
# Youngs Moduli (GPa) = 81.06257 88.54841 119.60498
#
# Poissons Ratio (x) = 0.23035 0.29052
# Poissons Ratio (y) = 0.21088 0.42337
# Poissons Ratio (z) = 0.19690 0.31344
#
# Static dielectric constant tensor:
#      x y z
#    x 2.012860 0.000000 0.000000 
#    y 0.000000 1.803880 0.000000 
#    z 0.000000 0.000000 1.811080 
# 
# From -- ./inp_files/28130.got.cif
#   From: 2010.05.17/outbox.cif.g08.bks.cpg/sg54_15_cif.got.tgz:28130.got - 2010.06.03 13:09:01.
