data_PCOD9422111
_publ_section_title
;
Structure prediction by ZEFSAII (Michael W. Deem and Ramdas Pophale) SiO2 
 PCOD9422111
Probable space group: P C C A
;
_chemical_formula_sum "Si O2"
_cell_formula_units_Z 32
_cell_length_a 8.026758
_cell_length_b 11.479603
_cell_length_c 14.368221
_cell_angle_alpha 90.000000
_cell_angle_beta 90.000000
_cell_angle_gamma 90.000000
_cell_volume 1323.945287
_symmetry_space_group_name_H-M "P C C A"
_symmetry_group_IT_number 54
_symmetry_cell_setting 'orthorhombic'
loop_
_space_group_symop_operation_xyz
x,y,z
1/2-x,-y,z
1/2+x,-y,1/2-z
-x,y,1/2-z
-x,-y,-z
1/2+x,y,-z
1/2-x,y,1/2+z
x,-y,1/2+z
loop_
_atom_site_type_symbol
_atom_site_label
_atom_site_fract_x
_atom_site_fract_y
_atom_site_fract_z
Si Si1 0.053320 0.482465 0.893831
Si Si2 0.506163 0.732279 0.355288
Si Si3 0.865926 0.773450 0.146206
Si Si4 0.688279 0.131154 0.356906
O O1 0.250000 0.500000 0.883067
O O2 0.964101 0.649270 0.140602
O O3 0.964411 0.593251 0.847927
O O4 0.000000 0.500000 0.000000
O O5 0.500000 0.779180 0.250000
O O6 0.320697 0.756384 0.394577
O O7 0.665168 0.791340 0.402034
O O8 0.834211 0.818736 0.251379
O O9 0.002166 0.859422 0.101765
O O10 0.750000 0.000000 0.353480
#
# Coordination Sequence:
#
# PCOD9422111 Si02
#       4
#     8   8   8   8
#     4  10  22  39  59  88 121 158 197 247 307 365
#     4   9  20  36  58  86 119 148 193 249 304 355
#     4   9  21  35  54  88 116 149 192 243 299 354
#     4  10  21  34  60  89 116 153 196 240 301 353
#
# _framework density 24.170185
#
# number of rings (size 3 to 8) (size 9 to 14) (size 15 to 20)
#    0.000    2.500    0.000    0.000   17.500    0.000 
#    0.000    0.000    0.000    3.000    0.000    0.000 
#    0.000    0.000    0.000    0.000    0.000    0.000 
#
# Total GULP energy -178366.955148 kJ/mol
# GULP energy per Si atom -5573.967348 kJ/mol
# Density = 2.411517 g / cm^3
# Si number density = 24.170185 Si / 1000 Ang^3
#
#
#
# Elastic Constant Matrix: (Units=GPa)
#
#
# Indices 1 2 3 4 5 6 
#
# 1 153.2273 70.3558 3.1967 0.0000 0.0000 0.0000
# 2 70.3558 154.7192 8.2093 0.0000 0.0000 0.0000
# 3 3.1967 8.2093 60.4029 0.0000 0.0000 0.0000
# 4 0.0000 0.0000 0.0000 -218.5979 0.0000 0.0000
# 5 0.0000 0.0000 0.0000 0.0000 23.4292 0.0000
# 6 0.0000 0.0000 0.0000 0.0000 0.0000 45.8940
#
#
#
# Elastic Compliance Matrix: (Units=1/GPa)
#
#
# Indices 1 2 3 4 5 6 
#
# 1 0.008249 -0.003755 0.000074 0.000000 0.000000 0.000000
# 2 -0.003755 0.008220 -0.000918 0.000000 0.000000 0.000000
# 3 0.000074 -0.000918 0.016676 0.000000 0.000000 0.000000
# 4 0.000000 0.000000 0.000000 -0.004575 0.000000 0.000000
# 5 0.000000 0.000000 0.000000 0.000000 0.042682 0.000000
# 6 0.000000 0.000000 0.000000 0.000000 0.000000 0.021789
#
#
# Mechanical properties :
#
#
# Convention : Reuss Voigt Hill
#
# Bulk Modulus (GPa) = 41.76111 59.09698 50.42905
# Shear Modulus (GPa) = 45.36293 -10.74909 17.30692
#
# Velocity S-wave (km/s) = 4.33692 -2.11114 2.67880
# Velocity P-wave (km/s) = 6.51106 4.30824 5.52064
#
# Compressibility (1/GPa) = 0.02394572
#
# Stress axis : x y z
#
# Youngs Moduli (GPa) = 121.22952 121.66148 59.96490
#
# Poissons Ratio (x) = 0.45683 -0.00442
# Poissons Ratio (y) = 0.45521 0.05507
# Poissons Ratio (z) = -0.00894 0.11173
#
# Static dielectric constant tensor:
#      x y z
#    x 2.014790 0.000000 0.000000 
#    y 0.000000 1.934890 0.000000 
#    z 0.000000 0.000000 2.045010 
# 
# From -- ./inp_files/11326.got.cif
#   From: 2010.05.17/outbox.cif.g08.bks.cpg/sg54_6_cif.got.tgz:11326.got - 2010.06.03 13:09:01.
