data_PCOD9422252
_publ_section_title
;
Structure prediction by ZEFSAII (Michael W. Deem and Ramdas Pophale) SiO2 
 PCOD9422252
Probable space group: P C C A
;
_chemical_formula_sum "Si O2"
_cell_formula_units_Z 44
_cell_length_a 8.970532
_cell_length_b 7.490158
_cell_length_c 32.089117
_cell_angle_alpha 90.000000
_cell_angle_beta 90.000000
_cell_angle_gamma 90.000000
_cell_volume 2156.090299
_symmetry_space_group_name_H-M "P C C A"
_symmetry_group_IT_number 54
_symmetry_cell_setting 'orthorhombic'
loop_
_space_group_symop_operation_xyz
x,y,z
1/2-x,-y,z
1/2+x,-y,1/2-z
-x,y,1/2-z
-x,-y,-z
1/2+x,y,-z
1/2-x,y,1/2+z
x,-y,1/2+z
loop_
_atom_site_type_symbol
_atom_site_label
_atom_site_fract_x
_atom_site_fract_y
_atom_site_fract_z
Si Si1 0.912809 0.243499 0.291743
Si Si2 0.250000 0.000000 0.494980
Si Si3 0.499488 0.073868 0.939373
Si Si4 0.929045 0.189010 0.794412
Si Si5 0.561919 0.339618 0.624252
Si Si6 0.095238 0.743740 0.381685
O O1 0.735959 0.273064 0.294242
O O2 0.000000 0.296355 0.250000
O O3 0.996779 0.335870 0.329739
O O4 0.924155 0.027549 0.294812
O O5 0.373409 0.076379 0.525923
O O6 0.153046 0.122426 0.463941
O O7 0.538571 0.214735 0.904261
O O8 0.467894 0.886479 0.915147
O O9 0.000000 0.240738 0.750000
O O10 0.019417 0.232747 0.836368
O O11 0.725721 0.247843 0.624274
O O12 0.567749 0.538123 0.606282
#
# Coordination Sequence:
#
# PCOD9422252 Si02
#       6
#     8   4   8   8   8   8
#     4  10  21  37  61  92 126 167 211 253 301 355
#     4  10  24  42  74  90 118 164 200 244 330 366
#     4  11  22  46  65  94 124 158 200 258 303 380
#     4  10  21  37  61  92 126 167 211 253 301 355
#     4  11  23  39  63  92 126 167 205 249 305 362
#     4  11  23  39  63  92 126 167 205 249 305 362
#
# _framework density 20.407309000000001
#
# number of rings (size 3 to 8) (size 9 to 14) (size 15 to 20)
#    0.000    1.455    3.636    1.091    2.545    2.909 
#    0.000    5.455    0.000    0.000    0.000    0.000 
#    0.000    0.000    0.000    0.000    0.000    0.000 
#
# Total GULP energy -245514.947598 kJ/mol
# GULP energy per Si atom -5579.885173 kJ/mol
# Density = 2.036086 g / cm^3
# Si number density = 20.407309 Si / 1000 Ang^3
#
#
#
# Elastic Constant Matrix: (Units=GPa)
#
#
# Indices 1 2 3 4 5 6 
#
# 1 81.9047 10.8262 37.4956 0.0000 0.0000 0.0000
# 2 10.8262 65.7645 28.8187 0.0000 0.0000 0.0000
# 3 37.4956 28.8187 129.0811 0.0000 0.0000 0.0000
# 4 0.0000 0.0000 0.0000 -0.8306 0.0000 0.0000
# 5 0.0000 0.0000 0.0000 0.0000 25.0748 0.0000
# 6 0.0000 0.0000 0.0000 0.0000 0.0000 9.2754
#
#
#
# Elastic Compliance Matrix: (Units=1/GPa)
#
#
# Indices 1 2 3 4 5 6 
#
# 1 0.014102 -0.000584 -0.003966 0.000000 0.000000 0.000000
# 2 -0.000584 0.016879 -0.003599 0.000000 0.000000 0.000000
# 3 -0.003966 -0.003599 0.009703 0.000000 0.000000 0.000000
# 4 0.000000 0.000000 0.000000 -1.204014 0.000000 0.000000
# 5 0.000000 0.000000 0.000000 0.000000 0.039881 0.000000
# 6 0.000000 0.000000 0.000000 0.000000 0.000000 0.107812
#
#
# Mechanical properties :
#
#
# Convention : Reuss Voigt Hill
#
# Bulk Modulus (GPa) = 41.00611 47.89238 44.44924
# Shear Modulus (GPa) = -5.04433 20.01125 7.48346
#
# Velocity S-wave (km/s) = -1.57391 3.13484 1.91703
# Velocity P-wave (km/s) = 4.10299 6.05162 5.16995
#
# Compressibility (1/GPa) = 0.02438661
#
# Stress axis : x y z
#
# Youngs Moduli (GPa) = 70.91137 59.24560 103.06477
#
# Poissons Ratio (x) = 0.03457 0.40877
# Poissons Ratio (y) = 0.04138 0.37092
# Poissons Ratio (z) = 0.28124 0.21322
#
# Static dielectric constant tensor:
#      x y z
#    x 1.799400 0.000000 0.000000 
#    y 0.000000 1.747560 0.000000 
#    z 0.000000 0.000000 1.705410 
# 
# From -- ./inp_files/27623.got.cif
#   From: 2010.05.17/outbox.cif.g08.bks.cpg/sg54_14_cif.got.tgz:27623.got - 2010.06.03 13:09:01.
