data_PCOD9422439
_publ_section_title
;
Structure prediction by ZEFSAII (Michael W. Deem and Ramdas Pophale) SiO2 
 PCOD9422439
Probable space group: P C C A
;
_chemical_formula_sum "Si O2"
_cell_formula_units_Z 40
_cell_length_a 13.622757
_cell_length_b 5.171185
_cell_length_c 26.807353
_cell_angle_alpha 90.000000
_cell_angle_beta 90.000000
_cell_angle_gamma 90.000000
_cell_volume 1888.465338
_symmetry_space_group_name_H-M "P C C A"
_symmetry_group_IT_number 54
_symmetry_cell_setting 'orthorhombic'
loop_
_space_group_symop_operation_xyz
x,y,z
1/2-x,-y,z
1/2+x,-y,1/2-z
-x,y,1/2-z
-x,-y,-z
1/2+x,y,-z
1/2-x,y,1/2+z
x,-y,1/2+z
loop_
_atom_site_type_symbol
_atom_site_label
_atom_site_fract_x
_atom_site_fract_y
_atom_site_fract_z
Si Si1 0.439845 0.634364 0.347235
Si Si2 0.458282 0.686605 0.458327
Si Si3 0.637850 0.926547 0.952136
Si Si4 0.437174 0.844037 0.650850
Si Si5 0.250000 0.000000 0.212687
Si Si6 0.750000 0.500000 0.717630
O O1 0.420950 0.579006 0.406153
O O2 0.520649 0.425842 0.328523
O O3 0.343127 0.570354 0.316487
O O4 0.478174 0.932397 0.346080
O O5 0.500000 0.500000 0.500000
O O6 0.375888 0.831530 0.491027
O O7 0.554601 0.855410 0.446930
O O8 0.603780 0.760836 0.904213
O O9 0.750000 0.000000 0.944678
O O10 0.346308 0.978779 0.678394
O O11 0.240559 0.748814 0.247147
#
# Coordination Sequence:
#
# PCOD9422439 Si02
#       6
#     8   8   8   8   4   4
#     4  11  25  44  68  97 140 175 217 277 337 405
#     4  10  21  40  62  96 135 170 216 263 331 407
#     4  10  21  39  63  97 130 172 218 272 330 396
#     4  11  23  44  71  98 132 171 225 289 331 387
#     4  12  26  46  72 100 130 172 238 282 338 402
#     4  12  28  46  66 100 134 180 228 274 344 412
#
# _framework density 21.181221000000001
#
# number of rings (size 3 to 8) (size 9 to 14) (size 15 to 20)
#    0.000    1.200    3.000    2.400    0.000    7.200 
#    1.800    0.000    0.000    0.000    0.000    0.000 
#    0.000    0.000    0.000    0.000    0.000    0.000 
#
# Total GULP energy -222916.494993 kJ/mol
# GULP energy per Si atom -5572.912375 kJ/mol
# Density = 2.113301 g / cm^3
# Si number density = 21.181221 Si / 1000 Ang^3
#
#
#
# Elastic Constant Matrix: (Units=GPa)
#
#
# Indices 1 2 3 4 5 6 
#
# 1 94.3111 -3.7005 35.3525 0.0000 0.0000 0.0000
# 2 -3.7005 64.0149 15.3578 0.0000 0.0000 0.0000
# 3 35.3525 15.3578 85.9212 0.0000 0.0000 0.0000
# 4 0.0000 0.0000 0.0000 37.9221 0.0000 0.0000
# 5 0.0000 0.0000 0.0000 0.0000 100.9971 0.0000
# 6 0.0000 0.0000 0.0000 0.0000 0.0000 8.4362
#
#
#
# Elastic Compliance Matrix: (Units=1/GPa)
#
#
# Indices 1 2 3 4 5 6 
#
# 1 0.012800 0.002093 -0.005641 0.000000 0.000000 0.000000
# 2 0.002093 0.016664 -0.003840 0.000000 0.000000 0.000000
# 3 -0.005641 -0.003840 0.014646 0.000000 0.000000 0.000000
# 4 0.000000 0.000000 0.000000 0.026370 0.000000 0.000000
# 5 0.000000 0.000000 0.000000 0.000000 0.009901 0.000000
# 6 0.000000 0.000000 0.000000 0.000000 0.000000 0.118537
#
#
# Mechanical properties :
#
#
# Convention : Reuss Voigt Hill
#
# Bulk Modulus (GPa) = 34.08941 37.58521 35.83731
# Shear Modulus (GPa) = 22.37439 42.62021 32.49730
#
# Velocity S-wave (km/s) = 3.25365 4.49059 3.92120
# Velocity P-wave (km/s) = 5.49946 6.68358 6.12023
#
# Compressibility (1/GPa) = 0.02933462
#
# Stress axis : x y z
#
# Youngs Moduli (GPa) = 78.12667 60.01124 68.27920
#
# Poissons Ratio (x) = -0.12561 0.38514
# Poissons Ratio (y) = -0.16353 0.26217
# Poissons Ratio (z) = 0.44068 0.23043
#
# Static dielectric constant tensor:
#      x y z
#    x 1.793210 0.000000 0.000000 
#    y 0.000000 1.734590 0.000000 
#    z 0.000000 0.000000 2.233210 
# 
# From -- ./inp_files/26078.got.cif
#   From: 2010.05.17/outbox.cif.g08.bks.cpg/sg54_14_cif.got.tgz:26078.got - 2010.06.03 13:09:01.
