data_PCOD9422351
_publ_section_title
;
Structure prediction by ZEFSAII (Michael W. Deem and Ramdas Pophale) SiO2 
 PCOD9422351
Probable space group: P C C A
;
_chemical_formula_sum "Si O2"
_cell_formula_units_Z 48
_cell_length_a 11.499686
_cell_length_b 9.676737
_cell_length_c 21.251637
_cell_angle_alpha 90.000000
_cell_angle_beta 90.000000
_cell_angle_gamma 90.000000
_cell_volume 2364.870201
_symmetry_space_group_name_H-M "P C C A"
_symmetry_group_IT_number 54
_symmetry_cell_setting 'orthorhombic'
loop_
_space_group_symop_operation_xyz
x,y,z
1/2-x,-y,z
1/2+x,-y,1/2-z
-x,y,1/2-z
-x,-y,-z
1/2+x,y,-z
1/2-x,y,1/2+z
x,-y,1/2+z
loop_
_atom_site_type_symbol
_atom_site_label
_atom_site_fract_x
_atom_site_fract_y
_atom_site_fract_z
Si Si1 0.152855 0.829485 0.583072
Si Si2 0.919867 0.109882 0.691510
Si Si3 0.545002 0.200729 0.683402
Si Si4 0.586251 0.878136 0.927831
Si Si5 0.435301 0.640200 0.981158
Si Si6 0.736317 0.653114 0.641002
O O1 0.287531 0.841463 0.599584
O O2 0.136762 0.697476 0.539741
O O3 0.070927 0.824121 0.643188
O O4 0.111125 0.968194 0.545094
O O5 0.826118 0.229745 0.682662
O O6 0.000000 0.146681 0.750000
O O7 0.993560 0.110868 0.627484
O O8 0.892216 0.946636 0.698759
O O9 0.500000 0.261390 0.750000
O O10 0.631950 0.288563 0.639358
O O11 0.535735 0.755660 0.969824
O O12 0.344496 0.635380 0.921891
O O13 0.500000 0.500000 0.000000
O O14 0.750000 0.500000 0.668805
#
# Coordination Sequence:
#
# PCOD9422351 Si02
#       6
#     8   8   8   8   8   8
#     4  10  21  38  63  88 124 154 202 261 309 377
#     4   9  20  40  67  90 122 159 207 259 311 375
#     4  10  22  40  66  97 123 160 205 260 320 376
#     4   9  21  39  58  93 117 158 203 253 316 366
#     4  11  24  40  62  86 124 168 208 256 307 377
#     4  11  24  40  60  92 126 165 208 257 309 377
#
# _framework density 20.297096
#
# number of rings (size 3 to 8) (size 9 to 14) (size 15 to 20)
#    0.000    2.000    0.000    2.000    7.000    0.667 
#    6.000    0.000    0.000    0.000    0.000    0.000 
#    0.000    0.000    0.000    0.000    0.000    0.000 
#
# Total GULP energy -267374.389998 kJ/mol
# GULP energy per Si atom -5570.299792 kJ/mol
# Density = 2.025090 g / cm^3
# Si number density = 20.297096 Si / 1000 Ang^3
#
#
#
# Elastic Constant Matrix: (Units=GPa)
#
#
# Indices 1 2 3 4 5 6 
#
# 1 85.3873 35.9128 -2.0080 0.0000 0.0000 0.0000
# 2 35.9128 84.5380 18.2824 0.0000 0.0000 0.0000
# 3 -2.0080 18.2824 37.5734 0.0000 0.0000 0.0000
# 4 0.0000 0.0000 0.0000 19.1985 0.0000 0.0000
# 5 0.0000 0.0000 0.0000 0.0000 17.3279 0.0000
# 6 0.0000 0.0000 0.0000 0.0000 0.0000 27.7616
#
#
#
# Elastic Compliance Matrix: (Units=1/GPa)
#
#
# Indices 1 2 3 4 5 6 
#
# 1 0.014861 -0.007248 0.004321 0.000000 0.000000 0.000000
# 2 -0.007248 0.016755 -0.008540 0.000000 0.000000 0.000000
# 3 0.004321 -0.008540 0.031001 0.000000 0.000000 0.000000
# 4 0.000000 0.000000 0.000000 0.052087 0.000000 0.000000
# 5 0.000000 0.000000 0.000000 0.000000 0.057710 0.000000
# 6 0.000000 0.000000 0.000000 0.000000 0.000000 0.036021
#
#
# Mechanical properties :
#
#
# Convention : Reuss Voigt Hill
#
# Bulk Modulus (GPa) = 25.19954 34.65257 29.92606
# Shear Modulus (GPa) = 20.44184 23.21171 21.82678
#
# Velocity S-wave (km/s) = 3.17698 3.38538 3.28283
# Velocity P-wave (km/s) = 5.08919 5.69129 5.39864
#
# Compressibility (1/GPa) = 0.03968326
#
# Stress axis : x y z
#
# Youngs Moduli (GPa) = 67.28924 59.68473 32.25734
#
# Poissons Ratio (x) = 0.43257 -0.13938
# Poissons Ratio (y) = 0.48769 0.27547
# Poissons Ratio (z) = -0.29074 0.50969
#
# Static dielectric constant tensor:
#      x y z
#    x 1.747560 0.000000 0.000000 
#    y 0.000000 1.768710 0.000000 
#    z 0.000000 0.000000 1.716720 
# 
# From -- ./inp_files/24033.got.cif
#   From: 2010.05.17/outbox.cif.g08.bks.cpg/sg54_13_cif.got.tgz:24033.got - 2010.06.03 13:09:01.
