data_PCOD9422335
_publ_section_title
;
Structure prediction by ZEFSAII (Michael W. Deem and Ramdas Pophale) SiO2 
 PCOD9422335
Probable space group: P C C A
;
_chemical_formula_sum "Si O2"
_cell_formula_units_Z 40
_cell_length_a 10.526109
_cell_length_b 14.786371
_cell_length_c 9.489696
_cell_angle_alpha 90.000000
_cell_angle_beta 90.000000
_cell_angle_gamma 90.000000
_cell_volume 1477.004307
_symmetry_space_group_name_H-M "P C C A"
_symmetry_group_IT_number 54
_symmetry_cell_setting 'orthorhombic'
loop_
_space_group_symop_operation_xyz
x,y,z
1/2-x,-y,z
1/2+x,-y,1/2-z
-x,y,1/2-z
-x,-y,-z
1/2+x,y,-z
1/2-x,y,1/2+z
x,-y,1/2+z
loop_
_atom_site_type_symbol
_atom_site_label
_atom_site_fract_x
_atom_site_fract_y
_atom_site_fract_z
Si Si1 0.845759 0.309560 0.642094
Si Si2 0.750000 0.500000 0.268147
Si Si3 0.750000 0.000000 0.013655
Si Si4 0.787503 0.117016 0.766765
Si Si5 0.500000 0.849358 0.250000
Si Si6 0.591726 0.706836 0.024663
Si Si7 0.500000 0.567684 0.250000
O O1 0.807160 0.409608 0.693295
O O2 0.820162 0.221880 0.742035
O O3 0.991887 0.309772 0.597762
O O4 0.744575 0.288921 0.514587
O O5 0.617648 0.526752 0.339493
O O6 0.671246 0.931793 0.911325
O O7 0.825596 0.935408 0.123575
O O8 0.634455 0.104972 0.779160
O O9 0.535892 0.790140 0.113609
O O10 0.569907 0.625402 0.133206
#
# Coordination Sequence:
#
# PCOD9422335 Si02
#       7
#     8   4   4   8   4   8   4
#     4  10  21  38  61  91 127 166 212 262 321 385
#     4  10  22  36  56  90 124 168 212 258 322 384
#     4  10  22  40  64  92 124 168 218 272 328 388
#     4  10  21  39  64  92 127 166 216 269 327 386
#     4   9  18  36  62  87 122 168 208 263 332 387
#     4   9  19  36  59  87 124 169 209 259 319 379
#     4   9  20  36  54  83 126 168 212 257 312 383
#
# _framework density 27.081842999999999
#
# number of rings (size 3 to 8) (size 9 to 14) (size 15 to 20)
#    0.000    2.400    0.000    2.400    0.000    6.400 
#    0.000    4.000    0.000    3.600    0.000    0.000 
#    0.000    0.000    0.000    0.000    0.000    0.000 
#
# Total GULP energy -223058.547200 kJ/mol
# GULP energy per Si atom -5576.463680 kJ/mol
# Density = 2.702020 g / cm^3
# Si number density = 27.081843 Si / 1000 Ang^3
#
#
#
# Elastic Constant Matrix: (Units=GPa)
#
#
# Indices 1 2 3 4 5 6 
#
# 1 158.3574 19.7389 3.0211 0.0000 0.0000 0.0000
# 2 19.7389 148.9958 52.4534 0.0000 0.0000 0.0000
# 3 3.0211 52.4534 116.6485 0.0000 0.0000 0.0000
# 4 0.0000 0.0000 0.0000 19.2884 0.0000 0.0000
# 5 0.0000 0.0000 0.0000 0.0000 31.1962 0.0000
# 6 0.0000 0.0000 0.0000 0.0000 0.0000 6.2641
#
#
#
# Elastic Compliance Matrix: (Units=1/GPa)
#
#
# Indices 1 2 3 4 5 6 
#
# 1 0.006427 -0.000942 0.000257 0.000000 0.000000 0.000000
# 2 -0.000942 0.008112 -0.003623 0.000000 0.000000 0.000000
# 3 0.000257 -0.003623 0.010195 0.000000 0.000000 0.000000
# 4 0.000000 0.000000 0.000000 0.051845 0.000000 0.000000
# 5 0.000000 0.000000 0.000000 0.000000 0.032055 0.000000
# 6 0.000000 0.000000 0.000000 0.000000 0.000000 0.159641
#
#
# Mechanical properties :
#
#
# Convention : Reuss Voigt Hill
#
# Bulk Modulus (GPa) = 62.04118 63.82538 62.93328
# Shear Modulus (GPa) = 17.71387 34.60230 26.15809
#
# Velocity S-wave (km/s) = 2.56029 3.57836 3.11125
# Velocity P-wave (km/s) = 5.63015 6.37900 6.01624
#
# Compressibility (1/GPa) = 0.01611833
#
# Stress axis : x y z
#
# Youngs Moduli (GPa) = 155.58525 123.27461 98.08342
#
# Poissons Ratio (x) = 0.11613 -0.02522
# Poissons Ratio (y) = 0.14656 0.35539
# Poissons Ratio (z) = -0.04001 0.44666
#
# Static dielectric constant tensor:
#      x y z
#    x 2.028400 0.000000 0.000000 
#    y 0.000000 2.209800 0.000000 
#    z 0.000000 0.000000 2.251650 
# 
# From -- ./inp_files/7541.got.cif
#   From: 2010.05.17/outbox.cif.g08.bks.cpg/sg54_4_cif.got.tgz:7541.got - 2010.06.03 13:09:01.
