data_PCOD9422132
_publ_section_title
;
Structure prediction by ZEFSAII (Michael W. Deem and Ramdas Pophale) SiO2 
 PCOD9422132
Probable space group: P C C A
;
_chemical_formula_sum "Si O2"
_cell_formula_units_Z 44
_cell_length_a 24.576856
_cell_length_b 9.175744
_cell_length_c 8.751482
_cell_angle_alpha 90.000000
_cell_angle_beta 90.000000
_cell_angle_gamma 90.000000
_cell_volume 1973.554923
_symmetry_space_group_name_H-M "P C C A"
_symmetry_group_IT_number 54
_symmetry_cell_setting 'orthorhombic'
loop_
_space_group_symop_operation_xyz
x,y,z
1/2-x,-y,z
1/2+x,-y,1/2-z
-x,y,1/2-z
-x,-y,-z
1/2+x,y,-z
1/2-x,y,1/2+z
x,-y,1/2+z
loop_
_atom_site_type_symbol
_atom_site_label
_atom_site_fract_x
_atom_site_fract_y
_atom_site_fract_z
Si Si1 0.828756 0.359733 0.225400
Si Si2 0.500000 0.053166 0.750000
Si Si3 0.741243 0.721765 0.519196
Si Si4 0.926908 0.133358 0.517956
Si Si5 0.862539 0.322314 0.719120
Si Si6 0.152619 0.871282 0.992879
O O1 0.790509 0.320283 0.367139
O O2 0.860720 0.506943 0.254495
O O3 0.788797 0.387335 0.079338
O O4 0.859968 0.216551 0.164649
O O5 0.536934 0.950477 0.643544
O O6 0.462358 0.142788 0.634028
O O7 0.696063 0.726483 0.650771
O O8 0.781591 0.860295 0.497973
O O9 0.905802 0.282670 0.589311
O O10 0.874198 0.028435 0.498565
O O11 0.871328 0.224282 0.868291
#
# Coordination Sequence:
#
# PCOD9422132 Si02
#       6
#     8   4   8   8   8   8
#     4  10  22  36  62  91 137 173 210 242 299 377
#     4  10  24  48  68  86 120 160 222 274 360 372
#     4  10  21  35  61  93 140 175 201 235 305 384
#     4  11  24  44  70  92 116 168 214 282 323 388
#     4  12  22  37  63  97 129 173 215 250 306 382
#     4  10  22  40  60  96 132 171 212 249 316 375
#
# _framework density 22.294791
#
# number of rings (size 3 to 8) (size 9 to 14) (size 15 to 20)
#    1.091    0.364    3.636    1.636    5.091    0.727 
#    0.000    1.818    0.000    6.545    0.000    0.000 
#    0.000    0.000    0.000    0.000    0.000    0.000 
#
# Total GULP energy -245587.444010 kJ/mol
# GULP energy per Si atom -5581.532818 kJ/mol
# Density = 2.224405 g / cm^3
# Si number density = 22.294791 Si / 1000 Ang^3
#
#
#
# Elastic Constant Matrix: (Units=GPa)
#
#
# Indices 1 2 3 4 5 6 
#
# 1 45.5213 15.5064 11.9031 0.0000 0.0000 0.0000
# 2 15.5064 69.4645 19.6551 0.0000 0.0000 0.0000
# 3 11.9031 19.6551 93.6755 0.0000 0.0000 0.0000
# 4 0.0000 0.0000 0.0000 19.4935 0.0000 0.0000
# 5 0.0000 0.0000 0.0000 0.0000 45.2242 0.0000
# 6 0.0000 0.0000 0.0000 0.0000 0.0000 -35.9091
#
#
#
# Elastic Compliance Matrix: (Units=1/GPa)
#
#
# Indices 1 2 3 4 5 6 
#
# 1 0.024144 -0.004807 -0.002059 0.000000 0.000000 0.000000
# 2 -0.004807 0.016261 -0.002801 0.000000 0.000000 0.000000
# 3 -0.002059 -0.002801 0.011525 0.000000 0.000000 0.000000
# 4 0.000000 0.000000 0.000000 0.051299 0.000000 0.000000
# 5 0.000000 0.000000 0.000000 0.000000 0.022112 0.000000
# 6 0.000000 0.000000 0.000000 0.000000 0.000000 -0.027848
#
#
# Mechanical properties :
#
#
# Convention : Reuss Voigt Hill
#
# Bulk Modulus (GPa) = 30.67956 33.64338 32.16147
# Shear Modulus (GPa) = 39.15663 16.53485 27.84574
#
# Velocity S-wave (km/s) = 4.19539 2.72627 3.53792
# Velocity P-wave (km/s) = 6.10402 5.00331 5.58087
#
# Compressibility (1/GPa) = 0.03259499
#
# Stress axis : x y z
#
# Youngs Moduli (GPa) = 41.41881 61.49510 86.77106
#
# Poissons Ratio (x) = 0.29560 0.17869
# Poissons Ratio (y) = 0.19909 0.24306
# Poissons Ratio (z) = 0.08529 0.17226
#
# Static dielectric constant tensor:
#      x y z
#    x 1.849110 0.000000 0.000000 
#    y 0.000000 1.843090 0.000000 
#    z 0.000000 0.000000 1.867120 
# 
# From -- ./inp_files/5764.got.cif
#   From: 2010.05.17/outbox.cif.g08.bks.cpg/sg54_3_cif.got.tgz:5764.got - 2010.06.03 13:09:01.
