data_PCOD9422247
_publ_section_title
;
Structure prediction by ZEFSAII (Michael W. Deem and Ramdas Pophale) SiO2 
 PCOD9422247
Probable space group: P C C A
;
_chemical_formula_sum "Si O2"
_cell_formula_units_Z 48
_cell_length_a 17.443005
_cell_length_b 5.886922
_cell_length_c 20.196723
_cell_angle_alpha 90.000000
_cell_angle_beta 90.000000
_cell_angle_gamma 90.000000
_cell_volume 2073.912819
_symmetry_space_group_name_H-M "P C C A"
_symmetry_group_IT_number 54
_symmetry_cell_setting 'orthorhombic'
loop_
_space_group_symop_operation_xyz
x,y,z
1/2-x,-y,z
1/2+x,-y,1/2-z
-x,y,1/2-z
-x,-y,-z
1/2+x,y,-z
1/2-x,y,1/2+z
x,-y,1/2+z
loop_
_atom_site_type_symbol
_atom_site_label
_atom_site_fract_x
_atom_site_fract_y
_atom_site_fract_z
Si Si1 0.885100 0.197994 0.596960
Si Si2 0.505574 0.507513 0.676606
Si Si3 0.136406 0.810328 0.644012
Si Si4 0.750000 0.500000 0.930413
Si Si5 0.142402 0.841840 0.793552
Si Si6 0.750000 0.500000 0.132305
Si Si7 0.336744 0.901111 0.522305
O O1 0.960952 0.334745 0.618238
O O2 0.815452 0.376097 0.589722
O O3 0.863898 0.062274 0.662756
O O4 0.883984 0.012562 0.538265
O O5 0.500000 0.625085 0.750000
O O6 0.429796 0.378408 0.652421
O O7 0.567084 0.309625 0.692575
O O8 0.210774 0.683682 0.616574
O O9 0.149472 0.902399 0.717145
O O10 0.124146 0.003728 0.589119
O O11 0.817247 0.364674 0.969283
O O12 0.210057 0.685435 0.821203
O O13 0.250000 0.000000 0.512865
#
# Coordination Sequence:
#
# PCOD9422247 Si02
#       7
#     8   8   8   4   8   4   8
#     4  11  23  39  64  93 125 166 208 260 319 376
#     4   9  22  41  61  90 127 165 211 264 313 371
#     4  10  22  41  62  89 125 168 212 259 319 380
#     4  10  23  41  62  88 127 165 212 268 319 377
#     4  10  21  37  61  90 123 166 211 259 317 378
#     4  10  21  37  60  92 125 155 210 266 311 377
#     4  10  23  40  62  92 127 167 207 260 321 379
#
# _framework density 23.144658
#
# number of rings (size 3 to 8) (size 9 to 14) (size 15 to 20)
#    0.000    2.000    0.000    2.000    0.000   20.667 
#    0.000    1.667    0.000    0.000    0.000    0.000 
#    0.000    0.000    0.000    0.000    0.000    0.000 
#
# Total GULP energy -268193.663367 kJ/mol
# GULP energy per Si atom -5587.367987 kJ/mol
# Density = 2.309198 g / cm^3
# Si number density = 23.144658 Si / 1000 Ang^3
#
#
#
# Elastic Constant Matrix: (Units=GPa)
#
#
# Indices 1 2 3 4 5 6 
#
# 1 57.0785 4.7265 29.7261 0.0000 0.0000 0.0000
# 2 4.7265 65.7372 73.9724 0.0000 0.0000 0.0000
# 3 29.7261 73.9724 185.8097 0.0000 0.0000 0.0000
# 4 0.0000 0.0000 0.0000 88.0412 0.0000 0.0000
# 5 0.0000 0.0000 0.0000 0.0000 14.7611 0.0000
# 6 0.0000 0.0000 0.0000 0.0000 0.0000 29.0167
#
#
#
# Elastic Compliance Matrix: (Units=1/GPa)
#
#
# Indices 1 2 3 4 5 6 
#
# 1 0.019635 0.003846 -0.004672 0.000000 0.000000 0.000000
# 2 0.003846 0.028310 -0.011886 0.000000 0.000000 0.000000
# 3 -0.004672 -0.011886 0.010861 0.000000 0.000000 0.000000
# 4 0.000000 0.000000 0.000000 0.011358 0.000000 0.000000
# 5 0.000000 0.000000 0.000000 0.000000 0.067746 0.000000
# 6 0.000000 0.000000 0.000000 0.000000 0.000000 0.034463
#
#
# Mechanical properties :
#
#
# Convention : Reuss Voigt Hill
#
# Bulk Modulus (GPa) = 29.95665 58.38615 44.17140
# Shear Modulus (GPa) = 23.93206 39.71049 31.82128
#
# Velocity S-wave (km/s) = 3.21911 4.14666 3.71197
# Velocity P-wave (km/s) = 5.17573 6.94318 6.12356
#
# Compressibility (1/GPa) = 0.03338157
#
# Stress axis : x y z
#
# Youngs Moduli (GPa) = 50.93069 35.32262 92.07094
#
# Poissons Ratio (x) = -0.13584 0.43017
# Poissons Ratio (y) = -0.19587 1.09435
# Poissons Ratio (z) = 0.23796 0.41984
#
# Static dielectric constant tensor:
#      x y z
#    x 1.972000 0.000000 0.000000 
#    y 0.000000 1.927110 0.000000 
#    z 0.000000 0.000000 1.887870 
# 
# From -- ./inp_files/22116.got.cif
#   From: 2010.05.17/outbox.cif.g08.bks.cpg/sg54_12_cif.got.tgz:22116.got - 2010.06.03 13:09:01.
