data_PCOD9422799
_publ_section_title
;
Structure prediction by ZEFSAII (Michael W. Deem and Ramdas Pophale) SiO2 
 PCOD9422799
Probable space group: P C C A
;
_chemical_formula_sum "Si O2"
_cell_formula_units_Z 40
_cell_length_a 9.858786
_cell_length_b 11.135807
_cell_length_c 15.780089
_cell_angle_alpha 90.000000
_cell_angle_beta 90.000000
_cell_angle_gamma 90.000000
_cell_volume 1732.425563
_symmetry_space_group_name_H-M "P C C A"
_symmetry_group_IT_number 54
_symmetry_cell_setting 'orthorhombic'
loop_
_space_group_symop_operation_xyz
x,y,z
1/2-x,-y,z
1/2+x,-y,1/2-z
-x,y,1/2-z
-x,-y,-z
1/2+x,y,-z
1/2-x,y,1/2+z
x,-y,1/2+z
loop_
_atom_site_type_symbol
_atom_site_label
_atom_site_fract_x
_atom_site_fract_y
_atom_site_fract_z
Si Si1 0.597047 0.753700 0.328695
Si Si2 0.832949 0.099966 0.638187
Si Si3 0.096047 0.763891 0.144773
Si Si4 0.909530 0.131023 0.042909
Si Si5 0.407690 0.500572 0.583549
O O1 0.500000 0.783882 0.250000
O O2 0.756386 0.776917 0.312354
O O3 0.544866 0.828370 0.409666
O O4 0.575344 0.616001 0.357570
O O5 0.718552 0.183386 0.597386
O O6 0.958898 0.170042 0.672921
O O7 0.750000 0.000000 0.692614
O O8 0.889679 0.010677 0.563067
O O9 0.067646 0.622756 0.134994
O O10 0.110799 0.818489 0.049817
O O11 0.250000 0.500000 0.556488
O O12 0.500000 0.500000 0.500000
#
# Coordination Sequence:
#
# PCOD9422799 Si02
#       5
#     8   8   8   8   8
#     4  11  24  41  62  95 139 173 226 280 339 402
#     4   8  21  34  59  98 131 164 232 272 321 384
#     4  11  19  38  65  94 128 180 221 277 337 397
#     4   9  19  37  62  93 134 169 229 269 326 398
#     4  10  22  37  63  94 124 173 229 274 337 405
#
# _framework density 23.089016000000001
#
# number of rings (size 3 to 8) (size 9 to 14) (size 15 to 20)
#    1.200    0.800    2.000    1.800    2.800    0.800 
#    0.000   14.000    0.000    0.000    0.000    0.000 
#    0.000    0.000    0.000    0.000    0.000    0.000 
#
# Total GULP energy -223174.535872 kJ/mol
# GULP energy per Si atom -5579.363397 kJ/mol
# Density = 2.303646 g / cm^3
# Si number density = 23.089016 Si / 1000 Ang^3
#
#
#
# Elastic Constant Matrix: (Units=GPa)
#
#
# Indices 1 2 3 4 5 6 
#
# 1 175.9596 46.1771 38.6145 0.0000 0.0000 0.0000
# 2 46.1771 100.1520 3.6420 0.0000 0.0000 0.0000
# 3 38.6145 3.6420 58.4818 0.0000 0.0000 0.0000
# 4 0.0000 0.0000 0.0000 -4.0047 0.0000 0.0000
# 5 0.0000 0.0000 0.0000 0.0000 35.0497 0.0000
# 6 0.0000 0.0000 0.0000 0.0000 0.0000 41.5563
#
#
#
# Elastic Compliance Matrix: (Units=1/GPa)
#
#
# Indices 1 2 3 4 5 6 
#
# 1 0.007617 -0.003337 -0.004821 0.000000 0.000000 0.000000
# 2 -0.003337 0.011469 0.001489 0.000000 0.000000 0.000000
# 3 -0.004821 0.001489 0.020190 0.000000 0.000000 0.000000
# 4 0.000000 0.000000 0.000000 -0.249708 0.000000 0.000000
# 5 0.000000 0.000000 0.000000 0.000000 0.028531 0.000000
# 6 0.000000 0.000000 0.000000 0.000000 0.000000 0.024064
#
#
# Mechanical properties :
#
#
# Convention : Reuss Voigt Hill
#
# Bulk Modulus (GPa) = 38.55400 56.82896 47.69148
# Shear Modulus (GPa) = -36.80435 30.93092 -2.93672
#
# Velocity S-wave (km/s) = -3.99685 3.66408 -1.12901
# Velocity P-wave (km/s) = 2.13670 6.52434 4.35899
#
# Compressibility (1/GPa) = 0.02593764
#
# Stress axis : x y z
#
# Youngs Moduli (GPa) = 131.28862 87.19108 49.52910
#
# Poissons Ratio (x) = 0.29092 0.23880
# Poissons Ratio (y) = 0.43805 -0.07374
# Poissons Ratio (z) = 0.63300 -0.12981
#
# Static dielectric constant tensor:
#      x y z
#    x 1.939080 0.000000 0.000000 
#    y 0.000000 1.893480 0.000000 
#    z 0.000000 0.000000 1.967780 
# 
# From -- ./inp_files/12471.got.cif
#   From: 2010.05.17/outbox.cif.g08.bks.cpg/sg54_7_cif.got.tgz:12471.got - 2010.06.03 13:09:01.
