data_PCOD9422262
_publ_section_title
;
Structure prediction by ZEFSAII (Michael W. Deem and Ramdas Pophale) SiO2 
 PCOD9422262
Probable space group: P C C A
;
_chemical_formula_sum "Si O2"
_cell_formula_units_Z 56
_cell_length_a 8.984609
_cell_length_b 15.341228
_cell_length_c 20.135824
_cell_angle_alpha 90.000000
_cell_angle_beta 90.000000
_cell_angle_gamma 90.000000
_cell_volume 2775.419995
_symmetry_space_group_name_H-M "P C C A"
_symmetry_group_IT_number 54
_symmetry_cell_setting 'orthorhombic'
loop_
_space_group_symop_operation_xyz
x,y,z
1/2-x,-y,z
1/2+x,-y,1/2-z
-x,y,1/2-z
-x,-y,-z
1/2+x,y,-z
1/2-x,y,1/2+z
x,-y,1/2+z
loop_
_atom_site_type_symbol
_atom_site_label
_atom_site_fract_x
_atom_site_fract_y
_atom_site_fract_z
Si Si1 0.190332 0.907704 0.436848
Si Si2 0.179960 0.721563 0.259203
Si Si3 0.335412 0.592511 0.879446
Si Si4 0.687349 0.414831 0.349703
Si Si5 0.947406 0.206167 0.013000
Si Si6 0.661617 0.914871 0.718580
Si Si7 0.798163 0.669190 0.971649
O O1 0.331274 0.843404 0.440914
O O2 0.145477 0.919669 0.360910
O O3 0.054618 0.862524 0.475850
O O4 0.250000 0.000000 0.464469
O O5 0.214399 0.663793 0.324418
O O6 0.228075 0.668469 0.194584
O O7 0.233033 0.820964 0.264578
O O8 0.000000 0.725928 0.250000
O O9 0.250000 0.500000 0.875211
O O10 0.511197 0.579220 0.863792
O O11 0.313584 0.633440 0.953187
O O12 0.750000 0.500000 0.313727
O O13 0.771567 0.405757 0.419316
O O14 0.842132 0.264955 0.966023
O O15 0.056757 0.275351 0.046041
O O16 0.500000 0.917456 0.750000
O O17 0.750000 0.000000 0.741228
#
# Coordination Sequence:
#
# PCOD9422262 Si02
#       7
#     8   8   8   8   8   8   8
#     4  10  21  40  64  95 130 165 211 271 324 381
#     4   9  20  41  66  85 123 168 208 258 320 376
#     4  11  23  40  65  89 126 173 212 262 324 383
#     4  11  24  40  60  93 124 163 219 268 318 382
#     4  10  21  37  63  92 126 165 214 253 323 390
#     4  10  22  43  68  94 129 167 216 262 319 385
#     4  11  22  37  61  91 126 168 210 259 320 385
#
# _framework density 20.177126999999999
#
# number of rings (size 3 to 8) (size 9 to 14) (size 15 to 20)
#    0.000    1.714    1.429    3.000    6.000    1.143 
#    5.143    0.714    0.000    0.000    0.000    0.000 
#    0.000    0.000    0.000    0.000    0.000    0.000 
#
# Total GULP energy -312566.843627 kJ/mol
# GULP energy per Si atom -5581.550779 kJ/mol
# Density = 2.013120 g / cm^3
# Si number density = 20.177127 Si / 1000 Ang^3
#
#
#
# Elastic Constant Matrix: (Units=GPa)
#
#
# Indices 1 2 3 4 5 6 
#
# 1 78.0990 30.2002 21.1178 0.0000 0.0000 0.0000
# 2 30.2002 142.5315 37.6380 0.0000 0.0000 0.0000
# 3 21.1178 37.6380 83.1212 0.0000 0.0000 0.0000
# 4 0.0000 0.0000 0.0000 26.0236 0.0000 0.0000
# 5 0.0000 0.0000 0.0000 0.0000 8.0220 0.0000
# 6 0.0000 0.0000 0.0000 0.0000 0.0000 36.3769
#
#
#
# Elastic Compliance Matrix: (Units=1/GPa)
#
#
# Indices 1 2 3 4 5 6 
#
# 1 0.014422 -0.002372 -0.002590 0.000000 0.000000 0.000000
# 2 -0.002372 0.008359 -0.003182 0.000000 0.000000 0.000000
# 3 -0.002590 -0.003182 0.014130 0.000000 0.000000 0.000000
# 4 0.000000 0.000000 0.000000 0.038427 0.000000 0.000000
# 5 0.000000 0.000000 0.000000 0.000000 0.124656 0.000000
# 6 0.000000 0.000000 0.000000 0.000000 0.000000 0.027490
#
#
# Mechanical properties :
#
#
# Convention : Reuss Voigt Hill
#
# Bulk Modulus (GPa) = 48.49221 53.51818 51.00520
# Shear Modulus (GPa) = 19.94846 28.40420 24.17633
#
# Velocity S-wave (km/s) = 3.14772 3.75606 3.46526
# Velocity P-wave (km/s) = 6.10707 6.73739 6.42996
#
# Compressibility (1/GPa) = 0.02062187
#
# Stress axis : x y z
#
# Youngs Moduli (GPa) = 69.33968 119.63276 70.77302
#
# Poissons Ratio (x) = 0.28375 0.18330
# Poissons Ratio (y) = 0.16446 0.22523
# Poissons Ratio (z) = 0.17959 0.38072
#
# Static dielectric constant tensor:
#      x y z
#    x 1.704300 0.000000 0.000000 
#    y 0.000000 1.760340 0.000000 
#    z 0.000000 0.000000 1.703930 
# 
# From -- ./inp_files/20548.got.cif
#   From: 2010.05.17/outbox.cif.g08.bks.cpg/sg54_11_cif.got.tgz:20548.got - 2010.06.03 13:09:01.
