data_PCOD9422340
_publ_section_title
;
Structure prediction by ZEFSAII (Michael W. Deem and Ramdas Pophale) SiO2 
 PCOD9422340
Probable space group: P C C A
;
_chemical_formula_sum "Si O2"
_cell_formula_units_Z 52
_cell_length_a 15.066339
_cell_length_b 8.232393
_cell_length_c 22.162761
_cell_angle_alpha 90.000000
_cell_angle_beta 90.000000
_cell_angle_gamma 90.000000
_cell_volume 2748.892098
_symmetry_space_group_name_H-M "P C C A"
_symmetry_group_IT_number 54
_symmetry_cell_setting 'orthorhombic'
loop_
_space_group_symop_operation_xyz
x,y,z
1/2-x,-y,z
1/2+x,-y,1/2-z
-x,y,1/2-z
-x,-y,-z
1/2+x,y,-z
1/2-x,y,1/2+z
x,-y,1/2+z
loop_
_atom_site_type_symbol
_atom_site_label
_atom_site_fract_x
_atom_site_fract_y
_atom_site_fract_z
Si Si1 0.676042 0.193526 0.693820
Si Si2 0.061054 0.558133 0.189393
Si Si3 0.495211 0.777144 0.128059
Si Si4 0.750000 0.000000 0.588635
Si Si5 0.583239 0.885744 0.014454
Si Si6 0.750000 0.000000 0.801491
Si Si7 0.898545 0.869919 0.378825
Si Si8 0.250000 0.500000 0.743403
O O1 0.575707 0.185063 0.672994
O O2 0.707336 0.366688 0.714158
O O3 0.738684 0.143591 0.637578
O O4 0.685508 0.087069 0.754063
O O5 0.044509 0.726967 0.153019
O O6 0.165197 0.560736 0.206271
O O7 0.000000 0.553031 0.250000
O O8 0.046611 0.391548 0.151194
O O9 0.543463 0.759155 0.062800
O O10 0.437607 0.944356 0.125292
O O11 0.837258 0.984431 0.547301
O O12 0.613803 0.825360 0.949096
O O13 0.500000 0.000000 0.000000
O O14 0.694461 0.883450 0.844250
#
# Coordination Sequence:
#
# PCOD9422340 Si02
#       8
#     8   8   8   4   8   4   8   4
#     4  10  21  38  62  89 126 163 205 257 315 364
#     4  12  26  39  62  97 128 163 207 259 312 378
#     4  10  23  43  63  86 126 167 203 262 308 364
#     4   9  19  38  68  88 119 165 218 254 302 377
#     4   9  20  41  63  90 119 165 210 258 305 367
#     4  11  21  34  58  92 123 161 198 256 316 373
#     4  11  24  38  65  91 124 165 208 253 314 372
#     4  12  22  40  56  92 136 154 202 252 318 370
#
# _framework density 18.916712
#
# number of rings (size 3 to 8) (size 9 to 14) (size 15 to 20)
#    0.000    1.538    3.077    1.385    2.154    3.077 
#    0.000    0.000    3.385    0.000    0.000    0.000 
#    0.000    0.000    0.000    0.000    0.000    0.000 
#
# Total GULP energy -289519.519949 kJ/mol
# GULP energy per Si atom -5567.683076 kJ/mol
# Density = 1.887366 g / cm^3
# Si number density = 18.916712 Si / 1000 Ang^3
#
#
#
# Elastic Constant Matrix: (Units=GPa)
#
#
# Indices 1 2 3 4 5 6 
#
# 1 70.6059 8.9747 42.4559 0.0000 0.0000 0.0000
# 2 8.9747 87.9095 37.2453 0.0000 0.0000 0.0000
# 3 42.4559 37.2453 134.6689 0.0000 0.0000 0.0000
# 4 0.0000 0.0000 0.0000 24.4844 0.0000 0.0000
# 5 0.0000 0.0000 0.0000 0.0000 29.5752 0.0000
# 6 0.0000 0.0000 0.0000 0.0000 0.0000 -22.2036
#
#
#
# Elastic Compliance Matrix: (Units=1/GPa)
#
#
# Indices 1 2 3 4 5 6 
#
# 1 0.017506 0.000624 -0.005692 0.000000 0.000000 0.000000
# 2 0.000624 0.012907 -0.003767 0.000000 0.000000 0.000000
# 3 -0.005692 -0.003767 0.010262 0.000000 0.000000 0.000000
# 4 0.000000 0.000000 0.000000 0.040842 0.000000 0.000000
# 5 0.000000 0.000000 0.000000 0.000000 0.033812 0.000000
# 6 0.000000 0.000000 0.000000 0.000000 0.000000 -0.045038
#
#
# Mechanical properties :
#
#
# Convention : Reuss Voigt Hill
#
# Bulk Modulus (GPa) = 43.46450 52.28178 47.87314
# Shear Modulus (GPa) = 52.28532 20.00511 36.14522
#
# Velocity S-wave (km/s) = 5.26306 3.25551 4.37596
# Velocity P-wave (km/s) = 7.74336 6.46753 7.13403
#
# Compressibility (1/GPa) = 0.02300728
#
# Stress axis : x y z
#
# Youngs Moduli (GPa) = 57.12249 77.47477 97.44962
#
# Poissons Ratio (x) = -0.04836 0.55465
# Poissons Ratio (y) = -0.03566 0.36705
# Poissons Ratio (z) = 0.32512 0.29182
#
# Static dielectric constant tensor:
#      x y z
#    x 1.644530 0.000000 0.000000 
#    y 0.000000 1.643530 0.000000 
#    z 0.000000 0.000000 1.687420 
# 
# From -- ./inp_files/24431.got.cif
#   From: 2010.05.17/outbox.cif.g08.bks.cpg/sg54_13_cif.got.tgz:24431.got - 2010.06.03 13:09:01.
