data_PCOD9422592
_publ_section_title
;
Structure prediction by ZEFSAII (Michael W. Deem and Ramdas Pophale) SiO2 
 PCOD9422592
Probable space group: P C C A
;
_chemical_formula_sum "Si O2"
_cell_formula_units_Z 40
_cell_length_a 15.791675
_cell_length_b 5.051719
_cell_length_c 24.260111
_cell_angle_alpha 90.000000
_cell_angle_beta 90.000000
_cell_angle_gamma 90.000000
_cell_volume 1935.352894
_symmetry_space_group_name_H-M "P C C A"
_symmetry_group_IT_number 54
_symmetry_cell_setting 'orthorhombic'
loop_
_space_group_symop_operation_xyz
x,y,z
1/2-x,-y,z
1/2+x,-y,1/2-z
-x,y,1/2-z
-x,-y,-z
1/2+x,y,-z
1/2-x,y,1/2+z
x,-y,1/2+z
loop_
_atom_site_type_symbol
_atom_site_label
_atom_site_fract_x
_atom_site_fract_y
_atom_site_fract_z
Si Si1 0.051510 0.291907 0.435412
Si Si2 0.435966 0.793480 0.558188
Si Si3 0.845802 0.601822 0.335360
Si Si4 0.190457 0.753641 0.841222
Si Si5 0.594780 0.883646 0.270861
O O1 0.093145 0.227370 0.494879
O O2 0.116365 0.264474 0.385924
O O3 0.013656 0.586190 0.437011
O O4 0.974275 0.082777 0.430448
O O5 0.369167 0.700893 0.603541
O O6 0.750000 0.500000 0.331877
O O7 0.903103 0.356305 0.314750
O O8 0.864662 0.852672 0.296460
O O9 0.250000 0.500000 0.841743
O O10 0.149250 0.790946 0.781328
O O11 0.250000 0.000000 0.853978
O O12 0.500000 0.938545 0.250000
#
# Coordination Sequence:
#
# PCOD9422592 Si02
#       5
#     8   8   8   8   8
#     4  10  22  41  64  90 121 162 206 246 295 359
#     4  10  21  41  65  89 122 161 205 248 294 361
#     4  12  24  40  63  93 126 158 201 256 311 359
#     4  12  24  40  62  90 125 157 199 254 306 356
#     4  12  25  42  64  88 121 165 208 247 301 370
#
# _framework density 20.668066
#
# number of rings (size 3 to 8) (size 9 to 14) (size 15 to 20)
#    0.000    0.800    0.000    9.000    0.000    0.800 
#    0.000    2.000    0.000    0.000    0.000    0.000 
#    0.000    0.000    0.000    0.000    0.000    0.000 
#
# Total GULP energy -223969.786103 kJ/mol
# GULP energy per Si atom -5599.244653 kJ/mol
# Density = 2.062102 g / cm^3
# Si number density = 20.668066 Si / 1000 Ang^3
#
#
#
# Elastic Constant Matrix: (Units=GPa)
#
#
# Indices 1 2 3 4 5 6 
#
# 1 48.3158 15.2323 32.4780 0.0000 0.0000 0.0000
# 2 15.2323 115.7707 40.7264 0.0000 0.0000 0.0000
# 3 32.4780 40.7264 125.4432 0.0000 0.0000 0.0000
# 4 0.0000 0.0000 0.0000 33.7214 0.0000 0.0000
# 5 0.0000 0.0000 0.0000 0.0000 9.0892 0.0000
# 6 0.0000 0.0000 0.0000 0.0000 0.0000 33.4511
#
#
#
# Elastic Compliance Matrix: (Units=1/GPa)
#
#
# Indices 1 2 3 4 5 6 
#
# 1 0.025194 -0.001152 -0.006149 0.000000 0.000000 0.000000
# 2 -0.001152 0.009804 -0.002885 0.000000 0.000000 0.000000
# 3 -0.006149 -0.002885 0.010500 0.000000 0.000000 0.000000
# 4 0.000000 0.000000 0.000000 0.029655 0.000000 0.000000
# 5 0.000000 0.000000 0.000000 0.000000 0.110020 0.000000
# 6 0.000000 0.000000 0.000000 0.000000 0.000000 0.029894
#
#
# Mechanical properties :
#
#
# Convention : Reuss Voigt Hill
#
# Bulk Modulus (GPa) = 39.79751 51.82256 45.81004
# Shear Modulus (GPa) = 20.50745 28.65855 24.58300
#
# Velocity S-wave (km/s) = 3.15338 3.72776 3.45254
# Velocity P-wave (km/s) = 5.70577 6.60730 6.17302
#
# Compressibility (1/GPa) = 0.02512720
#
# Stress axis : x y z
#
# Youngs Moduli (GPa) = 39.69270 101.99782 95.23546
#
# Poissons Ratio (x) = 0.11747 0.58559
# Poissons Ratio (y) = 0.04572 0.27474
# Poissons Ratio (z) = 0.24406 0.29425
#
# Static dielectric constant tensor:
#      x y z
#    x 1.696410 0.000000 0.000000 
#    y 0.000000 1.704310 0.000000 
#    z 0.000000 0.000000 1.759470 
# 
# From -- ./inp_files/24314.got.cif
#   From: 2010.05.17/outbox.cif.g08.bks.cpg/sg54_13_cif.got.tgz:24314.got - 2010.06.03 13:09:01.
