data_PCOD9422812
_publ_section_title
;
Structure prediction by ZEFSAII (Michael W. Deem and Ramdas Pophale) SiO2 
 PCOD9422812
Probable space group: P C C A
;
_chemical_formula_sum "Si O2"
_cell_formula_units_Z 44
_cell_length_a 5.222033
_cell_length_b 24.200206
_cell_length_c 16.818547
_cell_angle_alpha 90.000000
_cell_angle_beta 90.000000
_cell_angle_gamma 90.000000
_cell_volume 2125.431673
_symmetry_space_group_name_H-M "P C C A"
_symmetry_group_IT_number 54
_symmetry_cell_setting 'orthorhombic'
loop_
_space_group_symop_operation_xyz
x,y,z
1/2-x,-y,z
1/2+x,-y,1/2-z
-x,y,1/2-z
-x,-y,-z
1/2+x,y,-z
1/2-x,y,1/2+z
x,-y,1/2+z
loop_
_atom_site_type_symbol
_atom_site_label
_atom_site_fract_x
_atom_site_fract_y
_atom_site_fract_z
Si Si1 0.790669 0.059103 0.052723
Si Si2 0.334490 0.821866 0.944802
Si Si3 0.346731 0.560383 0.166328
Si Si4 0.996094 0.348644 0.447967
Si Si5 0.500000 0.643037 0.750000
Si Si6 0.636119 0.733959 0.174259
O O1 0.717812 0.117160 0.092358
O O2 0.750000 0.000000 0.094596
O O3 0.581298 0.059272 0.980201
O O4 0.299364 0.776096 0.877567
O O5 0.606555 0.816975 0.989317
O O6 0.250000 0.500000 0.143976
O O7 0.500000 0.555906 0.250000
O O8 0.494526 0.592906 0.098017
O O9 0.115592 0.602066 0.184981
O O10 0.270820 0.343838 0.488645
O O11 0.951876 0.298205 0.386625
O O12 0.294727 0.683290 0.788805
O O13 0.500000 0.761231 0.250000
#
# Coordination Sequence:
#
# PCOD9422812 Si02
#       6
#     8   8   8   8   4   8
#     4   8  14  28  52  83 119 159 201 248 300 358
#     4  10  22  38  59  94 129 160 207 263 314 356
#     4  12  25  44  72  93 121 164 208 254 306 384
#     4  12  26  44  66  94 129 158 198 255 317 364
#     4  12  22  44  66  90 120 158 218 248 296 376
#     4  12  25  40  65  89 122 171 209 255 303 383
#
# _framework density 20.701675000000002
#
# number of rings (size 3 to 8) (size 9 to 14) (size 15 to 20)
#    0.000    1.091    4.545    2.182    2.545    0.727 
#    0.000    0.000    0.000    0.000    2.364    0.000 
#    0.000    0.000    0.000    0.000    0.000    0.000 
#
# Total GULP energy -245766.847110 kJ/mol
# GULP energy per Si atom -5585.610162 kJ/mol
# Density = 2.065456 g / cm^3
# Si number density = 20.701675 Si / 1000 Ang^3
#
#
#
# Elastic Constant Matrix: (Units=GPa)
#
#
# Indices 1 2 3 4 5 6 
#
# 1 66.5537 -4.7143 0.8222 0.0000 0.0000 0.0000
# 2 -4.7143 116.5596 20.5032 0.0000 0.0000 0.0000
# 3 0.8222 20.5032 50.0638 0.0000 0.0000 0.0000
# 4 0.0000 0.0000 0.0000 5.3941 0.0000 0.0000
# 5 0.0000 0.0000 0.0000 0.0000 18.7032 0.0000
# 6 0.0000 0.0000 0.0000 0.0000 0.0000 14.8295
#
#
#
# Elastic Compliance Matrix: (Units=1/GPa)
#
#
# Indices 1 2 3 4 5 6 
#
# 1 0.015082 0.000704 -0.000536 0.000000 0.000000 0.000000
# 2 0.000704 0.009278 -0.003811 0.000000 0.000000 0.000000
# 3 -0.000536 -0.003811 0.021544 0.000000 0.000000 0.000000
# 4 0.000000 0.000000 0.000000 0.185387 0.000000 0.000000
# 5 0.000000 0.000000 0.000000 0.000000 0.053467 0.000000
# 6 0.000000 0.000000 0.000000 0.000000 0.000000 0.067433
#
#
# Mechanical properties :
#
#
# Convention : Reuss Voigt Hill
#
# Bulk Modulus (GPa) = 25.89466 29.59992 27.74729
# Shear Modulus (GPa) = 13.42822 22.22309 17.82566
#
# Velocity S-wave (km/s) = 2.54963 3.27997 2.93759
# Velocity P-wave (km/s) = 4.60469 5.35478 4.99384
#
# Compressibility (1/GPa) = 0.03861801
#
# Stress axis : x y z
#
# Youngs Moduli (GPa) = 66.30429 107.77927 46.41612
#
# Poissons Ratio (x) = -0.07591 0.02489
# Poissons Ratio (y) = -0.04670 0.17691
# Poissons Ratio (z) = 0.03555 0.41079
#
# Static dielectric constant tensor:
#      x y z
#    x 1.827540 0.000000 0.000000 
#    y 0.000000 1.782210 0.000000 
#    z 0.000000 0.000000 1.768600 
# 
# From -- ./inp_files/15913.got.cif
#   From: 2010.05.17/outbox.cif.g08.bks.cpg/sg54_8_cif.got.tgz:15913.got - 2010.06.03 13:09:01.
