data_PCOD9422579
_publ_section_title
;
Structure prediction by ZEFSAII (Michael W. Deem and Ramdas Pophale) SiO2 
 PCOD9422579
Probable space group: P C C A
;
_chemical_formula_sum "Si O2"
_cell_formula_units_Z 56
_cell_length_a 8.502894
_cell_length_b 16.856795
_cell_length_c 19.726060
_cell_angle_alpha 90.000000
_cell_angle_beta 90.000000
_cell_angle_gamma 90.000000
_cell_volume 2827.366579
_symmetry_space_group_name_H-M "P C C A"
_symmetry_group_IT_number 54
_symmetry_cell_setting 'orthorhombic'
loop_
_space_group_symop_operation_xyz
x,y,z
1/2-x,-y,z
1/2+x,-y,1/2-z
-x,y,1/2-z
-x,-y,-z
1/2+x,y,-z
1/2-x,y,1/2+z
x,-y,1/2+z
loop_
_atom_site_type_symbol
_atom_site_label
_atom_site_fract_x
_atom_site_fract_y
_atom_site_fract_z
Si Si1 0.825953 0.796564 0.775643
Si Si2 0.941174 0.311561 0.054236
Si Si3 0.579670 0.333383 0.318446
Si Si4 0.755336 0.592613 0.440766
Si Si5 0.021550 0.148929 0.979936
Si Si6 0.303071 0.215773 0.362198
Si Si7 0.788624 0.089303 0.403172
O O1 0.731380 0.718334 0.797706
O O2 0.735180 0.826584 0.708457
O O3 0.825694 0.856672 0.838334
O O4 0.000000 0.779671 0.750000
O O5 0.839021 0.272972 0.114393
O O6 0.085564 0.368144 0.074025
O O7 0.827625 0.359801 0.004079
O O8 0.007785 0.236246 0.012844
O O9 0.500000 0.366611 0.250000
O O10 0.632525 0.393767 0.375967
O O11 0.454765 0.271204 0.349686
O O12 0.750000 0.500000 0.456599
O O13 0.155966 0.156235 0.922714
O O14 0.862045 0.125639 0.942227
O O15 0.071990 0.092666 0.041531
O O16 0.750000 0.000000 0.382949
#
# Coordination Sequence:
#
# PCOD9422579 Si02
#       7
#     8   8   8   8   8   8   8
#     4  11  23  42  66  93 125 170 226 272 317 403
#     4  12  21  39  68  95 121 172 224 271 319 394
#     4  10  21  41  63  89 122 170 225 270 318 390
#     4  12  23  38  60 100 140 169 206 278 346 394
#     4  12  21  41  70  91 123 166 227 265 321 392
#     4  11  21  38  69  94 120 165 231 277 313 372
#     4  12  26  43  63  98 135 168 210 280 349 401
#
# _framework density 19.806415999999999
#
# number of rings (size 3 to 8) (size 9 to 14) (size 15 to 20)
#    0.000    0.571    5.714    3.429    0.000    0.000 
#    2.571    3.571    0.000    0.000    0.000    0.000 
#    0.000    0.000    0.000    0.000    0.000    0.000 
#
# Total GULP energy -313070.637315 kJ/mol
# GULP energy per Si atom -5590.547095 kJ/mol
# Density = 1.976134 g / cm^3
# Si number density = 19.806416 Si / 1000 Ang^3
#
#
#
# Elastic Constant Matrix: (Units=GPa)
#
#
# Indices 1 2 3 4 5 6 
#
# 1 90.9272 4.4550 30.6565 0.0000 0.0000 0.0000
# 2 4.4550 33.5525 18.4891 0.0000 0.0000 0.0000
# 3 30.6565 18.4891 121.3623 0.0000 0.0000 0.0000
# 4 0.0000 0.0000 0.0000 12.2472 0.0000 0.0000
# 5 0.0000 0.0000 0.0000 0.0000 40.0103 0.0000
# 6 0.0000 0.0000 0.0000 0.0000 0.0000 18.7414
#
#
#
# Elastic Compliance Matrix: (Units=1/GPa)
#
#
# Indices 1 2 3 4 5 6 
#
# 1 0.012022 0.000084 -0.003050 0.000000 0.000000 0.000000
# 2 0.000084 0.032536 -0.004978 0.000000 0.000000 0.000000
# 3 -0.003050 -0.004978 0.009769 0.000000 0.000000 0.000000
# 4 0.000000 0.000000 0.000000 0.081651 0.000000 0.000000
# 5 0.000000 0.000000 0.000000 0.000000 0.024994 0.000000
# 6 0.000000 0.000000 0.000000 0.000000 0.000000 0.053358
#
#
# Mechanical properties :
#
#
# Convention : Reuss Voigt Hill
#
# Bulk Modulus (GPa) = 26.01480 39.22703 32.62092
# Shear Modulus (GPa) = 20.57368 27.01587 23.79477
#
# Velocity S-wave (km/s) = 3.22644 3.69724 3.46983
# Velocity P-wave (km/s) = 5.20028 6.17044 5.70602
#
# Compressibility (1/GPa) = 0.03843965
#
# Stress axis : x y z
#
# Youngs Moduli (GPa) = 83.18175 30.73519 102.36967
#
# Poissons Ratio (x) = -0.00259 0.31219
# Poissons Ratio (y) = -0.00701 0.50960
# Poissons Ratio (z) = 0.25367 0.15300
#
# Static dielectric constant tensor:
#      x y z
#    x 1.735920 0.000000 0.000000 
#    y 0.000000 1.635710 0.000000 
#    z 0.000000 0.000000 1.718360 
# 
# From -- ./inp_files/20565.got.cif
#   From: 2010.05.17/outbox.cif.g08.bks.cpg/sg54_11_cif.got.tgz:20565.got - 2010.06.03 13:09:01.
