data_PCOD9422538
_publ_section_title
;
Structure prediction by ZEFSAII (Michael W. Deem and Ramdas Pophale) SiO2 
 PCOD9422538
Probable space group: P C C A
;
_chemical_formula_sum "Si O2"
_cell_formula_units_Z 36
_cell_length_a 9.886206
_cell_length_b 13.010945
_cell_length_c 10.805414
_cell_angle_alpha 90.000000
_cell_angle_beta 90.000000
_cell_angle_gamma 90.000000
_cell_volume 1389.888328
_symmetry_space_group_name_H-M "P C C A"
_symmetry_group_IT_number 54
_symmetry_cell_setting 'orthorhombic'
loop_
_space_group_symop_operation_xyz
x,y,z
1/2-x,-y,z
1/2+x,-y,1/2-z
-x,y,1/2-z
-x,-y,-z
1/2+x,y,-z
1/2-x,y,1/2+z
x,-y,1/2+z
loop_
_atom_site_type_symbol
_atom_site_label
_atom_site_fract_x
_atom_site_fract_y
_atom_site_fract_z
Si Si1 0.772206 0.706368 0.705788
Si Si2 0.923137 0.396396 0.874356
Si Si3 0.498151 0.207396 0.967664
Si Si4 0.750000 0.500000 0.544515
Si Si5 0.721567 0.882520 0.858296
O O1 0.720997 0.655239 0.834868
O O2 0.910679 0.749947 0.648043
O O3 0.753728 0.604440 0.621955
O O4 0.695091 0.815179 0.733669
O O5 0.005523 0.306136 0.941524
O O6 0.878282 0.490368 0.956470
O O7 0.000000 0.427607 0.750000
O O8 0.401734 0.130279 0.045166
O O9 0.640737 0.163107 0.921911
O O10 0.750000 0.000000 0.827499
#
# Coordination Sequence:
#
# PCOD9422538 Si02
#       5
#     8   8   8   4   8
#     4  10  22  42  67 100 141 186 238 292 357 427
#     4  10  21  40  67 100 142 190 240 295 357 431
#     4  10  22  42  69 101 144 188 236 297 362 431
#     4  10  22  42  68 102 142 186 240 298 356 428
#     4  11  23  42  71 107 143 188 242 301 363 431
#
# _framework density 25.901363
#
# number of rings (size 3 to 8) (size 9 to 14) (size 15 to 20)
#    0.000    1.778    0.000    3.333    0.000    1.778 
#    0.000   28.889    0.000    4.000    0.000    0.000 
#    0.000    1.778    0.000    0.000    0.000    0.000 
#
# Total GULP energy -200780.804738 kJ/mol
# GULP energy per Si atom -5577.244576 kJ/mol
# Density = 2.584241 g / cm^3
# Si number density = 25.901363 Si / 1000 Ang^3
#
#
#
# Elastic Constant Matrix: (Units=GPa)
#
#
# Indices 1 2 3 4 5 6 
#
# 1 106.8158 38.4516 33.7584 0.0000 0.0000 0.0000
# 2 38.4516 191.8232 64.6914 0.0000 0.0000 0.0000
# 3 33.7584 64.6914 89.0394 0.0000 0.0000 0.0000
# 4 0.0000 0.0000 0.0000 -37.6131 0.0000 0.0000
# 5 0.0000 0.0000 0.0000 0.0000 50.6178 0.0000
# 6 0.0000 0.0000 0.0000 0.0000 0.0000 19.1122
#
#
#
# Elastic Compliance Matrix: (Units=1/GPa)
#
#
# Indices 1 2 3 4 5 6 
#
# 1 0.010790 -0.001037 -0.003337 0.000000 0.000000 0.000000
# 2 -0.001037 0.007005 -0.004696 0.000000 0.000000 0.000000
# 3 -0.003337 -0.004696 0.015908 0.000000 0.000000 0.000000
# 4 0.000000 0.000000 0.000000 -0.026586 0.000000 0.000000
# 5 0.000000 0.000000 0.000000 0.000000 0.019756 0.000000
# 6 0.000000 0.000000 0.000000 0.000000 0.000000 0.052323
#
#
# Mechanical properties :
#
#
# Convention : Reuss Voigt Hill
#
# Bulk Modulus (GPa) = 64.26025 73.49791 68.87908
# Shear Modulus (GPa) = 48.76929 23.14184 35.95557
#
# Velocity S-wave (km/s) = 4.34393 2.99232 3.72986
# Velocity P-wave (km/s) = 7.07270 6.35424 6.72307
#
# Compressibility (1/GPa) = 0.01556172
#
# Stress axis : x y z
#
# Youngs Moduli (GPa) = 92.67779 142.75956 62.86108
#
# Poissons Ratio (x) = 0.14811 0.20978
# Poissons Ratio (y) = 0.09615 0.29519
# Poissons Ratio (z) = 0.30928 0.67039
#
# Static dielectric constant tensor:
#      x y z
#    x 2.181490 0.000000 0.000000 
#    y 0.000000 2.003000 0.000000 
#    z 0.000000 0.000000 2.170470 
# 
# From -- ./inp_files/8169.got.cif
#   From: 2010.05.17/outbox.cif.g08.bks.cpg/sg54_5_cif.got.tgz:8169.got - 2010.06.03 13:09:01.
