data_PCOD9422291
_publ_section_title
;
Structure prediction by ZEFSAII (Michael W. Deem and Ramdas Pophale) SiO2 
 PCOD9422291
Probable space group: P C C A
;
_chemical_formula_sum "Si O2"
_cell_formula_units_Z 40
_cell_length_a 5.222181
_cell_length_b 18.101033
_cell_length_c 18.075215
_cell_angle_alpha 90.000000
_cell_angle_beta 90.000000
_cell_angle_gamma 90.000000
_cell_volume 1708.593510
_symmetry_space_group_name_H-M "P C C A"
_symmetry_group_IT_number 54
_symmetry_cell_setting 'orthorhombic'
loop_
_space_group_symop_operation_xyz
x,y,z
1/2-x,-y,z
1/2+x,-y,1/2-z
-x,y,1/2-z
-x,-y,-z
1/2+x,y,-z
1/2-x,y,1/2+z
x,-y,1/2+z
loop_
_atom_site_type_symbol
_atom_site_label
_atom_site_fract_x
_atom_site_fract_y
_atom_site_fract_z
Si Si1 0.112034 0.817864 0.052798
Si Si2 0.935172 0.416306 0.528054
Si Si3 0.389635 0.429550 0.172637
Si Si4 0.002737 0.051359 0.666809
Si Si5 0.256629 0.728640 0.200877
O O1 0.051399 0.893536 0.098824
O O2 0.192359 0.766323 0.122691
O O3 0.351974 0.810280 0.996001
O O4 0.706589 0.378994 0.485634
O O5 0.000000 0.500000 0.500000
O O6 0.885562 0.412674 0.614718
O O7 0.250000 0.500000 0.139703
O O8 0.500000 0.453008 0.250000
O O9 0.214570 0.358824 0.184636
O O10 0.000000 0.087477 0.750000
O O11 0.250000 0.000000 0.669351
O O12 0.750000 0.000000 0.657722
O O13 0.500000 0.755030 0.250000
O O14 0.000000 0.733603 0.250000
#
# Coordination Sequence:
#
# PCOD9422291 Si02
#       5
#     8   8   8   8   8
#     4  12  26  44  70 105 143 186 234 291 348 410
#     4  10  21  38  56  86 120 159 196 252 343 422
#     4  11  24  40  68  98 127 166 229 296 354 421
#     4  10  22  41  69 106 145 190 236 279 337 411
#     4  11  26  48  69  96 135 189 239 295 361 435
#
# _framework density 23.411068
#
# number of rings (size 3 to 8) (size 9 to 14) (size 15 to 20)
#    0.000    1.200    2.000    3.600    2.800    9.600 
#    0.000    0.000    0.000    0.000    0.000    0.000 
#    0.000    0.000    0.000    0.000    0.000    0.000 
#
# Total GULP energy -223196.793290 kJ/mol
# GULP energy per Si atom -5579.919832 kJ/mol
# Density = 2.335778 g / cm^3
# Si number density = 23.411068 Si / 1000 Ang^3
#
#
#
# Elastic Constant Matrix: (Units=GPa)
#
#
# Indices 1 2 3 4 5 6 
#
# 1 191.1271 35.9407 73.3270 0.0000 0.0000 0.0000
# 2 35.9407 84.0618 40.5385 0.0000 0.0000 0.0000
# 3 73.3270 40.5385 195.6322 0.0000 0.0000 0.0000
# 4 0.0000 0.0000 0.0000 41.8881 0.0000 0.0000
# 5 0.0000 0.0000 0.0000 0.0000 52.5102 0.0000
# 6 0.0000 0.0000 0.0000 0.0000 0.0000 16.0013
#
#
#
# Elastic Compliance Matrix: (Units=1/GPa)
#
#
# Indices 1 2 3 4 5 6 
#
# 1 0.006331 -0.001736 -0.002013 0.000000 0.000000 0.000000
# 2 -0.001736 0.013693 -0.002187 0.000000 0.000000 0.000000
# 3 -0.002013 -0.002187 0.006319 0.000000 0.000000 0.000000
# 4 0.000000 0.000000 0.000000 0.023873 0.000000 0.000000
# 5 0.000000 0.000000 0.000000 0.000000 0.019044 0.000000
# 6 0.000000 0.000000 0.000000 0.000000 0.000000 0.062495
#
#
# Mechanical properties :
#
#
# Convention : Reuss Voigt Hill
#
# Bulk Modulus (GPa) = 69.10246 85.60373 77.35309
# Shear Modulus (GPa) = 33.68125 43.48091 38.58108
#
# Velocity S-wave (km/s) = 3.79712 4.31429 4.06394
# Velocity P-wave (km/s) = 6.98608 7.83979 7.42521
#
# Compressibility (1/GPa) = 0.01447126
#
# Stress axis : x y z
#
# Youngs Moduli (GPa) = 157.95421 73.03135 158.24353
#
# Poissons Ratio (x) = 0.12678 0.31858
# Poissons Ratio (y) = 0.27420 0.34604
# Poissons Ratio (z) = 0.31800 0.15970
#
# Static dielectric constant tensor:
#      x y z
#    x 2.051930 0.000000 0.000000 
#    y 0.000000 1.841090 0.000000 
#    z 0.000000 0.000000 1.878460 
# 
# From -- ./inp_files/15790.got.cif
#   From: 2010.05.17/outbox.cif.g08.bks.cpg/sg54_8_cif.got.tgz:15790.got - 2010.06.03 13:09:01.
