data_PCOD9422415
_publ_section_title
;
Structure prediction by ZEFSAII (Michael W. Deem and Ramdas Pophale) SiO2 
 PCOD9422415
Probable space group: P C C A
;
_chemical_formula_sum "Si O2"
_cell_formula_units_Z 48
_cell_length_a 17.941682
_cell_length_b 8.987001
_cell_length_c 13.754478
_cell_angle_alpha 90.000000
_cell_angle_beta 90.000000
_cell_angle_gamma 90.000000
_cell_volume 2217.798360
_symmetry_space_group_name_H-M "P C C A"
_symmetry_group_IT_number 54
_symmetry_cell_setting 'orthorhombic'
loop_
_space_group_symop_operation_xyz
x,y,z
1/2-x,-y,z
1/2+x,-y,1/2-z
-x,y,1/2-z
-x,-y,-z
1/2+x,y,-z
1/2-x,y,1/2+z
x,-y,1/2+z
loop_
_atom_site_type_symbol
_atom_site_label
_atom_site_fract_x
_atom_site_fract_y
_atom_site_fract_z
Si Si1 0.915335 0.191406 0.566350
Si Si2 0.361089 0.125803 0.864918
Si Si3 0.415335 0.191406 0.066349
Si Si4 0.721940 0.662688 0.634471
Si Si5 0.638911 0.874197 0.364918
Si Si6 0.278060 0.337312 0.134471
O O1 0.860811 0.322694 0.593871
O O2 0.915611 0.184273 0.449201
O O3 0.000000 0.193369 0.602201
O O4 0.870803 0.050079 0.613235
O O5 0.282394 0.207201 0.889811
O O6 0.375899 0.151930 0.750000
O O7 0.415611 0.184273 0.949200
O O8 0.360811 0.322694 0.093871
O O9 0.370803 0.050080 0.113234
O O10 0.750000 0.500000 0.607586
O O11 0.716304 0.670129 0.750000
O O12 0.717606 0.792799 0.389811
O O13 0.250000 0.500000 0.107586
#
# Coordination Sequence:
#
# PCOD9422415 Si02
#       6
#     8   8   8   8   8   8
#     4  11  23  38  61  92 122 155 197 251 308 353
#     4  10  21  39  62  87 119 159 202 244 291 357
#     4  11  23  38  61  92 122 155 197 251 308 353
#     4  10  22  41  64  88 118 160 204 244 292 357
#     4  10  21  39  62  87 119 159 202 244 291 357
#     4  10  22  41  64  88 118 160 204 244 292 357
#
# _framework density 21.643086
#
# number of rings (size 3 to 8) (size 9 to 14) (size 15 to 20)
#    0.000    1.667    0.000    5.000    0.000   12.667 
#    0.000    5.000    0.000   12.000    0.000    0.000 
#    0.000    0.000    0.000    0.000    0.000    0.000 
#
# Total GULP energy -267469.465999 kJ/mol
# GULP energy per Si atom -5572.280542 kJ/mol
# Density = 2.159382 g / cm^3
# Si number density = 21.643086 Si / 1000 Ang^3
#
#
#
# Elastic Constant Matrix: (Units=GPa)
#
#
# Indices 1 2 3 4 5 6 
#
# 1 162.0618 90.2705 26.6352 0.0000 0.0000 0.0000
# 2 90.2705 81.3562 23.9458 0.0000 0.0000 0.0000
# 3 26.6352 23.9458 107.7355 0.0000 0.0000 0.0000
# 4 0.0000 0.0000 0.0000 -7.0489 0.0000 0.0000
# 5 0.0000 0.0000 0.0000 0.0000 12.7852 0.0000
# 6 0.0000 0.0000 0.0000 0.0000 0.0000 -35.3181
#
#
#
# Elastic Compliance Matrix: (Units=1/GPa)
#
#
# Indices 1 2 3 4 5 6 
#
# 1 0.016155 -0.017922 -0.000011 0.000000 0.000000 0.000000
# 2 -0.017922 0.033034 -0.002912 0.000000 0.000000 0.000000
# 3 -0.000011 -0.002912 0.009932 0.000000 0.000000 0.000000
# 4 0.000000 0.000000 0.000000 -0.141866 0.000000 0.000000
# 5 0.000000 0.000000 0.000000 0.000000 0.078216 0.000000
# 6 0.000000 0.000000 0.000000 0.000000 0.000000 -0.028314
#
#
# Mechanical properties :
#
#
# Convention : Reuss Voigt Hill
#
# Bulk Modulus (GPa) = 57.36288 70.31738 63.84013
# Shear Modulus (GPa) = 341.14507 8.10376 174.62441
#
# Velocity S-wave (km/s) = 12.56842 1.93711 8.99216
# Velocity P-wave (km/s) = 15.40071 6.12889 11.72061
#
# Compressibility (1/GPa) = 0.01743288
#
# Stress axis : x y z
#
# Youngs Moduli (GPa) = 61.90023 30.27149 100.68745
#
# Poissons Ratio (x) = 0.54253 0.00106
# Poissons Ratio (y) = 1.10938 0.29316
# Poissons Ratio (z) = 0.00065 0.08814
#
# Static dielectric constant tensor:
#      x y z
#    x 1.761610 0.000000 0.000000 
#    y 0.000000 1.863070 0.000000 
#    z 0.000000 0.000000 1.822850 
# 
# From -- ./inp_files/14082.got.cif
#   From: 2010.05.17/outbox.cif.g08.bks.cpg/sg54_8_cif.got.tgz:14082.got - 2010.06.03 13:09:01.
