data_PCOD9422790
_publ_section_title
;
Structure prediction by ZEFSAII (Michael W. Deem and Ramdas Pophale) SiO2 
 PCOD9422790
Probable space group: P C C A
;
_chemical_formula_sum "Si O2"
_cell_formula_units_Z 60
_cell_length_a 23.969499
_cell_length_b 8.941066
_cell_length_c 14.604160
_cell_angle_alpha 90.000000
_cell_angle_beta 90.000000
_cell_angle_gamma 90.000000
_cell_volume 3129.859481
_symmetry_space_group_name_H-M "P C C A"
_symmetry_group_IT_number 54
_symmetry_cell_setting 'orthorhombic'
loop_
_space_group_symop_operation_xyz
x,y,z
1/2-x,-y,z
1/2+x,-y,1/2-z
-x,y,1/2-z
-x,-y,-z
1/2+x,y,-z
1/2-x,y,1/2+z
x,-y,1/2+z
loop_
_atom_site_type_symbol
_atom_site_label
_atom_site_fract_x
_atom_site_fract_y
_atom_site_fract_z
Si Si1 0.813516 0.460384 0.909398
Si Si2 0.879231 0.045447 0.559807
Si Si3 0.250000 0.000000 0.203757
Si Si4 0.699385 0.323142 0.076142
Si Si5 0.358492 0.130623 0.114466
Si Si6 0.437337 0.220948 0.284623
Si Si7 0.808919 0.787491 0.654150
Si Si8 0.635370 0.504744 0.721581
O O1 0.750000 0.500000 0.877450
O O2 0.833704 0.289532 0.919364
O O3 0.854156 0.514962 0.828904
O O4 0.816529 0.551928 0.002817
O O5 0.835543 0.179650 0.547225
O O6 0.926064 0.122112 0.624202
O O7 0.891057 0.962473 0.463813
O O8 0.845389 0.922521 0.616835
O O9 0.196450 0.958808 0.144412
O O10 0.270256 0.860781 0.266382
O O11 0.763555 0.278656 0.083736
O O12 0.681833 0.386596 0.175321
O O13 0.396287 0.161777 0.203877
O O14 0.500000 0.210420 0.250000
O O15 0.419365 0.395664 0.298830
O O16 0.851709 0.656890 0.680771
#
# Coordination Sequence:
#
# PCOD9422790 Si02
#       8
#     8   8   4   8   8   8   8   8
#     4  11  21  33  54  86 125 170 202 239 300 382
#     4  11  23  37  60  95 127 164 207 262 323 380
#     4  12  22  36  62  96 140 174 196 252 324 404
#     4  11  21  35  54  89 130 173 196 239 313 385
#     4  11  24  38  60  97 130 168 213 262 323 391
#     4  10  23  48  67  83 120 171 228 283 327 366
#     4  12  20  36  58  89 138 167 205 246 308 398
#     4  10  22  37  58  84 115 162 215 263 306 365
#
# _framework density 19.170189000000001
#
# number of rings (size 3 to 8) (size 9 to 14) (size 15 to 20)
#    0.000    1.067    2.667    6.000    5.600    0.533 
#    0.000    0.667    0.000   20.000    0.000    0.000 
#    0.000    0.000    0.000    0.000    0.000    0.000 
#
# Total GULP energy -334724.054307 kJ/mol
# GULP energy per Si atom -5578.734238 kJ/mol
# Density = 1.912656 g / cm^3
# Si number density = 19.170189 Si / 1000 Ang^3
#
#
#
# Elastic Constant Matrix: (Units=GPa)
#
#
# Indices 1 2 3 4 5 6 
#
# 1 54.4496 11.5686 -0.4638 0.0000 0.0000 0.0000
# 2 11.5686 113.1143 23.0114 0.0000 0.0000 0.0000
# 3 -0.4638 23.0114 53.6517 0.0000 0.0000 0.0000
# 4 0.0000 0.0000 0.0000 28.9620 0.0000 0.0000
# 5 0.0000 0.0000 0.0000 0.0000 0.7944 0.0000
# 6 0.0000 0.0000 0.0000 0.0000 0.0000 2.9837
#
#
#
# Elastic Compliance Matrix: (Units=1/GPa)
#
#
# Indices 1 2 3 4 5 6 
#
# 1 0.018831 -0.002146 0.001083 0.000000 0.000000 0.000000
# 2 -0.002146 0.009930 -0.004278 0.000000 0.000000 0.000000
# 3 0.001083 -0.004278 0.020483 0.000000 0.000000 0.000000
# 4 0.000000 0.000000 0.000000 0.034528 0.000000 0.000000
# 5 0.000000 0.000000 0.000000 0.000000 1.258791 0.000000
# 6 0.000000 0.000000 0.000000 0.000000 0.000000 0.335150
#
#
# Mechanical properties :
#
#
# Convention : Reuss Voigt Hill
#
# Bulk Modulus (GPa) = 25.93179 32.16088 29.04633
# Shear Modulus (GPa) = 2.93902 19.02132 10.98017
#
# Velocity S-wave (km/s) = 1.23954 3.15339 2.39586
# Velocity P-wave (km/s) = 3.95033 5.48374 4.77894
#
# Compressibility (1/GPa) = 0.03856271
#
# Stress axis : x y z
#
# Youngs Moduli (GPa) = 53.10433 100.70130 48.82135
#
# Poissons Ratio (x) = 0.21613 -0.05289
# Poissons Ratio (y) = 0.11398 0.20884
# Poissons Ratio (z) = -0.05753 0.43077
#
# Static dielectric constant tensor:
#      x y z
#    x 1.632090 0.000000 0.000000 
#    y 0.000000 1.716780 0.000000 
#    z 0.000000 0.000000 1.739670 
# 
# From -- ./inp_files/14953.got.cif
#   From: 2010.05.17/outbox.cif.g08.bks.cpg/sg54_8_cif.got.tgz:14953.got - 2010.06.03 13:09:01.
