data_PCOD9422733
_publ_section_title
;
Structure prediction by ZEFSAII (Michael W. Deem and Ramdas Pophale) SiO2 
 PCOD9422733
Probable space group: P C C A
;
_chemical_formula_sum "Si O2"
_cell_formula_units_Z 56
_cell_length_a 9.368416
_cell_length_b 14.086436
_cell_length_c 18.976538
_cell_angle_alpha 90.000000
_cell_angle_beta 90.000000
_cell_angle_gamma 90.000000
_cell_volume 2504.288032
_symmetry_space_group_name_H-M "P C C A"
_symmetry_group_IT_number 54
_symmetry_cell_setting 'orthorhombic'
loop_
_space_group_symop_operation_xyz
x,y,z
1/2-x,-y,z
1/2+x,-y,1/2-z
-x,y,1/2-z
-x,-y,-z
1/2+x,y,-z
1/2-x,y,1/2+z
x,-y,1/2+z
loop_
_atom_site_type_symbol
_atom_site_label
_atom_site_fract_x
_atom_site_fract_y
_atom_site_fract_z
Si Si1 0.050470 0.759339 0.400541
Si Si2 0.868834 0.068634 0.498314
Si Si3 0.134168 0.434602 0.975952
Si Si4 0.245340 0.330871 0.112343
Si Si5 0.165273 0.587278 0.757650
Si Si6 0.703793 0.803259 0.201928
Si Si7 0.591850 0.155891 0.854271
O O1 0.092137 0.835399 0.460557
O O2 0.097027 0.655118 0.427559
O O3 0.140252 0.799147 0.333575
O O4 0.882252 0.739265 0.389791
O O5 0.843795 0.093484 0.416396
O O6 0.750000 0.000000 0.530120
O O7 0.000000 0.000000 0.500000
O O8 0.250000 0.500000 0.939179
O O9 0.218493 0.392832 0.043759
O O10 0.000000 0.500000 0.000000
O O11 0.244074 0.392676 0.182819
O O12 0.108663 0.263386 0.118901
O O13 0.250000 0.500000 0.790044
O O14 0.166812 0.690894 0.793356
O O15 0.000000 0.560348 0.750000
O O16 0.577757 0.855768 0.158426
O O17 0.678921 0.845144 0.280551
#
# Coordination Sequence:
#
# PCOD9422733 Si02
#       7
#     8   8   8   8   8   8   8
#     4  12  27  43  72 107 146 187 244 308 360 450
#     4  12  26  46  76 110 138 183 238 306 385 447
#     4  12  26  41  64 104 145 195 240 300 371 430
#     4  11  23  44  64  96 147 190 240 302 356 418
#     4  11  24  40  64  95 140 196 250 295 343 428
#     4  10  23  44  68  96 136 199 236 289 374 435
#     4  10  21  46  71  94 140 185 233 295 366 438
#
# _framework density 22.361644999999999
#
# number of rings (size 3 to 8) (size 9 to 14) (size 15 to 20)
#    0.000    0.857    5.714    2.143    6.000    2.286 
#    0.000    3.571    0.000    0.000    0.000    0.000 
#    0.000    0.000    0.000    0.000    0.000    0.000 
#
# Total GULP energy -312456.269476 kJ/mol
# GULP energy per Si atom -5579.576241 kJ/mol
# Density = 2.231075 g / cm^3
# Si number density = 22.361645 Si / 1000 Ang^3
#
#
#
# Elastic Constant Matrix: (Units=GPa)
#
#
# Indices 1 2 3 4 5 6 
#
# 1 121.4478 19.0221 36.5471 0.0000 0.0000 0.0000
# 2 19.0221 78.6673 29.1047 0.0000 0.0000 0.0000
# 3 36.5471 29.1047 103.8329 0.0000 0.0000 0.0000
# 4 0.0000 0.0000 0.0000 -36.0168 0.0000 0.0000
# 5 0.0000 0.0000 0.0000 0.0000 24.4111 0.0000
# 6 0.0000 0.0000 0.0000 0.0000 0.0000 33.5452
#
#
#
# Elastic Compliance Matrix: (Units=1/GPa)
#
#
# Indices 1 2 3 4 5 6 
#
# 1 0.009303 -0.001158 -0.002950 0.000000 0.000000 0.000000
# 2 -0.001158 0.014327 -0.003608 0.000000 0.000000 0.000000
# 3 -0.002950 -0.003608 0.011681 0.000000 0.000000 0.000000
# 4 0.000000 0.000000 0.000000 -0.027765 0.000000 0.000000
# 5 0.000000 0.000000 0.000000 0.000000 0.040965 0.000000
# 6 0.000000 0.000000 0.000000 0.000000 0.000000 0.029811
#
#
# Mechanical properties :
#
#
# Convention : Reuss Voigt Hill
#
# Bulk Modulus (GPa) = 50.30699 52.58842 51.44770
# Shear Modulus (GPa) = 49.81101 19.00617 34.40859
#
# Velocity S-wave (km/s) = 4.72478 2.91854 3.92692
# Velocity P-wave (km/s) = 7.23261 5.90978 6.60440
#
# Compressibility (1/GPa) = 0.01987795
#
# Stress axis : x y z
#
# Youngs Moduli (GPa) = 107.49121 69.79952 85.61245
#
# Poissons Ratio (x) = 0.08084 0.25255
# Poissons Ratio (y) = 0.12449 0.30891
# Poissons Ratio (z) = 0.31708 0.25185
#
# Static dielectric constant tensor:
#      x y z
#    x 1.885860 0.000000 0.000000 
#    y 0.000000 1.837450 0.000000 
#    z 0.000000 0.000000 1.891190 
# 
# From -- ./inp_files/20526.got.cif
#   From: 2010.05.17/outbox.cif.g08.bks.cpg/sg54_11_cif.got.tgz:20526.got - 2010.06.03 13:09:01.
