data_PCOD9422336
_publ_section_title
;
Structure prediction by ZEFSAII (Michael W. Deem and Ramdas Pophale) SiO2 
 PCOD9422336
Probable space group: P C C A
;
_chemical_formula_sum "Si O2"
_cell_formula_units_Z 40
_cell_length_a 27.078956
_cell_length_b 4.854539
_cell_length_c 11.747250
_cell_angle_alpha 90.000000
_cell_angle_beta 90.000000
_cell_angle_gamma 90.000000
_cell_volume 1544.244710
_symmetry_space_group_name_H-M "P C C A"
_symmetry_group_IT_number 54
_symmetry_cell_setting 'orthorhombic'
loop_
_space_group_symop_operation_xyz
x,y,z
1/2-x,-y,z
1/2+x,-y,1/2-z
-x,y,1/2-z
-x,-y,-z
1/2+x,y,-z
1/2-x,y,1/2+z
x,-y,1/2+z
loop_
_atom_site_type_symbol
_atom_site_label
_atom_site_fract_x
_atom_site_fract_y
_atom_site_fract_z
Si Si1 0.995244 0.889669 0.132165
Si Si2 0.412741 0.512621 0.606369
Si Si3 0.902263 0.015541 0.529048
Si Si4 0.199177 0.929113 0.870582
Si Si5 0.803896 0.422511 0.784748
O O1 0.034651 0.640582 0.147039
O O2 0.000000 0.057095 0.250000
O O3 0.936022 0.850147 0.125521
O O4 0.000000 0.000000 0.000000
O O5 0.415017 0.187089 0.584674
O O6 0.358234 0.552870 0.659478
O O7 0.410065 0.691093 0.489288
O O8 0.845543 0.037599 0.556223
O O9 0.199314 0.109173 0.755604
O O10 0.250000 0.000000 0.931278
O O11 0.194877 0.617691 0.827914
O O12 0.750000 0.500000 0.840098
#
# Coordination Sequence:
#
# PCOD9422336 Si02
#       5
#     8   8   8   8   8
#     4  10  23  44  70 102 139 183 234 291 354 420
#     4  11  23  40  63  94 131 174 229 286 346 416
#     4  11  23  40  62  94 130 174 227 284 346 413
#     4  10  21  38  61  91 129 176 229 285 349 418
#     4  10  21  38  61  91 128 175 228 284 347 415
#
# _framework density 25.902632000000001
#
# number of rings (size 3 to 8) (size 9 to 14) (size 15 to 20)
#    0.000    1.600    0.000    4.200    0.000    3.200 
#    0.000   12.000    0.000    0.000    0.000    0.000 
#    0.000    0.000    0.000    0.000    0.000    0.000 
#
# Total GULP energy -222688.992625 kJ/mol
# GULP energy per Si atom -5567.224816 kJ/mol
# Density = 2.584368 g / cm^3
# Si number density = 25.902632 Si / 1000 Ang^3
#
#
#
# Elastic Constant Matrix: (Units=GPa)
#
#
# Indices 1 2 3 4 5 6 
#
# 1 221.3326 19.3578 53.2375 0.0000 0.0000 0.0000
# 2 19.3578 90.4170 24.0658 0.0000 0.0000 0.0000
# 3 53.2375 24.0658 84.3502 0.0000 0.0000 0.0000
# 4 0.0000 0.0000 0.0000 12.9526 0.0000 0.0000
# 5 0.0000 0.0000 0.0000 0.0000 38.1679 0.0000
# 6 0.0000 0.0000 0.0000 0.0000 0.0000 41.7613
#
#
#
# Elastic Compliance Matrix: (Units=1/GPa)
#
#
# Indices 1 2 3 4 5 6 
#
# 1 0.005333 -0.000266 -0.003290 0.000000 0.000000 0.000000
# 2 -0.000266 0.011982 -0.003251 0.000000 0.000000 0.000000
# 3 -0.003290 -0.003251 0.014859 0.000000 0.000000 0.000000
# 4 0.000000 0.000000 0.000000 0.077204 0.000000 0.000000
# 5 0.000000 0.000000 0.000000 0.000000 0.026200 0.000000
# 6 0.000000 0.000000 0.000000 0.000000 0.000000 0.023946
#
#
# Mechanical properties :
#
#
# Convention : Reuss Voigt Hill
#
# Bulk Modulus (GPa) = 53.87695 65.49132 59.68414
# Shear Modulus (GPa) = 27.88254 38.53895 33.21075
#
# Velocity S-wave (km/s) = 3.28447 3.86144 3.58458
# Velocity P-wave (km/s) = 5.93537 6.72454 6.34224
#
# Compressibility (1/GPa) = 0.01856081
#
# Stress axis : x y z
#
# Youngs Moduli (GPa) = 187.52385 83.45828 67.29882
#
# Poissons Ratio (x) = 0.02221 0.22140
# Poissons Ratio (y) = 0.04989 0.21876
# Poissons Ratio (z) = 0.61691 0.27129
#
# Static dielectric constant tensor:
#      x y z
#    x 2.296760 0.000000 0.000000 
#    y 0.000000 1.987910 0.000000 
#    z 0.000000 0.000000 2.093100 
# 
# From -- ./inp_files/10148.got.cif
#   From: 2010.05.17/outbox.cif.g08.bks.cpg/sg54_6_cif.got.tgz:10148.got - 2010.06.03 13:09:01.
