data_PCOD9422965
_publ_section_title
;
Structure prediction by ZEFSAII (Michael W. Deem and Ramdas Pophale) SiO2 
 PCOD9422965
Probable space group: P C C A
;
_chemical_formula_sum "Si O2"
_cell_formula_units_Z 40
_cell_length_a 5.238739
_cell_length_b 17.458667
_cell_length_c 18.449258
_cell_angle_alpha 90.000000
_cell_angle_beta 90.000000
_cell_angle_gamma 90.000000
_cell_volume 1687.394960
_symmetry_space_group_name_H-M "P C C A"
_symmetry_group_IT_number 54
_symmetry_cell_setting 'orthorhombic'
loop_
_space_group_symop_operation_xyz
x,y,z
1/2-x,-y,z
1/2+x,-y,1/2-z
-x,y,1/2-z
-x,-y,-z
1/2+x,y,-z
1/2-x,y,1/2+z
x,-y,1/2+z
loop_
_atom_site_type_symbol
_atom_site_label
_atom_site_fract_x
_atom_site_fract_y
_atom_site_fract_z
Si Si1 0.661290 0.331609 0.674995
Si Si2 0.500000 0.787613 0.750000
Si Si3 0.852406 0.115677 0.467272
Si Si4 0.646227 0.295438 0.967036
Si Si5 0.250000 0.500000 0.799886
Si Si6 0.340902 0.914966 0.323648
O O1 0.500000 0.326284 0.750000
O O2 0.905004 0.279204 0.691777
O O3 0.479099 0.301514 0.611716
O O4 0.725710 0.419726 0.659194
O O5 0.623046 0.853902 0.695830
O O6 0.069859 0.082858 0.521186
O O7 0.817301 0.205607 0.484195
O O8 0.973171 0.110128 0.388184
O O9 0.927531 0.328966 0.979748
O O10 0.500000 0.506994 0.750000
O O11 0.500000 0.917575 0.250000
O O12 0.250000 0.000000 0.339972
#
# Coordination Sequence:
#
# PCOD9422965 Si02
#       6
#     8   4   8   8   4   8
#     4  11  24  41  72 101 135 175 230 275 339 407
#     4  12  24  42  70  98 130 180 228 274 346 400
#     4  10  24  42  66  93 130 177 226 276 334 405
#     4  10  23  39  62  95 134 174 223 274 331 401
#     4  10  22  40  64 106 138 168 218 290 334 394
#     4  12  27  43  67  99 138 174 230 289 344 399
#
# _framework density 23.705179999999999
#
# number of rings (size 3 to 8) (size 9 to 14) (size 15 to 20)
#    0.000    1.200    4.000    0.600    5.600    0.800 
#    0.000    1.000    0.000    0.000    0.000    0.000 
#    0.000    0.000    0.000    0.000    0.000    0.000 
#
# Total GULP energy -222748.951194 kJ/mol
# GULP energy per Si atom -5568.723780 kJ/mol
# Density = 2.365123 g / cm^3
# Si number density = 23.705180 Si / 1000 Ang^3
#
#
#
# Elastic Constant Matrix: (Units=GPa)
#
#
# Indices 1 2 3 4 5 6 
#
# 1 69.1343 43.8081 0.4701 0.0000 0.0000 0.0000
# 2 43.8081 117.8992 -0.1122 0.0000 0.0000 0.0000
# 3 0.4701 -0.1122 83.7430 0.0000 0.0000 0.0000
# 4 0.0000 0.0000 0.0000 -22.8497 0.0000 0.0000
# 5 0.0000 0.0000 0.0000 0.0000 46.1504 0.0000
# 6 0.0000 0.0000 0.0000 0.0000 0.0000 18.9815
#
#
#
# Elastic Compliance Matrix: (Units=1/GPa)
#
#
# Indices 1 2 3 4 5 6 
#
# 1 0.018920 -0.007030 -0.000116 0.000000 0.000000 0.000000
# 2 -0.007030 0.011094 0.000054 0.000000 0.000000 0.000000
# 3 -0.000116 0.000054 0.011942 0.000000 0.000000 0.000000
# 4 0.000000 0.000000 0.000000 -0.043764 0.000000 0.000000
# 5 0.000000 0.000000 0.000000 0.000000 0.021668 0.000000
# 6 0.000000 0.000000 0.000000 0.000000 0.000000 0.052683
#
#
# Mechanical properties :
#
#
# Convention : Reuss Voigt Hill
#
# Bulk Modulus (GPa) = 36.00604 39.90096 37.95350
# Shear Modulus (GPa) = 52.09179 23.56381 37.82780
#
# Velocity S-wave (km/s) = 4.69282 3.15625 3.99903
# Velocity P-wave (km/s) = 6.67724 5.49102 6.11297
#
# Compressibility (1/GPa) = 0.02777312
#
# Stress axis : x y z
#
# Youngs Moduli (GPa) = 52.85331 90.13748 83.73799
#
# Poissons Ratio (x) = 0.63370 0.00968
# Poissons Ratio (y) = 0.37158 -0.00455
# Poissons Ratio (z) = 0.00611 -0.00490
#
# Static dielectric constant tensor:
#      x y z
#    x 2.167870 0.000000 0.000000 
#    y 0.000000 1.858140 0.000000 
#    z 0.000000 0.000000 1.894420 
# 
# From -- ./inp_files/15813.got.cif
#   From: 2010.05.17/outbox.cif.g08.bks.cpg/sg54_8_cif.got.tgz:15813.got - 2010.06.03 13:09:01.
