data_PCOD9422179
_publ_section_title
;
Structure prediction by ZEFSAII (Michael W. Deem and Ramdas Pophale) SiO2 
 PCOD9422179
Probable space group: P C C A
;
_chemical_formula_sum "Si O2"
_cell_formula_units_Z 60
_cell_length_a 5.356302
_cell_length_b 33.810840
_cell_length_c 17.821252
_cell_angle_alpha 90.000000
_cell_angle_beta 90.000000
_cell_angle_gamma 90.000000
_cell_volume 3227.447804
_symmetry_space_group_name_H-M "P C C A"
_symmetry_group_IT_number 54
_symmetry_cell_setting 'orthorhombic'
loop_
_space_group_symop_operation_xyz
x,y,z
1/2-x,-y,z
1/2+x,-y,1/2-z
-x,y,1/2-z
-x,-y,-z
1/2+x,y,-z
1/2-x,y,1/2+z
x,-y,1/2+z
loop_
_atom_site_type_symbol
_atom_site_label
_atom_site_fract_x
_atom_site_fract_y
_atom_site_fract_z
Si Si1 0.000241 0.526105 0.836876
Si Si2 0.975877 0.400585 0.049943
Si Si3 0.394277 0.666569 0.164639
Si Si4 0.499082 0.024768 0.839552
Si Si5 0.078156 0.187119 0.453329
Si Si6 0.500000 0.692178 0.750000
Si Si7 0.895614 0.748785 0.672965
Si Si8 0.916949 0.094871 0.047788
O O1 0.250000 0.500000 0.846637
O O2 0.750000 0.500000 0.847389
O O3 0.000000 0.540440 0.750000
O O4 0.005735 0.561615 0.895570
O O5 0.000779 0.362390 0.103637
O O6 0.214606 0.400745 0.994487
O O7 0.500000 0.661356 0.250000
O O8 0.428467 0.712847 0.144333
O O9 0.104762 0.663390 0.185132
O O10 0.500000 0.031594 0.750000
O O11 0.476066 0.065371 0.884684
O O12 0.250000 0.000000 0.857826
O O13 0.750000 0.000000 0.858664
O O14 0.801001 0.193271 0.486698
O O15 0.083054 0.141082 0.429531
O O16 0.135012 0.217752 0.387522
O O17 0.665784 0.722675 0.702113
O O18 0.000000 0.766896 0.750000
O O19 0.143627 0.088170 0.988619
#
# Coordination Sequence:
#
# PCOD9422179 Si02
#       8
#     8   8   8   8   8   4   8   8
#     4  10  22  44  68  90 116 159 207 241 284 352
#     4  12  27  40  60  95 129 157 192 244 303 348
#     4   9  21  40  61  85 117 161 201 245 285 348
#     4  10  21  36  57  83 113 144 184 237 292 339
#     4  10  23  38  57  84 119 155 190 240 295 345
#     4   8  18  38  62  82 114 154 208 250 284 344
#     4   9  20  37  61  86 113 153 203 245 291 345
#     4  10  21  38  56  81 114 150 193 231 278 348
#
# _framework density 18.590540000000001
#
# number of rings (size 3 to 8) (size 9 to 14) (size 15 to 20)
#    0.000    2.400    0.000    2.000    7.467    4.800 
#    3.600    0.000    4.400    0.000    0.000    0.000 
#    0.000    0.000    0.000    0.000    0.000    0.000 
#
# Total GULP energy -334172.851701 kJ/mol
# GULP energy per Si atom -5569.547528 kJ/mol
# Density = 1.854823 g / cm^3
# Si number density = 18.590540 Si / 1000 Ang^3
#
#
#
# Elastic Constant Matrix: (Units=GPa)
#
#
# Indices 1 2 3 4 5 6 
#
# 1 95.2787 19.0069 22.0420 0.0000 0.0000 0.0000
# 2 19.0069 75.7461 62.2249 0.0000 0.0000 0.0000
# 3 22.0420 62.2249 75.4540 0.0000 0.0000 0.0000
# 4 0.0000 0.0000 0.0000 42.1207 0.0000 0.0000
# 5 0.0000 0.0000 0.0000 0.0000 18.1411 0.0000
# 6 0.0000 0.0000 0.0000 0.0000 0.0000 12.1944
#
#
#
# Elastic Compliance Matrix: (Units=1/GPa)
#
#
# Indices 1 2 3 4 5 6 
#
# 1 0.011260 -0.000382 -0.002974 0.000000 0.000000 0.000000
# 2 -0.000382 0.040945 -0.033654 0.000000 0.000000 0.000000
# 3 -0.002974 -0.033654 0.041876 0.000000 0.000000 0.000000
# 4 0.000000 0.000000 0.000000 0.023741 0.000000 0.000000
# 5 0.000000 0.000000 0.000000 0.000000 0.055124 0.000000
# 6 0.000000 0.000000 0.000000 0.000000 0.000000 0.082005
#
#
# Mechanical properties :
#
#
# Convention : Reuss Voigt Hill
#
# Bulk Modulus (GPa) = 49.85300 50.33628 50.09464
# Shear Modulus (GPa) = 14.89613 24.03823 19.46718
#
# Velocity S-wave (km/s) = 2.83375 3.59978 3.23949
# Velocity P-wave (km/s) = 6.13037 6.66431 6.40290
#
# Compressibility (1/GPa) = 0.02005898
#
# Stress axis : x y z
#
# Youngs Moduli (GPa) = 88.81154 24.42317 23.88018
#
# Poissons Ratio (x) = 0.00934 0.07102
# Poissons Ratio (y) = 0.03395 0.80367
# Poissons Ratio (z) = 0.26413 0.82195
#
# Static dielectric constant tensor:
#      x y z
#    x 1.850700 0.000000 0.000000 
#    y 0.000000 1.608470 0.000000 
#    z 0.000000 0.000000 1.616700 
# 
# From -- ./inp_files/16003.got.cif
#   From: 2010.05.17/outbox.cif.g08.bks.cpg/sg54_9_cif.got.tgz:16003.got - 2010.06.03 13:09:01.
