data_PCOD9422784
_publ_section_title
;
Structure prediction by ZEFSAII (Michael W. Deem and Ramdas Pophale) SiO2 
 PCOD9422784
Probable space group: P C C A
;
_chemical_formula_sum "Si O2"
_cell_formula_units_Z 48
_cell_length_a 30.816291
_cell_length_b 7.713801
_cell_length_c 8.763402
_cell_angle_alpha 90.000000
_cell_angle_beta 90.000000
_cell_angle_gamma 90.000000
_cell_volume 2083.154742
_symmetry_space_group_name_H-M "P C C A"
_symmetry_group_IT_number 54
_symmetry_cell_setting 'orthorhombic'
loop_
_space_group_symop_operation_xyz
x,y,z
1/2-x,-y,z
1/2+x,-y,1/2-z
-x,y,1/2-z
-x,-y,-z
1/2+x,y,-z
1/2-x,y,1/2+z
x,-y,1/2+z
loop_
_atom_site_type_symbol
_atom_site_label
_atom_site_fract_x
_atom_site_fract_y
_atom_site_fract_z
Si Si1 0.000000 0.255205 0.750000
Si Si2 0.883202 0.476870 0.719686
Si Si3 0.421787 0.028549 0.380065
Si Si4 0.803599 0.320939 0.529671
Si Si5 0.937299 0.649919 0.489097
Si Si6 0.250000 0.500000 0.728450
Si Si7 0.366360 0.144914 0.648253
O O1 0.019623 0.363109 0.610339
O O2 0.039392 0.129887 0.801219
O O3 0.845679 0.395602 0.616893
O O4 0.925737 0.509051 0.616141
O O5 0.897535 0.369493 0.867606
O O6 0.869216 0.669097 0.770711
O O7 0.437029 0.838335 0.432873
O O8 0.379583 0.997552 0.272562
O O9 0.405315 0.129017 0.527782
O O10 0.766571 0.345603 0.659364
O O11 0.787015 0.437287 0.387997
O O12 0.821307 0.146538 0.446764
#
# Coordination Sequence:
#
# PCOD9422784 Si02
#       7
#     4   8   8   8   8   4   8
#     4  12  24  44  64  88 132 176 230 282 318 398
#     4  11  22  42  65  98 128 165 218 276 323 387
#     4  11  25  43  66  91 125 187 223 263 327 384
#     4  11  20  40  67 103 128 163 201 266 311 402
#     4  11  24  40  65  92 129 170 224 276 331 374
#     4  10  22  36  68 108 134 158 196 258 346 374
#     4  11  23  42  68  95 128 171 227 259 315 399
#
# _framework density 23.041975000000001
#
# number of rings (size 3 to 8) (size 9 to 14) (size 15 to 20)
#    0.000    1.000    5.000    1.500    0.000    0.667 
#    0.000    0.000    0.000    3.000    0.000    0.000 
#    0.000    0.000    0.000    0.000    0.000    0.000 
#
# Total GULP energy -267985.320769 kJ/mol
# GULP energy per Si atom -5583.027516 kJ/mol
# Density = 2.298953 g / cm^3
# Si number density = 23.041975 Si / 1000 Ang^3
#
#
#
# Elastic Constant Matrix: (Units=GPa)
#
#
# Indices 1 2 3 4 5 6 
#
# 1 58.0056 2.3435 19.1422 0.0000 0.0000 0.0000
# 2 2.3435 37.1450 13.8239 0.0000 0.0000 0.0000
# 3 19.1422 13.8239 111.7761 0.0000 0.0000 0.0000
# 4 0.0000 0.0000 0.0000 35.4123 0.0000 0.0000
# 5 0.0000 0.0000 0.0000 0.0000 43.0229 0.0000
# 6 0.0000 0.0000 0.0000 0.0000 0.0000 27.0386
#
#
#
# Elastic Compliance Matrix: (Units=1/GPa)
#
#
# Indices 1 2 3 4 5 6 
#
# 1 0.018272 0.000012 -0.003131 0.000000 0.000000 0.000000
# 2 0.000012 0.028220 -0.003492 0.000000 0.000000 0.000000
# 3 -0.003131 -0.003492 0.009915 0.000000 0.000000 0.000000
# 4 0.000000 0.000000 0.000000 0.028239 0.000000 0.000000
# 5 0.000000 0.000000 0.000000 0.000000 0.023243 0.000000
# 6 0.000000 0.000000 0.000000 0.000000 0.000000 0.036984
#
#
# Mechanical properties :
#
#
# Convention : Reuss Voigt Hill
#
# Bulk Modulus (GPa) = 23.15567 30.83843 26.99705
# Shear Modulus (GPa) = 28.98710 32.53589 30.76150
#
# Velocity S-wave (km/s) = 3.55070 3.76177 3.65776
# Velocity P-wave (km/s) = 5.18470 5.68160 5.43882
#
# Compressibility (1/GPa) = 0.04318597
#
# Stress axis : x y z
#
# Youngs Moduli (GPa) = 54.72734 35.43533 100.86214
#
# Poissons Ratio (x) = -0.00044 0.31578
# Poissons Ratio (y) = -0.00068 0.35224
# Poissons Ratio (z) = 0.17134 0.12375
#
# Static dielectric constant tensor:
#      x y z
#    x 1.895520 0.000000 0.000000 
#    y 0.000000 1.856610 0.000000 
#    z 0.000000 0.000000 1.902560 
# 
# From -- ./inp_files/5859.got.cif
#   From: 2010.05.17/outbox.cif.g08.bks.cpg/sg54_3_cif.got.tgz:5859.got - 2010.06.03 13:09:01.
