data_PCOD9422510
_publ_section_title
;
Structure prediction by ZEFSAII (Michael W. Deem and Ramdas Pophale) SiO2 
 PCOD9422510
Probable space group: P C C A
;
_chemical_formula_sum "Si O2"
_cell_formula_units_Z 40
_cell_length_a 7.780198
_cell_length_b 12.246500
_cell_length_c 17.430119
_cell_angle_alpha 90.000000
_cell_angle_beta 90.000000
_cell_angle_gamma 90.000000
_cell_volume 1660.745134
_symmetry_space_group_name_H-M "P C C A"
_symmetry_group_IT_number 54
_symmetry_cell_setting 'orthorhombic'
loop_
_space_group_symop_operation_xyz
x,y,z
1/2-x,-y,z
1/2+x,-y,1/2-z
-x,y,1/2-z
-x,-y,-z
1/2+x,y,-z
1/2-x,y,1/2+z
x,-y,1/2+z
loop_
_atom_site_type_symbol
_atom_site_label
_atom_site_fract_x
_atom_site_fract_y
_atom_site_fract_z
Si Si1 0.905252 0.686782 0.978889
Si Si2 0.739948 0.678208 0.130093
Si Si3 0.500000 0.544629 0.250000
Si Si4 0.408723 0.930458 0.063879
Si Si5 0.339002 0.889899 0.299689
Si Si6 0.750000 0.500000 0.375377
O O1 0.848614 0.812573 0.967031
O O2 0.797713 0.601225 0.928621
O O3 0.088763 0.685868 0.934908
O O4 0.892367 0.652627 0.068690
O O5 0.645309 0.609569 0.198678
O O6 0.782326 0.791274 0.173969
O O7 0.595337 0.478302 0.315999
O O8 0.558004 0.921016 0.124977
O O9 0.250000 0.000000 0.094177
O O10 0.500000 0.000000 0.000000
O O11 0.500000 0.846277 0.250000
O O12 0.250000 0.000000 0.269652
#
# Coordination Sequence:
#
# PCOD9422510 Si02
#       6
#     8   8   4   8   8   4
#     4  10  22  38  64  93 126 166 221 271 325 398
#     4  10  21  40  63  89 128 169 216 271 330 394
#     4  10  22  42  64  86 132 174 212 274 336 396
#     4  11  21  38  63  93 127 167 214 269 329 402
#     4  11  22  38  60  90 127 172 212 269 334 397
#     4  10  24  42  62  94 126 172 226 276 336 394
#
# _framework density 24.085571999999999
#
# number of rings (size 3 to 8) (size 9 to 14) (size 15 to 20)
#    0.000    1.600    1.000    4.800    0.000    5.600 
#    0.000    0.000    0.000    0.000    0.000    0.000 
#    0.000    0.000    0.000    0.000    0.000    0.000 
#
# Total GULP energy -223044.056034 kJ/mol
# GULP energy per Si atom -5576.101401 kJ/mol
# Density = 2.403075 g / cm^3
# Si number density = 24.085572 Si / 1000 Ang^3
#
#
#
# Elastic Constant Matrix: (Units=GPa)
#
#
# Indices 1 2 3 4 5 6 
#
# 1 32.9347 40.3013 11.9952 0.0000 0.0000 0.0000
# 2 40.3013 108.7463 53.3625 0.0000 0.0000 0.0000
# 3 11.9952 53.3625 157.2786 0.0000 0.0000 0.0000
# 4 0.0000 0.0000 0.0000 21.3909 0.0000 0.0000
# 5 0.0000 0.0000 0.0000 0.0000 35.1944 0.0000
# 6 0.0000 0.0000 0.0000 0.0000 0.0000 22.6357
#
#
#
# Elastic Compliance Matrix: (Units=1/GPa)
#
#
# Indices 1 2 3 4 5 6 
#
# 1 0.057022 -0.022793 0.003384 0.000000 0.000000 0.000000
# 2 -0.022793 0.020143 -0.005096 0.000000 0.000000 0.000000
# 3 0.003384 -0.005096 0.007829 0.000000 0.000000 0.000000
# 4 0.000000 0.000000 0.000000 0.046749 0.000000 0.000000
# 5 0.000000 0.000000 0.000000 0.000000 0.028414 0.000000
# 6 0.000000 0.000000 0.000000 0.000000 0.000000 0.044178
#
#
# Mechanical properties :
#
#
# Convention : Reuss Voigt Hill
#
# Bulk Modulus (GPa) = 27.78933 56.69750 42.24342
# Shear Modulus (GPa) = 18.84387 28.73093 23.78740
#
# Velocity S-wave (km/s) = 2.80013 3.45754 3.14605
# Velocity P-wave (km/s) = 4.69223 6.28733 5.54742
#
# Compressibility (1/GPa) = 0.03598503
#
# Stress axis : x y z
#
# Youngs Moduli (GPa) = 17.53722 49.64410 127.72974
#
# Poissons Ratio (x) = 1.13153 -0.43229
# Poissons Ratio (y) = 0.39972 0.65091
# Poissons Ratio (z) = -0.05935 0.25299
#
# Static dielectric constant tensor:
#      x y z
#    x 2.079510 0.000000 0.000000 
#    y 0.000000 1.995510 0.000000 
#    z 0.000000 0.000000 1.895960 
# 
# From -- ./inp_files/16395.got.cif
#   From: 2010.05.17/outbox.cif.g08.bks.cpg/sg54_9_cif.got.tgz:16395.got - 2010.06.03 13:09:01.
