data_PCOD9422341
_publ_section_title
;
Structure prediction by ZEFSAII (Michael W. Deem and Ramdas Pophale) SiO2 
 PCOD9422341
Probable space group: P C C A
;
_chemical_formula_sum "Si O2"
_cell_formula_units_Z 56
_cell_length_a 21.411884
_cell_length_b 6.262724
_cell_length_c 22.616186
_cell_angle_alpha 90.000000
_cell_angle_beta 90.000000
_cell_angle_gamma 90.000000
_cell_volume 3032.756357
_symmetry_space_group_name_H-M "P C C A"
_symmetry_group_IT_number 54
_symmetry_cell_setting 'orthorhombic'
loop_
_space_group_symop_operation_xyz
x,y,z
1/2-x,-y,z
1/2+x,-y,1/2-z
-x,y,1/2-z
-x,-y,-z
1/2+x,y,-z
1/2-x,y,1/2+z
x,-y,1/2+z
loop_
_atom_site_type_symbol
_atom_site_label
_atom_site_fract_x
_atom_site_fract_y
_atom_site_fract_z
Si Si1 0.410349 0.617456 0.680167
Si Si2 0.316727 0.105804 0.244035
Si Si3 0.428508 0.651951 0.937908
Si Si4 0.320392 0.425680 0.353089
Si Si5 0.593096 0.264134 0.723814
Si Si6 0.998379 0.979735 0.145705
Si Si7 0.952558 0.646933 0.924843
O O1 0.344182 0.718766 0.698916
O O2 0.427982 0.437825 0.728175
O O3 0.462880 0.800858 0.680390
O O4 0.412016 0.512306 0.615460
O O5 0.317795 0.224147 0.307991
O O6 0.250000 0.000000 0.232035
O O7 0.365639 0.913961 0.244474
O O8 0.359877 0.616881 0.911928
O O9 0.455119 0.852661 0.900865
O O10 0.477659 0.458623 0.925137
O O11 0.430671 0.675985 0.008233
O O12 0.250000 0.500000 0.363362
O O13 0.360980 0.607017 0.319914
O O14 0.540804 0.135500 0.687920
O O15 0.044052 0.128036 0.107864
#
# Coordination Sequence:
#
# PCOD9422341 Si02
#       7
#     8   8   8   8   8   8   8
#     4  10  25  37  57  92 125 165 202 246 309 378
#     4  11  22  39  61  87 119 165 204 251 315 372
#     4  10  21  38  62  91 117 162 210 252 310 357
#     4  11  21  38  62  90 117 154 206 256 311 367
#     4  11  22  38  59  91 125 155 196 260 309 369
#     4  11  21  39  61  91 126 163 202 249 313 371
#     4  10  21  39  60  87 126 163 203 254 299 373
#
# _framework density 18.465050000000002
#
# number of rings (size 3 to 8) (size 9 to 14) (size 15 to 20)
#    0.000    1.429    4.286    1.286    0.000    3.429 
#    0.000    0.000    6.286    0.000    0.000    0.000 
#    0.000    0.000    0.000    0.000    0.000    0.000 
#
# Total GULP energy -312809.509627 kJ/mol
# GULP energy per Si atom -5585.884100 kJ/mol
# Density = 1.842302 g / cm^3
# Si number density = 18.465050 Si / 1000 Ang^3
#
#
#
# Elastic Constant Matrix: (Units=GPa)
#
#
# Indices 1 2 3 4 5 6 
#
# 1 105.5404 56.1786 81.9280 0.0000 0.0000 0.0000
# 2 56.1786 120.1116 63.7651 0.0000 0.0000 0.0000
# 3 81.9280 63.7651 125.7402 0.0000 0.0000 0.0000
# 4 0.0000 0.0000 0.0000 16.0781 0.0000 0.0000
# 5 0.0000 0.0000 0.0000 0.0000 21.5447 0.0000
# 6 0.0000 0.0000 0.0000 0.0000 0.0000 34.6190
#
#
#
# Elastic Compliance Matrix: (Units=1/GPa)
#
#
# Indices 1 2 3 4 5 6 
#
# 1 0.020113 -0.003353 -0.011405 0.000000 0.000000 0.000000
# 2 -0.003353 0.011952 -0.003876 0.000000 0.000000 0.000000
# 3 -0.011405 -0.003876 0.017349 0.000000 0.000000 0.000000
# 4 0.000000 0.000000 0.000000 0.062196 0.000000 0.000000
# 5 0.000000 0.000000 0.000000 0.000000 0.046415 0.000000
# 6 0.000000 0.000000 0.000000 0.000000 0.000000 0.028886
#
#
# Mechanical properties :
#
#
# Convention : Reuss Voigt Hill
#
# Bulk Modulus (GPa) = 82.32751 83.90394 83.11573
# Shear Modulus (GPa) = 21.90800 24.41639 23.16219
#
# Velocity S-wave (km/s) = 3.44824 3.64029 3.54557
# Velocity P-wave (km/s) = 7.78050 7.95028 7.86585
#
# Compressibility (1/GPa) = 0.01214661
#
# Stress axis : x y z
#
# Youngs Moduli (GPa) = 49.72000 83.67087 57.63860
#
# Poissons Ratio (x) = 0.28052 0.65734
# Poissons Ratio (y) = 0.16669 0.22343
# Poissons Ratio (z) = 0.56703 0.32434
#
# Static dielectric constant tensor:
#      x y z
#    x 1.634620 0.000000 0.000000 
#    y 0.000000 1.664560 0.000000 
#    z 0.000000 0.000000 1.635290 
# 
# From -- ./inp_files/22290.got.cif
#   From: 2010.05.17/outbox.cif.g08.bks.cpg/sg54_12_cif.got.tgz:22290.got - 2010.06.03 13:09:01.
