data_PCOD9422810
_publ_section_title
;
Structure prediction by ZEFSAII (Michael W. Deem and Ramdas Pophale) SiO2 
 PCOD9422810
Probable space group: P C C A
;
_chemical_formula_sum "Si O2"
_cell_formula_units_Z 32
_cell_length_a 5.215205
_cell_length_b 14.448659
_cell_length_c 18.772180
_cell_angle_alpha 90.000000
_cell_angle_beta 90.000000
_cell_angle_gamma 90.000000
_cell_volume 1414.534798
_symmetry_space_group_name_H-M "P C C A"
_symmetry_group_IT_number 54
_symmetry_cell_setting 'orthorhombic'
loop_
_space_group_symop_operation_xyz
x,y,z
1/2-x,-y,z
1/2+x,-y,1/2-z
-x,y,1/2-z
-x,-y,-z
1/2+x,y,-z
1/2-x,y,1/2+z
x,-y,1/2+z
loop_
_atom_site_type_symbol
_atom_site_label
_atom_site_fract_x
_atom_site_fract_y
_atom_site_fract_z
Si Si1 0.253623 0.888430 0.545697
Si Si2 0.845685 0.395669 0.822185
Si Si3 0.838915 0.607042 0.475496
Si Si4 0.735694 0.803727 0.296500
O O1 0.501271 0.861491 0.499056
O O2 0.263813 0.849488 0.625972
O O3 0.250000 0.000000 0.551547
O O4 0.750000 0.500000 0.829599
O O5 0.975515 0.382281 0.899063
O O6 0.674841 0.304796 0.812280
O O7 0.000000 0.397875 0.750000
O O8 0.750000 0.500000 0.490955
O O9 0.552138 0.647497 0.472315
O O10 0.500000 0.842488 0.250000
O O11 0.000000 0.809343 0.250000
#
# Coordination Sequence:
#
# PCOD9422810 Si02
#       4
#     8   8   8   8
#     4  10  22  42  68  96 126 162 203 250 310 378
#     4  10  22  38  59  84 119 163 208 252 300 355
#     4   9  19  34  52  75 102 136 184 239 290 339
#     4  11  24  40  61  92 127 164 207 256 310 365
#
# _framework density 22.622275999999999
#
# number of rings (size 3 to 8) (size 9 to 14) (size 15 to 20)
#    0.000    2.000    0.000    2.250    0.000   12.000 
#    0.000    0.000    0.000    0.000    0.000    0.000 
#    0.000    0.000    0.000    0.000    0.000    0.000 
#
# Total GULP energy -178213.498244 kJ/mol
# GULP energy per Si atom -5569.171820 kJ/mol
# Density = 2.257079 g / cm^3
# Si number density = 22.622276 Si / 1000 Ang^3
#
#
#
# Elastic Constant Matrix: (Units=GPa)
#
#
# Indices 1 2 3 4 5 6 
#
# 1 165.2547 24.8340 87.6232 0.0000 0.0000 0.0000
# 2 24.8340 90.7467 32.8139 0.0000 0.0000 0.0000
# 3 87.6232 32.8139 196.1236 0.0000 0.0000 0.0000
# 4 0.0000 0.0000 0.0000 17.8614 0.0000 0.0000
# 5 0.0000 0.0000 0.0000 0.0000 41.5196 0.0000
# 6 0.0000 0.0000 0.0000 0.0000 0.0000 -2.2614
#
#
#
# Elastic Compliance Matrix: (Units=1/GPa)
#
#
# Indices 1 2 3 4 5 6 
#
# 1 0.008007 -0.000955 -0.003417 0.000000 0.000000 0.000000
# 2 -0.000955 0.011843 -0.001555 0.000000 0.000000 0.000000
# 3 -0.003417 -0.001555 0.006886 0.000000 0.000000 0.000000
# 4 0.000000 0.000000 0.000000 0.055987 0.000000 0.000000
# 5 0.000000 0.000000 0.000000 0.000000 0.024085 0.000000
# 6 0.000000 0.000000 0.000000 0.000000 0.000000 -0.442205
#
#
# Mechanical properties :
#
#
# Convention : Reuss Voigt Hill
#
# Bulk Modulus (GPa) = 67.20028 82.51858 74.85943
# Shear Modulus (GPa) = -15.69455 31.88086 8.09315
#
# Velocity S-wave (km/s) = -2.63680 3.75809 1.89348
# Velocity P-wave (km/s) = 4.52764 7.44224 6.15981
#
# Compressibility (1/GPa) = 0.01488089
#
# Stress axis : x y z
#
# Youngs Moduli (GPa) = 124.89275 84.43578 145.22730
#
# Poissons Ratio (x) = 0.08067 0.49630
# Poissons Ratio (y) = 0.11933 0.22578
# Poissons Ratio (z) = 0.42681 0.13127
#
# Static dielectric constant tensor:
#      x y z
#    x 1.828550 0.000000 0.000000 
#    y 0.000000 1.975320 0.000000 
#    z 0.000000 0.000000 1.892060 
# 
# From -- ./inp_files/15663.got.cif
#   From: 2010.05.17/outbox.cif.g08.bks.cpg/sg54_8_cif.got.tgz:15663.got - 2010.06.03 13:09:01.
