data_PCOD9422915
_publ_section_title
;
Structure prediction by ZEFSAII (Michael W. Deem and Ramdas Pophale) SiO2 
 PCOD9422915
Probable space group: P C C A
;
_chemical_formula_sum "Si O2"
_cell_formula_units_Z 40
_cell_length_a 5.199470
_cell_length_b 14.141492
_cell_length_c 28.666581
_cell_angle_alpha 90.000000
_cell_angle_beta 90.000000
_cell_angle_gamma 90.000000
_cell_volume 2107.803919
_symmetry_space_group_name_H-M "P C C A"
_symmetry_group_IT_number 54
_symmetry_cell_setting 'orthorhombic'
loop_
_space_group_symop_operation_xyz
x,y,z
1/2-x,-y,z
1/2+x,-y,1/2-z
-x,y,1/2-z
-x,-y,-z
1/2+x,y,-z
1/2-x,y,1/2+z
x,-y,1/2+z
loop_
_atom_site_type_symbol
_atom_site_label
_atom_site_fract_x
_atom_site_fract_y
_atom_site_fract_z
Si Si1 0.500000 0.941281 0.750000
Si Si2 0.037457 0.141555 0.651940
Si Si3 0.038298 0.740512 0.871686
Si Si4 0.883421 0.186374 0.031798
Si Si5 0.500342 0.565857 0.303074
Si Si6 0.750000 0.000000 0.588291
O O1 0.408100 0.884064 0.705176
O O2 0.750000 0.000000 0.734270
O O3 0.280524 0.196980 0.632019
O O4 0.781528 0.205264 0.650347
O O5 0.961722 0.050228 0.621151
O O6 0.102731 0.737064 0.926610
O O7 0.999317 0.645445 0.842602
O O8 0.868748 0.083536 0.056970
O O9 0.628286 0.194373 0.001193
O O10 0.250000 0.500000 0.307470
O O11 0.500000 0.606760 0.250000
O O12 0.750000 0.500000 0.307192
#
# Coordination Sequence:
#
# PCOD9422915 Si02
#       6
#     4   8   8   8   8   4
#     4  12  24  38  54  80 122 172 212 252 280 352
#     4  11  24  37  57  86 123 168 210 247 297 353
#     4  11  24  41  63  90 123 157 201 256 305 366
#     4  11  23  39  61  87 118 161 209 259 302 346
#     4  10  22  41  67  95 122 153 192 241 306 379
#     4  10  22  40  56  86 120 166 212 258 296 344
#
# _framework density 18.977097000000001
#
# number of rings (size 3 to 8) (size 9 to 14) (size 15 to 20)
#    0.000    1.200    1.000    5.400    5.600    3.200 
#    0.000    0.000    0.000    3.600    0.000    0.000 
#    0.000    0.000    0.000    0.000    0.000    0.000 
#
# Total GULP energy -223621.030099 kJ/mol
# GULP energy per Si atom -5590.525752 kJ/mol
# Density = 1.893390 g / cm^3
# Si number density = 18.977097 Si / 1000 Ang^3
#
#
#
# Elastic Constant Matrix: (Units=GPa)
#
#
# Indices 1 2 3 4 5 6 
#
# 1 129.1945 34.7076 37.1423 0.0000 0.0000 0.0000
# 2 34.7076 64.7905 70.9449 0.0000 0.0000 0.0000
# 3 37.1423 70.9449 164.8724 0.0000 0.0000 0.0000
# 4 0.0000 0.0000 0.0000 32.9492 0.0000 0.0000
# 5 0.0000 0.0000 0.0000 0.0000 28.8654 0.0000
# 6 0.0000 0.0000 0.0000 0.0000 0.0000 18.1930
#
#
#
# Elastic Compliance Matrix: (Units=1/GPa)
#
#
# Indices 1 2 3 4 5 6 
#
# 1 0.009042 -0.004942 0.000089 0.000000 0.000000 0.000000
# 2 -0.004942 0.031887 -0.012608 0.000000 0.000000 0.000000
# 3 0.000089 -0.012608 0.011470 0.000000 0.000000 0.000000
# 4 0.000000 0.000000 0.000000 0.030350 0.000000 0.000000
# 5 0.000000 0.000000 0.000000 0.000000 0.034644 0.000000
# 6 0.000000 0.000000 0.000000 0.000000 0.000000 0.054966
#
#
# Mechanical properties :
#
#
# Convention : Reuss Voigt Hill
#
# Bulk Modulus (GPa) = 57.21048 71.60522 64.40785
# Shear Modulus (GPa) = 23.46256 30.40568 26.93412
#
# Velocity S-wave (km/s) = 3.52001 4.00713 3.77144
# Velocity P-wave (km/s) = 6.83617 7.69570 7.27863
#
# Compressibility (1/GPa) = 0.01747932
#
# Stress axis : x y z
#
# Youngs Moduli (GPa) = 110.59343 31.36078 87.18166
#
# Poissons Ratio (x) = 0.15498 -0.00780
# Poissons Ratio (y) = 0.54652 1.09917
# Poissons Ratio (z) = -0.00989 0.39539
#
# Static dielectric constant tensor:
#      x y z
#    x 1.641710 0.000000 0.000000 
#    y 0.000000 1.651700 0.000000 
#    z 0.000000 0.000000 1.665870 
# 
# From -- ./inp_files/22838.got.cif
#   From: 2010.05.17/outbox.cif.g08.bks.cpg/sg54_12_cif.got.tgz:22838.got - 2010.06.03 13:09:01.
