data_PCOD9422168
_publ_section_title
;
Structure prediction by ZEFSAII (Michael W. Deem and Ramdas Pophale) SiO2 
 PCOD9422168
Probable space group: P C C A
;
_chemical_formula_sum "Si O2"
_cell_formula_units_Z 40
_cell_length_a 8.158465
_cell_length_b 15.423584
_cell_length_c 13.966570
_cell_angle_alpha 90.000000
_cell_angle_beta 90.000000
_cell_angle_gamma 90.000000
_cell_volume 1757.452194
_symmetry_space_group_name_H-M "P C C A"
_symmetry_group_IT_number 54
_symmetry_cell_setting 'orthorhombic'
loop_
_space_group_symop_operation_xyz
x,y,z
1/2-x,-y,z
1/2+x,-y,1/2-z
-x,y,1/2-z
-x,-y,-z
1/2+x,y,-z
1/2-x,y,1/2+z
x,-y,1/2+z
loop_
_atom_site_type_symbol
_atom_site_label
_atom_site_fract_x
_atom_site_fract_y
_atom_site_fract_z
Si Si1 0.802474 0.100782 0.608487
Si Si2 0.150985 0.614194 0.541938
Si Si3 0.485926 0.442896 0.135003
Si Si4 0.173666 0.084145 0.194805
Si Si5 0.987090 0.194263 0.461362
O O1 0.799303 0.108340 0.722236
O O2 0.961138 0.136394 0.556214
O O3 0.666960 0.169743 0.573448
O O4 0.750000 0.000000 0.588192
O O5 0.054563 0.541771 0.604102
O O6 0.330748 0.610940 0.590434
O O7 0.061045 0.706087 0.539496
O O8 0.140850 0.584776 0.430291
O O9 0.500000 0.433529 0.250000
O O10 0.133912 0.154151 0.117446
O O11 0.000000 0.065807 0.250000
O O12 0.250000 0.000000 0.146660
#
# Coordination Sequence:
#
# PCOD9422168 Si02
#       5
#     8   8   8   8   8
#     4  10  21  36  55  83 118 159 198 241 303 365
#     4  10  23  41  63  95 125 162 220 268 324 407
#     4  10  23  43  66  92 131 173 209 269 339 395
#     4   9  20  36  53  77 111 152 195 239 294 356
#     4  11  21  37  60  86 118 153 200 258 301 358
#
# _framework density 22.76022
#
# number of rings (size 3 to 8) (size 9 to 14) (size 15 to 20)
#    0.000    2.000    0.000    2.400    0.000   13.600 
#    0.000    1.000    0.000    0.000    0.000    0.000 
#    0.000    0.000    0.000    0.000    0.000    0.000 
#
# Total GULP energy -223315.472862 kJ/mol
# GULP energy per Si atom -5582.886822 kJ/mol
# Density = 2.270842 g / cm^3
# Si number density = 22.760220 Si / 1000 Ang^3
#
#
#
# Elastic Constant Matrix: (Units=GPa)
#
#
# Indices 1 2 3 4 5 6 
#
# 1 61.5254 30.8266 37.6220 0.0000 0.0000 0.0000
# 2 30.8266 114.7976 19.0384 0.0000 0.0000 0.0000
# 3 37.6220 19.0384 160.8836 0.0000 0.0000 0.0000
# 4 0.0000 0.0000 0.0000 29.9704 0.0000 0.0000
# 5 0.0000 0.0000 0.0000 0.0000 28.4719 0.0000
# 6 0.0000 0.0000 0.0000 0.0000 0.0000 28.9924
#
#
#
# Elastic Compliance Matrix: (Units=1/GPa)
#
#
# Indices 1 2 3 4 5 6 
#
# 1 0.021484 -0.005035 -0.004428 0.000000 0.000000 0.000000
# 2 -0.005035 0.010065 -0.000014 0.000000 0.000000 0.000000
# 3 -0.004428 -0.000014 0.007253 0.000000 0.000000 0.000000
# 4 0.000000 0.000000 0.000000 0.033366 0.000000 0.000000
# 5 0.000000 0.000000 0.000000 0.000000 0.035122 0.000000
# 6 0.000000 0.000000 0.000000 0.000000 0.000000 0.034492
#
#
# Mechanical properties :
#
#
# Convention : Reuss Voigt Hill
#
# Bulk Modulus (GPa) = 50.38107 56.90896 53.64502
# Shear Modulus (GPa) = 29.87724 34.13490 32.00607
#
# Velocity S-wave (km/s) = 3.62704 3.87688 3.75404
# Velocity P-wave (km/s) = 6.30272 6.71552 6.51239
#
# Compressibility (1/GPa) = 0.01984873
#
# Stress axis : x y z
#
# Youngs Moduli (GPa) = 46.54686 99.35197 137.87784
#
# Poissons Ratio (x) = 0.50020 0.61054
# Poissons Ratio (y) = 0.23435 0.00190
# Poissons Ratio (z) = 0.20611 0.00137
#
# Static dielectric constant tensor:
#      x y z
#    x 2.001520 0.000000 0.000000 
#    y 0.000000 1.869990 0.000000 
#    z 0.000000 0.000000 1.853980 
# 
# From -- ./inp_files/11494.got.cif
#   From: 2010.05.17/outbox.cif.g08.bks.cpg/sg54_6_cif.got.tgz:11494.got - 2010.06.03 13:09:01.
