data_PCOD9422191
_publ_section_title
;
Structure prediction by ZEFSAII (Michael W. Deem and Ramdas Pophale) SiO2 
 PCOD9422191
Probable space group: P C C A
;
_chemical_formula_sum "Si O2"
_cell_formula_units_Z 28
_cell_length_a 9.956125
_cell_length_b 8.052402
_cell_length_c 13.893798
_cell_angle_alpha 90.000000
_cell_angle_beta 90.000000
_cell_angle_gamma 90.000000
_cell_volume 1113.875801
_symmetry_space_group_name_H-M "P C C A"
_symmetry_group_IT_number 54
_symmetry_cell_setting 'orthorhombic'
loop_
_space_group_symop_operation_xyz
x,y,z
1/2-x,-y,z
1/2+x,-y,1/2-z
-x,y,1/2-z
-x,-y,-z
1/2+x,y,-z
1/2-x,y,1/2+z
x,-y,1/2+z
loop_
_atom_site_type_symbol
_atom_site_label
_atom_site_fract_x
_atom_site_fract_y
_atom_site_fract_z
Si Si1 0.073045 0.855473 0.444706
Si Si2 0.250000 0.000000 0.278547
Si Si3 0.321052 0.669650 0.510073
Si Si4 0.350623 0.350702 0.778948
O O1 0.130795 0.926046 0.345531
O O2 0.200089 0.800906 0.508186
O O3 0.958592 0.714336 0.435920
O O4 0.000000 0.000000 0.500000
O O5 0.306590 0.828453 0.234490
O O6 0.250000 0.500000 0.539597
O O7 0.352600 0.663215 0.395467
O O8 0.250000 0.500000 0.755962
O O9 0.500000 0.391613 0.750000
#
# Coordination Sequence:
#
# PCOD9422191 Si02
#       4
#     8   4   8   8
#     4  11  17  35  60  88 122 153 188 249 309 366
#     4  10  22  40  68  90 128 156 202 260 312 360
#     4  10  21  36  59  89 122 158 198 248 308 365
#     4  10  22  42  64  85 121 165 210 256 296 354
#
# _framework density 25.137454000000002
#
# number of rings (size 3 to 8) (size 9 to 14) (size 15 to 20)
#    0.000    1.714    5.714    0.857    0.000    1.143 
#    0.000   14.286    0.000    0.000    0.000    0.000 
#    0.000    0.000    0.000    0.000    0.000    0.000 
#
# Total GULP energy -156769.891427 kJ/mol
# GULP energy per Si atom -5598.924694 kJ/mol
# Density = 2.508024 g / cm^3
# Si number density = 25.137454 Si / 1000 Ang^3
#
#
#
# Elastic Constant Matrix: (Units=GPa)
#
#
# Indices 1 2 3 4 5 6 
#
# 1 213.8514 85.1221 49.7679 0.0000 0.0000 0.0000
# 2 85.1221 164.0476 24.2421 0.0000 0.0000 0.0000
# 3 49.7679 24.2421 76.9818 0.0000 0.0000 0.0000
# 4 0.0000 0.0000 0.0000 -72.0856 0.0000 0.0000
# 5 0.0000 0.0000 0.0000 0.0000 3.2808 0.0000
# 6 0.0000 0.0000 0.0000 0.0000 0.0000 73.1479
#
#
#
# Elastic Compliance Matrix: (Units=1/GPa)
#
#
# Indices 1 2 3 4 5 6 
#
# 1 0.006630 -0.002944 -0.003359 0.000000 0.000000 0.000000
# 2 -0.002944 0.007700 -0.000522 0.000000 0.000000 0.000000
# 3 -0.003359 -0.000522 0.015326 0.000000 0.000000 0.000000
# 4 0.000000 0.000000 0.000000 -0.013872 0.000000 0.000000
# 5 0.000000 0.000000 0.000000 0.000000 0.304805 0.000000
# 6 0.000000 0.000000 0.000000 0.000000 0.000000 0.013671
#
#
# Mechanical properties :
#
#
# Convention : Reuss Voigt Hill
#
# Bulk Modulus (GPa) = 62.47298 85.90500 74.18899
# Shear Modulus (GPa) = 14.15451 20.58520 17.36985
#
# Velocity S-wave (km/s) = 2.37551 2.86476 2.63153
# Velocity P-wave (km/s) = 5.69479 6.72241 6.22982
#
# Compressibility (1/GPa) = 0.01600692
#
# Stress axis : x y z
#
# Youngs Moduli (GPa) = 150.84042 129.86499 65.24880
#
# Poissons Ratio (x) = 0.38227 0.21917
# Poissons Ratio (y) = 0.44401 0.03405
# Poissons Ratio (z) = 0.50667 0.06777
#
# Static dielectric constant tensor:
#      x y z
#    x 1.956420 0.000000 0.000000 
#    y 0.000000 2.093970 0.000000 
#    z 0.000000 0.000000 1.990260 
# 
# From -- ./inp_files/16138.got.cif
#   From: 2010.05.17/outbox.cif.g08.bks.cpg/sg54_9_cif.got.tgz:16138.got - 2010.06.03 13:09:01.
