data_PCOD9422999
_publ_section_title
;
Structure prediction by ZEFSAII (Michael W. Deem and Ramdas Pophale) SiO2 
 PCOD9422999
Probable space group: P C C A
;
_chemical_formula_sum "Si O2"
_cell_formula_units_Z 40
_cell_length_a 9.051499
_cell_length_b 8.421652
_cell_length_c 23.993208
_cell_angle_alpha 90.000000
_cell_angle_beta 90.000000
_cell_angle_gamma 90.000000
_cell_volume 1828.968047
_symmetry_space_group_name_H-M "P C C A"
_symmetry_group_IT_number 54
_symmetry_cell_setting 'orthorhombic'
loop_
_space_group_symop_operation_xyz
x,y,z
1/2-x,-y,z
1/2+x,-y,1/2-z
-x,y,1/2-z
-x,-y,-z
1/2+x,y,-z
1/2-x,y,1/2+z
x,-y,1/2+z
loop_
_atom_site_type_symbol
_atom_site_label
_atom_site_fract_x
_atom_site_fract_y
_atom_site_fract_z
Si Si1 0.058480 0.633237 0.312913
Si Si2 0.472098 0.877616 0.098529
Si Si3 0.644545 0.788032 0.907938
Si Si4 0.373931 0.384723 0.978476
Si Si5 0.103175 0.270034 0.304612
O O1 0.059634 0.445413 0.327562
O O2 0.220332 0.710139 0.305248
O O3 0.000000 0.643472 0.250000
O O4 0.957069 0.709711 0.360725
O O5 0.307431 0.821521 0.115521
O O6 0.557280 0.754213 0.058955
O O7 0.564146 0.874438 0.155019
O O8 0.442140 0.051568 0.074400
O O9 0.681417 0.692826 0.964093
O O10 0.250000 0.500000 0.951743
O O11 0.500000 0.500000 0.000000
O O12 0.000000 0.251518 0.250000
#
# Coordination Sequence:
#
# PCOD9422999 Si02
#       5
#     8   8   8   8   8
#     4  10  22  40  67  97 129 171 220 272 327 391
#     4  11  25  43  66  94 134 173 218 274 333 396
#     4  11  25  44  64  95 134 175 216 272 335 398
#     4  12  25  44  69  96 127 173 223 274 325 395
#     4  10  22  40  66  98 129 170 221 272 325 393
#
# _framework density 21.870255
#
# number of rings (size 3 to 8) (size 9 to 14) (size 15 to 20)
#    0.000    1.200    2.000    3.000    5.600    3.200 
#    0.000    0.000    0.000    0.000    0.000    0.000 
#    0.000    0.000    0.000    0.000    0.000    0.000 
#
# Total GULP energy -223188.173889 kJ/mol
# GULP energy per Si atom -5579.704347 kJ/mol
# Density = 2.182048 g / cm^3
# Si number density = 21.870255 Si / 1000 Ang^3
#
#
#
# Elastic Constant Matrix: (Units=GPa)
#
#
# Indices 1 2 3 4 5 6 
#
# 1 68.4826 22.8774 12.1800 0.0000 0.0000 0.0000
# 2 22.8774 61.7576 14.6548 0.0000 0.0000 0.0000
# 3 12.1800 14.6548 64.7168 0.0000 0.0000 0.0000
# 4 0.0000 0.0000 0.0000 16.4971 0.0000 0.0000
# 5 0.0000 0.0000 0.0000 0.0000 30.0503 0.0000
# 6 0.0000 0.0000 0.0000 0.0000 0.0000 37.7059
#
#
#
# Elastic Compliance Matrix: (Units=1/GPa)
#
#
# Indices 1 2 3 4 5 6 
#
# 1 0.016874 -0.005809 -0.001860 0.000000 0.000000 0.000000
# 2 -0.005809 0.019112 -0.003234 0.000000 0.000000 0.000000
# 3 -0.001860 -0.003234 0.016534 0.000000 0.000000 0.000000
# 4 0.000000 0.000000 0.000000 0.060617 0.000000 0.000000
# 5 0.000000 0.000000 0.000000 0.000000 0.033278 0.000000
# 6 0.000000 0.000000 0.000000 0.000000 0.000000 0.026521
#
#
# Mechanical properties :
#
#
# Convention : Reuss Voigt Hill
#
# Bulk Modulus (GPa) = 32.56039 32.70903 32.63471
# Shear Modulus (GPa) = 24.39254 26.53365 25.46309
#
# Velocity S-wave (km/s) = 3.34328 3.48692 3.41586
# Velocity P-wave (km/s) = 5.46110 5.58569 5.52375
#
# Compressibility (1/GPa) = 0.03071216
#
# Stress axis : x y z
#
# Youngs Moduli (GPa) = 59.26362 52.32355 60.47973
#
# Poissons Ratio (x) = 0.30396 0.11251
# Poissons Ratio (y) = 0.34428 0.19562
# Poissons Ratio (z) = 0.11024 0.16924
#
# Static dielectric constant tensor:
#      x y z
#    x 1.988030 0.000000 0.000000 
#    y 0.000000 1.803430 0.000000 
#    z 0.000000 0.000000 1.683950 
# 
# From -- ./inp_files/23236.got.cif
#   From: 2010.05.17/outbox.cif.g08.bks.cpg/sg54_12_cif.got.tgz:23236.got - 2010.06.03 13:09:01.
