data_PCOD9422652
_publ_section_title
;
Structure prediction by ZEFSAII (Michael W. Deem and Ramdas Pophale) SiO2 
 PCOD9422652
Probable space group: P C C A
;
_chemical_formula_sum "Si O2"
_cell_formula_units_Z 48
_cell_length_a 8.858570
_cell_length_b 15.466079
_cell_length_c 14.705559
_cell_angle_alpha 90.000000
_cell_angle_beta 90.000000
_cell_angle_gamma 90.000000
_cell_volume 2014.769572
_symmetry_space_group_name_H-M "P C C A"
_symmetry_group_IT_number 54
_symmetry_cell_setting 'orthorhombic'
loop_
_space_group_symop_operation_xyz
x,y,z
1/2-x,-y,z
1/2+x,-y,1/2-z
-x,y,1/2-z
-x,-y,-z
1/2+x,y,-z
1/2-x,y,1/2+z
x,-y,1/2+z
loop_
_atom_site_type_symbol
_atom_site_label
_atom_site_fract_x
_atom_site_fract_y
_atom_site_fract_z
Si Si1 0.000000 0.136585 0.750000
Si Si2 0.630512 0.635813 0.136074
Si Si3 0.250000 0.500000 0.719351
Si Si4 0.825266 0.922033 0.788775
Si Si5 0.107281 0.255687 0.903928
Si Si6 0.151160 0.744663 0.605336
Si Si7 0.901784 0.601640 0.432084
O O1 0.162715 0.087723 0.766833
O O2 0.006533 0.200380 0.836401
O O3 0.691452 0.575002 0.214888
O O4 0.725146 0.726555 0.131529
O O5 0.465015 0.675668 0.145403
O O6 0.622606 0.584115 0.038591
O O7 0.126838 0.466836 0.646384
O O8 0.833631 0.828966 0.834972
O O9 0.000000 0.934782 0.750000
O O10 0.750000 0.000000 0.850207
O O11 0.062938 0.356741 0.915353
O O12 0.099637 0.221914 0.005942
O O13 0.295180 0.684551 0.586683
#
# Coordination Sequence:
#
# PCOD9422652 Si02
#       7
#     4   8   4   8   8   8   8
#     4  12  22  44  76 104 142 188 244 296 366 446
#     4  10  23  39  62  94 133 184 244 302 362 433
#     4  12  24  38  60  96 138 186 246 300 374 428
#     4  12  26  46  74 111 151 187 239 309 375 453
#     4  10  21  42  68  95 128 185 238 294 357 440
#     4  10  23  44  68  96 137 186 238 298 368 441
#     4  10  22  39  61  90 134 182 236 302 360 432
#
# _framework density 23.824064
#
# number of rings (size 3 to 8) (size 9 to 14) (size 15 to 20)
#    0.000    1.333    2.500    2.500    2.333    2.667 
#    0.000    6.667    0.000    0.000    0.000    0.000 
#    0.000    0.000    0.000    0.000    0.000    0.000 
#
# Total GULP energy -267324.192799 kJ/mol
# GULP energy per Si atom -5569.254017 kJ/mol
# Density = 2.376984 g / cm^3
# Si number density = 23.824064 Si / 1000 Ang^3
#
#
#
# Elastic Constant Matrix: (Units=GPa)
#
#
# Indices 1 2 3 4 5 6 
#
# 1 111.2326 40.3191 56.2886 0.0000 0.0000 0.0000
# 2 40.3191 65.7937 31.1612 0.0000 0.0000 0.0000
# 3 56.2886 31.1612 98.1550 0.0000 0.0000 0.0000
# 4 0.0000 0.0000 0.0000 28.2707 0.0000 0.0000
# 5 0.0000 0.0000 0.0000 0.0000 19.0230 0.0000
# 6 0.0000 0.0000 0.0000 0.0000 0.0000 900.4890
#
#
#
# Elastic Compliance Matrix: (Units=1/GPa)
#
#
# Indices 1 2 3 4 5 6 
#
# 1 0.014298 -0.005742 -0.006377 0.000000 0.000000 0.000000
# 2 -0.005742 0.020195 -0.003118 0.000000 0.000000 0.000000
# 3 -0.006377 -0.003118 0.014835 0.000000 0.000000 0.000000
# 4 0.000000 0.000000 0.000000 0.035372 0.000000 0.000000
# 5 0.000000 0.000000 0.000000 0.000000 0.052568 0.000000
# 6 0.000000 0.000000 0.000000 0.000000 0.000000 0.001111
#
#
# Mechanical properties :
#
#
# Convention : Reuss Voigt Hill
#
# Bulk Modulus (GPa) = 53.04006 58.96879 56.00442
# Shear Modulus (GPa) = 28.54899 199.38404 113.96651
#
# Velocity S-wave (km/s) = 3.46544 9.15816 6.92391
# Velocity P-wave (km/s) = 6.19063 11.68908 9.35304
#
# Compressibility (1/GPa) = 0.01885367
#
# Stress axis : x y z
#
# Youngs Moduli (GPa) = 69.93760 49.51784 67.40906
#
# Poissons Ratio (x) = 0.28434 0.42985
# Poissons Ratio (y) = 0.40159 0.21020
# Poissons Ratio (z) = 0.44597 0.15441
#
# Static dielectric constant tensor:
#      x y z
#    x 1.992220 0.000000 0.000000 
#    y 0.000000 2.046230 0.000000 
#    z 0.000000 0.000000 1.940620 
# 
# From -- ./inp_files/11780.got.cif
#   From: 2010.05.17/outbox.cif.g08.bks.cpg/sg54_6_cif.got.tgz:11780.got - 2010.06.03 13:09:01.
