data_PCOD9422901
_publ_section_title
;
Structure prediction by ZEFSAII (Michael W. Deem and Ramdas Pophale) SiO2 
 PCOD9422901
Probable space group: P C C A
;
_chemical_formula_sum "Si O2"
_cell_formula_units_Z 40
_cell_length_a 13.764703
_cell_length_b 5.064732
_cell_length_c 22.669109
_cell_angle_alpha 90.000000
_cell_angle_beta 90.000000
_cell_angle_gamma 90.000000
_cell_volume 1580.366319
_symmetry_space_group_name_H-M "P C C A"
_symmetry_group_IT_number 54
_symmetry_cell_setting 'orthorhombic'
loop_
_space_group_symop_operation_xyz
x,y,z
1/2-x,-y,z
1/2+x,-y,1/2-z
-x,y,1/2-z
-x,-y,-z
1/2+x,y,-z
1/2-x,y,1/2+z
x,-y,1/2+z
loop_
_atom_site_type_symbol
_atom_site_label
_atom_site_fract_x
_atom_site_fract_y
_atom_site_fract_z
Si Si1 0.974568 0.066962 0.311587
Si Si2 0.311260 0.272688 0.240618
Si Si3 0.378110 0.704356 0.864159
Si Si4 0.012653 0.704513 0.571395
Si Si5 0.846761 0.108164 0.521082
O O1 0.908518 0.821417 0.291891
O O2 0.000000 0.212413 0.250000
O O3 0.077091 0.973140 0.337961
O O4 0.930775 0.184758 0.370824
O O5 0.250000 0.500000 0.208696
O O6 0.340072 0.407552 0.303225
O O7 0.250000 0.000000 0.248052
O O8 0.462007 0.546280 0.898271
O O9 0.307592 0.762147 0.918034
O O10 0.092717 0.691855 0.520102
O O11 0.926461 0.888978 0.542874
O O12 0.750000 0.000000 0.490476
#
# Coordination Sequence:
#
# PCOD9422901 Si02
#       5
#     8   8   8   8   8
#     4   9  22  41  61  90 131 175 221 281 348 419
#     4  11  26  41  66 105 137 177 234 292 350 416
#     4  10  22  39  66  92 129 181 233 287 346 428
#     4  10  22  40  67  91 133 181 232 284 359 423
#     4  10  22  40  61  96 132 175 233 297 353 416
#
# _framework density 25.310589
#
# number of rings (size 3 to 8) (size 9 to 14) (size 15 to 20)
#    0.000    2.000    0.000    1.200   14.000    1.600 
#    0.000    0.000    0.000    0.000    0.000    0.000 
#    0.000    0.000    0.000    0.000    0.000    0.000 
#
# Total GULP energy -222863.826684 kJ/mol
# GULP energy per Si atom -5571.595667 kJ/mol
# Density = 2.525298 g / cm^3
# Si number density = 25.310589 Si / 1000 Ang^3
#
#
#
# Elastic Constant Matrix: (Units=GPa)
#
#
# Indices 1 2 3 4 5 6 
#
# 1 83.9411 19.4455 26.3495 0.0000 0.0000 0.0000
# 2 19.4455 78.9165 30.8636 0.0000 0.0000 0.0000
# 3 26.3495 30.8636 135.9397 0.0000 0.0000 0.0000
# 4 0.0000 0.0000 0.0000 -23.6159 0.0000 0.0000
# 5 0.0000 0.0000 0.0000 0.0000 18.1055 0.0000
# 6 0.0000 0.0000 0.0000 0.0000 0.0000 48.0602
#
#
#
# Elastic Compliance Matrix: (Units=1/GPa)
#
#
# Indices 1 2 3 4 5 6 
#
# 1 0.013104 -0.002453 -0.001983 0.000000 0.000000 0.000000
# 2 -0.002453 0.014366 -0.002786 0.000000 0.000000 0.000000
# 3 -0.001983 -0.002786 0.008373 0.000000 0.000000 0.000000
# 4 0.000000 0.000000 0.000000 -0.042344 0.000000 0.000000
# 5 0.000000 0.000000 0.000000 0.000000 0.055232 0.000000
# 6 0.000000 0.000000 0.000000 0.000000 0.000000 0.020807
#
#
# Mechanical properties :
#
#
# Convention : Reuss Voigt Hill
#
# Bulk Modulus (GPa) = 46.73324 50.23493 48.48409
# Shear Modulus (GPa) = 54.87591 23.31922 39.09756
#
# Velocity S-wave (km/s) = 4.66134 3.03862 3.93455
# Velocity P-wave (km/s) = 6.89019 5.67463 6.31174
#
# Compressibility (1/GPa) = 0.02139804
#
# Stress axis : x y z
#
# Youngs Moduli (GPa) = 76.31308 69.61008 119.43002
#
# Poissons Ratio (x) = 0.17078 0.23682
# Poissons Ratio (y) = 0.18722 0.33274
# Poissons Ratio (z) = 0.15133 0.19394
#
# Static dielectric constant tensor:
#      x y z
#    x 2.025750 0.000000 0.000000 
#    y 0.000000 2.150650 0.000000 
#    z 0.000000 0.000000 2.072750 
# 
# From -- ./inp_files/24326.got.cif
#   From: 2010.05.17/outbox.cif.g08.bks.cpg/sg54_13_cif.got.tgz:24326.got - 2010.06.03 13:09:01.
