data_PCOD9422000
_publ_section_title
;
Structure prediction by ZEFSAII (Michael W. Deem and Ramdas Pophale) SiO2 
 PCOD9422000
Probable space group: P C C A
;
_chemical_formula_sum "Si O2"
_cell_formula_units_Z 40
_cell_length_a 9.997424
_cell_length_b 6.846493
_cell_length_c 28.949340
_cell_angle_alpha 90.000000
_cell_angle_beta 90.000000
_cell_angle_gamma 90.000000
_cell_volume 1981.503970
_symmetry_space_group_name_H-M "P C C A"
_symmetry_group_IT_number 54
_symmetry_cell_setting 'orthorhombic'
loop_
_space_group_symop_operation_xyz
x,y,z
1/2-x,-y,z
1/2+x,-y,1/2-z
-x,y,1/2-z
-x,-y,-z
1/2+x,y,-z
1/2-x,y,1/2+z
x,-y,1/2+z
loop_
_atom_site_type_symbol
_atom_site_label
_atom_site_fract_x
_atom_site_fract_y
_atom_site_fract_z
Si Si1 0.000000 0.296110 0.750000
Si Si2 0.349266 0.812809 0.135261
Si Si3 0.096775 0.066544 0.839952
Si Si4 0.632060 0.159952 0.963685
Si Si5 0.886106 0.877307 0.061063
Si Si6 0.250000 0.500000 0.207905
O O1 0.872348 0.426071 0.761786
O O2 0.961965 0.168661 0.705207
O O3 0.497807 0.887418 0.147883
O O4 0.344881 0.722338 0.083506
O O5 0.298544 0.671483 0.174516
O O6 0.250000 0.000000 0.134102
O O7 0.250000 0.000000 0.832294
O O8 0.088935 0.198965 0.887044
O O9 0.750000 0.000000 0.967797
O O10 0.501023 0.032687 0.951769
O O11 0.621473 0.254399 0.014664
O O12 0.750000 0.000000 0.065555
#
# Coordination Sequence:
#
# PCOD9422000 Si02
#       6
#     4   8   8   8   8   4
#     4  12  28  42  62  88 118 170 204 262 302 354
#     4  10  20  41  63  91 122 159 199 252 301 368
#     4  10  22  38  64  91 122 159 207 250 303 360
#     4   8  14  26  55  85 115 149 188 234 294 353
#     4   8  14  28  50  89 116 146 192 237 289 357
#     4  12  28  44  62  90 124 156 212 252 310 360
#
# _framework density 20.186685000000001
#
# number of rings (size 3 to 8) (size 9 to 14) (size 15 to 20)
#    0.000    2.400    2.000    0.000    5.600    0.000 
#    0.000    0.000    0.000    2.400    0.000    0.000 
#    0.000    0.000    0.000    0.000    0.000    0.000 
#
# Total GULP energy -222766.856708 kJ/mol
# GULP energy per Si atom -5569.171418 kJ/mol
# Density = 2.014074 g / cm^3
# Si number density = 20.186685 Si / 1000 Ang^3
#
#
#
# Elastic Constant Matrix: (Units=GPa)
#
#
# Indices 1 2 3 4 5 6 
#
# 1 136.5471 12.3125 36.0191 0.0000 0.0000 0.0000
# 2 12.3125 21.4479 36.0818 0.0000 0.0000 0.0000
# 3 36.0191 36.0818 213.8363 0.0000 0.0000 0.0000
# 4 0.0000 0.0000 0.0000 -33.4218 0.0000 0.0000
# 5 0.0000 0.0000 0.0000 0.0000 18.7731 0.0000
# 6 0.0000 0.0000 0.0000 0.0000 0.0000 15.6789
#
#
#
# Elastic Compliance Matrix: (Units=1/GPa)
#
#
# Indices 1 2 3 4 5 6 
#
# 1 0.007816 -0.003173 -0.000781 0.000000 0.000000 0.000000
# 2 -0.003173 0.066393 -0.010669 0.000000 0.000000 0.000000
# 3 -0.000781 -0.010669 0.006608 0.000000 0.000000 0.000000
# 4 0.000000 0.000000 0.000000 -0.029921 0.000000 0.000000
# 5 0.000000 0.000000 0.000000 0.000000 0.053268 0.000000
# 6 0.000000 0.000000 0.000000 0.000000 0.000000 0.063780
#
#
# Mechanical properties :
#
#
# Convention : Reuss Voigt Hill
#
# Bulk Modulus (GPa) = 19.39008 60.07313 39.73160
# Shear Modulus (GPa) = 23.32311 19.36723 21.34517
#
# Velocity S-wave (km/s) = 3.40276 3.10079 3.25528
# Velocity P-wave (km/s) = 5.00646 6.53018 5.81841
#
# Compressibility (1/GPa) = 0.05157277
#
# Stress axis : x y z
#
# Youngs Moduli (GPa) = 127.94908 15.06173 151.32666
#
# Poissons Ratio (x) = 0.04778 0.11821
# Poissons Ratio (y) = 0.40592 1.61444
# Poissons Ratio (z) = 0.09995 0.16069
#
# Static dielectric constant tensor:
#      x y z
#    x 1.715860 0.000000 0.000000 
#    y 0.000000 1.621290 0.000000 
#    z 0.000000 0.000000 1.818860 
# 
# From -- ./inp_files/28016.got.cif
#   From: 2010.05.17/outbox.cif.g08.bks.cpg/sg54_15_cif.got.tgz:28016.got - 2010.06.03 13:09:01.
