data_PCOD9422689
_publ_section_title
;
Structure prediction by ZEFSAII (Michael W. Deem and Ramdas Pophale) SiO2 
 PCOD9422689
Probable space group: P C C A
;
_chemical_formula_sum "Si O2"
_cell_formula_units_Z 64
_cell_length_a 18.400307
_cell_length_b 12.529306
_cell_length_c 14.381639
_cell_angle_alpha 90.000000
_cell_angle_beta 90.000000
_cell_angle_gamma 90.000000
_cell_volume 3315.587306
_symmetry_space_group_name_H-M "P C C A"
_symmetry_group_IT_number 54
_symmetry_cell_setting 'orthorhombic'
loop_
_space_group_symop_operation_xyz
x,y,z
1/2-x,-y,z
1/2+x,-y,1/2-z
-x,y,1/2-z
-x,-y,-z
1/2+x,y,-z
1/2-x,y,1/2+z
x,-y,1/2+z
loop_
_atom_site_type_symbol
_atom_site_label
_atom_site_fract_x
_atom_site_fract_y
_atom_site_fract_z
Si Si1 0.571963 0.018981 0.688557
Si Si2 0.215083 0.108413 0.215120
Si Si3 0.915960 0.393550 0.726757
Si Si4 0.934377 0.444164 0.057913
Si Si5 0.347682 0.748018 0.064524
Si Si6 0.664099 0.500779 0.901048
Si Si7 0.162159 0.813100 0.354658
Si Si8 0.505750 0.777250 0.136711
O O1 0.500000 0.995346 0.750000
O O2 0.636072 0.072593 0.749211
O O3 0.549630 0.113891 0.619105
O O4 0.606017 0.912214 0.646734
O O5 0.206656 0.199593 0.138605
O O6 0.265970 0.148451 0.299645
O O7 0.250000 0.000000 0.175426
O O8 0.916045 0.476342 0.641600
O O9 0.877488 0.451427 0.813007
O O10 0.873772 0.286582 0.698771
O O11 0.000000 0.369665 0.750000
O O12 0.958364 0.329781 0.096905
O O13 0.865405 0.435145 0.990091
O O14 0.000000 0.500000 0.000000
O O15 0.355042 0.622106 0.080091
O O16 0.427693 0.790516 0.089393
O O17 0.325113 0.776936 0.960272
O O18 0.750000 0.500000 0.888325
O O19 0.500000 0.766184 0.250000
#
# Coordination Sequence:
#
# PCOD9422689 Si02
#       8
#     8   8   8   8   8   8   8   8
#     4  10  21  43  67  99 131 175 232 277 340 414
#     4  10  23  43  67  95 139 184 223 286 352 403
#     4  12  23  43  70  96 137 184 217 285 354 397
#     4  12  22  42  66 100 133 175 234 277 340 412
#     4  12  22  45  69  97 137 179 237 282 341 420
#     4  12  27  43  66 103 141 183 233 282 347 422
#     4  11  25  42  68 100 140 177 226 292 346 413
#     4  11  21  40  71 101 131 181 228 292 334 406
#
# _framework density 19.302765000000001
#
# number of rings (size 3 to 8) (size 9 to 14) (size 15 to 20)
#    0.000    0.750    6.250    2.250    0.000    3.500 
#    0.000    1.250    0.000    0.000    0.000    0.000 
#    0.000    0.000    0.000    0.000    0.000    0.000 
#
# Total GULP energy -357584.458039 kJ/mol
# GULP energy per Si atom -5587.257157 kJ/mol
# Density = 1.925883 g / cm^3
# Si number density = 19.302765 Si / 1000 Ang^3
#
#
#
# Elastic Constant Matrix: (Units=GPa)
#
#
# Indices 1 2 3 4 5 6 
#
# 1 105.7526 21.6244 30.5762 0.0000 0.0000 0.0000
# 2 21.6244 127.0552 42.8299 0.0000 0.0000 0.0000
# 3 30.5762 42.8299 102.2347 0.0000 0.0000 0.0000
# 4 0.0000 0.0000 0.0000 1347.3365 0.0000 0.0000
# 5 0.0000 0.0000 0.0000 0.0000 22.6888 0.0000
# 6 0.0000 0.0000 0.0000 0.0000 0.0000 27.0464
#
#
#
# Elastic Compliance Matrix: (Units=1/GPa)
#
#
# Indices 1 2 3 4 5 6 
#
# 1 0.010428 -0.000842 -0.002766 0.000000 0.000000 0.000000
# 2 -0.000842 0.009233 -0.003616 0.000000 0.000000 0.000000
# 3 -0.002766 -0.003616 0.012124 0.000000 0.000000 0.000000
# 4 0.000000 0.000000 0.000000 0.000742 0.000000 0.000000
# 5 0.000000 0.000000 0.000000 0.000000 0.044075 0.000000
# 6 0.000000 0.000000 0.000000 0.000000 0.000000 0.036973
#
#
# Mechanical properties :
#
#
# Convention : Reuss Voigt Hill
#
# Bulk Modulus (GPa) = 57.68436 58.34483 58.01460
# Shear Modulus (GPa) = 37.36863 295.41514 166.39188
#
# Velocity S-wave (km/s) = 4.40468 12.38447 9.29453
# Velocity P-wave (km/s) = 7.47109 15.32292 12.05424
#
# Compressibility (1/GPa) = 0.01733572
#
# Stress axis : x y z
#
# Youngs Moduli (GPa) = 95.89575 108.30780 82.48422
#
# Poissons Ratio (x) = 0.09124 0.22814
# Poissons Ratio (y) = 0.08079 0.29827
# Poissons Ratio (z) = 0.26523 0.39165
#
# Static dielectric constant tensor:
#      x y z
#    x 1.775710 0.000000 0.000000 
#    y 0.000000 1.671430 0.000000 
#    z 0.000000 0.000000 1.649820 
# 
# From -- ./inp_files/14329.got.cif
#   From: 2010.05.17/outbox.cif.g08.bks.cpg/sg54_8_cif.got.tgz:14329.got - 2010.06.03 13:09:01.
