data_PCOD9422280
_publ_section_title
;
Structure prediction by ZEFSAII (Michael W. Deem and Ramdas Pophale) SiO2 
 PCOD9422280
Probable space group: P C C A
;
_chemical_formula_sum "Si O2"
_cell_formula_units_Z 32
_cell_length_a 5.268541
_cell_length_b 18.512892
_cell_length_c 14.851224
_cell_angle_alpha 90.000000
_cell_angle_beta 90.000000
_cell_angle_gamma 90.000000
_cell_volume 1448.527952
_symmetry_space_group_name_H-M "P C C A"
_symmetry_group_IT_number 54
_symmetry_cell_setting 'orthorhombic'
loop_
_space_group_symop_operation_xyz
x,y,z
1/2-x,-y,z
1/2+x,-y,1/2-z
-x,y,1/2-z
-x,-y,-z
1/2+x,y,-z
1/2-x,y,1/2+z
x,-y,1/2+z
loop_
_atom_site_type_symbol
_atom_site_label
_atom_site_fract_x
_atom_site_fract_y
_atom_site_fract_z
Si Si1 0.484644 0.720116 0.356750
Si Si2 0.491121 0.198190 0.139804
Si Si3 0.752266 0.416401 0.055613
Si Si4 0.503462 0.031819 0.398396
O O1 0.500000 0.727652 0.250000
O O2 0.759391 0.748888 0.388407
O O3 0.373179 0.640474 0.375887
O O4 0.260736 0.771237 0.391914
O O5 0.500000 0.194914 0.250000
O O6 0.469727 0.117528 0.103068
O O7 0.750000 0.500000 0.085471
O O8 0.459477 0.406081 0.025416
O O9 0.750000 0.000000 0.352245
O O10 0.500000 0.000000 0.500000
O O11 0.250000 0.000000 0.356044
#
# Coordination Sequence:
#
# PCOD9422280 Si02
#       4
#     8   8   8   8
#     4  10  21  40  61  90 122 156 204 247 295 362
#     4  10  21  38  60  83 116 156 197 248 303 358
#     4  10  21  40  61  90 127 161 198 244 298 353
#     4  10  21  38  53  79 115 148 191 252 295 360
#
# _framework density 22.091394000000001
#
# number of rings (size 3 to 8) (size 9 to 14) (size 15 to 20)
#    0.000    2.000    0.000    3.000    0.000    1.000 
#   27.000    7.500    0.000    0.000    0.000    0.000 
#    0.000    0.000    0.000    0.000    0.000    0.000 
#
# Total GULP energy -178464.286075 kJ/mol
# GULP energy per Si atom -5577.008940 kJ/mol
# Density = 2.204111 g / cm^3
# Si number density = 22.091394 Si / 1000 Ang^3
#
#
#
# Elastic Constant Matrix: (Units=GPa)
#
#
# Indices 1 2 3 4 5 6 
#
# 1 179.3865 81.8033 13.2689 0.0000 0.0000 0.0000
# 2 81.8033 172.3515 20.7701 0.0000 0.0000 0.0000
# 3 13.2689 20.7701 54.9494 0.0000 0.0000 0.0000
# 4 0.0000 0.0000 0.0000 25.4430 0.0000 0.0000
# 5 0.0000 0.0000 0.0000 0.0000 -3.7099 0.0000
# 6 0.0000 0.0000 0.0000 0.0000 0.0000 34.5101
#
#
#
# Elastic Compliance Matrix: (Units=1/GPa)
#
#
# Indices 1 2 3 4 5 6 
#
# 1 0.007126 -0.003326 -0.000463 0.000000 0.000000 0.000000
# 2 -0.003326 0.007632 -0.002081 0.000000 0.000000 0.000000
# 3 -0.000463 -0.002081 0.019097 0.000000 0.000000 0.000000
# 4 0.000000 0.000000 0.000000 0.039303 0.000000 0.000000
# 5 0.000000 0.000000 0.000000 0.000000 -0.269549 0.000000
# 6 0.000000 0.000000 0.000000 0.000000 0.000000 0.028977
#
#
# Mechanical properties :
#
#
# Convention : Reuss Voigt Hill
#
# Bulk Modulus (GPa) = 45.22353 70.93023 58.07688
# Shear Modulus (GPa) = -33.71519 30.63832 -1.53844
#
# Velocity S-wave (km/s) = -3.91086 3.72814 -0.83541
# Velocity P-wave (km/s) = 0.34994 7.12105 5.04142
#
# Compressibility (1/GPa) = 0.02211238
#
# Stress axis : x y z
#
# Youngs Moduli (GPa) = 140.33830 131.03322 52.36358
#
# Poissons Ratio (x) = 0.43584 0.02427
# Poissons Ratio (y) = 0.46679 0.10899
# Poissons Ratio (z) = 0.06503 0.27274
#
# Static dielectric constant tensor:
#      x y z
#    x 1.834550 0.000000 0.000000 
#    y 0.000000 1.794280 0.000000 
#    z 0.000000 0.000000 1.804430 
# 
# From -- ./inp_files/10762.got.cif
#   From: 2010.05.17/outbox.cif.g08.bks.cpg/sg54_6_cif.got.tgz:10762.got - 2010.06.03 13:09:01.
