data_PCOD9422685
_publ_section_title
;
Structure prediction by ZEFSAII (Michael W. Deem and Ramdas Pophale) SiO2 
 PCOD9422685
Probable space group: P C C A
;
_chemical_formula_sum "Si O2"
_cell_formula_units_Z 36
_cell_length_a 9.962100
_cell_length_b 7.045770
_cell_length_c 23.310209
_cell_angle_alpha 90.000000
_cell_angle_beta 90.000000
_cell_angle_gamma 90.000000
_cell_volume 1636.159078
_symmetry_space_group_name_H-M "P C C A"
_symmetry_group_IT_number 54
_symmetry_cell_setting 'orthorhombic'
loop_
_space_group_symop_operation_xyz
x,y,z
1/2-x,-y,z
1/2+x,-y,1/2-z
-x,y,1/2-z
-x,-y,-z
1/2+x,y,-z
1/2-x,y,1/2+z
x,-y,1/2+z
loop_
_atom_site_type_symbol
_atom_site_label
_atom_site_fract_x
_atom_site_fract_y
_atom_site_fract_z
Si Si1 0.750000 0.000000 0.524794
Si Si2 0.592615 0.552255 0.862775
Si Si3 0.110886 0.061915 0.584838
Si Si4 0.387949 0.788458 0.381915
Si Si5 0.500000 0.772694 0.750000
Si Si6 0.750000 0.000000 0.214356
O O1 0.631776 0.973786 0.478456
O O2 0.712551 0.178759 0.564519
O O3 0.750000 0.500000 0.851982
O O4 0.599010 0.713469 0.911838
O O5 0.491528 0.384358 0.881094
O O6 0.526726 0.643543 0.805809
O O7 0.250000 0.000000 0.615261
O O8 0.982928 0.972928 0.613884
O O9 0.302819 0.825358 0.325073
O O10 0.627446 0.911275 0.747897
#
# Coordination Sequence:
#
# PCOD9422685 Si02
#       6
#     4   8   8   8   4   4
#     4   9  22  41  74  96 150 193 232 291 372 418
#     4  12  26  43  73 103 144 184 250 299 360 431
#     4  10  21  43  67 102 139 186 234 291 353 430
#     4  11  23  46  66 106 144 184 236 304 355 434
#     4  12  30  46  74 106 136 198 234 304 362 432
#     4  11  28  47  74  98 144 187 238 299 372 424
#
# _framework density 22.002749999999999
#
# number of rings (size 3 to 8) (size 9 to 14) (size 15 to 20)
#    0.667    0.444    4.444    0.667    7.778    0.889 
#    0.000    2.222    0.000    0.000    0.000    0.000 
#    0.000    0.000    0.000    0.000    0.000    0.000 
#
# Total GULP energy -200776.236639 kJ/mol
# GULP energy per Si atom -5577.117684 kJ/mol
# Density = 2.195267 g / cm^3
# Si number density = 22.002750 Si / 1000 Ang^3
#
#
#
# Elastic Constant Matrix: (Units=GPa)
#
#
# Indices 1 2 3 4 5 6 
#
# 1 141.6324 54.4691 29.0694 0.0000 0.0000 0.0000
# 2 54.4691 116.1720 26.5865 0.0000 0.0000 0.0000
# 3 29.0694 26.5865 67.7888 0.0000 0.0000 0.0000
# 4 0.0000 0.0000 0.0000 17.3128 0.0000 0.0000
# 5 0.0000 0.0000 0.0000 0.0000 34.4726 0.0000
# 6 0.0000 0.0000 0.0000 0.0000 0.0000 48.4039
#
#
#
# Elastic Compliance Matrix: (Units=1/GPa)
#
#
# Indices 1 2 3 4 5 6 
#
# 1 0.008959 -0.003649 -0.002411 0.000000 0.000000 0.000000
# 2 -0.003649 0.010943 -0.002727 0.000000 0.000000 0.000000
# 3 -0.002411 -0.002727 0.016855 0.000000 0.000000 0.000000
# 4 0.000000 0.000000 0.000000 0.057761 0.000000 0.000000
# 5 0.000000 0.000000 0.000000 0.000000 0.029009 0.000000
# 6 0.000000 0.000000 0.000000 0.000000 0.000000 0.020659
#
#
# Mechanical properties :
#
#
# Convention : Reuss Voigt Hill
#
# Bulk Modulus (GPa) = 52.12803 60.64921 56.38862
# Shear Modulus (GPa) = 29.73494 34.40241 32.06867
#
# Velocity S-wave (km/s) = 3.68015 3.95847 3.82184
# Velocity P-wave (km/s) = 6.46537 6.96540 6.72004
#
# Compressibility (1/GPa) = 0.01918354
#
# Stress axis : x y z
#
# Youngs Moduli (GPa) = 111.62579 91.38465 59.32961
#
# Poissons Ratio (x) = 0.33343 0.14302
# Poissons Ratio (y) = 0.40728 0.16180
# Poissons Ratio (z) = 0.26909 0.24921
#
# Static dielectric constant tensor:
#      x y z
#    x 1.913330 0.000000 0.000000 
#    y 0.000000 1.789010 0.000000 
#    z 0.000000 0.000000 1.853310 
# 
# From -- ./inp_files/23908.got.cif
#   From: 2010.05.17/outbox.cif.g08.bks.cpg/sg54_12_cif.got.tgz:23908.got - 2010.06.03 13:09:01.
