data_PCOD9422227
_publ_section_title
;
Structure prediction by ZEFSAII (Michael W. Deem and Ramdas Pophale) SiO2 
 PCOD9422227
Probable space group: P C C A
;
_chemical_formula_sum "Si O2"
_cell_formula_units_Z 60
_cell_length_a 5.526895
_cell_length_b 25.055499
_cell_length_c 18.893854
_cell_angle_alpha 90.000000
_cell_angle_beta 90.000000
_cell_angle_gamma 90.000000
_cell_volume 2616.404127
_symmetry_space_group_name_H-M "P C C A"
_symmetry_group_IT_number 54
_symmetry_cell_setting 'orthorhombic'
loop_
_space_group_symop_operation_xyz
x,y,z
1/2-x,-y,z
1/2+x,-y,1/2-z
-x,y,1/2-z
-x,-y,-z
1/2+x,y,-z
1/2-x,y,1/2+z
x,-y,1/2+z
loop_
_atom_site_type_symbol
_atom_site_label
_atom_site_fract_x
_atom_site_fract_y
_atom_site_fract_z
Si Si1 0.315365 0.062213 0.475224
Si Si2 0.425805 0.667138 0.168329
Si Si3 0.748153 0.558313 0.795666
Si Si4 0.827607 0.061513 0.684054
Si Si5 0.500000 0.144447 0.750000
Si Si6 0.139142 0.228081 0.679332
Si Si7 0.959903 0.208632 0.973163
Si Si8 0.368166 0.669689 0.471979
O O1 0.539256 0.083216 0.521554
O O2 0.420535 0.066188 0.395570
O O3 0.250000 0.000000 0.492208
O O4 0.500000 0.672053 0.250000
O O5 0.273296 0.612856 0.161084
O O6 0.280311 0.720461 0.151106
O O7 0.644746 0.666280 0.112920
O O8 0.750000 0.500000 0.831954
O O9 0.500000 0.561859 0.750000
O O10 0.000000 0.557939 0.750000
O O11 0.618678 0.104591 0.693863
O O12 0.000000 0.073521 0.750000
O O13 0.750000 0.000000 0.692361
O O14 0.314980 0.182388 0.708513
O O15 0.000000 0.245411 0.750000
O O16 0.990643 0.208554 0.611198
O O17 0.194593 0.185188 0.011506
O O18 0.911106 0.269001 0.002770
O O19 0.126606 0.645572 0.504984
#
# Coordination Sequence:
#
# PCOD9422227 Si02
#       8
#     8   8   8   8   4   8   8   8
#     4   9  20  38  68 106 139 169 217 278 328 389
#     4  11  22  37  67  97 128 179 227 275 340 405
#     4   9  19  36  57  90 132 171 224 285 335 392
#     4  11  24  45  77 100 134 183 230 274 344 417
#     4  12  28  46  64 106 142 166 230 290 338 396
#     4  12  26  41  69  96 142 174 219 287 344 400
#     4  10  22  42  66  92 130 184 226 269 333 415
#     4  10  21  37  58  90 129 172 225 273 325 403
#
# _framework density 22.932238000000002
#
# number of rings (size 3 to 8) (size 9 to 14) (size 15 to 20)
#    0.000    1.600    4.000    0.800    7.467    2.667 
#    0.000    1.333    0.000    0.800    0.000    0.000 
#    0.000    0.000    0.000    0.000    0.000    0.000 
#
# Total GULP energy -334843.678159 kJ/mol
# GULP energy per Si atom -5580.727969 kJ/mol
# Density = 2.288004 g / cm^3
# Si number density = 22.932238 Si / 1000 Ang^3
#
#
#
# Elastic Constant Matrix: (Units=GPa)
#
#
# Indices 1 2 3 4 5 6 
#
# 1 101.4257 -8.0831 28.8287 0.0000 0.0000 0.0000
# 2 -8.0831 92.2592 0.2875 0.0000 0.0000 0.0000
# 3 28.8287 0.2875 119.3598 0.0000 0.0000 0.0000
# 4 0.0000 0.0000 0.0000 -1.3145 0.0000 0.0000
# 5 0.0000 0.0000 0.0000 0.0000 34.2892 0.0000
# 6 0.0000 0.0000 0.0000 0.0000 0.0000 13.4373
#
#
#
# Elastic Compliance Matrix: (Units=1/GPa)
#
#
# Indices 1 2 3 4 5 6 
#
# 1 0.010668 0.000943 -0.002579 0.000000 0.000000 0.000000
# 2 0.000943 0.010922 -0.000254 0.000000 0.000000 0.000000
# 3 -0.002579 -0.000254 0.009001 0.000000 0.000000 0.000000
# 4 0.000000 0.000000 0.000000 -0.760761 0.000000 0.000000
# 5 0.000000 0.000000 0.000000 0.000000 0.029164 0.000000
# 6 0.000000 0.000000 0.000000 0.000000 0.000000 0.074420
#
#
# Mechanical properties :
#
#
# Convention : Reuss Voigt Hill
#
# Bulk Modulus (GPa) = 37.29784 39.45677 38.37730
# Shear Modulus (GPa) = -8.14506 28.74985 10.30239
#
# Velocity S-wave (km/s) = -1.88667 3.54459 2.12186
# Velocity P-wave (km/s) = 3.39907 5.83055 4.77226
#
# Compressibility (1/GPa) = 0.02681121
#
# Stress axis : x y z
#
# Youngs Moduli (GPa) = 93.74237 91.55490 111.09278
#
# Poissons Ratio (x) = -0.08630 0.28648
# Poissons Ratio (y) = -0.08837 0.02822
# Poissons Ratio (z) = 0.24174 0.02325
#
# Static dielectric constant tensor:
#      x y z
#    x 2.022150 0.000000 0.000000 
#    y 0.000000 2.009720 0.000000 
#    z 0.000000 0.000000 1.842790 
# 
# From -- ./inp_files/15977.got.cif
#   From: 2010.05.17/outbox.cif.g08.bks.cpg/sg54_8_cif.got.tgz:15977.got - 2010.06.03 13:09:01.
