data_PCOD9422374
_publ_section_title
;
Structure prediction by ZEFSAII (Michael W. Deem and Ramdas Pophale) SiO2 
 PCOD9422374
Probable space group: P C C A
;
_chemical_formula_sum "Si O2"
_cell_formula_units_Z 64
_cell_length_a 18.049684
_cell_length_b 11.502849
_cell_length_c 15.181239
_cell_angle_alpha 90.000000
_cell_angle_beta 90.000000
_cell_angle_gamma 90.000000
_cell_volume 3151.971190
_symmetry_space_group_name_H-M "P C C A"
_symmetry_group_IT_number 54
_symmetry_cell_setting 'orthorhombic'
loop_
_space_group_symop_operation_xyz
x,y,z
1/2-x,-y,z
1/2+x,-y,1/2-z
-x,y,1/2-z
-x,-y,-z
1/2+x,y,-z
1/2-x,y,1/2+z
x,-y,1/2+z
loop_
_atom_site_type_symbol
_atom_site_label
_atom_site_fract_x
_atom_site_fract_y
_atom_site_fract_z
Si Si1 0.564455 0.059504 0.059600
Si Si2 0.817139 0.770397 0.979657
Si Si3 0.026819 0.262629 0.649341
Si Si4 0.667959 0.484245 0.060674
Si Si5 0.987846 0.489139 0.146324
Si Si6 0.417493 0.735820 0.170573
Si Si7 0.151108 0.719751 0.030479
Si Si8 0.068138 0.825655 0.864308
O O1 0.521900 0.163450 0.106748
O O2 0.592505 0.958798 0.125874
O O3 0.634287 0.121455 0.013227
O O4 0.500000 0.000000 0.000000
O O5 0.841306 0.750296 0.878872
O O6 0.837715 0.649646 0.030184
O O7 0.729312 0.782218 0.984842
O O8 0.012502 0.388974 0.605071
O O9 0.112543 0.246388 0.622573
O O10 0.000000 0.265056 0.750000
O O11 0.750000 0.500000 0.102117
O O12 0.598276 0.517579 0.121428
O O13 0.665716 0.581354 0.982745
O O14 0.041605 0.379749 0.131757
O O15 0.000000 0.502031 0.250000
O O16 0.478883 0.829726 0.141885
O O17 0.410643 0.754106 0.275648
O O18 0.097216 0.761772 0.951591
#
# Coordination Sequence:
#
# PCOD9422374 Si02
#       8
#     8   8   8   8   8   8   8   8
#     4  12  23  42  67  91 128 177 230 271 323 402
#     4  11  24  40  67  96 132 173 223 274 345 395
#     4  11  25  40  64  97 132 171 219 285 333 395
#     4  10  21  38  66 101 136 174 214 281 348 406
#     4  11  20  38  66  99 129 166 224 271 335 404
#     4  11  21  40  68 100 120 168 224 279 324 402
#     4  11  22  44  64  96 137 176 217 275 347 409
#     4  11  23  40  68  89 127 173 224 268 321 393
#
# _framework density 20.304753000000002
#
# number of rings (size 3 to 8) (size 9 to 14) (size 15 to 20)
#    0.000    1.000    6.250    0.750    1.750    1.500 
#    2.250    2.500    0.000    2.250    0.000    0.000 
#    0.000    0.000    0.000    0.000    0.000    0.000 
#
# Total GULP energy -356523.583506 kJ/mol
# GULP energy per Si atom -5570.680992 kJ/mol
# Density = 2.025854 g / cm^3
# Si number density = 20.304753 Si / 1000 Ang^3
#
#
#
# Elastic Constant Matrix: (Units=GPa)
#
#
# Indices 1 2 3 4 5 6 
#
# 1 102.2822 18.5916 50.2393 0.0000 0.0000 0.0000
# 2 18.5916 108.2174 25.4890 0.0000 0.0000 0.0000
# 3 50.2393 25.4890 76.1832 0.0000 0.0000 0.0000
# 4 0.0000 0.0000 0.0000 24.6049 0.0000 0.0000
# 5 0.0000 0.0000 0.0000 0.0000 20.3433 0.0000
# 6 0.0000 0.0000 0.0000 0.0000 0.0000 28.1206
#
#
#
# Elastic Compliance Matrix: (Units=1/GPa)
#
#
# Indices 1 2 3 4 5 6 
#
# 1 0.014468 -0.000259 -0.009454 0.000000 0.000000 0.000000
# 2 -0.000259 0.010036 -0.003187 0.000000 0.000000 0.000000
# 3 -0.009454 -0.003187 0.020427 0.000000 0.000000 0.000000
# 4 0.000000 0.000000 0.000000 0.040642 0.000000 0.000000
# 5 0.000000 0.000000 0.000000 0.000000 0.049156 0.000000
# 6 0.000000 0.000000 0.000000 0.000000 0.000000 0.035561
#
#
# Mechanical properties :
#
#
# Convention : Reuss Voigt Hill
#
# Bulk Modulus (GPa) = 52.27236 52.81364 52.54300
# Shear Modulus (GPa) = 24.69537 27.43795 26.06666
#
# Velocity S-wave (km/s) = 3.49124 3.68000 3.58686
# Velocity P-wave (km/s) = 6.48471 6.64255 6.56411
#
# Compressibility (1/GPa) = 0.01913057
#
# Stress axis : x y z
#
# Youngs Moduli (GPa) = 69.11981 99.64347 48.95437
#
# Poissons Ratio (x) = 0.02578 0.46282
# Poissons Ratio (y) = 0.01788 0.15602
# Poissons Ratio (z) = 0.65347 0.31757
#
# Static dielectric constant tensor:
#      x y z
#    x 1.726750 0.000000 0.000000 
#    y 0.000000 1.823060 0.000000 
#    z 0.000000 0.000000 1.758580 
# 
# From -- ./inp_files/18249.got.cif
#   From: 2010.05.17/outbox.cif.g08.bks.cpg/sg54_10_cif.got.tgz:18249.got - 2010.06.03 13:09:01.
