data_PCOD9422487
_publ_section_title
;
Structure prediction by ZEFSAII (Michael W. Deem and Ramdas Pophale) SiO2 
 PCOD9422487
Probable space group: P C C A
;
_chemical_formula_sum "Si O2"
_cell_formula_units_Z 60
_cell_length_a 19.220079
_cell_length_b 16.533128
_cell_length_c 8.777543
_cell_angle_alpha 90.000000
_cell_angle_beta 90.000000
_cell_angle_gamma 90.000000
_cell_volume 2789.222515
_symmetry_space_group_name_H-M "P C C A"
_symmetry_group_IT_number 54
_symmetry_cell_setting 'orthorhombic'
loop_
_space_group_symop_operation_xyz
x,y,z
1/2-x,-y,z
1/2+x,-y,1/2-z
-x,y,1/2-z
-x,-y,-z
1/2+x,y,-z
1/2-x,y,1/2+z
x,-y,1/2+z
loop_
_atom_site_type_symbol
_atom_site_label
_atom_site_fract_x
_atom_site_fract_y
_atom_site_fract_z
Si Si1 0.827631 0.963452 0.072105
Si Si2 0.000000 0.807488 0.250000
Si Si3 0.106645 0.384799 0.464967
Si Si4 0.047000 0.313310 0.004151
Si Si5 0.918562 0.454996 0.707438
Si Si6 0.209409 0.239552 0.428349
Si Si7 0.838538 0.204369 0.399109
Si Si8 0.373078 0.103696 0.106477
O O1 0.838149 0.936484 0.245338
O O2 0.750000 0.000000 0.049206
O O3 0.844872 0.885815 0.966763
O O4 0.877794 0.036110 0.023354
O O5 0.959609 0.748248 0.137254
O O6 0.946764 0.861251 0.343988
O O7 0.112600 0.417738 0.638505
O O8 0.109143 0.459334 0.348626
O O9 0.167499 0.322135 0.435678
O O10 0.030788 0.341089 0.450312
O O11 0.083343 0.393058 0.935022
O O12 0.092776 0.259837 0.118968
O O13 0.000000 0.465531 0.750000
O O14 0.200047 0.202445 0.261697
O O15 0.288721 0.248361 0.478587
O O16 0.173329 0.176715 0.543676
#
# Coordination Sequence:
#
# PCOD9422487 Si02
#       8
#     8   4   8   8   8   8   8   8
#     4  12  25  43  74 101 136 183 237 290 342 423
#     4  12  22  44  70 102 146 190 220 292 350 418
#     4  11  24  43  75 104 141 182 240 288 352 417
#     4  11  21  43  72 103 139 188 227 290 349 415
#     4  10  21  39  71 105 138 178 233 288 338 417
#     4  12  27  46  72 102 140 187 237 292 353 420
#     4  12  28  45  72 105 141 185 238 293 349 422
#     4  12  25  45  68 103 139 185 234 288 356 411
#
# _framework density 21.511369999999999
#
# number of rings (size 3 to 8) (size 9 to 14) (size 15 to 20)
#    0.000    0.533    6.000    3.600    5.600    0.533 
#    0.000    0.667    0.000    0.000    0.000    0.000 
#    0.000    0.000    0.000    0.000    0.000    0.000 
#
# Total GULP energy -335769.203768 kJ/mol
# GULP energy per Si atom -5596.153396 kJ/mol
# Density = 2.146241 g / cm^3
# Si number density = 21.511370 Si / 1000 Ang^3
#
#
#
# Elastic Constant Matrix: (Units=GPa)
#
#
# Indices 1 2 3 4 5 6 
#
# 1 35.3665 32.8939 -10.2096 0.0000 0.0000 0.0000
# 2 32.8939 130.1941 5.2390 0.0000 0.0000 0.0000
# 3 -10.2096 5.2390 50.1451 0.0000 0.0000 0.0000
# 4 0.0000 0.0000 0.0000 -4.1616 0.0000 0.0000
# 5 0.0000 0.0000 0.0000 0.0000 25.2683 0.0000
# 6 0.0000 0.0000 0.0000 0.0000 0.0000 26.4354
#
#
#
# Elastic Compliance Matrix: (Units=1/GPa)
#
#
# Indices 1 2 3 4 5 6 
#
# 1 0.040997 -0.010739 0.009469 0.000000 0.000000 0.000000
# 2 -0.010739 0.010526 -0.003286 0.000000 0.000000 0.000000
# 3 0.009469 -0.003286 0.022213 0.000000 0.000000 0.000000
# 4 0.000000 0.000000 0.000000 -0.240294 0.000000 0.000000
# 5 0.000000 0.000000 0.000000 0.000000 0.039575 0.000000
# 6 0.000000 0.000000 0.000000 0.000000 0.000000 0.037828
#
#
# Mechanical properties :
#
#
# Convention : Reuss Voigt Hill
#
# Bulk Modulus (GPa) = 15.47406 30.17247 22.82327
# Shear Modulus (GPa) = -85.47021 22.02724 -31.72149
#
# Velocity S-wave (km/s) = -6.31022 3.20344 -3.84427
# Velocity P-wave (km/s) = 6.77368 5.26683 3.01191
#
# Compressibility (1/GPa) = 0.06462426
#
# Stress axis : x y z
#
# Youngs Moduli (GPa) = 24.39197 94.99992 45.01794
#
# Poissons Ratio (x) = 1.02021 -0.42628
# Poissons Ratio (y) = 0.26195 0.14794
# Poissons Ratio (z) = -0.23097 0.31219
#
# Static dielectric constant tensor:
#      x y z
#    x 1.823320 0.000000 0.000000 
#    y 0.000000 1.763500 0.000000 
#    z 0.000000 0.000000 1.798690 
# 
# From -- ./inp_files/4346.got.cif
#   From: 2010.05.17/outbox.cif.g08.bks.cpg/sg54_3_cif.got.tgz:4346.got - 2010.06.03 13:09:01.
