data_PCOD9422221
_publ_section_title
;
Structure prediction by ZEFSAII (Michael W. Deem and Ramdas Pophale) SiO2 
 PCOD9422221
Probable space group: P C C A
;
_chemical_formula_sum "Si O2"
_cell_formula_units_Z 56
_cell_length_a 5.225582
_cell_length_b 16.300067
_cell_length_c 31.699373
_cell_angle_alpha 90.000000
_cell_angle_beta 90.000000
_cell_angle_gamma 90.000000
_cell_volume 2700.068168
_symmetry_space_group_name_H-M "P C C A"
_symmetry_group_IT_number 54
_symmetry_cell_setting 'orthorhombic'
loop_
_space_group_symop_operation_xyz
x,y,z
1/2-x,-y,z
1/2+x,-y,1/2-z
-x,y,1/2-z
-x,-y,-z
1/2+x,y,-z
1/2-x,y,1/2+z
x,-y,1/2+z
loop_
_atom_site_type_symbol
_atom_site_label
_atom_site_fract_x
_atom_site_fract_y
_atom_site_fract_z
Si Si1 0.109782 0.678029 0.479031
Si Si2 0.075627 0.873955 0.476998
Si Si3 0.502594 0.056459 0.114334
Si Si4 0.802461 0.409419 0.845261
Si Si5 0.639620 0.907878 0.795270
Si Si6 0.801149 0.410541 0.100080
Si Si7 0.759983 0.267845 0.277665
O O1 0.324738 0.646090 0.511792
O O2 0.088981 0.775929 0.482695
O O3 0.223391 0.656588 0.433758
O O4 0.349248 0.906315 0.492894
O O5 0.013975 0.890789 0.428228
O O6 0.506206 0.101313 0.159953
O O7 0.750000 0.000000 0.113696
O O8 0.250000 0.000000 0.112247
O O9 0.750000 0.500000 0.825859
O O10 0.587253 0.403267 0.882071
O O11 0.768142 0.332972 0.814734
O O12 0.090845 0.407445 0.862744
O O13 0.500000 0.907682 0.750000
O O14 0.810811 0.825857 0.793163
O O15 0.750000 0.000000 0.797510
O O16 0.750000 0.500000 0.079961
O O17 0.500000 0.267781 0.250000
O O18 0.000000 0.293392 0.250000
#
# Coordination Sequence:
#
# PCOD9422221 Si02
#       7
#     8   8   8   8   8   8   8
#     4  10  21  37  57  86 120 159 203 248 309 365
#     4  10  22  40  59  87 125 161 203 259 313 365
#     4  11  24  40  62  93 118 161 215 248 316 381
#     4  10  22  40  61  91 126 160 202 254 309 366
#     4  10  22  42  65  91 130 163 204 265 310 368
#     4  10  21  38  60  88 121 161 202 248 310 364
#     4  11  24  41  64  94 120 162 211 246 315 377
#
# _framework density 20.740219
#
# number of rings (size 3 to 8) (size 9 to 14) (size 15 to 20)
#    0.000    1.714    0.000    3.429    2.000    6.286 
#    5.143    0.000    0.000    0.000    0.000    0.000 
#    0.000    0.000    0.000    0.000    0.000    0.000 
#
# Total GULP energy -312425.167442 kJ/mol
# GULP energy per Si atom -5579.020847 kJ/mol
# Density = 2.069301 g / cm^3
# Si number density = 20.740219 Si / 1000 Ang^3
#
#
#
# Elastic Constant Matrix: (Units=GPa)
#
#
# Indices 1 2 3 4 5 6 
#
# 1 102.1636 10.0082 18.5848 0.0000 0.0000 0.0000
# 2 10.0082 67.2245 16.3097 0.0000 0.0000 0.0000
# 3 18.5848 16.3097 89.8426 0.0000 0.0000 0.0000
# 4 0.0000 0.0000 0.0000 39.6543 0.0000 0.0000
# 5 0.0000 0.0000 0.0000 0.0000 25.3904 0.0000
# 6 0.0000 0.0000 0.0000 0.0000 0.0000 15.5225
#
#
#
# Elastic Compliance Matrix: (Units=1/GPa)
#
#
# Indices 1 2 3 4 5 6 
#
# 1 0.010242 -0.001057 -0.001927 0.000000 0.000000 0.000000
# 2 -0.001057 0.015670 -0.002626 0.000000 0.000000 0.000000
# 3 -0.001927 -0.002626 0.012006 0.000000 0.000000 0.000000
# 4 0.000000 0.000000 0.000000 0.025218 0.000000 0.000000
# 5 0.000000 0.000000 0.000000 0.000000 0.039385 0.000000
# 6 0.000000 0.000000 0.000000 0.000000 0.000000 0.064423
#
#
# Mechanical properties :
#
#
# Convention : Reuss Voigt Hill
#
# Bulk Modulus (GPa) = 37.45598 38.78177 38.11887
# Shear Modulus (GPa) = 26.72892 30.40199 28.56545
#
# Velocity S-wave (km/s) = 3.59381 3.83279 3.71522
# Velocity P-wave (km/s) = 5.94301 6.19084 6.06819
#
# Compressibility (1/GPa) = 0.02669801
#
# Stress axis : x y z
#
# Youngs Moduli (GPa) = 97.63424 63.81608 83.29273
#
# Poissons Ratio (x) = 0.06748 0.16049
# Poissons Ratio (y) = 0.10324 0.21872
# Poissons Ratio (z) = 0.18812 0.16758
#
# Static dielectric constant tensor:
#      x y z
#    x 1.792180 0.000000 0.000000 
#    y 0.000000 1.751540 0.000000 
#    z 0.000000 0.000000 1.767710 
# 
# From -- ./inp_files/27203.got.cif
#   From: 2010.05.17/outbox.cif.g08.bks.cpg/sg54_14_cif.got.tgz:27203.got - 2010.06.03 13:09:01.
