data_PCOD9422028
_publ_section_title
;
Structure prediction by ZEFSAII (Michael W. Deem and Ramdas Pophale) SiO2 
 PCOD9422028
Probable space group: P C C A
;
_chemical_formula_sum "Si O2"
_cell_formula_units_Z 28
_cell_length_a 11.259543
_cell_length_b 8.419522
_cell_length_c 13.409504
_cell_angle_alpha 90.000000
_cell_angle_beta 90.000000
_cell_angle_gamma 90.000000
_cell_volume 1271.220577
_symmetry_space_group_name_H-M "P C C A"
_symmetry_group_IT_number 54
_symmetry_cell_setting 'orthorhombic'
loop_
_space_group_symop_operation_xyz
x,y,z
1/2-x,-y,z
1/2+x,-y,1/2-z
-x,y,1/2-z
-x,-y,-z
1/2+x,y,-z
1/2-x,y,1/2+z
x,-y,1/2+z
loop_
_atom_site_type_symbol
_atom_site_label
_atom_site_fract_x
_atom_site_fract_y
_atom_site_fract_z
Si Si1 0.176983 0.259619 0.880751
Si Si2 0.425749 0.130473 0.560759
Si Si3 0.575410 0.604851 0.149531
Si Si4 0.500000 0.046222 0.250000
O O1 0.305800 0.290859 0.834973
O O2 0.117276 0.433277 0.887209
O O3 0.092487 0.152921 0.811875
O O4 0.184288 0.177885 0.990175
O O5 0.498271 0.293793 0.572799
O O6 0.500000 0.000000 0.500000
O O7 0.423872 0.058681 0.671701
O O8 0.500000 0.584496 0.250000
#
# Coordination Sequence:
#
# PCOD9422028 Si02
#       4
#     8   8   8   4
#     4  10  23  43  69  97 138 177 227 286 331 413
#     4  10  22  42  65  97 138 172 224 281 336 412
#     4  11  22  45  68  99 136 177 231 279 342 407
#     4  10  20  42  66 102 134 184 222 274 348 402
#
# _framework density 22.026076
#
# number of rings (size 3 to 8) (size 9 to 14) (size 15 to 20)
#    0.000    1.714    2.857    0.857    0.000    4.571 
#   15.429    2.857    0.000    0.000    0.000    0.000 
#    0.000    0.000    0.000    0.000    0.000    0.000 
#
# Total GULP energy -156351.084465 kJ/mol
# GULP energy per Si atom -5583.967302 kJ/mol
# Density = 2.197594 g / cm^3
# Si number density = 22.026076 Si / 1000 Ang^3
#
#
#
# Elastic Constant Matrix: (Units=GPa)
#
#
# Indices 1 2 3 4 5 6 
#
# 1 76.9638 32.6974 40.1954 0.0000 0.0000 0.0000
# 2 32.6974 92.6748 62.0626 0.0000 0.0000 0.0000
# 3 40.1954 62.0626 118.1186 0.0000 0.0000 0.0000
# 4 0.0000 0.0000 0.0000 32.5875 0.0000 0.0000
# 5 0.0000 0.0000 0.0000 0.0000 24.2583 0.0000
# 6 0.0000 0.0000 0.0000 0.0000 0.0000 28.4767
#
#
#
# Elastic Compliance Matrix: (Units=1/GPa)
#
#
# Indices 1 2 3 4 5 6 
#
# 1 0.016379 -0.003157 -0.003915 0.000000 0.000000 0.000000
# 2 -0.003157 0.017257 -0.007993 0.000000 0.000000 0.000000
# 3 -0.003915 -0.007993 0.013998 0.000000 0.000000 0.000000
# 4 0.000000 0.000000 0.000000 0.030687 0.000000 0.000000
# 5 0.000000 0.000000 0.000000 0.000000 0.041223 0.000000
# 6 0.000000 0.000000 0.000000 0.000000 0.000000 0.035116
#
#
# Mechanical properties :
#
#
# Convention : Reuss Voigt Hill
#
# Bulk Modulus (GPa) = 57.12928 61.96311 59.54619
# Shear Modulus (GPa) = 26.22955 27.25129 26.74042
#
# Velocity S-wave (km/s) = 3.45460 3.52124 3.48808
# Velocity P-wave (km/s) = 6.47347 6.68767 6.58144
#
# Compressibility (1/GPa) = 0.01750416
#
# Stress axis : x y z
#
# Youngs Moduli (GPa) = 61.05382 57.94737 71.43869
#
# Poissons Ratio (x) = 0.18294 0.27968
# Poissons Ratio (y) = 0.19275 0.57101
# Poissons Ratio (z) = 0.23902 0.46317
#
# Static dielectric constant tensor:
#      x y z
#    x 1.798120 0.000000 0.000000 
#    y 0.000000 1.804180 0.000000 
#    z 0.000000 0.000000 1.821880 
# 
# From -- ./inp_files/12070.got.cif
#   From: 2010.05.17/outbox.cif.g08.bks.cpg/sg54_7_cif.got.tgz:12070.got - 2010.06.03 13:09:01.
