data_PCOD9422745
_publ_section_title
;
Structure prediction by ZEFSAII (Michael W. Deem and Ramdas Pophale) SiO2 
 PCOD9422745
Probable space group: P C C A
;
_chemical_formula_sum "Si O2"
_cell_formula_units_Z 28
_cell_length_a 5.294409
_cell_length_b 10.004910
_cell_length_c 25.636144
_cell_angle_alpha 90.000000
_cell_angle_beta 90.000000
_cell_angle_gamma 90.000000
_cell_volume 1357.948741
_symmetry_space_group_name_H-M "P C C A"
_symmetry_group_IT_number 54
_symmetry_cell_setting 'orthorhombic'
loop_
_space_group_symop_operation_xyz
x,y,z
1/2-x,-y,z
1/2+x,-y,1/2-z
-x,y,1/2-z
-x,-y,-z
1/2+x,y,-z
1/2-x,y,1/2+z
x,-y,1/2+z
loop_
_atom_site_type_symbol
_atom_site_label
_atom_site_fract_x
_atom_site_fract_y
_atom_site_fract_z
Si Si1 0.251283 0.205637 0.872496
Si Si2 0.755475 0.851189 0.805171
Si Si3 0.000000 0.630836 0.250000
Si Si4 0.250000 0.500000 0.842865
Si Si5 0.750000 0.000000 0.535017
O O1 0.493053 0.159334 0.839215
O O2 0.282506 0.365982 0.875692
O O3 0.990445 0.170732 0.842317
O O4 0.250086 0.128028 0.926758
O O5 0.724846 0.734748 0.762458
O O6 0.750000 0.000000 0.782167
O O7 0.964005 0.540668 0.199247
O O8 0.500000 0.000000 0.500000
#
# Coordination Sequence:
#
# PCOD9422745 Si02
#       5
#     8   8   4   4   4
#     4  11  23  42  66  91 128 168 203 267 327 373
#     4  11  21  38  61  92 135 170 219 254 302 359
#     4  10  22  34  62  94 130 182 220 248 280 374
#     4  10  22  40  60  92 134 176 210 246 312 372
#     4  12  24  44  72  98 116 154 218 274 336 398
#
# _framework density 20.619333999999998
#
# number of rings (size 3 to 8) (size 9 to 14) (size 15 to 20)
#    0.000    1.143    2.857    3.429    0.000   11.429 
#    0.000    1.429    0.000    0.000    0.000    0.000 
#    0.000    0.000    0.000    0.000    0.000    0.000 
#
# Total GULP energy -156515.541706 kJ/mol
# GULP energy per Si atom -5589.840775 kJ/mol
# Density = 2.057240 g / cm^3
# Si number density = 20.619334 Si / 1000 Ang^3
#
#
#
# Elastic Constant Matrix: (Units=GPa)
#
#
# Indices 1 2 3 4 5 6 
#
# 1 169.2778 31.1817 63.6043 0.0000 0.0000 0.0000
# 2 31.1817 207.6712 61.8331 0.0000 0.0000 0.0000
# 3 63.6043 61.8331 124.7675 0.0000 0.0000 0.0000
# 4 0.0000 0.0000 0.0000 61.5113 0.0000 0.0000
# 5 0.0000 0.0000 0.0000 0.0000 42.7393 0.0000
# 6 0.0000 0.0000 0.0000 0.0000 0.0000 20.7986
#
#
#
# Elastic Compliance Matrix: (Units=1/GPa)
#
#
# Indices 1 2 3 4 5 6 
#
# 1 0.007307 0.000014 -0.003732 0.000000 0.000000 0.000000
# 2 0.000014 0.005649 -0.002807 0.000000 0.000000 0.000000
# 3 -0.003732 -0.002807 0.011308 0.000000 0.000000 0.000000
# 4 0.000000 0.000000 0.000000 0.016257 0.000000 0.000000
# 5 0.000000 0.000000 0.000000 0.000000 0.023398 0.000000
# 6 0.000000 0.000000 0.000000 0.000000 0.000000 0.048080
#
#
# Mechanical properties :
#
#
# Convention : Reuss Voigt Hill
#
# Bulk Modulus (GPa) = 89.16555 90.55055 89.85805
# Shear Modulus (GPa) = 38.82381 48.01633 43.42007
#
# Velocity S-wave (km/s) = 4.34393 4.83090 4.59387
# Velocity P-wave (km/s) = 8.27630 8.66761 8.47422
#
# Compressibility (1/GPa) = 0.01121509
#
# Stress axis : x y z
#
# Youngs Moduli (GPa) = 136.85283 177.02664 88.43022
#
# Poissons Ratio (x) = -0.00248 0.33002
# Poissons Ratio (y) = -0.00192 0.24819
# Poissons Ratio (z) = 0.51073 0.49685
#
# Static dielectric constant tensor:
#      x y z
#    x 1.773530 0.000000 0.000000 
#    y 0.000000 1.789940 0.000000 
#    z 0.000000 0.000000 1.709400 
# 
# From -- ./inp_files/25073.got.cif
#   From: 2010.05.17/outbox.cif.g08.bks.cpg/sg54_13_cif.got.tgz:25073.got - 2010.06.03 13:09:01.
