data_PCOD9422610
_publ_section_title
;
Structure prediction by ZEFSAII (Michael W. Deem and Ramdas Pophale) SiO2 
 PCOD9422610
Probable space group: P C C A
;
_chemical_formula_sum "Si O2"
_cell_formula_units_Z 56
_cell_length_a 14.719451
_cell_length_b 7.575428
_cell_length_c 18.401013
_cell_angle_alpha 90.000000
_cell_angle_beta 90.000000
_cell_angle_gamma 90.000000
_cell_volume 2051.825955
_symmetry_space_group_name_H-M "P C C A"
_symmetry_group_IT_number 54
_symmetry_cell_setting 'orthorhombic'
loop_
_space_group_symop_operation_xyz
x,y,z
1/2-x,-y,z
1/2+x,-y,1/2-z
-x,y,1/2-z
-x,-y,-z
1/2+x,y,-z
1/2-x,y,1/2+z
x,-y,1/2+z
loop_
_atom_site_type_symbol
_atom_site_label
_atom_site_fract_x
_atom_site_fract_y
_atom_site_fract_z
Si Si1 0.674727 0.109127 0.729570
Si Si2 0.596211 0.525840 0.287347
Si Si3 0.957962 0.057416 0.109920
Si Si4 0.314310 0.662140 0.837166
Si Si5 0.144755 0.940913 0.536950
Si Si6 0.654368 0.526139 0.435861
Si Si7 0.430313 0.547934 0.435277
O O1 0.638593 0.279394 0.773016
O O2 0.591071 0.014243 0.687127
O O3 0.743433 0.180623 0.666281
O O4 0.750000 0.000000 0.774877
O O5 0.500000 0.529832 0.250000
O O6 0.653139 0.379595 0.244469
O O7 0.585998 0.481703 0.371469
O O8 0.951459 0.272179 0.106557
O O9 0.063303 0.003666 0.094388
O O10 0.897956 0.992428 0.041497
O O11 0.250000 0.500000 0.857014
O O12 0.398906 0.621025 0.888843
O O13 0.145775 0.729179 0.542859
O O14 0.250000 0.000000 0.545556
O O15 0.750000 0.500000 0.397263
O O16 0.652104 0.408146 0.507540
O O17 0.500000 0.500000 0.500000
#
# Coordination Sequence:
#
# PCOD9422610 Si02
#       7
#     8   8   8   8   8   8   8
#     4  11  24  42  74 100 134 184 243 283 344 418
#     4  11  23  47  68  96 137 187 233 288 348 415
#     4  11  23  43  67  98 137 180 235 289 344 412
#     4  10  21  41  69  95 129 175 239 285 332 417
#     4  11  25  42  61  98 144 185 216 284 359 421
#     4  12  25  39  66  99 139 176 219 287 353 404
#     4  12  22  38  65 105 129 171 230 289 345 409
#
# _framework density 27.292763999999998
#
# number of rings (size 3 to 8) (size 9 to 14) (size 15 to 20)
#    0.000    0.857    4.286    4.714    4.000    0.571 
#    0.000    3.571    0.000    0.000    0.000    0.000 
#    0.000    0.000    0.000    0.000    0.000    0.000 
#
# Total GULP energy -313101.923443 kJ/mol
# GULP energy per Si atom -5591.105776 kJ/mol
# Density = 2.723064 g / cm^3
# Si number density = 27.292764 Si / 1000 Ang^3
#
#
#
# Elastic Constant Matrix: (Units=GPa)
#
#
# Indices 1 2 3 4 5 6 
#
# 1 144.2833 29.9181 -2.0770 0.0000 0.0000 0.0000
# 2 29.9181 64.5558 14.2171 0.0000 0.0000 0.0000
# 3 -2.0770 14.2171 111.6758 0.0000 0.0000 0.0000
# 4 0.0000 0.0000 0.0000 27.1306 0.0000 0.0000
# 5 0.0000 0.0000 0.0000 0.0000 34.8415 0.0000
# 6 0.0000 0.0000 0.0000 0.0000 0.0000 52.5622
#
#
#
# Elastic Compliance Matrix: (Units=1/GPa)
#
#
# Indices 1 2 3 4 5 6 
#
# 1 0.007709 -0.003708 0.000615 0.000000 0.000000 0.000000
# 2 -0.003708 0.017721 -0.002325 0.000000 0.000000 0.000000
# 3 0.000615 -0.002325 0.009262 0.000000 0.000000 0.000000
# 4 0.000000 0.000000 0.000000 0.036859 0.000000 0.000000
# 5 0.000000 0.000000 0.000000 0.000000 0.028701 0.000000
# 6 0.000000 0.000000 0.000000 0.000000 0.000000 0.019025
#
#
# Mechanical properties :
#
#
# Convention : Reuss Voigt Hill
#
# Bulk Modulus (GPa) = 41.91766 44.95905 43.43835
# Shear Modulus (GPa) = 36.21510 41.47063 38.84287
#
# Velocity S-wave (km/s) = 3.64663 3.90227 3.77662
# Velocity P-wave (km/s) = 5.75521 6.06731 5.91332
#
# Compressibility (1/GPa) = 0.02385630
#
# Stress axis : x y z
#
# Youngs Moduli (GPa) = 129.72601 56.43029 107.96896
#
# Poissons Ratio (x) = 0.20925 -0.06645
# Poissons Ratio (y) = 0.48103 0.25102
# Poissons Ratio (z) = -0.07984 0.13120
#
# Static dielectric constant tensor:
#      x y z
#    x 2.759820 0.000000 0.000000 
#    y 0.000000 2.238150 0.000000 
#    z 0.000000 0.000000 2.149690 
# 
# From -- ./inp_files/21623.got.cif
#   From: 2010.05.17/outbox.cif.g08.bks.cpg/sg54_11_cif.got.tgz:21623.got - 2010.06.03 13:09:01.
