data_PCOD9422563
_publ_section_title
;
Structure prediction by ZEFSAII (Michael W. Deem and Ramdas Pophale) SiO2 
 PCOD9422563
Probable space group: P C C A
;
_chemical_formula_sum "Si O2"
_cell_formula_units_Z 64
_cell_length_a 18.342959
_cell_length_b 5.500187
_cell_length_c 28.754578
_cell_angle_alpha 90.000000
_cell_angle_beta 90.000000
_cell_angle_gamma 90.000000
_cell_volume 2901.040881
_symmetry_space_group_name_H-M "P C C A"
_symmetry_group_IT_number 54
_symmetry_cell_setting 'orthorhombic'
loop_
_space_group_symop_operation_xyz
x,y,z
1/2-x,-y,z
1/2+x,-y,1/2-z
-x,y,1/2-z
-x,-y,-z
1/2+x,y,-z
1/2-x,y,1/2+z
x,-y,1/2+z
loop_
_atom_site_type_symbol
_atom_site_label
_atom_site_fract_x
_atom_site_fract_y
_atom_site_fract_z
Si Si1 0.540834 0.770527 0.712615
Si Si2 0.728611 0.249509 0.838344
Si Si3 0.065886 0.109600 0.166334
Si Si4 0.830190 0.545693 0.559574
Si Si5 0.788457 0.247599 0.734799
Si Si6 0.033259 0.498028 0.880128
Si Si7 0.462358 0.880713 0.570518
Si Si8 0.614342 0.966303 0.523272
O O1 0.500000 0.594060 0.750000
O O2 0.625948 0.776745 0.725147
O O3 0.544911 0.709834 0.657911
O O4 0.472983 0.966077 0.708061
O O5 0.750000 0.500000 0.863118
O O6 0.643781 0.231529 0.823950
O O7 0.776061 0.249656 0.790786
O O8 0.750000 0.000000 0.863658
O O9 0.007215 0.301937 0.149172
O O10 0.074989 0.952892 0.119015
O O11 0.750000 0.500000 0.577759
O O12 0.889298 0.563742 0.599944
O O13 0.833690 0.806774 0.534608
O O14 0.853550 0.305091 0.529829
O O15 0.750000 0.500000 0.718252
O O16 0.750000 0.000000 0.717244
O O17 0.981172 0.404699 0.922037
O O18 0.415246 0.975105 0.527970
O O19 0.543835 0.980612 0.558203
#
# Coordination Sequence:
#
# PCOD9422563 Si02
#       8
#     8   8   8   8   8   8   8   8
#     4  11  25  42  67  96 132 177 242 299 341 417
#     4  10  23  42  67  90 129 177 215 271 357 410
#     4  11  23  42  70  98 134 178 235 289 342 418
#     4  11  23  43  67  99 144 182 224 281 344 409
#     4  10  23  42  62  90 126 171 221 278 353 407
#     4  10  24  40  67 101 129 181 230 288 344 406
#     4   9  21  39  67  99 135 165 230 281 330 408
#     4  10  21  40  70 101 129 183 222 272 339 410
#
# _framework density 22.061046999999999
#
# number of rings (size 3 to 8) (size 9 to 14) (size 15 to 20)
#    0.000    1.750    1.250    1.875   10.500    2.500 
#    0.000    1.875    0.000    0.000    0.000    0.000 
#    0.000    0.000    0.000    0.000    0.000    0.000 
#
# Total GULP energy -356387.517141 kJ/mol
# GULP energy per Si atom -5568.554955 kJ/mol
# Density = 2.201084 g / cm^3
# Si number density = 22.061047 Si / 1000 Ang^3
#
#
#
# Elastic Constant Matrix: (Units=GPa)
#
#
# Indices 1 2 3 4 5 6 
#
# 1 113.3846 41.4764 14.8094 0.0000 0.0000 0.0000
# 2 41.4764 110.6680 -3.1937 0.0000 0.0000 0.0000
# 3 14.8094 -3.1937 47.7951 0.0000 0.0000 0.0000
# 4 0.0000 0.0000 0.0000 12.3249 0.0000 0.0000
# 5 0.0000 0.0000 0.0000 0.0000 12.0830 0.0000
# 6 0.0000 0.0000 0.0000 0.0000 0.0000 22.2262
#
#
#
# Elastic Compliance Matrix: (Units=1/GPa)
#
#
# Indices 1 2 3 4 5 6 
#
# 1 0.010814 -0.004158 -0.003629 0.000000 0.000000 0.000000
# 2 -0.004158 0.010652 0.002000 0.000000 0.000000 0.000000
# 3 -0.003629 0.002000 0.022181 0.000000 0.000000 0.000000
# 4 0.000000 0.000000 0.000000 0.081137 0.000000 0.000000
# 5 0.000000 0.000000 0.000000 0.000000 0.082761 0.000000
# 6 0.000000 0.000000 0.000000 0.000000 0.000000 0.044992
#
#
# Mechanical properties :
#
#
# Convention : Reuss Voigt Hill
#
# Bulk Modulus (GPa) = 31.17762 42.00354 36.59058
# Shear Modulus (GPa) = 18.19501 23.91053 21.05277
#
# Velocity S-wave (km/s) = 2.87497 3.29574 3.09252
# Velocity P-wave (km/s) = 5.01834 5.79340 5.41975
#
# Compressibility (1/GPa) = 0.03207428
#
# Stress axis : x y z
#
# Youngs Moduli (GPa) = 92.46916 93.87890 45.08438
#
# Poissons Ratio (x) = 0.39033 0.16360
# Poissons Ratio (y) = 0.38447 -0.09017
# Poissons Ratio (z) = 0.33554 -0.18776
#
# Static dielectric constant tensor:
#      x y z
#    x 1.781150 0.000000 0.000000 
#    y 0.000000 2.017860 0.000000 
#    z 0.000000 0.000000 1.877780 
# 
# From -- ./inp_files/28354.got.cif
#   From: 2010.05.17/outbox.cif.g08.bks.cpg/sg54_15_cif.got.tgz:28354.got - 2010.06.03 13:09:01.
