data_PCOD9422975
_publ_section_title
;
Structure prediction by ZEFSAII (Michael W. Deem and Ramdas Pophale) SiO2 
 PCOD9422975
Probable space group: P C C A
;
_chemical_formula_sum "Si O2"
_cell_formula_units_Z 32
_cell_length_a 8.496470
_cell_length_b 5.397073
_cell_length_c 33.645672
_cell_angle_alpha 90.000000
_cell_angle_beta 90.000000
_cell_angle_gamma 90.000000
_cell_volume 1542.858251
_symmetry_space_group_name_H-M "P C C A"
_symmetry_group_IT_number 54
_symmetry_cell_setting 'orthorhombic'
loop_
_space_group_symop_operation_xyz
x,y,z
1/2-x,-y,z
1/2+x,-y,1/2-z
-x,y,1/2-z
-x,-y,-z
1/2+x,y,-z
1/2-x,y,1/2+z
x,-y,1/2+z
loop_
_atom_site_type_symbol
_atom_site_label
_atom_site_fract_x
_atom_site_fract_y
_atom_site_fract_z
Si Si1 0.250000 0.500000 0.212854
Si Si2 0.500000 0.845511 0.750000
Si Si3 0.572943 0.111457 0.827927
Si Si4 0.062858 0.002596 0.913666
Si Si5 0.437960 0.504963 0.044997
O O1 0.343188 0.311467 0.241001
O O2 0.385406 0.607470 0.183891
O O3 0.483830 0.006166 0.789643
O O4 0.750000 0.000000 0.830384
O O5 0.486379 0.043825 0.868078
O O6 0.999232 0.263489 0.930931
O O7 0.250000 0.000000 0.917727
O O8 0.994094 0.764802 0.936581
O O9 0.250000 0.500000 0.045372
O O10 0.500000 0.500000 0.000000
#
# Coordination Sequence:
#
# PCOD9422975 Si02
#       5
#     4   4   8   8   8
#     4  10  22  40  66  92 134 178 236 286 354 412
#     4  10  22  40  64  94 134 176 236 278 354 410
#     4  10  23  41  63  96 133 184 237 285 349 418
#     4  12  27  45  72 109 144 185 239 294 352 420
#     4  12  26  49  76 105 144 187 233 289 357 427
#
# _framework density 20.740725000000001
#
# number of rings (size 3 to 8) (size 9 to 14) (size 15 to 20)
#    0.000    1.000    0.000    6.000    8.750    5.000 
#    0.000    0.000    0.000    0.000    0.000    0.000 
#    0.000    0.000    0.000    0.000    0.000    0.000 
#
# Total GULP energy -178857.414716 kJ/mol
# GULP energy per Si atom -5589.294210 kJ/mol
# Density = 2.069352 g / cm^3
# Si number density = 20.740725 Si / 1000 Ang^3
#
#
#
# Elastic Constant Matrix: (Units=GPa)
#
#
# Indices 1 2 3 4 5 6 
#
# 1 142.8211 23.7867 22.5832 0.0000 0.0000 0.0000
# 2 23.7867 84.2449 16.7559 0.0000 0.0000 0.0000
# 3 22.5832 16.7559 110.4122 0.0000 0.0000 0.0000
# 4 0.0000 0.0000 0.0000 16.6903 0.0000 0.0000
# 5 0.0000 0.0000 0.0000 0.0000 37.6689 0.0000
# 6 0.0000 0.0000 0.0000 0.0000 0.0000 38.2580
#
#
#
# Elastic Compliance Matrix: (Units=1/GPa)
#
#
# Indices 1 2 3 4 5 6 
#
# 1 0.007512 -0.001872 -0.001252 0.000000 0.000000 0.000000
# 2 -0.001872 0.012706 -0.001545 0.000000 0.000000 0.000000
# 3 -0.001252 -0.001545 0.009548 0.000000 0.000000 0.000000
# 4 0.000000 0.000000 0.000000 0.059915 0.000000 0.000000
# 5 0.000000 0.000000 0.000000 0.000000 0.026547 0.000000
# 6 0.000000 0.000000 0.000000 0.000000 0.000000 0.026138
#
#
# Mechanical properties :
#
#
# Convention : Reuss Voigt Hill
#
# Bulk Modulus (GPa) = 48.95677 51.52552 50.24115
# Shear Modulus (GPa) = 31.54307 36.81360 34.17834
#
# Velocity S-wave (km/s) = 3.90401 4.21758 4.06382
# Velocity P-wave (km/s) = 6.63153 6.97237 6.80408
#
# Compressibility (1/GPa) = 0.02042618
#
# Stress axis : x y z
#
# Youngs Moduli (GPa) = 133.12865 78.70272 104.73792
#
# Poissons Ratio (x) = 0.14732 0.13116
# Poissons Ratio (y) = 0.24919 0.16186
# Poissons Ratio (z) = 0.16672 0.12163
#
# Static dielectric constant tensor:
#      x y z
#    x 1.708180 0.000000 0.000000 
#    y 0.000000 1.872810 0.000000 
#    z 0.000000 0.000000 1.710500 
# 
# From -- ./inp_files/27434.got.cif
#   From: 2010.05.17/outbox.cif.g08.bks.cpg/sg54_14_cif.got.tgz:27434.got - 2010.06.03 13:09:01.
