data_PCOD9422963
_publ_section_title
;
Structure prediction by ZEFSAII (Michael W. Deem and Ramdas Pophale) SiO2 
 PCOD9422963
Probable space group: P C C A
;
_chemical_formula_sum "Si O2"
_cell_formula_units_Z 64
_cell_length_a 21.763363
_cell_length_b 8.843396
_cell_length_c 13.687500
_cell_angle_alpha 90.000000
_cell_angle_beta 90.000000
_cell_angle_gamma 90.000000
_cell_volume 2634.324136
_symmetry_space_group_name_H-M "P C C A"
_symmetry_group_IT_number 54
_symmetry_cell_setting 'orthorhombic'
loop_
_space_group_symop_operation_xyz
x,y,z
1/2-x,-y,z
1/2+x,-y,1/2-z
-x,y,1/2-z
-x,-y,-z
1/2+x,y,-z
1/2-x,y,1/2+z
x,-y,1/2+z
loop_
_atom_site_type_symbol
_atom_site_label
_atom_site_fract_x
_atom_site_fract_y
_atom_site_fract_z
Si Si1 0.965372 0.262628 0.536235
Si Si2 0.289524 0.639314 0.128341
Si Si3 0.428650 0.994767 0.351324
Si Si4 0.296354 0.136356 0.348313
Si Si5 0.889320 0.139729 0.351190
Si Si6 0.844888 0.566334 0.074699
Si Si7 0.093176 0.705473 0.980150
Si Si8 0.184347 0.149173 0.618237
O O1 0.934352 0.202860 0.434689
O O2 0.912437 0.361913 0.586252
O O3 0.027605 0.353344 0.516897
O O4 0.976361 0.119045 0.608533
O O5 0.250000 0.500000 0.173147
O O6 0.342250 0.729785 0.186645
O O7 0.244324 0.764667 0.079419
O O8 0.326023 0.567814 0.038481
O O9 0.424785 0.939769 0.238780
O O10 0.428642 0.849646 0.419201
O O11 0.363083 0.072355 0.373795
O O12 0.297141 0.314178 0.378740
O O13 0.297309 0.145732 0.231373
O O14 0.250000 0.000000 0.378578
O O15 0.842652 0.017361 0.399311
O O16 0.860838 0.390648 0.088733
O O17 0.129391 0.750226 0.077833
#
# Coordination Sequence:
#
# PCOD9422963 Si02
#       8
#     8   8   8   8   8   8   8   8
#     4  10  22  43  66  92 132 186 218 290 342 403
#     4  11  22  39  63  93 129 176 214 270 358 413
#     4  10  22  40  64 100 124 171 230 278 343 406
#     4  10  23  43  65  96 132 174 221 283 342 408
#     4  10  22  41  66  96 133 169 232 290 337 418
#     4  10  24  42  66  94 134 174 229 274 339 424
#     4  12  23  41  65  97 135 176 226 279 344 415
#     4  11  22  40  64  95 130 172 219 277 345 410
#
# _framework density 24.294657000000001
#
# number of rings (size 3 to 8) (size 9 to 14) (size 15 to 20)
#    0.000    1.500    2.500    2.625    1.750    1.500 
#    2.250    2.500    2.750    0.000    0.000    0.000 
#    0.000    0.000    0.000    0.000    0.000    0.000 
#
# Total GULP energy -356604.739533 kJ/mol
# GULP energy per Si atom -5571.949055 kJ/mol
# Density = 2.423936 g / cm^3
# Si number density = 24.294657 Si / 1000 Ang^3
#
#
#
# Elastic Constant Matrix: (Units=GPa)
#
#
# Indices 1 2 3 4 5 6 
#
# 1 105.6055 39.6713 9.3861 0.0000 0.0000 0.0000
# 2 39.6713 90.6131 7.3735 0.0000 0.0000 0.0000
# 3 9.3861 7.3735 52.1540 0.0000 0.0000 0.0000
# 4 0.0000 0.0000 0.0000 0.3818 0.0000 0.0000
# 5 0.0000 0.0000 0.0000 0.0000 15.7922 0.0000
# 6 0.0000 0.0000 0.0000 0.0000 0.0000 32.5230
#
#
#
# Elastic Compliance Matrix: (Units=1/GPa)
#
#
# Indices 1 2 3 4 5 6 
#
# 1 0.011428 -0.004892 -0.001365 0.000000 0.000000 0.000000
# 2 -0.004892 0.013259 -0.000994 0.000000 0.000000 0.000000
# 3 -0.001365 -0.000994 0.019560 0.000000 0.000000 0.000000
# 4 0.000000 0.000000 0.000000 2.619246 0.000000 0.000000
# 5 0.000000 0.000000 0.000000 0.000000 0.063322 0.000000
# 6 0.000000 0.000000 0.000000 0.000000 0.000000 0.030747
#
#
# Mechanical properties :
#
#
# Convention : Reuss Voigt Hill
#
# Bulk Modulus (GPa) = 33.61983 40.13715 36.87849
# Shear Modulus (GPa) = 1.79728 22.53553 12.16640
#
# Velocity S-wave (km/s) = 0.86104 3.04894 2.24025
# Velocity P-wave (km/s) = 3.85447 5.38067 4.68020
#
# Compressibility (1/GPa) = 0.02974435
#
# Stress axis : x y z
#
# Youngs Moduli (GPa) = 87.50142 75.42186 51.12428
#
# Poissons Ratio (x) = 0.36899 0.06979
# Poissons Ratio (y) = 0.42809 0.05082
# Poissons Ratio (z) = 0.11945 0.07497
#
# Static dielectric constant tensor:
#      x y z
#    x 2.005480 0.000000 0.000000 
#    y 0.000000 2.074480 0.000000 
#    z 0.000000 0.000000 1.947760 
# 
# From -- ./inp_files/15014.got.cif
#   From: 2010.05.17/outbox.cif.g08.bks.cpg/sg54_8_cif.got.tgz:15014.got - 2010.06.03 13:09:01.
