data_PCOD9422565
_publ_section_title
;
Structure prediction by ZEFSAII (Michael W. Deem and Ramdas Pophale) SiO2 
 PCOD9422565
Probable space group: P C C A
;
_chemical_formula_sum "Si O2"
_cell_formula_units_Z 56
_cell_length_a 5.316120
_cell_length_b 14.871916
_cell_length_c 32.391412
_cell_angle_alpha 90.000000
_cell_angle_beta 90.000000
_cell_angle_gamma 90.000000
_cell_volume 2560.893864
_symmetry_space_group_name_H-M "P C C A"
_symmetry_group_IT_number 54
_symmetry_cell_setting 'orthorhombic'
loop_
_space_group_symop_operation_xyz
x,y,z
1/2-x,-y,z
1/2+x,-y,1/2-z
-x,y,1/2-z
-x,-y,-z
1/2+x,y,-z
1/2-x,y,1/2+z
x,-y,1/2+z
loop_
_atom_site_type_symbol
_atom_site_label
_atom_site_fract_x
_atom_site_fract_y
_atom_site_fract_z
Si Si1 0.750379 0.606867 0.088916
Si Si2 0.751931 0.391650 0.359265
Si Si3 0.650868 0.896350 0.826439
Si Si4 0.692911 0.756145 0.026962
Si Si5 0.746447 0.275698 0.276177
Si Si6 0.910706 0.126230 0.409103
Si Si7 0.750000 0.000000 0.473268
Si Si8 0.250000 0.000000 0.360496
O O1 0.750000 0.500000 0.083371
O O2 0.509916 0.630546 0.117045
O O3 0.715642 0.656472 0.045654
O O4 0.010331 0.631451 0.112194
O O5 0.750000 0.500000 0.352388
O O6 0.747054 0.338373 0.316537
O O7 0.717130 0.828279 0.790543
O O8 0.754663 0.847847 0.868367
O O9 0.356635 0.917601 0.833835
O O10 0.750000 0.000000 0.820324
O O11 0.619511 0.813629 0.068129
O O12 0.456115 0.770580 0.996470
O O13 0.500000 0.298971 0.250000
O O14 0.000000 0.287085 0.250000
O O15 0.738543 0.088568 0.445268
O O16 0.044058 0.038161 0.390893
O O17 0.500000 0.000000 0.500000
#
# Coordination Sequence:
#
# PCOD9422565 Si02
#       8
#     8   8   8   8   8   8   4   4
#     4  10  22  43  71  97 128 177 230 272 322 398
#     4  10  22  44  73 103 133 174 224 272 328 409
#     4  10  24  43  69  92 126 177 235 277 326 399
#     4  12  27  40  60  96 137 176 218 280 346 391
#     4  12  28  44  69 105 140 175 212 273 348 408
#     4  11  23  40  61  89 123 173 227 271 327 401
#     4  12  23  36  56  85 122 158 206 274 333 376
#     4  10  21  40  70  89 114 172 228 274 323 372
#
# _framework density 21.867366000000001
#
# number of rings (size 3 to 8) (size 9 to 14) (size 15 to 20)
#    0.000    1.143    2.143    3.857    8.000    1.714 
#    0.000    0.000    0.000    0.000    0.000    0.000 
#    0.000    0.000    0.000    0.000    0.000    0.000 
#
# Total GULP energy -312779.307012 kJ/mol
# GULP energy per Si atom -5585.344768 kJ/mol
# Density = 2.181759 g / cm^3
# Si number density = 21.867366 Si / 1000 Ang^3
#
#
#
# Elastic Constant Matrix: (Units=GPa)
#
#
# Indices 1 2 3 4 5 6 
#
# 1 146.6877 24.7596 34.8015 0.0000 0.0000 0.0000
# 2 24.7596 59.6833 26.3201 0.0000 0.0000 0.0000
# 3 34.8015 26.3201 53.3637 0.0000 0.0000 0.0000
# 4 0.0000 0.0000 0.0000 34.0461 0.0000 0.0000
# 5 0.0000 0.0000 0.0000 0.0000 23.6684 0.0000
# 6 0.0000 0.0000 0.0000 0.0000 0.0000 5.9694
#
#
#
# Elastic Compliance Matrix: (Units=1/GPa)
#
#
# Indices 1 2 3 4 5 6 
#
# 1 0.008146 -0.001325 -0.004659 0.000000 0.000000 0.000000
# 2 -0.001325 0.021628 -0.009803 0.000000 0.000000 0.000000
# 3 -0.004659 -0.009803 0.026613 0.000000 0.000000 0.000000
# 4 0.000000 0.000000 0.000000 0.029372 0.000000 0.000000
# 5 0.000000 0.000000 0.000000 0.000000 0.042250 0.000000
# 6 0.000000 0.000000 0.000000 0.000000 0.000000 0.167522
#
#
# Mechanical properties :
#
#
# Convention : Reuss Voigt Hill
#
# Bulk Modulus (GPa) = 40.30225 47.94413 44.12319
# Shear Modulus (GPa) = 14.90860 24.32701 19.61780
#
# Velocity S-wave (km/s) = 2.61391 3.33900 2.99846
# Velocity P-wave (km/s) = 5.25170 6.06942 5.67531
#
# Compressibility (1/GPa) = 0.02481251
#
# Stress axis : x y z
#
# Youngs Moduli (GPa) = 122.75658 46.23645 37.57541
#
# Poissons Ratio (x) = 0.06125 0.17507
# Poissons Ratio (y) = 0.16262 0.36837
# Poissons Ratio (z) = 0.57195 0.45328
#
# Static dielectric constant tensor:
#      x y z
#    x 1.916140 0.000000 0.000000 
#    y 0.000000 1.836400 0.000000 
#    z 0.000000 0.000000 1.799630 
# 
# From -- ./inp_files/27246.got.cif
#   From: 2010.05.17/outbox.cif.g08.bks.cpg/sg54_14_cif.got.tgz:27246.got - 2010.06.03 13:09:01.
