data_PCOD9422525
_publ_section_title
;
Structure prediction by ZEFSAII (Michael W. Deem and Ramdas Pophale) SiO2 
 PCOD9422525
Probable space group: P C C A
;
_chemical_formula_sum "Si O2"
_cell_formula_units_Z 48
_cell_length_a 15.166906
_cell_length_b 8.940105
_cell_length_c 17.695686
_cell_angle_alpha 90.000000
_cell_angle_beta 90.000000
_cell_angle_gamma 90.000000
_cell_volume 2399.424108
_symmetry_space_group_name_H-M "P C C A"
_symmetry_group_IT_number 54
_symmetry_cell_setting 'orthorhombic'
loop_
_space_group_symop_operation_xyz
x,y,z
1/2-x,-y,z
1/2+x,-y,1/2-z
-x,y,1/2-z
-x,-y,-z
1/2+x,y,-z
1/2-x,y,1/2+z
x,-y,1/2+z
loop_
_atom_site_type_symbol
_atom_site_label
_atom_site_fract_x
_atom_site_fract_y
_atom_site_fract_z
Si Si1 0.640064 0.185561 0.050643
Si Si2 0.337286 0.163112 0.914867
Si Si3 0.510362 0.359846 0.945608
Si Si4 0.234001 0.164466 0.241724
Si Si5 0.917260 0.635562 0.787881
Si Si6 0.406799 0.325681 0.288020
O O1 0.745849 0.212632 0.044516
O O2 0.604109 0.272414 0.125561
O O3 0.635262 0.006003 0.062645
O O4 0.580596 0.245327 0.982530
O O5 0.418188 0.274089 0.930418
O O6 0.308349 0.156561 0.826438
O O7 0.547835 0.423470 0.867093
O O8 0.500000 0.500000 0.000000
O O9 0.164419 0.260243 0.196498
O O10 0.327015 0.244347 0.246459
O O11 0.250000 0.000000 0.212141
O O12 0.894320 0.501726 0.730374
O O13 0.000000 0.720913 0.750000
O O14 0.500000 0.285092 0.250000
#
# Coordination Sequence:
#
# PCOD9422525 Si02
#       6
#     8   8   8   8   8   8
#     4  10  22  44  68  95 124 173 214 261 328 389
#     4  10  21  44  69  90 128 171 217 261 325 401
#     4  12  25  43  65  98 132 173 217 267 330 388
#     4  11  21  41  67  94 124 169 218 267 323 386
#     4  11  23  41  64  96 131 165 215 271 321 385
#     4  10  21  40  64  94 128 163 212 263 323 384
#
# _framework density 20.004799999999999
#
# number of rings (size 3 to 8) (size 9 to 14) (size 15 to 20)
#    0.000    1.333    5.000    3.000    0.000    2.667 
#   12.000    0.000    0.000    0.000    0.000    0.000 
#    0.000    0.000    0.000    0.000    0.000    0.000 
#
# Total GULP energy -267967.068757 kJ/mol
# GULP energy per Si atom -5582.647266 kJ/mol
# Density = 1.995927 g / cm^3
# Si number density = 20.004800 Si / 1000 Ang^3
#
#
#
# Elastic Constant Matrix: (Units=GPa)
#
#
# Indices 1 2 3 4 5 6 
#
# 1 102.2378 60.7899 23.2118 0.0000 0.0000 0.0000
# 2 60.7899 105.9301 24.6760 0.0000 0.0000 0.0000
# 3 23.2118 24.6760 56.0479 0.0000 0.0000 0.0000
# 4 0.0000 0.0000 0.0000 19.5450 0.0000 0.0000
# 5 0.0000 0.0000 0.0000 0.0000 28.2560 0.0000
# 6 0.0000 0.0000 0.0000 0.0000 0.0000 73.8637
#
#
#
# Elastic Compliance Matrix: (Units=1/GPa)
#
#
# Indices 1 2 3 4 5 6 
#
# 1 0.015215 -0.008094 -0.002738 0.000000 0.000000 0.000000
# 2 -0.008094 0.014824 -0.003175 0.000000 0.000000 0.000000
# 3 -0.002738 -0.003175 0.020373 0.000000 0.000000 0.000000
# 4 0.000000 0.000000 0.000000 0.051164 0.000000 0.000000
# 5 0.000000 0.000000 0.000000 0.000000 0.035391 0.000000
# 6 0.000000 0.000000 0.000000 0.000000 0.000000 0.013538
#
#
# Mechanical properties :
#
#
# Convention : Reuss Voigt Hill
#
# Bulk Modulus (GPa) = 44.64194 53.50789 49.07491
# Shear Modulus (GPa) = 26.88379 34.70215 30.79297
#
# Velocity S-wave (km/s) = 3.66986 4.16948 3.92762
# Velocity P-wave (km/s) = 6.34990 7.07001 6.71961
#
# Compressibility (1/GPa) = 0.02240046
#
# Stress axis : x y z
#
# Youngs Moduli (GPa) = 65.72384 67.45602 49.08338
#
# Poissons Ratio (x) = 0.54597 0.13438
# Poissons Ratio (y) = 0.53195 0.15583
# Poissons Ratio (z) = 0.17994 0.21416
#
# Static dielectric constant tensor:
#      x y z
#    x 1.718820 0.000000 0.000000 
#    y 0.000000 1.708540 0.000000 
#    z 0.000000 0.000000 1.583730 
# 
# From -- ./inp_files/18029.got.cif
#   From: 2010.05.17/outbox.cif.g08.bks.cpg/sg54_10_cif.got.tgz:18029.got - 2010.06.03 13:09:01.
