data_PCOD9422051
_publ_section_title
;
Structure prediction by ZEFSAII (Michael W. Deem and Ramdas Pophale) SiO2 
 PCOD9422051
Probable space group: P C C A
;
_chemical_formula_sum "Si O2"
_cell_formula_units_Z 56
_cell_length_a 14.419896
_cell_length_b 14.071583
_cell_length_c 12.662705
_cell_angle_alpha 90.000000
_cell_angle_beta 90.000000
_cell_angle_gamma 90.000000
_cell_volume 2569.399138
_symmetry_space_group_name_H-M "P C C A"
_symmetry_group_IT_number 54
_symmetry_cell_setting 'orthorhombic'
loop_
_space_group_symop_operation_xyz
x,y,z
1/2-x,-y,z
1/2+x,-y,1/2-z
-x,y,1/2-z
-x,-y,-z
1/2+x,y,-z
1/2-x,y,1/2+z
x,-y,1/2+z
loop_
_atom_site_type_symbol
_atom_site_label
_atom_site_fract_x
_atom_site_fract_y
_atom_site_fract_z
Si Si1 0.902986 0.812595 0.718562
Si Si2 0.267813 0.846338 0.918343
Si Si3 0.529731 0.370528 0.586149
Si Si4 0.000000 0.533902 0.250000
Si Si5 0.826235 0.295821 0.415451
Si Si6 0.250000 0.000000 0.591465
Si Si7 0.366594 0.662659 0.630384
Si Si8 0.605725 0.873220 0.782363
O O1 0.831945 0.861258 0.637638
O O2 0.933059 0.715019 0.660153
O O3 0.850309 0.783258 0.825808
O O4 0.000000 0.862031 0.750000
O O5 0.341598 0.852900 0.826268
O O6 0.281124 0.747405 0.979005
O O7 0.285549 0.920894 0.010428
O O8 0.529604 0.465990 0.653844
O O9 0.422309 0.347120 0.561437
O O10 0.588809 0.369168 0.480148
O O11 0.083352 0.602372 0.219168
O O12 0.742912 0.355608 0.366541
O O13 0.333794 0.954806 0.659506
O O14 0.386738 0.775524 0.649008
O O15 0.500000 0.894840 0.750000
#
# Coordination Sequence:
#
# PCOD9422051 Si02
#       8
#     8   8   8   4   8   4   8   8
#     4  10  20  42  72 100 146 193 239 302 375 444
#     4  12  23  43  76 108 143 194 250 305 371 447
#     4  11  23  46  66 104 151 192 251 312 368 439
#     4  12  26  44  68 108 148 190 256 316 358 446
#     4  11  22  40  73 102 138 196 245 296 375 444
#     4  12  26  48  74 114 146 180 256 312 358 470
#     4  12  24  45  73 104 149 202 244 307 380 450
#     4  12  26  49  73 107 151 193 241 302 388 447
#
# _framework density 21.794978
#
# number of rings (size 3 to 8) (size 9 to 14) (size 15 to 20)
#    0.000    0.571    7.143    1.714    0.000    2.286 
#    0.000    7.857    0.000    0.000    0.000    0.000 
#    0.000    0.000    0.000    0.000    0.000    0.000 
#
# Total GULP energy -313202.279009 kJ/mol
# GULP energy per Si atom -5592.897839 kJ/mol
# Density = 2.174537 g / cm^3
# Si number density = 21.794978 Si / 1000 Ang^3
#
#
#
# Elastic Constant Matrix: (Units=GPa)
#
#
# Indices 1 2 3 4 5 6 
#
# 1 130.5133 40.6450 57.4889 0.0000 0.0000 0.0000
# 2 40.6450 72.3973 25.4674 0.0000 0.0000 0.0000
# 3 57.4889 25.4674 101.8404 0.0000 0.0000 0.0000
# 4 0.0000 0.0000 0.0000 13.3959 0.0000 0.0000
# 5 0.0000 0.0000 0.0000 0.0000 39.6679 0.0000
# 6 0.0000 0.0000 0.0000 0.0000 0.0000 -5.2447
#
#
#
# Elastic Compliance Matrix: (Units=1/GPa)
#
#
# Indices 1 2 3 4 5 6 
#
# 1 0.011414 -0.004541 -0.005308 0.000000 0.000000 0.000000
# 2 -0.004541 0.016952 -0.001676 0.000000 0.000000 0.000000
# 3 -0.005308 -0.001676 0.013235 0.000000 0.000000 0.000000
# 4 0.000000 0.000000 0.000000 0.074650 0.000000 0.000000
# 5 0.000000 0.000000 0.000000 0.000000 0.025209 0.000000
# 6 0.000000 0.000000 0.000000 0.000000 0.000000 -0.190667
#
#
# Mechanical properties :
#
#
# Convention : Reuss Voigt Hill
#
# Bulk Modulus (GPa) = 53.90428 61.32816 57.61622
# Shear Modulus (GPa) = -250.30857 21.64046 -114.33405
#
# Velocity S-wave (km/s) = -10.72829 3.15447 -7.25071
# Velocity P-wave (km/s) = 11.34352 6.43951 6.60334
#
# Compressibility (1/GPa) = 0.01855140
#
# Stress axis : x y z
#
# Youngs Moduli (GPa) = 87.61014 58.99169 75.55982
#
# Poissons Ratio (x) = 0.26788 0.40105
# Poissons Ratio (y) = 0.39784 0.12662
# Poissons Ratio (z) = 0.46501 0.09885
#
# Static dielectric constant tensor:
#      x y z
#    x 1.790080 0.000000 0.000000 
#    y 0.000000 1.848010 0.000000 
#    z 0.000000 0.000000 1.776240 
# 
# From -- ./inp_files/8468.got.cif
#   From: 2010.05.17/outbox.cif.g08.bks.cpg/sg54_5_cif.got.tgz:8468.got - 2010.06.03 13:09:01.
