data_PCOD9422726
_publ_section_title
;
Structure prediction by ZEFSAII (Michael W. Deem and Ramdas Pophale) SiO2 
 PCOD9422726
Probable space group: P C C A
;
_chemical_formula_sum "Si O2"
_cell_formula_units_Z 48
_cell_length_a 9.402270
_cell_length_b 12.488538
_cell_length_c 15.892034
_cell_angle_alpha 90.000000
_cell_angle_beta 90.000000
_cell_angle_gamma 90.000000
_cell_volume 1866.052266
_symmetry_space_group_name_H-M "P C C A"
_symmetry_group_IT_number 54
_symmetry_cell_setting 'orthorhombic'
loop_
_space_group_symop_operation_xyz
x,y,z
1/2-x,-y,z
1/2+x,-y,1/2-z
-x,y,1/2-z
-x,-y,-z
1/2+x,y,-z
1/2-x,y,1/2+z
x,-y,1/2+z
loop_
_atom_site_type_symbol
_atom_site_label
_atom_site_fract_x
_atom_site_fract_y
_atom_site_fract_z
Si Si1 0.138808 0.405794 0.446820
Si Si2 0.370726 0.766613 0.317236
Si Si3 0.476832 0.735916 0.591705
Si Si4 0.078190 0.484932 0.665745
Si Si5 0.045038 0.111819 0.044049
Si Si6 0.713188 0.112995 0.315532
O O1 0.250000 0.500000 0.459218
O O2 0.181653 0.336647 0.366131
O O3 0.128959 0.326047 0.525430
O O4 0.985181 0.450585 0.415076
O O5 0.500000 0.755215 0.250000
O O6 0.423915 0.847456 0.390383
O O7 0.247501 0.805318 0.257612
O O8 0.484825 0.634988 0.653176
O O9 0.577202 0.794560 0.523810
O O10 0.427192 0.840145 0.643481
O O11 0.250000 0.500000 0.670832
O O12 0.000000 0.524721 0.750000
O O13 0.180033 0.106407 0.104943
O O14 0.000000 0.000000 0.000000
O O15 0.750000 0.000000 0.273760
#
# Coordination Sequence:
#
# PCOD9422726 Si02
#       6
#     8   8   8   8   8   8
#     4  11  25  47  74 111 142 194 246 299 364 435
#     4   9  22  42  70  96 139 191 234 292 366 432
#     4  11  26  44  73 103 143 191 242 302 364 440
#     4  12  29  48  73 106 150 192 242 304 368 440
#     4  10  21  45  68 101 140 188 242 301 362 430
#     4  11  23  44  70 104 143 187 239 300 371 434
#
# _framework density 25.722752
#
# number of rings (size 3 to 8) (size 9 to 14) (size 15 to 20)
#    0.000    1.333    1.667    2.000   14.000    0.000 
#    9.000    0.833    0.000    0.000    0.000    0.000 
#    0.000    0.000    0.000    0.000    0.000    0.000 
#
# Total GULP energy -267933.013339 kJ/mol
# GULP energy per Si atom -5581.937778 kJ/mol
# Density = 2.566421 g / cm^3
# Si number density = 25.722752 Si / 1000 Ang^3
#
#
#
# Elastic Constant Matrix: (Units=GPa)
#
#
# Indices 1 2 3 4 5 6 
#
# 1 97.8746 1.4322 25.6644 0.0000 0.0000 0.0000
# 2 1.4322 104.6630 24.8954 0.0000 0.0000 0.0000
# 3 25.6644 24.8954 130.6697 0.0000 0.0000 0.0000
# 4 0.0000 0.0000 0.0000 86.8219 0.0000 0.0000
# 5 0.0000 0.0000 0.0000 0.0000 10.9962 0.0000
# 6 0.0000 0.0000 0.0000 0.0000 0.0000 29.8581
#
#
#
# Elastic Compliance Matrix: (Units=1/GPa)
#
#
# Indices 1 2 3 4 5 6 
#
# 1 0.010786 0.000373 -0.002190 0.000000 0.000000 0.000000
# 2 0.000373 0.010021 -0.001983 0.000000 0.000000 0.000000
# 3 -0.002190 -0.001983 0.008461 0.000000 0.000000 0.000000
# 4 0.000000 0.000000 0.000000 0.011518 0.000000 0.000000
# 5 0.000000 0.000000 0.000000 0.000000 0.090941 0.000000
# 6 0.000000 0.000000 0.000000 0.000000 0.000000 0.033492
#
#
# Mechanical properties :
#
#
# Convention : Reuss Voigt Hill
#
# Bulk Modulus (GPa) = 46.14726 48.57683 47.36205
# Shear Modulus (GPa) = 27.77183 44.28291 36.02737
#
# Velocity S-wave (km/s) = 3.28938 4.15365 3.74652
# Velocity P-wave (km/s) = 5.69262 6.47530 6.09653
#
# Compressibility (1/GPa) = 0.02166976
#
# Stress axis : x y z
#
# Youngs Moduli (GPa) = 92.71431 99.79116 118.19452
#
# Poissons Ratio (x) = -0.03724 0.25879
# Poissons Ratio (y) = -0.03460 0.23432
# Poissons Ratio (z) = 0.20300 0.19784
#
# Static dielectric constant tensor:
#      x y z
#    x 1.999470 0.000000 0.000000 
#    y 0.000000 2.368920 0.000000 
#    z 0.000000 0.000000 2.170690 
# 
# From -- ./inp_files/17313.got.cif
#   From: 2010.05.17/outbox.cif.g08.bks.cpg/sg54_9_cif.got.tgz:17313.got - 2010.06.03 13:09:01.
