data_PCOD9422066
_publ_section_title
;
Structure prediction by ZEFSAII (Michael W. Deem and Ramdas Pophale) SiO2 
 PCOD9422066
Probable space group: P C C A
;
_chemical_formula_sum "Si O2"
_cell_formula_units_Z 56
_cell_length_a 14.024566
_cell_length_b 11.851061
_cell_length_c 13.943816
_cell_angle_alpha 90.000000
_cell_angle_beta 90.000000
_cell_angle_gamma 90.000000
_cell_volume 2317.545703
_symmetry_space_group_name_H-M "P C C A"
_symmetry_group_IT_number 54
_symmetry_cell_setting 'orthorhombic'
loop_
_space_group_symop_operation_xyz
x,y,z
1/2-x,-y,z
1/2+x,-y,1/2-z
-x,y,1/2-z
-x,-y,-z
1/2+x,y,-z
1/2-x,y,1/2+z
x,-y,1/2+z
loop_
_atom_site_type_symbol
_atom_site_label
_atom_site_fract_x
_atom_site_fract_y
_atom_site_fract_z
Si Si1 0.573809 0.137908 0.985096
Si Si2 0.455375 0.566459 0.351801
Si Si3 0.238400 0.293047 0.380720
Si Si4 0.687774 0.285434 0.333749
Si Si5 0.649622 0.103210 0.495631
Si Si6 0.355773 0.356213 0.565320
Si Si7 0.019245 0.310465 0.852592
O O1 0.564545 0.216973 0.079651
O O2 0.644895 0.032148 0.987028
O O3 0.462132 0.115028 0.971049
O O4 0.614262 0.226663 0.910090
O O5 0.500000 0.602774 0.250000
O O6 0.359843 0.636579 0.369962
O O7 0.542478 0.584199 0.427326
O O8 0.434893 0.433315 0.342195
O O9 0.294286 0.273953 0.280310
O O10 0.208646 0.171795 0.425113
O O11 0.297903 0.355791 0.465306
O O12 0.677504 0.167764 0.395647
O O13 0.772035 0.372482 0.359971
O O14 0.590919 0.340290 0.375685
O O15 0.000000 0.254047 0.750000
#
# Coordination Sequence:
#
# PCOD9422066 Si02
#       7
#     8   8   8   8   8   8   8
#     4  10  20  43  67  97 144 188 237 301 369 438
#     4  11  23  46  72  98 147 201 250 313 380 444
#     4  11  22  43  73 108 139 189 251 303 386 445
#     4  10  22  42  66 104 141 179 243 307 366 445
#     4   9  21  41  71 100 138 189 239 301 369 450
#     4  11  23  41  67 103 142 182 246 312 365 457
#     4  10  23  44  67  98 144 196 245 302 372 444
#
# _framework density 24.163492000000002
#
# number of rings (size 3 to 8) (size 9 to 14) (size 15 to 20)
#    0.000    1.714    2.857    0.857    0.000    3.429 
#    2.571   10.714    0.000    0.000    0.000    0.000 
#    0.000    0.000    0.000    0.000    0.000    0.000 
#
# Total GULP energy -311920.333691 kJ/mol
# GULP energy per Si atom -5570.005959 kJ/mol
# Density = 2.410849 g / cm^3
# Si number density = 24.163492 Si / 1000 Ang^3
#
#
#
# Elastic Constant Matrix: (Units=GPa)
#
#
# Indices 1 2 3 4 5 6 
#
# 1 127.1891 40.4444 48.8850 0.0000 0.0000 0.0000
# 2 40.4444 143.9714 33.6684 0.0000 0.0000 0.0000
# 3 48.8850 33.6684 93.1889 0.0000 0.0000 0.0000
# 4 0.0000 0.0000 0.0000 18.9542 0.0000 0.0000
# 5 0.0000 0.0000 0.0000 0.0000 43.3265 0.0000
# 6 0.0000 0.0000 0.0000 0.0000 0.0000 38.7593
#
#
#
# Elastic Compliance Matrix: (Units=1/GPa)
#
#
# Indices 1 2 3 4 5 6 
#
# 1 0.010245 -0.001771 -0.004735 0.000000 0.000000 0.000000
# 2 -0.001771 0.007893 -0.001923 0.000000 0.000000 0.000000
# 3 -0.004735 -0.001923 0.013909 0.000000 0.000000 0.000000
# 4 0.000000 0.000000 0.000000 0.052759 0.000000 0.000000
# 5 0.000000 0.000000 0.000000 0.000000 0.023081 0.000000
# 6 0.000000 0.000000 0.000000 0.000000 0.000000 0.025800
#
#
# Mechanical properties :
#
#
# Convention : Reuss Voigt Hill
#
# Bulk Modulus (GPa) = 65.82848 67.81612 66.82230
# Shear Modulus (GPa) = 32.13227 36.29811 34.21519
#
# Velocity S-wave (km/s) = 3.65058 3.88001 3.76704
# Velocity P-wave (km/s) = 6.71350 6.94256 6.82899
#
# Compressibility (1/GPa) = 0.01519099
#
# Stress axis : x y z
#
# Youngs Moduli (GPa) = 97.60706 126.69578 71.89471
#
# Poissons Ratio (x) = 0.22436 0.34039
# Poissons Ratio (y) = 0.17285 0.13823
# Poissons Ratio (z) = 0.46213 0.24360
#
# Static dielectric constant tensor:
#      x y z
#    x 2.255950 0.000000 0.000000 
#    y 0.000000 1.966070 0.000000 
#    z 0.000000 0.000000 2.093550 
# 
# From -- ./inp_files/13476.got.cif
#   From: 2010.05.17/outbox.cif.g08.bks.cpg/sg54_7_cif.got.tgz:13476.got - 2010.06.03 13:09:01.
