data_PCOD9422952
_publ_section_title
;
Structure prediction by ZEFSAII (Michael W. Deem and Ramdas Pophale) SiO2 
 PCOD9422952
Probable space group: P C C A
;
_chemical_formula_sum "Si O2"
_cell_formula_units_Z 60
_cell_length_a 8.226485
_cell_length_b 18.129687
_cell_length_c 19.736895
_cell_angle_alpha 90.000000
_cell_angle_beta 90.000000
_cell_angle_gamma 90.000000
_cell_volume 2943.631537
_symmetry_space_group_name_H-M "P C C A"
_symmetry_group_IT_number 54
_symmetry_cell_setting 'orthorhombic'
loop_
_space_group_symop_operation_xyz
x,y,z
1/2-x,-y,z
1/2+x,-y,1/2-z
-x,y,1/2-z
-x,-y,-z
1/2+x,y,-z
1/2-x,y,1/2+z
x,-y,1/2+z
loop_
_atom_site_type_symbol
_atom_site_label
_atom_site_fract_x
_atom_site_fract_y
_atom_site_fract_z
Si Si1 0.308503 0.584627 0.568403
Si Si2 0.250000 0.000000 0.130628
Si Si3 0.680565 0.836329 0.084840
Si Si4 0.805750 0.584086 0.080646
Si Si5 0.197303 0.708884 0.820056
Si Si6 0.589534 0.041612 0.688924
Si Si7 0.196318 0.839511 0.566705
Si Si8 0.806011 0.287859 0.334257
O O1 0.250000 0.500000 0.575047
O O2 0.263060 0.610112 0.492262
O O3 0.501050 0.586477 0.576036
O O4 0.230862 0.637988 0.624062
O O5 0.432188 0.004951 0.164611
O O6 0.268105 0.922652 0.091108
O O7 0.759888 0.776623 0.134396
O O8 0.663459 0.911390 0.127672
O O9 0.493013 0.820037 0.069848
O O10 0.759207 0.836644 0.011706
O O11 0.750000 0.500000 0.089728
O O12 0.744959 0.634562 0.141478
O O13 0.257175 0.711652 0.742862
O O14 0.001220 0.716471 0.823882
O O15 0.500000 0.087496 0.750000
O O16 0.750000 0.000000 0.715388
O O17 0.264354 0.779493 0.620258
#
# Coordination Sequence:
#
# PCOD9422952 Si02
#       8
#     8   4   8   8   8   8   8   8
#     4  11  22  39  64  93 126 162 209 259 313 384
#     4  10  24  42  66  96 132 168 220 276 332 396
#     4  10  24  39  66  90 130 165 217 264 326 387
#     4  11  22  39  64  93 125 163 210 258 317 381
#     4  10  22  40  63  90 125 171 207 263 321 386
#     4  11  24  41  67  96 130 173 216 270 334 400
#     4  10  23  41  64  93 126 169 213 272 321 388
#     4  10  22  40  64  90 127 169 215 260 326 378
#
# _framework density 20.382984
#
# number of rings (size 3 to 8) (size 9 to 14) (size 15 to 20)
#    0.000    1.600    0.667    4.000    8.400    5.333 
#    0.000    0.000    0.000    0.000    0.000    0.000 
#    0.000    0.000    0.000    0.000    0.000    0.000 
#
# Total GULP energy -334550.055135 kJ/mol
# GULP energy per Si atom -5575.834252 kJ/mol
# Density = 2.033659 g / cm^3
# Si number density = 20.382984 Si / 1000 Ang^3
#
#
#
# Elastic Constant Matrix: (Units=GPa)
#
#
# Indices 1 2 3 4 5 6 
#
# 1 32.1877 11.9748 24.0005 0.0000 0.0000 0.0000
# 2 11.9748 74.5192 76.2768 0.0000 0.0000 0.0000
# 3 24.0005 76.2768 167.4162 0.0000 0.0000 0.0000
# 4 0.0000 0.0000 0.0000 17.8372 0.0000 0.0000
# 5 0.0000 0.0000 0.0000 0.0000 29.2121 0.0000
# 6 0.0000 0.0000 0.0000 0.0000 0.0000 6.7737
#
#
#
# Elastic Compliance Matrix: (Units=1/GPa)
#
#
# Indices 1 2 3 4 5 6 
#
# 1 0.034819 -0.000911 -0.004577 0.000000 0.000000 0.000000
# 2 -0.000911 0.025171 -0.011337 0.000000 0.000000 0.000000
# 3 -0.004577 -0.011337 0.011795 0.000000 0.000000 0.000000
# 4 0.000000 0.000000 0.000000 0.056062 0.000000 0.000000
# 5 0.000000 0.000000 0.000000 0.000000 0.034232 0.000000
# 6 0.000000 0.000000 0.000000 0.000000 0.000000 0.147629
#
#
# Mechanical properties :
#
#
# Convention : Reuss Voigt Hill
#
# Bulk Modulus (GPa) = 26.22268 55.40304 40.81286
# Shear Modulus (GPa) = 14.04221 21.55602 17.79911
#
# Velocity S-wave (km/s) = 2.62757 3.25553 2.95826
# Velocity P-wave (km/s) = 4.70090 6.43205 5.63337
#
# Compressibility (1/GPa) = 0.03813492
#
# Stress axis : x y z
#
# Youngs Moduli (GPa) = 28.71983 39.72899 84.78357
#
# Poissons Ratio (x) = 0.03617 0.38804
# Poissons Ratio (y) = 0.02615 0.96123
# Poissons Ratio (z) = 0.13144 0.45043
#
# Static dielectric constant tensor:
#      x y z
#    x 1.705870 0.000000 0.000000 
#    y 0.000000 1.705470 0.000000 
#    z 0.000000 0.000000 1.802460 
# 
# From -- ./inp_files/16831.got.cif
#   From: 2010.05.17/outbox.cif.g08.bks.cpg/sg54_9_cif.got.tgz:16831.got - 2010.06.03 13:09:01.
