data_PCOD9422036
_publ_section_title
;
Structure prediction by ZEFSAII (Michael W. Deem and Ramdas Pophale) SiO2 
 PCOD9422036
Probable space group: P C C A
;
_chemical_formula_sum "Si O2"
_cell_formula_units_Z 56
_cell_length_a 18.832474
_cell_length_b 9.012299
_cell_length_c 14.588693
_cell_angle_alpha 90.000000
_cell_angle_beta 90.000000
_cell_angle_gamma 90.000000
_cell_volume 2476.049676
_symmetry_space_group_name_H-M "P C C A"
_symmetry_group_IT_number 54
_symmetry_cell_setting 'orthorhombic'
loop_
_space_group_symop_operation_xyz
x,y,z
1/2-x,-y,z
1/2+x,-y,1/2-z
-x,y,1/2-z
-x,-y,-z
1/2+x,y,-z
1/2-x,y,1/2+z
x,-y,1/2+z
loop_
_atom_site_type_symbol
_atom_site_label
_atom_site_fract_x
_atom_site_fract_y
_atom_site_fract_z
Si Si1 0.093901 0.176343 0.888295
Si Si2 0.120662 0.949869 0.585482
Si Si3 0.260802 0.670165 0.889988
Si Si4 0.973496 0.884474 0.651608
Si Si5 0.812627 0.729364 0.421755
Si Si6 0.466630 0.340610 0.022670
Si Si7 0.719925 0.833255 0.268750
O O1 0.161439 0.273150 0.859385
O O2 0.083310 0.018811 0.836507
O O3 0.116795 0.130913 0.990093
O O4 0.021621 0.268411 0.904070
O O5 0.154136 0.849271 0.663776
O O6 0.040251 0.978801 0.612986
O O7 0.165694 0.097458 0.572382
O O8 0.250000 0.500000 0.868297
O O9 0.206082 0.766613 0.830163
O O10 0.241099 0.691512 0.996407
O O11 0.000000 0.823233 0.750000
O O12 0.960586 0.763688 0.570202
O O13 0.773573 0.724981 0.324363
O O14 0.887094 0.645718 0.436702
O O15 0.500000 0.500000 0.000000
O O16 0.750000 0.000000 0.258008
#
# Coordination Sequence:
#
# PCOD9422036 Si02
#       7
#     8   8   8   8   8   8   8
#     4  11  22  44  68  94 137 182 235 285 355 422
#     4  10  20  42  67 100 124 175 234 297 335 406
#     4  12  28  44  65 105 147 187 228 296 371 440
#     4  11  24  40  71 103 138 175 240 304 350 416
#     4  11  22  44  71  96 135 184 235 289 352 419
#     4  11  23  44  69 100 137 190 231 284 368 441
#     4  10  25  40  69 101 131 178 244 294 354 410
#
# _framework density 22.616671
#
# number of rings (size 3 to 8) (size 9 to 14) (size 15 to 20)
#    0.000    1.143    4.286    1.714    8.000    0.571 
#    5.143    0.714    0.000    0.000    0.000    0.000 
#    0.000    0.000    0.000    0.000    0.000    0.000 
#
# Total GULP energy -312753.630261 kJ/mol
# GULP energy per Si atom -5584.886255 kJ/mol
# Density = 2.256519 g / cm^3
# Si number density = 22.616671 Si / 1000 Ang^3
#
#
#
# Elastic Constant Matrix: (Units=GPa)
#
#
# Indices 1 2 3 4 5 6 
#
# 1 88.1680 31.2835 2.1736 0.0000 0.0000 0.0000
# 2 31.2835 88.8787 16.8319 0.0000 0.0000 0.0000
# 3 2.1736 16.8319 86.0725 0.0000 0.0000 0.0000
# 4 0.0000 0.0000 0.0000 15.3200 0.0000 0.0000
# 5 0.0000 0.0000 0.0000 0.0000 34.7975 0.0000
# 6 0.0000 0.0000 0.0000 0.0000 0.0000 29.8431
#
#
#
# Elastic Compliance Matrix: (Units=1/GPa)
#
#
# Indices 1 2 3 4 5 6 
#
# 1 0.012989 -0.004683 0.000588 0.000000 0.000000 0.000000
# 2 -0.004683 0.013373 -0.002497 0.000000 0.000000 0.000000
# 3 0.000588 -0.002497 0.012092 0.000000 0.000000 0.000000
# 4 0.000000 0.000000 0.000000 0.065274 0.000000 0.000000
# 5 0.000000 0.000000 0.000000 0.000000 0.028738 0.000000
# 6 0.000000 0.000000 0.000000 0.000000 0.000000 0.033509
#
#
# Mechanical properties :
#
#
# Convention : Reuss Voigt Hill
#
# Bulk Modulus (GPa) = 39.57452 40.41081 39.99267
# Shear Modulus (GPa) = 26.65515 30.18080 28.41797
#
# Velocity S-wave (km/s) = 3.43674 3.65697 3.54857
# Velocity P-wave (km/s) = 5.76925 5.97811 5.87461
#
# Compressibility (1/GPa) = 0.02526878
#
# Stress axis : x y z
#
# Youngs Moduli (GPa) = 76.98713 74.78012 82.70252
#
# Poissons Ratio (x) = 0.35021 -0.04861
# Poissons Ratio (y) = 0.36055 0.20649
# Poissons Ratio (z) = -0.04525 0.18671
#
# Static dielectric constant tensor:
#      x y z
#    x 2.130040 0.000000 0.000000 
#    y 0.000000 1.816280 0.000000 
#    z 0.000000 0.000000 1.840780 
# 
# From -- ./inp_files/14653.got.cif
#   From: 2010.05.17/outbox.cif.g08.bks.cpg/sg54_8_cif.got.tgz:14653.got - 2010.06.03 13:09:01.
