data_PCOD9422032
_publ_section_title
;
Structure prediction by ZEFSAII (Michael W. Deem and Ramdas Pophale) SiO2 
 PCOD9422032
Probable space group: P C C A
;
_chemical_formula_sum "Si O2"
_cell_formula_units_Z 44
_cell_length_a 16.137073
_cell_length_b 7.170138
_cell_length_c 17.832960
_cell_angle_alpha 90.000000
_cell_angle_beta 90.000000
_cell_angle_gamma 90.000000
_cell_volume 2063.363356
_symmetry_space_group_name_H-M "P C C A"
_symmetry_group_IT_number 54
_symmetry_cell_setting 'orthorhombic'
loop_
_space_group_symop_operation_xyz
x,y,z
1/2-x,-y,z
1/2+x,-y,1/2-z
-x,y,1/2-z
-x,-y,-z
1/2+x,y,-z
1/2-x,y,1/2+z
x,-y,1/2+z
loop_
_atom_site_type_symbol
_atom_site_label
_atom_site_fract_x
_atom_site_fract_y
_atom_site_fract_z
Si Si1 0.596979 0.206682 0.625574
Si Si2 0.901295 0.302612 0.962683
Si Si3 0.175909 0.155069 0.684465
Si Si4 0.500000 0.994816 0.750000
Si Si5 0.227794 0.707683 0.335370
Si Si6 0.085466 0.612450 0.424499
O O1 0.598809 0.172634 0.536486
O O2 0.532078 0.108753 0.678215
O O3 0.689740 0.173873 0.654795
O O4 0.578122 0.430347 0.629211
O O5 0.840623 0.241075 0.897238
O O6 0.995332 0.303657 0.933878
O O7 0.886757 0.511085 0.997762
O O8 0.205758 0.296347 0.748603
O O9 0.250000 0.000000 0.680419
O O10 0.084869 0.097999 0.717749
O O11 0.250000 0.500000 0.363077
O O12 0.149819 0.754010 0.387719
#
# Coordination Sequence:
#
# PCOD9422032 Si02
#       6
#     8   8   8   4   8   8
#     4   9  20  40  61  93 129 165 211 276 324 383
#     4   9  20  42  61  97 129 162 224 279 328 374
#     4  12  25  43  61 103 133 179 221 261 337 408
#     4  12  24  42  66  84 142 178 212 262 324 412
#     4  10  20  42  66  92 127 169 224 271 322 391
#     4   8  18  40  66  95 121 167 226 272 332 373
#
# _framework density 21.324407000000001
#
# number of rings (size 3 to 8) (size 9 to 14) (size 15 to 20)
#    1.091    1.091    1.818    1.091    0.000    3.636 
#    9.818    0.000    0.000    0.000    0.000    0.000 
#    0.000    0.000    0.000    0.000    0.000    0.000 
#
# Total GULP energy -245013.969250 kJ/mol
# GULP energy per Si atom -5568.499301 kJ/mol
# Density = 2.127587 g / cm^3
# Si number density = 21.324407 Si / 1000 Ang^3
#
#
#
# Elastic Constant Matrix: (Units=GPa)
#
#
# Indices 1 2 3 4 5 6 
#
# 1 116.5173 33.9048 67.7668 0.0000 0.0000 0.0000
# 2 33.9048 30.2129 16.0565 0.0000 0.0000 0.0000
# 3 67.7668 16.0565 124.8865 0.0000 0.0000 0.0000
# 4 0.0000 0.0000 0.0000 26.8358 0.0000 0.0000
# 5 0.0000 0.0000 0.0000 0.0000 43.1238 0.0000
# 6 0.0000 0.0000 0.0000 0.0000 0.0000 29.6487
#
#
#
# Elastic Compliance Matrix: (Units=1/GPa)
#
#
# Indices 1 2 3 4 5 6 
#
# 1 0.017483 -0.015647 -0.007475 0.000000 0.000000 0.000000
# 2 -0.015647 0.049529 0.002122 0.000000 0.000000 0.000000
# 3 -0.007475 0.002122 0.011791 0.000000 0.000000 0.000000
# 4 0.000000 0.000000 0.000000 0.037264 0.000000 0.000000
# 5 0.000000 0.000000 0.000000 0.000000 0.023189 0.000000
# 6 0.000000 0.000000 0.000000 0.000000 0.000000 0.033728
#
#
# Mechanical properties :
#
#
# Convention : Reuss Voigt Hill
#
# Bulk Modulus (GPa) = 27.17095 56.34143 41.75619
# Shear Modulus (GPa) = 22.00220 30.18089 26.09155
#
# Velocity S-wave (km/s) = 3.21563 3.76616 3.50173
# Velocity P-wave (km/s) = 5.15329 6.73724 5.99778
#
# Compressibility (1/GPa) = 0.03680401
#
# Stress axis : x y z
#
# Youngs Moduli (GPa) = 57.19896 20.19016 84.81372
#
# Poissons Ratio (x) = 0.31591 0.63398
# Poissons Ratio (y) = 0.89497 -0.18001
# Poissons Ratio (z) = 0.42756 -0.04285
#
# Static dielectric constant tensor:
#      x y z
#    x 1.854980 0.000000 0.000000 
#    y 0.000000 1.826170 0.000000 
#    z 0.000000 0.000000 1.751590 
# 
# From -- ./inp_files/13355.got.cif
#   From: 2010.05.17/outbox.cif.g08.bks.cpg/sg54_7_cif.got.tgz:13355.got - 2010.06.03 13:09:01.
