data_PCOD9422849
_publ_section_title
;
Structure prediction by ZEFSAII (Michael W. Deem and Ramdas Pophale) SiO2 
 PCOD9422849
Probable space group: P C C A
;
_chemical_formula_sum "Si O2"
_cell_formula_units_Z 48
_cell_length_a 8.414631
_cell_length_b 8.438737
_cell_length_c 32.280010
_cell_angle_alpha 90.000000
_cell_angle_beta 90.000000
_cell_angle_gamma 90.000000
_cell_volume 2292.166645
_symmetry_space_group_name_H-M "P C C A"
_symmetry_group_IT_number 54
_symmetry_cell_setting 'orthorhombic'
loop_
_space_group_symop_operation_xyz
x,y,z
1/2-x,-y,z
1/2+x,-y,1/2-z
-x,y,1/2-z
-x,-y,-z
1/2+x,y,-z
1/2-x,y,1/2+z
x,-y,1/2+z
loop_
_atom_site_type_symbol
_atom_site_label
_atom_site_fract_x
_atom_site_fract_y
_atom_site_fract_z
Si Si1 0.250000 0.000000 0.708856
Si Si2 0.902926 0.610383 0.078444
Si Si3 0.237033 0.814800 0.982789
Si Si4 0.000000 0.229736 0.750000
Si Si5 0.507207 0.593609 0.832777
Si Si6 0.141176 0.262977 0.151899
Si Si7 0.912119 0.309600 0.442233
O O1 0.355217 0.881583 0.735959
O O2 0.136442 0.894873 0.679165
O O3 0.750000 0.500000 0.070887
O O4 0.873222 0.760526 0.049834
O O5 0.909715 0.647214 0.127013
O O6 0.047831 0.494315 0.066582
O O7 0.068471 0.768961 0.962844
O O8 0.250000 0.000000 0.990841
O O9 0.274541 0.721254 0.024864
O O10 0.952683 0.338772 0.710986
O O11 0.683199 0.664835 0.840626
O O12 0.521986 0.402970 0.834159
O O13 0.119417 0.236731 0.103000
#
# Coordination Sequence:
#
# PCOD9422849 Si02
#       7
#     4   8   8   4   8   8   8
#     4  10  22  42  64  94 124 156 198 252 316 366
#     4   9  20  40  56  84 118 157 201 252 305 356
#     4  11  23  36  56  87 120 153 206 252 301 351
#     4  10  22  42  62  96 120 156 204 248 308 376
#     4   9  19  40  62  86 116 158 204 243 302 374
#     4   9  20  38  64  85 121 163 197 240 308 370
#     4  10  22  39  59  85 118 162 204 244 299 360
#
# _framework density 20.940887
#
# number of rings (size 3 to 8) (size 9 to 14) (size 15 to 20)
#    0.000    2.333    0.000    1.000    3.500    3.333 
#   22.500    0.000    0.000    0.000    0.000    0.000 
#    0.000    0.000    0.000    0.000    0.000    0.000 
#
# Total GULP energy -268166.493910 kJ/mol
# GULP energy per Si atom -5586.801956 kJ/mol
# Density = 2.089322 g / cm^3
# Si number density = 20.940887 Si / 1000 Ang^3
#
#
#
# Elastic Constant Matrix: (Units=GPa)
#
#
# Indices 1 2 3 4 5 6 
#
# 1 35.6535 14.0427 39.1497 0.0000 0.0000 0.0000
# 2 14.0427 67.3263 79.7749 0.0000 0.0000 0.0000
# 3 39.1497 79.7749 192.1946 0.0000 0.0000 0.0000
# 4 0.0000 0.0000 0.0000 -6.9004 0.0000 0.0000
# 5 0.0000 0.0000 0.0000 0.0000 35.2096 0.0000
# 6 0.0000 0.0000 0.0000 0.0000 0.0000 15.4311
#
#
#
# Elastic Compliance Matrix: (Units=1/GPa)
#
#
# Indices 1 2 3 4 5 6 
#
# 1 0.036316 0.002343 -0.008370 0.000000 0.000000 0.000000
# 2 0.002343 0.029379 -0.012672 0.000000 0.000000 0.000000
# 3 -0.008370 -0.012672 0.012168 0.000000 0.000000 0.000000
# 4 0.000000 0.000000 0.000000 -0.144919 0.000000 0.000000
# 5 0.000000 0.000000 0.000000 0.000000 0.028401 0.000000
# 6 0.000000 0.000000 0.000000 0.000000 0.000000 0.064804
#
#
# Mechanical properties :
#
#
# Convention : Reuss Voigt Hill
#
# Bulk Modulus (GPa) = 24.71278 62.34545 43.52911
# Shear Modulus (GPa) = 64.90602 19.56187 42.23395
#
# Velocity S-wave (km/s) = 5.57334 3.05970 4.49577
# Velocity P-wave (km/s) = 7.29678 6.50531 6.91238
#
# Compressibility (1/GPa) = 0.04046490
#
# Stress axis : x y z
#
# Youngs Moduli (GPa) = 27.53639 34.03781 82.18490
#
# Poissons Ratio (x) = -0.07975 0.68788
# Poissons Ratio (y) = -0.06451 1.04142
# Poissons Ratio (z) = 0.23048 0.43132
#
# Static dielectric constant tensor:
#      x y z
#    x 1.800530 0.000000 0.000000 
#    y 0.000000 1.742680 0.000000 
#    z 0.000000 0.000000 1.731430 
# 
# From -- ./inp_files/27831.got.cif
#   From: 2010.05.17/outbox.cif.g08.bks.cpg/sg54_14_cif.got.tgz:27831.got - 2010.06.03 13:09:01.
