data_PCOD9422959
_publ_section_title
;
Structure prediction by ZEFSAII (Michael W. Deem and Ramdas Pophale) SiO2 
 PCOD9422959
Probable space group: P C C A
;
_chemical_formula_sum "Si O2"
_cell_formula_units_Z 48
_cell_length_a 17.806016
_cell_length_b 13.106621
_cell_length_c 9.039902
_cell_angle_alpha 90.000000
_cell_angle_beta 90.000000
_cell_angle_gamma 90.000000
_cell_volume 2109.702526
_symmetry_space_group_name_H-M "P C C A"
_symmetry_group_IT_number 54
_symmetry_cell_setting 'orthorhombic'
loop_
_space_group_symop_operation_xyz
x,y,z
1/2-x,-y,z
1/2+x,-y,1/2-z
-x,y,1/2-z
-x,-y,-z
1/2+x,y,-z
1/2-x,y,1/2+z
x,-y,1/2+z
loop_
_atom_site_type_symbol
_atom_site_label
_atom_site_fract_x
_atom_site_fract_y
_atom_site_fract_z
Si Si1 0.581699 0.734273 0.688554
Si Si2 0.663477 0.479169 0.107389
Si Si3 0.068019 0.456776 0.154375
Si Si4 0.337959 0.096722 0.132677
Si Si5 0.674930 0.105242 0.720237
Si Si6 0.559783 0.775327 0.368007
O O1 0.500000 0.704447 0.750000
O O2 0.637624 0.638043 0.649947
O O3 0.615644 0.806171 0.815181
O O4 0.570468 0.803569 0.539731
O O5 0.750000 0.500000 0.065316
O O6 0.643010 0.547030 0.247747
O O7 0.600495 0.512795 0.987735
O O8 0.042054 0.344112 0.112870
O O9 0.000000 0.500063 0.250000
O O10 0.258677 0.106465 0.217133
O O11 0.367201 0.988727 0.196778
O O12 0.328102 0.093445 0.956028
O O13 0.636385 0.206674 0.780678
O O14 0.500000 0.819218 0.250000
#
# Coordination Sequence:
#
# PCOD9422959 Si02
#       6
#     8   8   8   8   8   8
#     4  11  24  43  65  97 136 177 231 280 346 417
#     4  11  24  41  64  97 132 171 229 285 341 411
#     4  10  22  41  64  90 129 175 221 277 343 410
#     4  11  23  40  66  97 133 182 222 280 339 402
#     4  11  22  41  65  96 138 174 228 278 335 400
#     4  10  22  40  63  94 128 173 223 276 337 402
#
# _framework density 22.752022
#
# number of rings (size 3 to 8) (size 9 to 14) (size 15 to 20)
#    0.000    1.333    0.000    6.500    2.333    4.667 
#    0.000    3.333    0.000    0.000    0.000    0.000 
#    0.000    0.000    0.000    0.000    0.000    0.000 
#
# Total GULP energy -267499.576368 kJ/mol
# GULP energy per Si atom -5572.907841 kJ/mol
# Density = 2.270024 g / cm^3
# Si number density = 22.752022 Si / 1000 Ang^3
#
#
#
# Elastic Constant Matrix: (Units=GPa)
#
#
# Indices 1 2 3 4 5 6 
#
# 1 100.9927 38.5409 32.8270 0.0000 0.0000 0.0000
# 2 38.5409 73.8889 22.0877 0.0000 0.0000 0.0000
# 3 32.8270 22.0877 181.9968 0.0000 0.0000 0.0000
# 4 0.0000 0.0000 0.0000 6.2653 0.0000 0.0000
# 5 0.0000 0.0000 0.0000 0.0000 43.1597 0.0000
# 6 0.0000 0.0000 0.0000 0.0000 0.0000 18.3378
#
#
#
# Elastic Compliance Matrix: (Units=1/GPa)
#
#
# Indices 1 2 3 4 5 6 
#
# 1 0.012771 -0.006198 -0.001551 0.000000 0.000000 0.000000
# 2 -0.006198 0.017051 -0.000951 0.000000 0.000000 0.000000
# 3 -0.001551 -0.000951 0.005890 0.000000 0.000000 0.000000
# 4 0.000000 0.000000 0.000000 0.159608 0.000000 0.000000
# 5 0.000000 0.000000 0.000000 0.000000 0.023170 0.000000
# 6 0.000000 0.000000 0.000000 0.000000 0.000000 0.054532
#
#
# Mechanical properties :
#
#
# Convention : Reuss Voigt Hill
#
# Bulk Modulus (GPa) = 54.61230 60.42109 57.51669
# Shear Modulus (GPa) = 16.86186 31.11409 23.98798
#
# Velocity S-wave (km/s) = 2.72530 3.70203 3.25056
# Velocity P-wave (km/s) = 5.82738 6.69980 6.27876
#
# Compressibility (1/GPa) = 0.01831089
#
# Stress axis : x y z
#
# Youngs Moduli (GPa) = 78.30138 58.64737 169.78219
#
# Poissons Ratio (x) = 0.36348 0.26340
# Poissons Ratio (y) = 0.48529 0.16154
# Poissons Ratio (z) = 0.12147 0.05580
#
# Static dielectric constant tensor:
#      x y z
#    x 1.981310 0.000000 0.000000 
#    y 0.000000 1.943700 0.000000 
#    z 0.000000 0.000000 2.066840 
# 
# From -- ./inp_files/4186.got.cif
#   From: 2010.05.17/outbox.cif.g08.bks.cpg/sg54_3_cif.got.tgz:4186.got - 2010.06.03 13:09:01.
