data_PCOD9422486
_publ_section_title
;
Structure prediction by ZEFSAII (Michael W. Deem and Ramdas Pophale) SiO2 
 PCOD9422486
Probable space group: P C C A
;
_chemical_formula_sum "Si O2"
_cell_formula_units_Z 56
_cell_length_a 21.650511
_cell_length_b 5.307612
_cell_length_c 20.789298
_cell_angle_alpha 90.000000
_cell_angle_beta 90.000000
_cell_angle_gamma 90.000000
_cell_volume 2388.950456
_symmetry_space_group_name_H-M "P C C A"
_symmetry_group_IT_number 54
_symmetry_cell_setting 'orthorhombic'
loop_
_space_group_symop_operation_xyz
x,y,z
1/2-x,-y,z
1/2+x,-y,1/2-z
-x,y,1/2-z
-x,-y,-z
1/2+x,y,-z
1/2-x,y,1/2+z
x,-y,1/2+z
loop_
_atom_site_type_symbol
_atom_site_label
_atom_site_fract_x
_atom_site_fract_y
_atom_site_fract_z
Si Si1 0.904747 0.643021 0.136272
Si Si2 0.932338 0.275456 0.250224
Si Si3 0.035369 0.077281 0.435885
Si Si4 0.183051 0.992907 0.806570
Si Si5 0.131327 0.103240 0.539754
Si Si6 0.188089 0.663471 0.937807
Si Si7 0.576742 0.604440 0.395889
O O1 0.933766 0.461893 0.189460
O O2 0.872903 0.519558 0.073365
O O3 0.952734 0.865430 0.117795
O O4 0.843488 0.741308 0.172175
O O5 0.872096 0.110458 0.237061
O O6 0.921700 0.401452 0.319126
O O7 0.000000 0.145980 0.250000
O O8 0.102286 0.086916 0.467813
O O9 0.993704 0.313348 0.414750
O O10 0.000000 0.000000 0.500000
O O11 0.188417 0.835143 0.872955
O O12 0.250000 0.000000 0.775360
O O13 0.194334 0.210113 0.509697
O O14 0.097741 0.335868 0.576087
O O15 0.118040 0.841501 0.576526
O O16 0.250000 0.500000 0.932489
#
# Coordination Sequence:
#
# PCOD9422486 Si02
#       7
#     8   8   8   8   8   8   8
#     4  11  23  41  70 104 142 185 247 307 378 436
#     4  11  28  43  69 106 150 198 258 317 377 454
#     4  10  21  39  70 101 141 184 231 291 369 444
#     4  11  23  44  72 103 140 189 251 317 378 444
#     4  11  24  43  69 101 141 186 235 295 370 451
#     4  11  22  40  69 107 136 177 240 315 376 439
#     4  11  26  45  66  99 147 193 238 291 372 441
#
# _framework density 23.441255000000002
#
# number of rings (size 3 to 8) (size 9 to 14) (size 15 to 20)
#    0.000    1.143    2.857    3.000    8.000    0.571 
#    0.000    1.429    0.000    0.000    0.000    0.000 
#    0.000    0.000    0.000    0.000    0.000    0.000 
#
# Total GULP energy -312083.776266 kJ/mol
# GULP energy per Si atom -5572.924576 kJ/mol
# Density = 2.338790 g / cm^3
# Si number density = 23.441255 Si / 1000 Ang^3
#
#
#
# Elastic Constant Matrix: (Units=GPa)
#
#
# Indices 1 2 3 4 5 6 
#
# 1 99.0684 18.1186 30.4310 0.0000 0.0000 0.0000
# 2 18.1186 81.4067 17.0331 0.0000 0.0000 0.0000
# 3 30.4310 17.0331 82.9257 0.0000 0.0000 0.0000
# 4 0.0000 0.0000 0.0000 15.6994 0.0000 0.0000
# 5 0.0000 0.0000 0.0000 0.0000 25.7868 0.0000
# 6 0.0000 0.0000 0.0000 0.0000 0.0000 36.3253
#
#
#
# Elastic Compliance Matrix: (Units=1/GPa)
#
#
# Indices 1 2 3 4 5 6 
#
# 1 0.011615 -0.001769 -0.003899 0.000000 0.000000 0.000000
# 2 -0.001769 0.013105 -0.002043 0.000000 0.000000 0.000000
# 3 -0.003899 -0.002043 0.013909 0.000000 0.000000 0.000000
# 4 0.000000 0.000000 0.000000 0.063697 0.000000 0.000000
# 5 0.000000 0.000000 0.000000 0.000000 0.038779 0.000000
# 6 0.000000 0.000000 0.000000 0.000000 0.000000 0.027529
#
#
# Mechanical properties :
#
#
# Convention : Reuss Voigt Hill
#
# Bulk Modulus (GPa) = 43.08862 43.84069 43.46465
# Shear Modulus (GPa) = 26.06981 28.75018 27.40999
#
# Velocity S-wave (km/s) = 3.33848 3.50591 3.42322
# Velocity P-wave (km/s) = 5.76906 5.92718 5.84866
#
# Compressibility (1/GPa) = 0.02320799
#
# Stress axis : x y z
#
# Youngs Moduli (GPa) = 86.09336 76.30571 71.89422
#
# Poissons Ratio (x) = 0.13502 0.28032
# Poissons Ratio (y) = 0.15233 0.14684
# Poissons Ratio (z) = 0.33568 0.15586
#
# Static dielectric constant tensor:
#      x y z
#    x 14.835190 0.000000 0.000000 
#    y 0.000000 5.191290 0.000000 
#    z 0.000000 0.000000 2.898350 
# 
# From -- ./inp_files/22292.got.cif
#   From: 2010.05.17/outbox.cif.g08.bks.cpg/sg54_12_cif.got.tgz:22292.got - 2010.06.03 13:09:01.
