data_PCOD9422648
_publ_section_title
;
Structure prediction by ZEFSAII (Michael W. Deem and Ramdas Pophale) SiO2 
 PCOD9422648
Probable space group: P C C A
;
_chemical_formula_sum "Si O2"
_cell_formula_units_Z 48
_cell_length_a 9.129283
_cell_length_b 16.724652
_cell_length_c 15.202569
_cell_angle_alpha 90.000000
_cell_angle_beta 90.000000
_cell_angle_gamma 90.000000
_cell_volume 2321.190279
_symmetry_space_group_name_H-M "P C C A"
_symmetry_group_IT_number 54
_symmetry_cell_setting 'orthorhombic'
loop_
_space_group_symop_operation_xyz
x,y,z
1/2-x,-y,z
1/2+x,-y,1/2-z
-x,y,1/2-z
-x,-y,-z
1/2+x,y,-z
1/2-x,y,1/2+z
x,-y,1/2+z
loop_
_atom_site_type_symbol
_atom_site_label
_atom_site_fract_x
_atom_site_fract_y
_atom_site_fract_z
Si Si1 0.912378 0.189835 0.339495
Si Si2 0.419720 0.015482 0.591094
Si Si3 0.908134 0.766849 0.356228
Si Si4 0.500000 0.894667 0.750000
Si Si5 0.000000 0.380576 0.750000
Si Si6 0.824943 0.416982 0.580796
Si Si7 0.954155 0.316562 0.034891
O O1 0.954464 0.106679 0.383909
O O2 0.737365 0.186342 0.328905
O O3 0.000000 0.196607 0.250000
O O4 0.949472 0.267668 0.396422
O O5 0.250000 0.000000 0.573762
O O6 0.500000 0.000000 0.500000
O O7 0.454564 0.959107 0.674787
O O8 0.905704 0.681139 0.308544
O O9 0.913547 0.746612 0.458369
O O10 0.041022 0.822958 0.322620
O O11 0.099640 0.424668 0.822550
O O12 0.750000 0.500000 0.554788
O O13 0.692692 0.352588 0.577744
O O14 0.947968 0.384843 0.512953
#
# Coordination Sequence:
#
# PCOD9422648 Si02
#       7
#     8   8   8   4   4   8   8
#     4  12  24  40  66  98 131 176 233 285 346 411
#     4  12  27  44  66 101 139 187 239 298 360 413
#     4  10  21  42  68  94 132 186 220 283 343 409
#     4  11  22  46  66  95 142 178 234 293 350 416
#     4   9  22  42  66  99 142 180 230 271 356 416
#     4  11  23  45  71 106 141 184 223 294 353 427
#     4  11  23  44  71 103 140 177 240 276 353 428
#
# _framework density 20.679047000000001
#
# number of rings (size 3 to 8) (size 9 to 14) (size 15 to 20)
#    0.000    1.000    4.167    2.500    0.000    2.000 
#    4.500    1.667    0.000    0.000    0.000    0.000 
#    0.000    0.000    0.000    0.000    0.000    0.000 
#
# Total GULP energy -267236.669259 kJ/mol
# GULP energy per Si atom -5567.430610 kJ/mol
# Density = 2.063198 g / cm^3
# Si number density = 20.679047 Si / 1000 Ang^3
#
#
#
# Elastic Constant Matrix: (Units=GPa)
#
#
# Indices 1 2 3 4 5 6 
#
# 1 67.4434 28.5639 66.7078 0.0000 0.0000 0.0000
# 2 28.5639 78.4573 37.6374 0.0000 0.0000 0.0000
# 3 66.7078 37.6374 139.3878 0.0000 0.0000 0.0000
# 4 0.0000 0.0000 0.0000 21.7239 0.0000 0.0000
# 5 0.0000 0.0000 0.0000 0.0000 26.2629 0.0000
# 6 0.0000 0.0000 0.0000 0.0000 0.0000 25.0693
#
#
#
# Elastic Compliance Matrix: (Units=1/GPa)
#
#
# Indices 1 2 3 4 5 6 
#
# 1 0.029509 -0.004559 -0.012891 0.000000 0.000000 0.000000
# 2 -0.004559 0.015347 -0.001962 0.000000 0.000000 0.000000
# 3 -0.012891 -0.001962 0.013873 0.000000 0.000000 0.000000
# 4 0.000000 0.000000 0.000000 0.046032 0.000000 0.000000
# 5 0.000000 0.000000 0.000000 0.000000 0.038077 0.000000
# 6 0.000000 0.000000 0.000000 0.000000 0.000000 0.039889
#
#
# Mechanical properties :
#
#
# Convention : Reuss Voigt Hill
#
# Bulk Modulus (GPa) = 50.24024 61.23407 55.73716
# Shear Modulus (GPa) = 21.91190 24.76984 23.34087
#
# Velocity S-wave (km/s) = 3.25871 3.46471 3.36329
# Velocity P-wave (km/s) = 6.20539 6.75882 6.48801
#
# Compressibility (1/GPa) = 0.01990436
#
# Stress axis : x y z
#
# Youngs Moduli (GPa) = 33.88838 65.16001 72.08025
#
# Poissons Ratio (x) = 0.29707 0.92920
# Poissons Ratio (y) = 0.15450 0.14143
# Poissons Ratio (z) = 0.43686 0.12785
#
# Static dielectric constant tensor:
#      x y z
#    x 1.625760 0.000000 0.000000 
#    y 0.000000 1.714700 0.000000 
#    z 0.000000 0.000000 1.759430 
# 
# From -- ./inp_files/11774.got.cif
#   From: 2010.05.17/outbox.cif.g08.bks.cpg/sg54_6_cif.got.tgz:11774.got - 2010.06.03 13:09:01.
