data_PCOD9422868
_publ_section_title
;
Structure prediction by ZEFSAII (Michael W. Deem and Ramdas Pophale) SiO2 
 PCOD9422868
Probable space group: P C C A
;
_chemical_formula_sum "Si O2"
_cell_formula_units_Z 40
_cell_length_a 4.759251
_cell_length_b 30.812591
_cell_length_c 11.412803
_cell_angle_alpha 90.000000
_cell_angle_beta 90.000000
_cell_angle_gamma 90.000000
_cell_volume 1673.628836
_symmetry_space_group_name_H-M "P C C A"
_symmetry_group_IT_number 54
_symmetry_cell_setting 'orthorhombic'
loop_
_space_group_symop_operation_xyz
x,y,z
1/2-x,-y,z
1/2+x,-y,1/2-z
-x,y,1/2-z
-x,-y,-z
1/2+x,y,-z
1/2-x,y,1/2+z
x,-y,1/2+z
loop_
_atom_site_type_symbol
_atom_site_label
_atom_site_fract_x
_atom_site_fract_y
_atom_site_fract_z
Si Si1 0.397582 0.896691 0.420357
Si Si2 0.500000 0.326125 0.250000
Si Si3 0.767236 0.398126 0.577506
Si Si4 0.000000 0.733111 0.750000
Si Si5 0.500000 0.529809 0.750000
Si Si6 0.500000 0.029317 0.750000
Si Si7 0.740686 0.196900 0.079615
O O1 0.719686 0.897936 0.460000
O O2 0.352060 0.938363 0.341622
O O3 0.312663 0.850254 0.366625
O O4 0.357816 0.356434 0.347795
O O5 0.752004 0.296910 0.301201
O O6 0.941704 0.398161 0.456242
O O7 0.858566 0.439748 0.652311
O O8 0.157068 0.763947 0.841825
O O9 0.750000 0.500000 0.799479
O O10 0.250000 0.000000 0.698457
O O11 0.418140 0.198860 0.041766
#
# Coordination Sequence:
#
# PCOD9422868 Si02
#       7
#     8   4   8   4   4   4   8
#     4  10  22  41  61  83 117 153 188 238 293 346
#     4  11  26  40  59  91 122 161 203 244 290 349
#     4  11  24  43  64  87 124 168 202 241 299 356
#     4  12  23  39  62  89 122 153 196 253 295 336
#     4  11  24  41  64  98 126 150 204 259 298 355
#     4  12  25  38  59  88 114 150 195 234 285 350
#     4  10  22  39  61  88 115 151 195 239 295 353
#
# _framework density 23.900164
#
# number of rings (size 3 to 8) (size 9 to 14) (size 15 to 20)
#    0.000    1.200    0.000    5.400    0.000   12.800 
#    0.000    8.000    0.000    0.000    0.000    0.000 
#    0.000    0.000    0.000    0.000    0.000    0.000 
#
# Total GULP energy -224005.247852 kJ/mol
# GULP energy per Si atom -5600.131196 kJ/mol
# Density = 2.384577 g / cm^3
# Si number density = 23.900164 Si / 1000 Ang^3
#
#
#
# Elastic Constant Matrix: (Units=GPa)
#
#
# Indices 1 2 3 4 5 6 
#
# 1 74.8361 17.1734 -14.3058 0.0000 0.0000 0.0000
# 2 17.1734 130.8994 17.1285 0.0000 0.0000 0.0000
# 3 -14.3058 17.1285 30.2596 0.0000 0.0000 0.0000
# 4 0.0000 0.0000 0.0000 15.2451 0.0000 0.0000
# 5 0.0000 0.0000 0.0000 0.0000 33.5334 0.0000
# 6 0.0000 0.0000 0.0000 0.0000 0.0000-3313.9648
#
#
#
# Elastic Compliance Matrix: (Units=1/GPa)
#
#
# Indices 1 2 3 4 5 6 
#
# 1 0.015923 -0.003320 0.009407 0.000000 0.000000 0.000000
# 2 -0.003320 0.008943 -0.006632 0.000000 0.000000 0.000000
# 3 0.009407 -0.006632 0.041249 0.000000 0.000000 0.000000
# 4 0.000000 0.000000 0.000000 0.065595 0.000000 0.000000
# 5 0.000000 0.000000 0.000000 0.000000 0.029821 0.000000
# 6 0.000000 0.000000 0.000000 0.000000 0.000000 -0.000302
#
#
# Mechanical properties :
#
#
# Convention : Reuss Voigt Hill
#
# Bulk Modulus (GPa) = 15.37875 30.66526 23.02201
# Shear Modulus (GPa) = 27.17509 -638.63731 -305.73111
#
# Velocity S-wave (km/s) = 3.37564 -16.36431 -11.32245
# Velocity P-wave (km/s) = 4.65207 18.55251 12.69948
#
# Compressibility (1/GPa) = 0.06502478
#
# Stress axis : x y z
#
# Youngs Moduli (GPa) = 62.80373 111.82214 24.24330
#
# Poissons Ratio (x) = 0.37124 -0.22806
# Poissons Ratio (y) = 0.20850 0.16077
# Poissons Ratio (z) = -0.59079 0.74156
#
# Static dielectric constant tensor:
#      x y z
#    x 1.842230 0.000000 0.000000 
#    y 0.000000 1.905930 0.000000 
#    z 0.000000 0.000000 1.882350 
# 
# From -- ./inp_files/6480.got.cif
#   From: 2010.05.17/outbox.cif.g08.bks.cpg/sg54_4_cif.got.tgz:6480.got - 2010.06.03 13:09:01.
