data_PCOD9422298
_publ_section_title
;
Structure prediction by ZEFSAII (Michael W. Deem and Ramdas Pophale) SiO2 
 PCOD9422298
Probable space group: P C C A
;
_chemical_formula_sum "Si O2"
_cell_formula_units_Z 40
_cell_length_a 5.166736
_cell_length_b 26.055014
_cell_length_c 13.821123
_cell_angle_alpha 90.000000
_cell_angle_beta 90.000000
_cell_angle_gamma 90.000000
_cell_volume 1860.590993
_symmetry_space_group_name_H-M "P C C A"
_symmetry_group_IT_number 54
_symmetry_cell_setting 'orthorhombic'
loop_
_space_group_symop_operation_xyz
x,y,z
1/2-x,-y,z
1/2+x,-y,1/2-z
-x,y,1/2-z
-x,-y,-z
1/2+x,y,-z
1/2-x,y,1/2+z
x,-y,1/2+z
loop_
_atom_site_type_symbol
_atom_site_label
_atom_site_fract_x
_atom_site_fract_y
_atom_site_fract_z
Si Si1 0.969645 0.442603 0.958538
Si Si2 0.150259 0.274914 0.068569
Si Si3 0.753179 0.837834 0.435643
Si Si4 0.825914 0.947393 0.932840
Si Si5 0.500000 0.344569 0.750000
Si Si6 0.500000 0.587064 0.750000
O O1 0.941103 0.445387 0.844858
O O2 0.228209 0.415405 0.993219
O O3 0.000000 0.500000 0.000000
O O4 0.179715 0.216566 0.110299
O O5 0.093104 0.311526 0.158408
O O6 0.414506 0.281272 0.007465
O O7 0.548224 0.838362 0.525837
O O8 0.708285 0.892099 0.382787
O O9 0.750000 0.000000 0.878343
O O10 0.612203 0.948069 0.020478
O O11 0.251352 0.379347 0.773830
#
# Coordination Sequence:
#
# PCOD9422298 Si02
#       6
#     8   8   8   8   4   4
#     4  10  23  42  67  94 123 159 193 230 282 337
#     4  10  21  38  58  80 114 153 194 242 287 344
#     4   8  14  25  42  64  93 134 176 219 273 327
#     4   8  12  18  31  55  88 122 162 214 267 322
#     4  12  26  40  61  90 120 157 198 240 296 340
#     4  12  26  42  63  94 124 151 194 242 280 344
#
# _framework density 21.498546999999999
#
# number of rings (size 3 to 8) (size 9 to 14) (size 15 to 20)
#    0.000    2.400    0.000    2.400    0.000    8.000 
#    0.000    0.000    0.000    0.000    0.000    0.000 
#    0.000   35.200    0.000    0.000    0.000   44.000 
#
# Total GULP energy -222924.424030 kJ/mol
# GULP energy per Si atom -5573.110601 kJ/mol
# Density = 2.144962 g / cm^3
# Si number density = 21.498547 Si / 1000 Ang^3
#
#
#
# Elastic Constant Matrix: (Units=GPa)
#
#
# Indices 1 2 3 4 5 6 
#
# 1 146.8993 4.3018 8.0745 0.0000 0.0000 0.0000
# 2 4.3018 101.7867 36.6308 0.0000 0.0000 0.0000
# 3 8.0745 36.6308 88.3447 0.0000 0.0000 0.0000
# 4 0.0000 0.0000 0.0000 -2.8832 0.0000 0.0000
# 5 0.0000 0.0000 0.0000 0.0000 17.6686 0.0000
# 6 0.0000 0.0000 0.0000 0.0000 0.0000 26.8868
#
#
#
# Elastic Compliance Matrix: (Units=1/GPa)
#
#
# Indices 1 2 3 4 5 6 
#
# 1 0.006842 -0.000075 -0.000594 0.000000 0.000000 0.000000
# 2 -0.000075 0.011548 -0.004781 0.000000 0.000000 0.000000
# 3 -0.000594 -0.004781 0.013356 0.000000 0.000000 0.000000
# 4 0.000000 0.000000 0.000000 -0.346842 0.000000 0.000000
# 5 0.000000 0.000000 0.000000 0.000000 0.056598 0.000000
# 6 0.000000 0.000000 0.000000 0.000000 0.000000 0.037193
#
#
# Mechanical properties :
#
#
# Convention : Reuss Voigt Hill
#
# Bulk Modulus (GPa) = 47.97337 48.33831 48.15584
# Shear Modulus (GPa) = -24.57549 27.53603 1.48027
#
# Velocity S-wave (km/s) = -3.38468 3.58275 0.83069
# Velocity P-wave (km/s) = 2.66241 6.29667 4.83407
#
# Compressibility (1/GPa) = 0.02084490
#
# Stress axis : x y z
#
# Youngs Moduli (GPa) = 146.15082 86.59215 74.87181
#
# Poissons Ratio (x) = 0.00653 0.04448
# Poissons Ratio (y) = 0.01101 0.35800
# Poissons Ratio (z) = 0.08683 0.41404
#
# Static dielectric constant tensor:
#      x y z
#    x 1.834990 0.000000 0.000000 
#    y 0.000000 1.850300 0.000000 
#    z 0.000000 0.000000 1.721360 
# 
# From -- ./inp_files/6443.got.cif
#   From: 2010.05.17/outbox.cif.g08.bks.cpg/sg54_4_cif.got.tgz:6443.got - 2010.06.03 13:09:01.
