data_PCOD9422097
_publ_section_title
;
Structure prediction by ZEFSAII (Michael W. Deem and Ramdas Pophale) SiO2 
 PCOD9422097
Probable space group: P C C A
;
_chemical_formula_sum "Si O2"
_cell_formula_units_Z 64
_cell_length_a 23.508630
_cell_length_b 12.267109
_cell_length_c 11.298478
_cell_angle_alpha 90.000000
_cell_angle_beta 90.000000
_cell_angle_gamma 90.000000
_cell_volume 3258.288152
_symmetry_space_group_name_H-M "P C C A"
_symmetry_group_IT_number 54
_symmetry_cell_setting 'orthorhombic'
loop_
_space_group_symop_operation_xyz
x,y,z
1/2-x,-y,z
1/2+x,-y,1/2-z
-x,y,1/2-z
-x,-y,-z
1/2+x,y,-z
1/2-x,y,1/2+z
x,-y,1/2+z
loop_
_atom_site_type_symbol
_atom_site_label
_atom_site_fract_x
_atom_site_fract_y
_atom_site_fract_z
Si Si1 0.161435 0.576169 0.603357
Si Si2 0.817349 0.106779 0.344189
Si Si3 0.310895 0.751798 0.922661
Si Si4 0.528726 0.618206 0.367245
Si Si5 0.140895 0.341897 0.545988
Si Si6 0.818504 0.861877 0.317649
Si Si7 0.988847 0.632634 0.382514
Si Si8 0.687166 0.290637 0.684801
O O1 0.168942 0.637019 0.477444
O O2 0.096244 0.598026 0.643564
O O3 0.172553 0.448238 0.595677
O O4 0.199960 0.635264 0.701089
O O5 0.822381 0.162132 0.472253
O O6 0.749533 0.117613 0.317858
O O7 0.841537 0.183232 0.240727
O O8 0.840135 0.984378 0.338039
O O9 0.336934 0.803265 0.803987
O O10 0.244827 0.735137 0.886757
O O11 0.500000 0.669947 0.250000
O O12 0.499628 0.497857 0.375790
O O13 0.519710 0.672523 0.496966
O O14 0.165936 0.226013 0.583933
O O15 0.077198 0.350206 0.591029
O O16 0.145293 0.349432 0.405145
O O17 0.000000 0.676886 0.250000
#
# Coordination Sequence:
#
# PCOD9422097 Si02
#       8
#     8   8   8   8   8   8   8   8
#     4  10  23  36  55  83 123 156 190 229 287 370
#     4   9  20  38  55  77 104 142 196 246 272 320
#     4  10  21  38  52  80 114 151 188 228 283 339
#     4   9  17  34  56  77 109 157 193 237 288 335
#     4  11  22  35  56  85 115 151 191 230 293 353
#     4  10  21  33  58  78 104 145 188 239 284 320
#     4   9  19  32  53  82 113 143 191 243 289 343
#     4  10  21  39  53  80 113 152 194 228 282 343
#
# _framework density 19.642216999999999
#
# number of rings (size 3 to 8) (size 9 to 14) (size 15 to 20)
#    0.000    2.250    1.250    0.750    5.250    3.500 
#    2.250    0.000    0.000    0.000    0.000   11.375 
#    0.000    0.000    0.000    0.000    0.000    0.000 
#
# Total GULP energy -356516.446213 kJ/mol
# GULP energy per Si atom -5570.569472 kJ/mol
# Density = 1.959751 g / cm^3
# Si number density = 19.642217 Si / 1000 Ang^3
#
#
#
# Elastic Constant Matrix: (Units=GPa)
#
#
# Indices 1 2 3 4 5 6 
#
# 1 22.4835 17.0136 24.1678 0.0000 0.0000 0.0000
# 2 17.0136 101.9877 14.9164 0.0000 0.0000 0.0000
# 3 24.1678 14.9164 100.4930 0.0000 0.0000 0.0000
# 4 0.0000 0.0000 0.0000 13.5570 0.0000 0.0000
# 5 0.0000 0.0000 0.0000 0.0000 23.3994 0.0000
# 6 0.0000 0.0000 0.0000 0.0000 0.0000 2.6146
#
#
#
# Elastic Compliance Matrix: (Units=1/GPa)
#
#
# Indices 1 2 3 4 5 6 
#
# 1 0.067274 -0.009053 -0.014835 0.000000 0.000000 0.000000
# 2 -0.009053 0.011241 0.000509 0.000000 0.000000 0.000000
# 3 -0.014835 0.000509 0.013443 0.000000 0.000000 0.000000
# 4 0.000000 0.000000 0.000000 0.073763 0.000000 0.000000
# 5 0.000000 0.000000 0.000000 0.000000 0.042736 0.000000
# 6 0.000000 0.000000 0.000000 0.000000 0.000000 0.382474
#
#
# Mechanical properties :
#
#
# Convention : Reuss Voigt Hill
#
# Bulk Modulus (GPa) = 22.12426 37.46220 29.79323
# Shear Modulus (GPa) = 7.65982 19.17194 13.41588
#
# Velocity S-wave (km/s) = 1.97690 3.12758 2.61629
# Velocity P-wave (km/s) = 4.06189 5.67063 4.93229
#
# Compressibility (1/GPa) = 0.04519926
#
# Stress axis : x y z
#
# Youngs Moduli (GPa) = 14.86459 88.96060 74.38722
#
# Poissons Ratio (x) = 0.80536 1.10354
# Poissons Ratio (y) = 0.13457 -0.03784
# Poissons Ratio (z) = 0.22052 -0.04525
#
# Static dielectric constant tensor:
#      x y z
#    x 1.714170 0.000000 0.000000 
#    y 0.000000 1.718980 0.000000 
#    z 0.000000 0.000000 1.750590 
# 
# From -- ./inp_files/10059.got.cif
#   From: 2010.05.17/outbox.cif.g08.bks.cpg/sg54_6_cif.got.tgz:10059.got - 2010.06.03 13:09:01.
