data_PCOD9422696
_publ_section_title
;
Structure prediction by ZEFSAII (Michael W. Deem and Ramdas Pophale) SiO2 
 PCOD9422696
Probable space group: P C C A
;
_chemical_formula_sum "Si O2"
_cell_formula_units_Z 40
_cell_length_a 15.777758
_cell_length_b 4.908472
_cell_length_c 22.163209
_cell_angle_alpha 90.000000
_cell_angle_beta 90.000000
_cell_angle_gamma 90.000000
_cell_volume 1716.422703
_symmetry_space_group_name_H-M "P C C A"
_symmetry_group_IT_number 54
_symmetry_cell_setting 'orthorhombic'
loop_
_space_group_symop_operation_xyz
x,y,z
1/2-x,-y,z
1/2+x,-y,1/2-z
-x,y,1/2-z
-x,-y,-z
1/2+x,y,-z
1/2-x,y,1/2+z
x,-y,1/2+z
loop_
_atom_site_type_symbol
_atom_site_label
_atom_site_fract_x
_atom_site_fract_y
_atom_site_fract_z
Si Si1 0.250000 0.000000 0.249893
Si Si2 0.980682 0.789193 0.182654
Si Si3 0.405578 0.546959 0.585706
Si Si4 0.436256 0.209797 0.966995
Si Si5 0.118576 0.275138 0.340716
Si Si6 0.750000 0.500000 0.836256
O O1 0.311886 0.836762 0.295001
O O2 0.221324 0.754430 0.205417
O O3 0.901049 0.596706 0.162840
O O4 0.000000 0.699905 0.250000
O O5 0.055036 0.748422 0.135064
O O6 0.962906 0.108879 0.182546
O O7 0.490861 0.393359 0.564269
O O8 0.379924 0.677453 0.521901
O O9 0.327787 0.409272 0.620349
O O10 0.375207 0.165139 0.909607
O O11 0.500000 0.000000 0.000000
#
# Coordination Sequence:
#
# PCOD9422696 Si02
#       6
#     4   8   8   8   8   4
#     4  12  26  46  62 100 144 176 226 276 346 410
#     4  11  21  37  66  93 124 172 229 267 326 393
#     4  10  23  42  65 101 131 177 224 280 335 398
#     4  10  21  43  69  95 131 170 235 279 321 403
#     4  11  23  40  64  93 129 176 213 280 328 387
#     4  12  28  46  68  98 144 178 216 284 346 406
#
# _framework density 23.304283999999999
#
# number of rings (size 3 to 8) (size 9 to 14) (size 15 to 20)
#    0.000    1.200    2.000    4.200    2.800    1.600 
#    3.600    0.000    0.000    0.000    0.000    0.000 
#    0.000    0.000    0.000    0.000    0.000    0.000 
#
# Total GULP energy -222738.850227 kJ/mol
# GULP energy per Si atom -5568.471256 kJ/mol
# Density = 2.325124 g / cm^3
# Si number density = 23.304284 Si / 1000 Ang^3
#
#
#
# Elastic Constant Matrix: (Units=GPa)
#
#
# Indices 1 2 3 4 5 6 
#
# 1 46.7934 -6.1449 44.3338 0.0000 0.0000 0.0000
# 2 -6.1449 70.0171 31.5761 0.0000 0.0000 0.0000
# 3 44.3338 31.5761 210.9749 0.0000 0.0000 0.0000
# 4 0.0000 0.0000 0.0000 38.9645 0.0000 0.0000
# 5 0.0000 0.0000 0.0000 0.0000 38.0947 0.0000
# 6 0.0000 0.0000 0.0000 0.0000 0.0000 20.7012
#
#
#
# Elastic Compliance Matrix: (Units=1/GPa)
#
#
# Indices 1 2 3 4 5 6 
#
# 1 0.028591 0.005597 -0.006846 0.000000 0.000000 0.000000
# 2 0.005597 0.016411 -0.003632 0.000000 0.000000 0.000000
# 3 -0.006846 -0.003632 0.006722 0.000000 0.000000 0.000000
# 4 0.000000 0.000000 0.000000 0.025664 0.000000 0.000000
# 5 0.000000 0.000000 0.000000 0.000000 0.026250 0.000000
# 6 0.000000 0.000000 0.000000 0.000000 0.000000 0.048306
#
#
# Mechanical properties :
#
#
# Convention : Reuss Voigt Hill
#
# Bulk Modulus (GPa) = 23.83116 51.92392 37.87754
# Shear Modulus (GPa) = 28.45818 36.75344 32.60581
#
# Velocity S-wave (km/s) = 3.49830 3.97559 3.74456
# Velocity P-wave (km/s) = 5.15419 6.58810 5.91476
#
# Compressibility (1/GPa) = 0.04196186
#
# Stress axis : x y z
#
# Youngs Moduli (GPa) = 34.97562 60.93296 148.76334
#
# Poissons Ratio (x) = -0.34101 1.01839
# Poissons Ratio (y) = -0.19574 0.54035
# Poissons Ratio (z) = 0.23943 0.22133
#
# Static dielectric constant tensor:
#      x y z
#    x 1.963860 0.000000 0.000000 
#    y 0.000000 1.958060 0.000000 
#    z 0.000000 0.000000 1.995150 
# 
# From -- ./inp_files/18407.got.cif
#   From: 2010.05.17/outbox.cif.g08.bks.cpg/sg54_10_cif.got.tgz:18407.got - 2010.06.03 13:09:01.
