data_PCOD9422927
_publ_section_title
;
Structure prediction by ZEFSAII (Michael W. Deem and Ramdas Pophale) SiO2 
 PCOD9422927
Probable space group: P C C A
;
_chemical_formula_sum "Si O2"
_cell_formula_units_Z 48
_cell_length_a 29.763020
_cell_length_b 5.014111
_cell_length_c 14.950574
_cell_angle_alpha 90.000000
_cell_angle_beta 90.000000
_cell_angle_gamma 90.000000
_cell_volume 2231.150196
_symmetry_space_group_name_H-M "P C C A"
_symmetry_group_IT_number 54
_symmetry_cell_setting 'orthorhombic'
loop_
_space_group_symop_operation_xyz
x,y,z
1/2-x,-y,z
1/2+x,-y,1/2-z
-x,y,1/2-z
-x,-y,-z
1/2+x,y,-z
1/2-x,y,1/2+z
x,-y,1/2+z
loop_
_atom_site_type_symbol
_atom_site_label
_atom_site_fract_x
_atom_site_fract_y
_atom_site_fract_z
Si Si1 0.877648 0.145001 0.191910
Si Si2 0.473054 0.759750 0.391512
Si Si3 0.876603 0.353857 0.807342
Si Si4 0.798319 0.557738 0.934895
Si Si5 0.798577 0.062269 0.056782
Si Si6 0.471897 0.259685 0.107510
O O1 0.927429 0.133813 0.151062
O O2 0.872441 0.450013 0.222718
O O3 0.871515 0.950373 0.276205
O O4 0.840764 0.048896 0.121290
O O5 0.488512 0.463707 0.365819
O O6 0.467677 0.749416 0.499413
O O7 0.512944 0.963340 0.366511
O O8 0.839300 0.460169 0.875232
O O9 0.925846 0.363407 0.851084
O O10 0.750000 0.500000 0.889038
O O11 0.802408 0.856099 0.973401
O O12 0.797426 0.361027 0.019709
O O13 0.750000 0.000000 0.099827
#
# Coordination Sequence:
#
# PCOD9422927 Si02
#       6
#     8   8   8   8   8   8
#     4  12  25  38  60  93 126 158 193 248 311 359
#     4  10  22  40  61  84 115 159 205 244 286 347
#     4  12  25  38  60  93 126 158 193 248 311 359
#     4  10  22  42  66  88 116 159 205 246 292 356
#     4  10  22  42  66  88 116 159 205 246 292 356
#     4  10  22  40  61  84 115 159 205 244 286 347
#
# _framework density 21.513566999999998
#
# number of rings (size 3 to 8) (size 9 to 14) (size 15 to 20)
#    0.000    1.333    0.000    5.000    0.000    9.333 
#    0.000    0.000    0.000    0.000    0.000    0.000 
#    0.000    0.000    0.000    0.000    0.000    0.000 
#
# Total GULP energy -268349.982885 kJ/mol
# GULP energy per Si atom -5590.624643 kJ/mol
# Density = 2.146460 g / cm^3
# Si number density = 21.513567 Si / 1000 Ang^3
#
#
#
# Elastic Constant Matrix: (Units=GPa)
#
#
# Indices 1 2 3 4 5 6 
#
# 1 143.3530 5.5249 41.1080 0.0000 0.0000 0.0000
# 2 5.5249 91.7759 4.4523 0.0000 0.0000 0.0000
# 3 41.1080 4.4523 35.6856 0.0000 0.0000 0.0000
# 4 0.0000 0.0000 0.0000 23.1569 0.0000 0.0000
# 5 0.0000 0.0000 0.0000 0.0000 197.8922 0.0000
# 6 0.0000 0.0000 0.0000 0.0000 0.0000 33.2828
#
#
#
# Elastic Compliance Matrix: (Units=1/GPa)
#
#
# Indices 1 2 3 4 5 6 
#
# 1 0.010417 -0.000045 -0.011994 0.000000 0.000000 0.000000
# 2 -0.000045 0.010963 -0.001316 0.000000 0.000000 0.000000
# 3 -0.011994 -0.001316 0.042003 0.000000 0.000000 0.000000
# 4 0.000000 0.000000 0.000000 0.043184 0.000000 0.000000
# 5 0.000000 0.000000 0.000000 0.000000 0.005053 0.000000
# 6 0.000000 0.000000 0.000000 0.000000 0.000000 0.030046
#
#
# Mechanical properties :
#
#
# Convention : Reuss Voigt Hill
#
# Bulk Modulus (GPa) = 27.26812 41.44275 34.35544
# Shear Modulus (GPa) = 27.68549 65.51500 46.60025
#
# Velocity S-wave (km/s) = 3.59121 5.52440 4.65917
# Velocity P-wave (km/s) = 5.46791 7.74580 6.70431
#
# Compressibility (1/GPa) = 0.03667286
#
# Stress axis : x y z
#
# Youngs Moduli (GPa) = 95.99693 91.21872 23.80758
#
# Poissons Ratio (x) = 0.00412 0.28555
# Poissons Ratio (y) = 0.00434 0.03132
# Poissons Ratio (z) = 1.15141 0.12001
#
# Static dielectric constant tensor:
#      x y z
#    x 1.789700 0.000000 0.000000 
#    y 0.000000 1.756150 0.000000 
#    z 0.000000 0.000000 1.776760 
# 
# From -- ./inp_files/15141.got.cif
#   From: 2010.05.17/outbox.cif.g08.bks.cpg/sg54_8_cif.got.tgz:15141.got - 2010.06.03 13:09:01.
