data_PCOD9422495
_publ_section_title
;
Structure prediction by ZEFSAII (Michael W. Deem and Ramdas Pophale) SiO2 
 PCOD9422495
Probable space group: P C C A
;
_chemical_formula_sum "Si O2"
_cell_formula_units_Z 32
_cell_length_a 7.247191
_cell_length_b 5.339408
_cell_length_c 33.933973
_cell_angle_alpha 90.000000
_cell_angle_beta 90.000000
_cell_angle_gamma 90.000000
_cell_volume 1313.099165
_symmetry_space_group_name_H-M "P C C A"
_symmetry_group_IT_number 54
_symmetry_cell_setting 'orthorhombic'
loop_
_space_group_symop_operation_xyz
x,y,z
1/2-x,-y,z
1/2+x,-y,1/2-z
-x,y,1/2-z
-x,-y,-z
1/2+x,y,-z
1/2-x,y,1/2+z
x,-y,1/2+z
loop_
_atom_site_type_symbol
_atom_site_label
_atom_site_fract_x
_atom_site_fract_y
_atom_site_fract_z
Si Si1 0.451324 0.698511 0.175741
Si Si2 0.468795 0.993002 0.453404
Si Si3 0.974726 0.501630 0.089816
Si Si4 0.533426 0.799201 0.794454
O O1 0.452413 0.579353 0.132487
O O2 0.546298 0.479491 0.200866
O O3 0.247426 0.750915 0.193545
O O4 0.537124 0.975983 0.177783
O O5 0.536835 0.231996 0.428130
O O6 0.250000 0.000000 0.447335
O O7 0.500000 0.000000 0.500000
O O8 0.534623 0.724516 0.438412
O O9 0.750000 0.500000 0.092320
O O10 0.500000 0.885342 0.750000
#
# Coordination Sequence:
#
# PCOD9422495 Si02
#       4
#     8   8   8   8
#     4  10  21  40  61  90 120 164 215 254 320 379
#     4  10  21  40  63  94 127 166 208 256 319 379
#     4  10  21  40  63  88 129 165 207 262 315 376
#     4  10  21  40  61  85 126 159 203 271 317 377
#
# _framework density 24.369827000000001
#
# number of rings (size 3 to 8) (size 9 to 14) (size 15 to 20)
#    0.000    2.000    0.000    3.000    0.000    0.000 
#   27.000    0.000    0.000    0.000    0.000    0.000 
#    0.000    0.000    0.000    0.000    0.000    0.000 
#
# Total GULP energy -178736.712555 kJ/mol
# GULP energy per Si atom -5585.522267 kJ/mol
# Density = 2.431436 g / cm^3
# Si number density = 24.369827 Si / 1000 Ang^3
#
#
#
# Elastic Constant Matrix: (Units=GPa)
#
#
# Indices 1 2 3 4 5 6 
#
# 1 123.2528 18.9717 11.9090 0.0000 0.0000 0.0000
# 2 18.9717 227.7762 54.8120 0.0000 0.0000 0.0000
# 3 11.9090 54.8120 162.8369 0.0000 0.0000 0.0000
# 4 0.0000 0.0000 0.0000 54.3104 0.0000 0.0000
# 5 0.0000 0.0000 0.0000 0.0000 30.3842 0.0000
# 6 0.0000 0.0000 0.0000 0.0000 0.0000 -15.2851
#
#
#
# Elastic Compliance Matrix: (Units=1/GPa)
#
#
# Indices 1 2 3 4 5 6 
#
# 1 0.008243 -0.000589 -0.000405 0.000000 0.000000 0.000000
# 2 -0.000589 0.004819 -0.001579 0.000000 0.000000 0.000000
# 3 -0.000405 -0.001579 0.006702 0.000000 0.000000 0.000000
# 4 0.000000 0.000000 0.000000 0.018413 0.000000 0.000000
# 5 0.000000 0.000000 0.000000 0.000000 0.032912 0.000000
# 6 0.000000 0.000000 0.000000 0.000000 0.000000 -0.065423
#
#
# Mechanical properties :
#
#
# Convention : Reuss Voigt Hill
#
# Bulk Modulus (GPa) = 68.40411 76.13903 72.27157
# Shear Modulus (GPa) = 318.77648 42.42678 180.60163
#
# Velocity S-wave (km/s) = 11.44953 4.17700 8.61798
# Velocity P-wave (km/s) = 14.24497 7.38743 11.34666
#
# Compressibility (1/GPa) = 0.01461900
#
# Stress axis : x y z
#
# Youngs Moduli (GPa) = 121.31230 207.49669 149.20374
#
# Poissons Ratio (x) = 0.12226 0.06036
# Poissons Ratio (y) = 0.07148 0.23561
# Poissons Ratio (z) = 0.04907 0.32766
#
# Static dielectric constant tensor:
#      x y z
#    x 2.155410 0.000000 0.000000 
#    y 0.000000 2.139690 0.000000 
#    z 0.000000 0.000000 1.935820 
# 
# From -- ./inp_files/27393.got.cif
#   From: 2010.05.17/outbox.cif.g08.bks.cpg/sg54_14_cif.got.tgz:27393.got - 2010.06.03 13:09:01.
