data_PCOD9422015
_publ_section_title
;
Structure prediction by ZEFSAII (Michael W. Deem and Ramdas Pophale) SiO2 
 PCOD9422015
Probable space group: P C C A
;
_chemical_formula_sum "Si O2"
_cell_formula_units_Z 40
_cell_length_a 8.052491
_cell_length_b 7.792892
_cell_length_c 28.223861
_cell_angle_alpha 90.000000
_cell_angle_beta 90.000000
_cell_angle_gamma 90.000000
_cell_volume 1771.109164
_symmetry_space_group_name_H-M "P C C A"
_symmetry_group_IT_number 54
_symmetry_cell_setting 'orthorhombic'
loop_
_space_group_symop_operation_xyz
x,y,z
1/2-x,-y,z
1/2+x,-y,1/2-z
-x,y,1/2-z
-x,-y,-z
1/2+x,y,-z
1/2-x,y,1/2+z
x,-y,1/2+z
loop_
_atom_site_type_symbol
_atom_site_label
_atom_site_fract_x
_atom_site_fract_y
_atom_site_fract_z
Si Si1 0.963530 0.684995 0.381208
Si Si2 0.382541 0.130136 0.290362
Si Si3 0.951477 0.991187 0.445500
Si Si4 0.650284 0.341635 0.780080
Si Si5 0.567126 0.704285 0.379151
O O1 0.764414 0.688979 0.388774
O O2 0.013678 0.484783 0.383175
O O3 0.018284 0.769270 0.331041
O O4 0.021483 0.817522 0.421581
O O5 0.500000 0.044877 0.250000
O O6 0.271827 0.251415 0.256515
O O7 0.250000 0.000000 0.312206
O O8 0.007338 0.154186 0.413834
O O9 0.750000 0.000000 0.442879
O O10 0.000000 0.000000 0.500000
O O11 0.750000 0.500000 0.802156
O O12 0.500000 0.414535 0.750000
O O13 0.572760 0.237983 0.823970
#
# Coordination Sequence:
#
# PCOD9422015 Si02
#       5
#     8   8   8   8   8
#     4  10  21  42  67  96 129 177 223 271 339 411
#     4  12  25  39  61 100 144 187 234 281 339 413
#     4  10  24  43  70  96 129 171 224 286 354 411
#     4  12  23  39  64  98 138 186 230 273 336 411
#     4  10  20  41  71  92 132 176 220 276 339 406
#
# _framework density 22.584717999999999
#
# number of rings (size 3 to 8) (size 9 to 14) (size 15 to 20)
#    0.000    1.200    4.000    2.400    5.600    1.600 
#    0.000    0.000    0.000    0.000    0.000    0.000 
#    0.000    0.000    0.000    0.000    0.000    0.000 
#
# Total GULP energy -223416.117082 kJ/mol
# GULP energy per Si atom -5585.402927 kJ/mol
# Density = 2.253331 g / cm^3
# Si number density = 22.584718 Si / 1000 Ang^3
#
#
#
# Elastic Constant Matrix: (Units=GPa)
#
#
# Indices 1 2 3 4 5 6 
#
# 1 39.2904 21.2431 7.3494 0.0000 0.0000 0.0000
# 2 21.2431 118.2081 75.2161 0.0000 0.0000 0.0000
# 3 7.3494 75.2161 169.3323 0.0000 0.0000 0.0000
# 4 0.0000 0.0000 0.0000 31.2727 0.0000 0.0000
# 5 0.0000 0.0000 0.0000 0.0000 34.5946 0.0000
# 6 0.0000 0.0000 0.0000 0.0000 0.0000 23.9080
#
#
#
# Elastic Compliance Matrix: (Units=1/GPa)
#
#
# Indices 1 2 3 4 5 6 
#
# 1 0.028442 -0.006030 0.001444 0.000000 0.000000 0.000000
# 2 -0.006030 0.013071 -0.005544 0.000000 0.000000 0.000000
# 3 0.001444 -0.005544 0.008306 0.000000 0.000000 0.000000
# 4 0.000000 0.000000 0.000000 0.031977 0.000000 0.000000
# 5 0.000000 0.000000 0.000000 0.000000 0.028906 0.000000
# 6 0.000000 0.000000 0.000000 0.000000 0.000000 0.041827
#
#
# Mechanical properties :
#
#
# Convention : Reuss Voigt Hill
#
# Bulk Modulus (GPa) = 33.83216 59.38312 46.60764
# Shear Modulus (GPa) = 27.37596 32.82321 30.09959
#
# Velocity S-wave (km/s) = 3.48536 3.81640 3.65463
# Velocity P-wave (km/s) = 5.58656 6.76539 6.20404
#
# Compressibility (1/GPa) = 0.02955767
#
# Stress axis : x y z
#
# Youngs Moduli (GPa) = 35.15971 76.50373 120.39979
#
# Poissons Ratio (x) = 0.46133 -0.17387
# Poissons Ratio (y) = 0.21202 0.66755
# Poissons Ratio (z) = -0.05077 0.42417
#
# Static dielectric constant tensor:
#      x y z
#    x 1.904320 0.000000 0.000000 
#    y 0.000000 1.903370 0.000000 
#    z 0.000000 0.000000 1.789010 
# 
# From -- ./inp_files/23223.got.cif
#   From: 2010.05.17/outbox.cif.g08.bks.cpg/sg54_12_cif.got.tgz:23223.got - 2010.06.03 13:09:01.
