data_PCOD9422180
_publ_section_title
;
Structure prediction by ZEFSAII (Michael W. Deem and Ramdas Pophale) SiO2 
 PCOD9422180
Probable space group: P C C A
;
_chemical_formula_sum "Si O2"
_cell_formula_units_Z 48
_cell_length_a 21.814211
_cell_length_b 8.477284
_cell_length_c 12.301087
_cell_angle_alpha 90.000000
_cell_angle_beta 90.000000
_cell_angle_gamma 90.000000
_cell_volume 2274.781735
_symmetry_space_group_name_H-M "P C C A"
_symmetry_group_IT_number 54
_symmetry_cell_setting 'orthorhombic'
loop_
_space_group_symop_operation_xyz
x,y,z
1/2-x,-y,z
1/2+x,-y,1/2-z
-x,y,1/2-z
-x,-y,-z
1/2+x,y,-z
1/2-x,y,1/2+z
x,-y,1/2+z
loop_
_atom_site_type_symbol
_atom_site_label
_atom_site_fract_x
_atom_site_fract_y
_atom_site_fract_z
Si Si1 0.282316 0.333653 0.088382
Si Si2 0.131152 0.327964 0.377274
Si Si3 0.800471 0.877620 0.792532
Si Si4 0.472290 0.174509 0.002224
Si Si5 0.452925 0.632893 0.852421
Si Si6 0.116299 0.835093 0.205555
O O1 0.250000 0.500000 0.100168
O O2 0.231074 0.197043 0.100970
O O3 0.328720 0.288753 0.185564
O O4 0.323398 0.332006 0.980737
O O5 0.173851 0.262958 0.281153
O O6 0.074134 0.210767 0.404125
O O7 0.096397 0.493050 0.359888
O O8 0.750000 0.000000 0.742284
O O9 0.857108 0.992288 0.810374
O O10 0.518920 0.318587 0.030148
O O11 0.431516 0.186393 0.109952
O O12 0.500000 0.000000 0.000000
O O13 0.500000 0.596682 0.750000
O O14 0.417591 0.791888 0.815444
#
# Coordination Sequence:
#
# PCOD9422180 Si02
#       6
#     8   8   8   8   8   8
#     4  10  22  38  56  83 115 148 192 240 286 346
#     4  11  23  37  60  89 116 155 196 238 298 352
#     4  10  22  39  59  82 114 152 194 242 290 345
#     4  10  21  36  57  86 118 153 198 243 289 349
#     4  10  21  38  58  84 120 154 194 245 296 355
#     4   9  20  38  58  82 114 154 194 240 291 345
#
# _framework density 21.100925
#
# number of rings (size 3 to 8) (size 9 to 14) (size 15 to 20)
#    0.000    2.000    0.000    2.500    0.000    9.333 
#    0.000    0.000    0.000    0.000    0.000    0.000 
#    0.000    0.000    0.000    0.000    0.000    0.000 
#
# Total GULP energy -267406.805414 kJ/mol
# GULP energy per Si atom -5570.975113 kJ/mol
# Density = 2.105290 g / cm^3
# Si number density = 21.100925 Si / 1000 Ang^3
#
#
#
# Elastic Constant Matrix: (Units=GPa)
#
#
# Indices 1 2 3 4 5 6 
#
# 1 66.1519 53.3152 15.8636 0.0000 0.0000 0.0000
# 2 53.3152 126.3819 17.8079 0.0000 0.0000 0.0000
# 3 15.8636 17.8079 23.3571 0.0000 0.0000 0.0000
# 4 0.0000 0.0000 0.0000 12.3558 0.0000 0.0000
# 5 0.0000 0.0000 0.0000 0.0000 17.7275 0.0000
# 6 0.0000 0.0000 0.0000 0.0000 0.0000 54.4524
#
#
#
# Elastic Compliance Matrix: (Units=1/GPa)
#
#
# Indices 1 2 3 4 5 6 
#
# 1 0.024805 -0.009064 -0.009936 0.000000 0.000000 0.000000
# 2 -0.009064 0.012177 -0.003128 0.000000 0.000000 0.000000
# 3 -0.009936 -0.003128 0.051947 0.000000 0.000000 0.000000
# 4 0.000000 0.000000 0.000000 0.080934 0.000000 0.000000
# 5 0.000000 0.000000 0.000000 0.000000 0.056410 0.000000
# 6 0.000000 0.000000 0.000000 0.000000 0.000000 0.018365
#
#
# Mechanical properties :
#
#
# Convention : Reuss Voigt Hill
#
# Bulk Modulus (GPa) = 22.38527 43.31825 32.85176
# Shear Modulus (GPa) = 16.45911 25.50074 20.97992
#
# Velocity S-wave (km/s) = 2.79591 3.48014 3.15662
# Velocity P-wave (km/s) = 4.58852 6.05988 5.37479
#
# Compressibility (1/GPa) = 0.04467222
#
# Stress axis : x y z
#
# Youngs Moduli (GPa) = 40.31520 82.12234 19.25049
#
# Poissons Ratio (x) = 0.74435 0.19128
# Poissons Ratio (y) = 0.36541 0.06021
# Poissons Ratio (z) = 0.40058 0.25687
#
# Static dielectric constant tensor:
#      x y z
#    x 1.854560 0.000000 0.000000 
#    y 0.000000 1.789350 0.000000 
#    z 0.000000 0.000000 1.742460 
# 
# From -- ./inp_files/14555.got.cif
#   From: 2010.05.17/outbox.cif.g08.bks.cpg/sg54_8_cif.got.tgz:14555.got - 2010.06.03 13:09:01.
