data_PCOD9422189
_publ_section_title
;
Structure prediction by ZEFSAII (Michael W. Deem and Ramdas Pophale) SiO2 
 PCOD9422189
Probable space group: P C C A
;
_chemical_formula_sum "Si O2"
_cell_formula_units_Z 32
_cell_length_a 20.700853
_cell_length_b 8.399526
_cell_length_c 9.380484
_cell_angle_alpha 90.000000
_cell_angle_beta 90.000000
_cell_angle_gamma 90.000000
_cell_volume 1631.053728
_symmetry_space_group_name_H-M "P C C A"
_symmetry_group_IT_number 54
_symmetry_cell_setting 'orthorhombic'
loop_
_space_group_symop_operation_xyz
x,y,z
1/2-x,-y,z
1/2+x,-y,1/2-z
-x,y,1/2-z
-x,-y,-z
1/2+x,y,-z
1/2-x,y,1/2+z
x,-y,1/2+z
loop_
_atom_site_type_symbol
_atom_site_label
_atom_site_fract_x
_atom_site_fract_y
_atom_site_fract_z
Si Si1 0.442352 0.620947 0.958016
Si Si2 0.250000 0.500000 0.630016
Si Si3 0.072603 0.184223 0.222911
Si Si4 0.663739 0.377001 0.622811
Si Si5 0.500000 0.121504 0.250000
O O1 0.388548 0.520783 0.874043
O O2 0.474420 0.763798 0.871424
O O3 0.500000 0.500000 0.000000
O O4 0.407383 0.709758 0.088976
O O5 0.210753 0.608095 0.741982
O O6 0.296441 0.599540 0.523057
O O7 0.120218 0.220485 0.353010
O O8 0.000000 0.248485 0.250000
O O9 0.057007 0.998602 0.199921
#
# Coordination Sequence:
#
# PCOD9422189 Si02
#       5
#     8   4   8   8   4
#     4  12  20  36  64  97 123 163 208 264 333 388
#     4  10  24  38  62  92 120 186 228 268 286 352
#     4  10  21  36  58  96 131 158 198 266 339 384
#     4  11  21  40  64  92 128 165 230 260 306 381
#     4  10  24  36  58  98 136 158 190 268 362 388
#
# _framework density 19.619219000000001
#
# number of rings (size 3 to 8) (size 9 to 14) (size 15 to 20)
#    0.750    0.500    5.000    2.250    0.000    0.000 
#    0.000    0.000    0.000    9.000    0.000    0.000 
#    0.000    0.000    0.000    0.000    0.000    0.000 
#
# Total GULP energy -178225.504923 kJ/mol
# GULP energy per Si atom -5569.547029 kJ/mol
# Density = 1.957456 g / cm^3
# Si number density = 19.619219 Si / 1000 Ang^3
#
#
#
# Elastic Constant Matrix: (Units=GPa)
#
#
# Indices 1 2 3 4 5 6 
#
# 1 75.1267 23.0425 21.4858 0.0000 0.0000 0.0000
# 2 23.0425 101.0017 24.2783 0.0000 0.0000 0.0000
# 3 21.4858 24.2783 75.2151 0.0000 0.0000 0.0000
# 4 0.0000 0.0000 0.0000 17.3891 0.0000 0.0000
# 5 0.0000 0.0000 0.0000 0.0000 47.1608 0.0000
# 6 0.0000 0.0000 0.0000 0.0000 0.0000 -0.8489
#
#
#
# Elastic Compliance Matrix: (Units=1/GPa)
#
#
# Indices 1 2 3 4 5 6 
#
# 1 0.015105 -0.002611 -0.003472 0.000000 0.000000 0.000000
# 2 -0.002611 0.011185 -0.002864 0.000000 0.000000 0.000000
# 3 -0.003472 -0.002864 0.015212 0.000000 0.000000 0.000000
# 4 0.000000 0.000000 0.000000 0.057507 0.000000 0.000000
# 5 0.000000 0.000000 0.000000 0.000000 0.021204 0.000000
# 6 0.000000 0.000000 0.000000 0.000000 0.000000 -1.177975
#
#
# Mechanical properties :
#
#
# Convention : Reuss Voigt Hill
#
# Bulk Modulus (GPa) = 42.36210 43.21741 42.78975
# Shear Modulus (GPa) = -4.84497 24.90933 10.03218
#
# Velocity S-wave (km/s) = -1.57317 3.56707 2.26375
# Velocity P-wave (km/s) = 4.28243 6.24830 5.35632
#
# Compressibility (1/GPa) = 0.02360601
#
# Stress axis : x y z
#
# Youngs Moduli (GPa) = 66.20430 89.40441 65.73946
#
# Poissons Ratio (x) = 0.23347 0.22824
# Poissons Ratio (y) = 0.17289 0.18830
# Poissons Ratio (z) = 0.22985 0.25609
#
# Static dielectric constant tensor:
#      x y z
#    x 1.776940 0.000000 0.000000 
#    y 0.000000 1.672120 0.000000 
#    z 0.000000 0.000000 1.852860 
# 
# From -- ./inp_files/4490.got.cif
#   From: 2010.05.17/outbox.cif.g08.bks.cpg/sg54_3_cif.got.tgz:4490.got - 2010.06.03 13:09:01.
