data_PCOD9422211
_publ_section_title
;
Structure prediction by ZEFSAII (Michael W. Deem and Ramdas Pophale) SiO2 
 PCOD9422211
Probable space group: P C C A
;
_chemical_formula_sum "Si O2"
_cell_formula_units_Z 40
_cell_length_a 7.440934
_cell_length_b 8.626967
_cell_length_c 28.082600
_cell_angle_alpha 90.000000
_cell_angle_beta 90.000000
_cell_angle_gamma 90.000000
_cell_volume 1802.697694
_symmetry_space_group_name_H-M "P C C A"
_symmetry_group_IT_number 54
_symmetry_cell_setting 'orthorhombic'
loop_
_space_group_symop_operation_xyz
x,y,z
1/2-x,-y,z
1/2+x,-y,1/2-z
-x,y,1/2-z
-x,-y,-z
1/2+x,y,-z
1/2-x,y,1/2+z
x,-y,1/2+z
loop_
_atom_site_type_symbol
_atom_site_label
_atom_site_fract_x
_atom_site_fract_y
_atom_site_fract_z
Si Si1 0.704580 0.317750 0.947525
Si Si2 0.301406 0.183508 0.949599
Si Si3 0.785176 0.680578 0.751716
Si Si4 0.714054 0.180238 0.849985
Si Si5 0.216400 0.183644 0.346874
O O1 0.750000 0.500000 0.949968
O O2 0.505122 0.243940 0.943787
O O3 0.788812 0.261736 0.897418
O O4 0.757686 0.251230 0.998903
O O5 0.214640 0.236762 0.899064
O O6 0.250000 0.000000 0.951892
O O7 0.750000 0.500000 0.757224
O O8 0.713255 0.764737 0.798905
O O9 0.711727 0.736552 0.700731
O O10 0.000000 0.707887 0.750000
O O11 0.499158 0.207566 0.847325
O O12 0.750000 0.000000 0.855663
O O13 0.250000 0.000000 0.343175
#
# Coordination Sequence:
#
# PCOD9422211 Si02
#       5
#     8   8   8   8   8
#     4  11  22  37  57  85 117 149 190 243 295 345
#     4  10  21  38  58  82 113 152 195 237 287 353
#     4  10  21  37  56  82 114 144 181 232 286 340
#     4  10  21  37  58  81 111 150 191 233 281 342
#     4   9  20  37  56  82 111 143 189 235 276 336
#
# _framework density 22.188967999999999
#
# number of rings (size 3 to 8) (size 9 to 14) (size 15 to 20)
#    0.000    2.000    0.000    3.000    0.000    5.600 
#    0.000    2.000    0.000    0.000    0.000    0.000 
#    0.000    0.000    0.000    0.000    0.000    0.000 
#
# Total GULP energy -222832.478459 kJ/mol
# GULP energy per Si atom -5570.811961 kJ/mol
# Density = 2.213846 g / cm^3
# Si number density = 22.188968 Si / 1000 Ang^3
#
#
#
# Elastic Constant Matrix: (Units=GPa)
#
#
# Indices 1 2 3 4 5 6 
#
# 1 89.5361 11.9233 21.4271 0.0000 0.0000 0.0000
# 2 11.9233 142.3260 95.4090 0.0000 0.0000 0.0000
# 3 21.4271 95.4090 271.3448 0.0000 0.0000 0.0000
# 4 0.0000 0.0000 0.0000 116.6755 0.0000 0.0000
# 5 0.0000 0.0000 0.0000 0.0000 7.0856 0.0000
# 6 0.0000 0.0000 0.0000 0.0000 0.0000 77.3659
#
#
#
# Elastic Compliance Matrix: (Units=1/GPa)
#
#
# Indices 1 2 3 4 5 6 
#
# 1 0.011407 -0.000460 -0.000739 0.000000 0.000000 0.000000
# 2 -0.000460 0.009212 -0.003203 0.000000 0.000000 0.000000
# 3 -0.000739 -0.003203 0.004870 0.000000 0.000000 0.000000
# 4 0.000000 0.000000 0.000000 0.008571 0.000000 0.000000
# 5 0.000000 0.000000 0.000000 0.000000 0.141131 0.000000
# 6 0.000000 0.000000 0.000000 0.000000 0.000000 0.012926
#
#
# Mechanical properties :
#
#
# Convention : Reuss Voigt Hill
#
# Bulk Modulus (GPa) = 59.93547 84.52506 72.23027
# Shear Modulus (GPa) = 24.69371 65.18857 44.94114
#
# Velocity S-wave (km/s) = 3.33961 5.42610 4.50531
# Velocity P-wave (km/s) = 6.47616 8.79959 7.72572
#
# Compressibility (1/GPa) = 0.01668461
#
# Stress axis : x y z
#
# Youngs Moduli (GPa) = 87.66698 108.55940 205.34840
#
# Poissons Ratio (x) = 0.04997 0.15174
# Poissons Ratio (y) = 0.04035 0.65764
# Poissons Ratio (z) = 0.06478 0.34767
#
# Static dielectric constant tensor:
#      x y z
#    x 1.906740 0.000000 0.000000 
#    y 0.000000 1.684520 0.000000 
#    z 0.000000 0.000000 1.889200 
# 
# From -- ./inp_files/23284.got.cif
#   From: 2010.05.17/outbox.cif.g08.bks.cpg/sg54_12_cif.got.tgz:23284.got - 2010.06.03 13:09:01.
