data_PCOD9422969
_publ_section_title
;
Structure prediction by ZEFSAII (Michael W. Deem and Ramdas Pophale) SiO2 
 PCOD9422969
Probable space group: P C C A
;
_chemical_formula_sum "Si O2"
_cell_formula_units_Z 40
_cell_length_a 14.890329
_cell_length_b 13.160108
_cell_length_c 9.047191
_cell_angle_alpha 90.000000
_cell_angle_beta 90.000000
_cell_angle_gamma 90.000000
_cell_volume 1772.872510
_symmetry_space_group_name_H-M "P C C A"
_symmetry_group_IT_number 54
_symmetry_cell_setting 'orthorhombic'
loop_
_space_group_symop_operation_xyz
x,y,z
1/2-x,-y,z
1/2+x,-y,1/2-z
-x,y,1/2-z
-x,-y,-z
1/2+x,y,-z
1/2-x,y,1/2+z
x,-y,1/2+z
loop_
_atom_site_type_symbol
_atom_site_label
_atom_site_fract_x
_atom_site_fract_y
_atom_site_fract_z
Si Si1 0.588772 0.545773 0.072144
Si Si2 0.286627 0.186703 0.689816
Si Si3 0.323368 0.580717 0.136999
Si Si4 0.872107 0.774649 0.491065
Si Si5 0.965989 0.900008 0.918014
O O1 0.596623 0.567864 0.244629
O O2 0.620442 0.651601 0.995203
O O3 0.500000 0.500000 0.000000
O O4 0.654750 0.454821 0.026826
O O5 0.299621 0.302766 0.639593
O O6 0.317017 0.188083 0.861694
O O7 0.182295 0.173210 0.644537
O O8 0.359406 0.120520 0.597689
O O9 0.250000 0.500000 0.188212
O O10 0.975147 0.810792 0.506939
O O11 0.000000 0.904267 0.750000
O O12 0.000000 0.000000 0.000000
#
# Coordination Sequence:
#
# PCOD9422969 Si02
#       5
#     8   8   8   8   8
#     4  11  22  36  57  87 124 166 209 254 307 369
#     4  10  22  40  64  89 127 164 204 259 314 375
#     4  11  21  36  58  87 124 164 206 252 308 372
#     4  10  22  41  62  91 123 164 209 258 317 375
#     4  10  23  44  66  90 122 161 207 264 322 376
#
# _framework density 22.562253999999999
#
# number of rings (size 3 to 8) (size 9 to 14) (size 15 to 20)
#    0.000    1.600    2.000    2.400    2.800    5.600 
#    0.000    6.000    0.000    0.000    0.000    0.000 
#    0.000    0.000    0.000    0.000    0.000    0.000 
#
# Total GULP energy -222910.651756 kJ/mol
# GULP energy per Si atom -5572.766294 kJ/mol
# Density = 2.251090 g / cm^3
# Si number density = 22.562254 Si / 1000 Ang^3
#
#
#
# Elastic Constant Matrix: (Units=GPa)
#
#
# Indices 1 2 3 4 5 6 
#
# 1 73.8425 -10.2111 8.5068 0.0000 0.0000 0.0000
# 2 -10.2111 55.9494 -5.1328 0.0000 0.0000 0.0000
# 3 8.5068 -5.1328 24.4984 0.0000 0.0000 0.0000
# 4 0.0000 0.0000 0.0000 28.6342 0.0000 0.0000
# 5 0.0000 0.0000 0.0000 0.0000 29.3008 0.0000
# 6 0.0000 0.0000 0.0000 0.0000 0.0000 28.8272
#
#
#
# Elastic Compliance Matrix: (Units=1/GPa)
#
#
# Indices 1 2 3 4 5 6 
#
# 1 0.014369 0.002207 -0.004527 0.000000 0.000000 0.000000
# 2 0.002207 0.018563 0.003123 0.000000 0.000000 0.000000
# 3 -0.004527 0.003123 0.043045 0.000000 0.000000 0.000000
# 4 0.000000 0.000000 0.000000 0.034923 0.000000 0.000000
# 5 0.000000 0.000000 0.000000 0.000000 0.034129 0.000000
# 6 0.000000 0.000000 0.000000 0.000000 0.000000 0.034690
#
#
# Mechanical properties :
#
#
# Convention : Reuss Voigt Hill
#
# Bulk Modulus (GPa) = 12.88951 15.62401 14.25676
# Shear Modulus (GPa) = 24.51297 28.09426 26.30361
#
# Velocity S-wave (km/s) = 3.29972 3.53255 3.41812
# Velocity P-wave (km/s) = 4.49920 4.85576 4.68088
#
# Compressibility (1/GPa) = 0.07758245
#
# Stress axis : x y z
#
# Youngs Moduli (GPa) = 69.59395 53.87180 23.23140
#
# Poissons Ratio (x) = -0.11890 0.10517
# Poissons Ratio (y) = -0.15360 -0.07255
# Poissons Ratio (z) = 0.31506 -0.16823
#
# Static dielectric constant tensor:
#      x y z
#    x 2.015290 0.000000 0.000000 
#    y 0.000000 1.857530 0.000000 
#    z 0.000000 0.000000 1.806450 
# 
# From -- ./inp_files/3408.got.cif
#   From: 2010.05.17/outbox.cif.g08.bks.cpg/sg54_2_cif.got.tgz:3408.got - 2010.06.03 13:09:01.
