data_PCOD9422192
_publ_section_title
;
Structure prediction by ZEFSAII (Michael W. Deem and Ramdas Pophale) SiO2 
 PCOD9422192
Probable space group: P C C A
;
_chemical_formula_sum "Si O2"
_cell_formula_units_Z 48
_cell_length_a 15.518117
_cell_length_b 8.433416
_cell_length_c 20.238825
_cell_angle_alpha 90.000000
_cell_angle_beta 90.000000
_cell_angle_gamma 90.000000
_cell_volume 2648.669928
_symmetry_space_group_name_H-M "P C C A"
_symmetry_group_IT_number 54
_symmetry_cell_setting 'orthorhombic'
loop_
_space_group_symop_operation_xyz
x,y,z
1/2-x,-y,z
1/2+x,-y,1/2-z
-x,y,1/2-z
-x,-y,-z
1/2+x,y,-z
1/2-x,y,1/2+z
x,-y,1/2+z
loop_
_atom_site_type_symbol
_atom_site_label
_atom_site_fract_x
_atom_site_fract_y
_atom_site_fract_z
Si Si1 0.250000 0.000000 0.311302
Si Si2 0.068203 0.890166 0.807007
Si Si3 0.515524 0.901003 0.565431
Si Si4 0.822841 0.283955 0.605269
Si Si5 0.064251 0.432113 0.557405
Si Si6 0.545976 0.520404 0.179594
Si Si7 0.250000 0.500000 0.500480
O O1 0.158351 0.040011 0.279920
O O2 0.271316 0.154917 0.353905
O O3 0.077250 0.702214 0.819615
O O4 0.000000 0.911260 0.750000
O O5 0.032350 0.984932 0.871255
O O6 0.603935 0.803373 0.563161
O O7 0.445760 0.758353 0.567284
O O8 0.500000 0.000000 0.500000
O O9 0.876280 0.405556 0.653353
O O10 0.760389 0.358454 0.551649
O O11 0.161944 0.478606 0.540647
O O12 0.000000 0.500000 0.500000
O O13 0.028317 0.506457 0.624642
O O14 0.500000 0.480506 0.250000
#
# Coordination Sequence:
#
# PCOD9422192 Si02
#       7
#     4   8   8   8   8   8   4
#     4  10  22  36  60  96 120 158 216 242 318 368
#     4  10  22  40  63  88 125 163 204 257 308 372
#     4  10  21  36  60  86 121 158 199 253 307 363
#     4  10  22  35  61  91 119 166 199 262 295 380
#     4  11  22  39  61  91 122 164 203 256 307 373
#     4  10  21  42  66  89 123 166 211 254 316 371
#     4  12  22  38  62  92 128 158 216 250 316 362
#
# _framework density 18.122302000000001
#
# number of rings (size 3 to 8) (size 9 to 14) (size 15 to 20)
#    0.000    1.667    3.333    2.000    4.667    6.000 
#    0.000    7.500    0.000    0.000    0.000    0.000 
#    0.000    0.000    0.000    0.000    0.000    0.000 
#
# Total GULP energy -267350.548125 kJ/mol
# GULP energy per Si atom -5569.803086 kJ/mol
# Density = 1.808105 g / cm^3
# Si number density = 18.122302 Si / 1000 Ang^3
#
#
#
# Elastic Constant Matrix: (Units=GPa)
#
#
# Indices 1 2 3 4 5 6 
#
# 1 124.8602 33.7935 43.2519 0.0000 0.0000 0.0000
# 2 33.7935 77.1407 27.0408 0.0000 0.0000 0.0000
# 3 43.2519 27.0408 92.3190 0.0000 0.0000 0.0000
# 4 0.0000 0.0000 0.0000 18.4488 0.0000 0.0000
# 5 0.0000 0.0000 0.0000 0.0000 21.3607 0.0000
# 6 0.0000 0.0000 0.0000 0.0000 0.0000 21.8743
#
#
#
# Elastic Compliance Matrix: (Units=1/GPa)
#
#
# Indices 1 2 3 4 5 6 
#
# 1 0.010189 -0.003109 -0.003863 0.000000 0.000000 0.000000
# 2 -0.003109 0.015396 -0.003053 0.000000 0.000000 0.000000
# 3 -0.003863 -0.003053 0.013536 0.000000 0.000000 0.000000
# 4 0.000000 0.000000 0.000000 0.054204 0.000000 0.000000
# 5 0.000000 0.000000 0.000000 0.000000 0.046815 0.000000
# 6 0.000000 0.000000 0.000000 0.000000 0.000000 0.045716
#
#
# Mechanical properties :
#
#
# Convention : Reuss Voigt Hill
#
# Bulk Modulus (GPa) = 52.43692 55.83248 54.13470
# Shear Modulus (GPa) = 23.55594 25.01902 24.28748
#
# Velocity S-wave (km/s) = 3.60923 3.71963 3.66484
# Velocity P-wave (km/s) = 6.80930 7.02304 6.91700
#
# Compressibility (1/GPa) = 0.01907053
#
# Stress axis : x y z
#
# Youngs Moduli (GPa) = 98.14960 64.95390 73.87805
#
# Poissons Ratio (x) = 0.20196 0.28536
# Poissons Ratio (y) = 0.30518 0.22553
# Poissons Ratio (z) = 0.37912 0.19828
#
# Static dielectric constant tensor:
#      x y z
#    x 1.657360 0.000000 0.000000 
#    y 0.000000 1.716940 0.000000 
#    z 0.000000 0.000000 1.609480 
# 
# From -- ./inp_files/18074.got.cif
#   From: 2010.05.17/outbox.cif.g08.bks.cpg/sg54_10_cif.got.tgz:18074.got - 2010.06.03 13:09:01.
