data_PCOD9422113
_publ_section_title
;
Structure prediction by ZEFSAII (Michael W. Deem and Ramdas Pophale) SiO2 
 PCOD9422113
Probable space group: P C C A
;
_chemical_formula_sum "Si O2"
_cell_formula_units_Z 44
_cell_length_a 26.979131
_cell_length_b 5.153815
_cell_length_c 14.456763
_cell_angle_alpha 90.000000
_cell_angle_beta 90.000000
_cell_angle_gamma 90.000000
_cell_volume 2010.147117
_symmetry_space_group_name_H-M "P C C A"
_symmetry_group_IT_number 54
_symmetry_cell_setting 'orthorhombic'
loop_
_space_group_symop_operation_xyz
x,y,z
1/2-x,-y,z
1/2+x,-y,1/2-z
-x,y,1/2-z
-x,-y,-z
1/2+x,y,-z
1/2-x,y,1/2+z
x,-y,1/2+z
loop_
_atom_site_type_symbol
_atom_site_label
_atom_site_fract_x
_atom_site_fract_y
_atom_site_fract_z
Si Si1 0.348002 0.799823 0.668667
Si Si2 0.396826 0.201112 0.806924
Si Si3 0.003352 0.041255 0.391909
Si Si4 0.942733 0.550109 0.334316
Si Si5 0.750000 0.000000 0.832522
Si Si6 0.298710 0.405193 0.812265
O O1 0.389959 0.628505 0.618620
O O2 0.298361 0.889060 0.615342
O O3 0.324352 0.635131 0.753513
O O4 0.377876 0.035281 0.717859
O O5 0.439526 0.059031 0.862260
O O6 0.424250 0.456151 0.766398
O O7 0.345794 0.269109 0.859343
O O8 0.973807 0.306391 0.370391
O O9 0.976345 0.802536 0.342213
O O10 0.000000 0.000000 0.500000
O O11 0.724758 0.212521 0.764812
O O12 0.250000 0.500000 0.866710
#
# Coordination Sequence:
#
# PCOD9422113 Si02
#       6
#     8   8   8   8   4   8
#     4   9  17  31  55  89 117 150 193 253 306 354
#     4  10  21  34  62  87 118 158 207 251 303 363
#     4  12  27  41  56  86 129 168 206 256 310 364
#     4  11  23  39  60  84 116 164 210 254 301 367
#     4   8  14  28  48  88 126 138 178 260 318 352
#     4   8  15  28  51  85 124 141 187 256 315 353
#
# _framework density 21.888947000000002
#
# number of rings (size 3 to 8) (size 9 to 14) (size 15 to 20)
#    0.000    2.182    1.818    1.091    7.636    0.000 
#    0.000    0.000    0.000    0.000    0.000   20.364 
#    0.000    0.000    0.000    0.000    0.000    0.000 
#
# Total GULP energy -245031.539395 kJ/mol
# GULP energy per Si atom -5568.898623 kJ/mol
# Density = 2.183913 g / cm^3
# Si number density = 21.888947 Si / 1000 Ang^3
#
#
#
# Elastic Constant Matrix: (Units=GPa)
#
#
# Indices 1 2 3 4 5 6 
#
# 1 247.3757 75.9646 37.7682 0.0000 0.0000 0.0000
# 2 75.9646 119.5708 8.4961 0.0000 0.0000 0.0000
# 3 37.7682 8.4961 26.3246 0.0000 0.0000 0.0000
# 4 0.0000 0.0000 0.0000 1.4092 0.0000 0.0000
# 5 0.0000 0.0000 0.0000 0.0000 2.9750 0.0000
# 6 0.0000 0.0000 0.0000 0.0000 0.0000 52.2355
#
#
#
# Elastic Compliance Matrix: (Units=1/GPa)
#
#
# Indices 1 2 3 4 5 6 
#
# 1 0.006314 -0.003447 -0.007947 0.000000 0.000000 0.000000
# 2 -0.003447 0.010441 0.001575 0.000000 0.000000 0.000000
# 3 -0.007947 0.001575 0.048880 0.000000 0.000000 0.000000
# 4 0.000000 0.000000 0.000000 0.709633 0.000000 0.000000
# 5 0.000000 0.000000 0.000000 0.000000 0.336132 0.000000
# 6 0.000000 0.000000 0.000000 0.000000 0.000000 0.019144
#
#
# Mechanical properties :
#
#
# Convention : Reuss Voigt Hill
#
# Bulk Modulus (GPa) = 21.73958 70.85879 46.29918
# Shear Modulus (GPa) = 4.28996 29.39343 16.84169
#
# Velocity S-wave (km/s) = 1.40147 3.66846 2.77684
# Velocity P-wave (km/s) = 3.54572 7.09829 5.61061
#
# Compressibility (1/GPa) = 0.04599904
#
# Stress axis : x y z
#
# Youngs Moduli (GPa) = 158.37523 95.77544 20.45838
#
# Poissons Ratio (x) = 0.33012 0.16257
# Poissons Ratio (y) = 0.54589 -0.03223
# Poissons Ratio (z) = 1.25853 -0.15088
#
# Static dielectric constant tensor:
#      x y z
#    x 1.921810 0.000000 0.000000 
#    y 0.000000 1.935130 0.000000 
#    z 0.000000 0.000000 1.768610 
# 
# From -- ./inp_files/19014.got.cif
#   From: 2010.05.17/outbox.cif.g08.bks.cpg/sg54_10_cif.got.tgz:19014.got - 2010.06.03 13:09:01.
