data_PCOD9422725
_publ_section_title
;
Structure prediction by ZEFSAII (Michael W. Deem and Ramdas Pophale) SiO2 
 PCOD9422725
Probable space group: P C C A
;
_chemical_formula_sum "Si O2"
_cell_formula_units_Z 28
_cell_length_a 8.759912
_cell_length_b 8.724920
_cell_length_c 15.165584
_cell_angle_alpha 90.000000
_cell_angle_beta 90.000000
_cell_angle_gamma 90.000000
_cell_volume 1159.098479
_symmetry_space_group_name_H-M "P C C A"
_symmetry_group_IT_number 54
_symmetry_cell_setting 'orthorhombic'
loop_
_space_group_symop_operation_xyz
x,y,z
1/2-x,-y,z
1/2+x,-y,1/2-z
-x,y,1/2-z
-x,-y,-z
1/2+x,y,-z
1/2-x,y,1/2+z
x,-y,1/2+z
loop_
_atom_site_type_symbol
_atom_site_label
_atom_site_fract_x
_atom_site_fract_y
_atom_site_fract_z
Si Si1 0.500000 0.248569 0.250000
Si Si2 0.539642 0.661818 0.389085
Si Si3 0.750000 0.500000 0.248788
Si Si4 0.068911 0.002958 0.598089
Si Si5 0.250000 0.500000 0.469744
O O1 0.643731 0.353896 0.220485
O O2 0.532021 0.140901 0.335126
O O3 0.625821 0.582732 0.310208
O O4 0.518138 0.838042 0.366397
O O5 0.377726 0.586223 0.412802
O O6 0.654756 0.621695 0.470834
O O7 0.250000 0.000000 0.588925
O O8 0.000000 0.000000 0.500000
#
# Coordination Sequence:
#
# PCOD9422725 Si02
#       5
#     4   8   4   8   4
#     4  12  30  56  82 120 172 226 288 352 430 500
#     4  10  21  44  75 115 162 208 276 335 413 500
#     4  11  26  53  76 106 164 224 284 348 408 502
#     4  12  27  53  84 126 172 221 277 355 433 515
#     4   9  20  37  78 120 160 214 266 336 402 506
#
# _framework density 24.156707999999998
#
# number of rings (size 3 to 8) (size 9 to 14) (size 15 to 20)
#    0.000    1.143    2.857    1.714    8.000    3.429 
#   10.286    0.000    0.000    0.000    0.000    0.000 
#    0.000    0.000    0.000    0.000    0.000    0.000 
#
# Total GULP energy -156583.932724 kJ/mol
# GULP energy per Si atom -5592.283312 kJ/mol
# Density = 2.410173 g / cm^3
# Si number density = 24.156708 Si / 1000 Ang^3
#
#
#
# Elastic Constant Matrix: (Units=GPa)
#
#
# Indices 1 2 3 4 5 6 
#
# 1 215.9314 88.6397 82.4490 0.0000 0.0000 0.0000
# 2 88.6397 188.0829 81.7007 0.0000 0.0000 0.0000
# 3 82.4490 81.7007 117.6985 0.0000 0.0000 0.0000
# 4 0.0000 0.0000 0.0000 -8.1704 0.0000 0.0000
# 5 0.0000 0.0000 0.0000 0.0000 -52.6833 0.0000
# 6 0.0000 0.0000 0.0000 0.0000 0.0000 46.7761
#
#
#
# Elastic Compliance Matrix: (Units=1/GPa)
#
#
# Indices 1 2 3 4 5 6 
#
# 1 0.006637 -0.001587 -0.003548 0.000000 0.000000 0.000000
# 2 -0.001587 0.007991 -0.004436 0.000000 0.000000 0.000000
# 3 -0.003548 -0.004436 0.014061 0.000000 0.000000 0.000000
# 4 0.000000 0.000000 0.000000 -0.122393 0.000000 0.000000
# 5 0.000000 0.000000 0.000000 0.000000 -0.018981 0.000000
# 6 0.000000 0.000000 0.000000 0.000000 0.000000 0.021378
#
#
# Mechanical properties :
#
#
# Convention : Reuss Voigt Hill
#
# Bulk Modulus (GPa) = 104.72906 114.14351 109.43629
# Shear Modulus (GPa) = -72.48221 15.11270 -28.68475
#
# Velocity S-wave (km/s) = -5.48362 2.50394 -3.44967
# Velocity P-wave (km/s) = 1.83156 7.46414 5.43452
#
# Compressibility (1/GPa) = 0.00954845
#
# Stress axis : x y z
#
# Youngs Moduli (GPa) = 150.66628 125.13392 71.12018
#
# Poissons Ratio (x) = 0.19856 0.25233
# Poissons Ratio (y) = 0.23908 0.31547
# Poissons Ratio (z) = 0.53455 0.55506
#
# Static dielectric constant tensor:
#      x y z
#    x 1.947790 0.000000 0.000000 
#    y 0.000000 2.875530 0.000000 
#    z 0.000000 0.000000 2.066950 
# 
# From -- ./inp_files/16196.got.cif
#   From: 2010.05.17/outbox.cif.g08.bks.cpg/sg54_9_cif.got.tgz:16196.got - 2010.06.03 13:09:01.
