data_PCOD9422216
_publ_section_title
;
Structure prediction by ZEFSAII (Michael W. Deem and Ramdas Pophale) SiO2 
 PCOD9422216
Probable space group: P C C A
;
_chemical_formula_sum "Si O2"
_cell_formula_units_Z 40
_cell_length_a 8.104963
_cell_length_b 13.699970
_cell_length_c 14.212945
_cell_angle_alpha 90.000000
_cell_angle_beta 90.000000
_cell_angle_gamma 90.000000
_cell_volume 1578.173433
_symmetry_space_group_name_H-M "P C C A"
_symmetry_group_IT_number 54
_symmetry_cell_setting 'orthorhombic'
loop_
_space_group_symop_operation_xyz
x,y,z
1/2-x,-y,z
1/2+x,-y,1/2-z
-x,y,1/2-z
-x,-y,-z
1/2+x,y,-z
1/2-x,y,1/2+z
x,-y,1/2+z
loop_
_atom_site_type_symbol
_atom_site_label
_atom_site_fract_x
_atom_site_fract_y
_atom_site_fract_z
Si Si1 0.666817 0.402905 0.811650
Si Si2 0.968173 0.616186 0.518095
Si Si3 0.211722 0.888014 0.878929
Si Si4 0.340245 0.688371 0.858047
Si Si5 0.881078 0.930746 0.934530
O O1 0.750000 0.500000 0.849666
O O2 0.500000 0.420764 0.750000
O O3 0.599964 0.347947 0.902913
O O4 0.801898 0.363939 0.739173
O O5 0.997158 0.670312 0.419302
O O6 0.000000 0.500000 0.500000
O O7 0.798077 0.642819 0.570439
O O8 0.308738 0.801061 0.831916
O O9 0.014689 0.874811 0.873687
O O10 0.250000 0.000000 0.851681
O O11 0.274048 0.875066 0.987707
O O12 0.750000 0.000000 0.882354
O O13 0.000000 0.000000 0.000000
#
# Coordination Sequence:
#
# PCOD9422216 Si02
#       5
#     8   8   8   8   8
#     4  10  21  37  57  83 114 148 187 236 287 343
#     4  11  22  38  59  86 115 151 192 238 298 358
#     4   9  16  28  47  76 109 144 186 234 283 336
#     4  11  21  34  57  86 116 152 194 237 289 351
#     4   7  12  23  41  65  97 135 179 231 278 326
#
# _framework density 25.345758
#
# number of rings (size 3 to 8) (size 9 to 14) (size 15 to 20)
#    0.000    2.800    0.000    5.400    0.000    0.000 
#    0.000    0.000    0.000    1.200    0.000   26.600 
#    0.000    0.000    0.000    0.000    0.000    0.000 
#
# Total GULP energy -223173.594620 kJ/mol
# GULP energy per Si atom -5579.339866 kJ/mol
# Density = 2.528807 g / cm^3
# Si number density = 25.345758 Si / 1000 Ang^3
#
#
#
# Elastic Constant Matrix: (Units=GPa)
#
#
# Indices 1 2 3 4 5 6 
#
# 1 82.1659 5.7147 40.7341 0.0000 0.0000 0.0000
# 2 5.7147 108.2609 -4.5709 0.0000 0.0000 0.0000
# 3 40.7341 -4.5709 108.2871 0.0000 0.0000 0.0000
# 4 0.0000 0.0000 0.0000 -6.5055 0.0000 0.0000
# 5 0.0000 0.0000 0.0000 0.0000 38.6532 0.0000
# 6 0.0000 0.0000 0.0000 0.0000 0.0000 23.0967
#
#
#
# Elastic Compliance Matrix: (Units=1/GPa)
#
#
# Indices 1 2 3 4 5 6 
#
# 1 0.015076 -0.001037 -0.005715 0.000000 0.000000 0.000000
# 2 -0.001037 0.009325 0.000784 0.000000 0.000000 0.000000
# 3 -0.005715 0.000784 0.011418 0.000000 0.000000 0.000000
# 4 0.000000 0.000000 0.000000 -0.153716 0.000000 0.000000
# 5 0.000000 0.000000 0.000000 0.000000 0.025871 0.000000
# 6 0.000000 0.000000 0.000000 0.000000 0.000000 0.043296
#
#
# Mechanical properties :
#
#
# Convention : Reuss Voigt Hill
#
# Bulk Modulus (GPa) = 41.87295 42.49662 42.18479
# Shear Modulus (GPa) = -173.40595 28.17127 -72.61734
#
# Velocity S-wave (km/s) = -8.28038 3.33750 -5.35844
# Velocity P-wave (km/s) = 8.65234 5.62628 4.64801
#
# Compressibility (1/GPa) = 0.02388177
#
# Stress axis : x y z
#
# Youngs Moduli (GPa) = 66.33168 107.24112 87.58480
#
# Poissons Ratio (x) = 0.11122 0.50053
# Poissons Ratio (y) = 0.06879 -0.06864
# Poissons Ratio (z) = 0.37907 -0.08405
#
# Static dielectric constant tensor:
#      x y z
#    x 2.108800 0.000000 0.000000 
#    y 0.000000 2.105770 0.000000 
#    z 0.000000 0.000000 1.995680 
# 
# From -- ./inp_files/11498.got.cif
#   From: 2010.05.17/outbox.cif.g08.bks.cpg/sg54_6_cif.got.tgz:11498.got - 2010.06.03 13:09:01.
