data_PCOD9422872
_publ_section_title
;
Structure prediction by ZEFSAII (Michael W. Deem and Ramdas Pophale) SiO2 
 PCOD9422872
Probable space group: P C C A
;
_chemical_formula_sum "Si O2"
_cell_formula_units_Z 48
_cell_length_a 5.097183
_cell_length_b 26.777595
_cell_length_c 17.378225
_cell_angle_alpha 90.000000
_cell_angle_beta 90.000000
_cell_angle_gamma 90.000000
_cell_volume 2371.959179
_symmetry_space_group_name_H-M "P C C A"
_symmetry_group_IT_number 54
_symmetry_cell_setting 'orthorhombic'
loop_
_space_group_symop_operation_xyz
x,y,z
1/2-x,-y,z
1/2+x,-y,1/2-z
-x,y,1/2-z
-x,-y,-z
1/2+x,y,-z
1/2-x,y,1/2+z
x,-y,1/2+z
loop_
_atom_site_type_symbol
_atom_site_label
_atom_site_fract_x
_atom_site_fract_y
_atom_site_fract_z
Si Si1 0.628749 0.657829 0.676130
Si Si2 0.822505 0.948207 0.553663
Si Si3 0.969444 0.408194 0.950276
Si Si4 0.000000 0.424757 0.250000
Si Si5 0.773503 0.841829 0.051695
Si Si6 0.344841 0.732708 0.444877
Si Si7 0.250000 0.500000 0.629465
O O1 0.500000 0.683885 0.750000
O O2 0.425348 0.631284 0.617927
O O3 0.800591 0.694069 0.623714
O O4 0.786618 0.611442 0.712252
O O5 0.613289 0.948661 0.482354
O O6 0.779227 0.894553 0.593169
O O7 0.750000 0.000000 0.595747
O O8 0.935184 0.464545 0.920679
O O9 0.757465 0.400249 0.016475
O O10 0.900123 0.461362 0.316383
O O11 0.700718 0.788778 0.088030
O O12 0.572042 0.842185 0.978563
O O13 0.619206 0.727030 0.489450
#
# Coordination Sequence:
#
# PCOD9422872 Si02
#       7
#     8   8   8   4   8   8   4
#     4  12  26  44  63  88 117 155 185 233 279 342
#     4   8  12  18  32  57  93 136 175 214 265 325
#     4  12  26  45  67  94 118 144 183 227 274 332
#     4  12  26  46  66  92 124 150 190 224 288 336
#     4   8  14  26  43  68 100 138 181 224 274 324
#     4  10  22  39  62  86 113 151 193 240 284 331
#     4  12  24  46  68  92 118 154 180 228 276 346
#
# _framework density 20.236435
#
# number of rings (size 3 to 8) (size 9 to 14) (size 15 to 20)
#    0.000    1.667    1.667    3.500    2.333    1.333 
#    0.000    0.000    0.000    0.000    0.000    0.000 
#    0.000    0.000    2.833    0.500    0.333    0.667 
#
# Total GULP energy -267990.590016 kJ/mol
# GULP energy per Si atom -5583.137292 kJ/mol
# Density = 2.019038 g / cm^3
# Si number density = 20.236435 Si / 1000 Ang^3
#
#
#
# Elastic Constant Matrix: (Units=GPa)
#
#
# Indices 1 2 3 4 5 6 
#
# 1 64.2643 3.8138 1.8516 0.0000 0.0000 0.0000
# 2 3.8138 126.0759 33.5534 0.0000 0.0000 0.0000
# 3 1.8516 33.5534 54.5918 0.0000 0.0000 0.0000
# 4 0.0000 0.0000 0.0000 -13.6278 0.0000 0.0000
# 5 0.0000 0.0000 0.0000 0.0000 17.0737 0.0000
# 6 0.0000 0.0000 0.0000 0.0000 0.0000 26.1298
#
#
#
# Elastic Compliance Matrix: (Units=1/GPa)
#
#
# Indices 1 2 3 4 5 6 
#
# 1 0.015592 -0.000396 -0.000286 0.000000 0.000000 0.000000
# 2 -0.000396 0.009493 -0.005821 0.000000 0.000000 0.000000
# 3 -0.000286 -0.005821 0.021905 0.000000 0.000000 0.000000
# 4 0.000000 0.000000 0.000000 -0.073379 0.000000 0.000000
# 5 0.000000 0.000000 0.000000 0.000000 0.058569 0.000000
# 6 0.000000 0.000000 0.000000 0.000000 0.000000 0.038271
#
#
# Mechanical properties :
#
#
# Convention : Reuss Voigt Hill
#
# Bulk Modulus (GPa) = 29.42413 35.92995 32.67704
# Shear Modulus (GPa) = 52.75111 19.62935 36.19023
#
# Velocity S-wave (km/s) = 5.11116 3.11786 4.23350
# Velocity P-wave (km/s) = 7.02878 5.54572 6.33083
#
# Compressibility (1/GPa) = 0.03398572
#
# Stress axis : x y z
#
# Youngs Moduli (GPa) = 64.13356 105.34160 45.65103
#
# Poissons Ratio (x) = 0.04168 0.01304
# Poissons Ratio (y) = 0.02537 0.26574
# Poissons Ratio (z) = 0.01832 0.61321
#
# Static dielectric constant tensor:
#      x y z
#    x 1.753680 0.000000 0.000000 
#    y 0.000000 1.814710 0.000000 
#    z 0.000000 0.000000 1.722220 
# 
# From -- ./inp_files/10929.got.cif
#   From: 2010.05.17/outbox.cif.g08.bks.cpg/sg54_6_cif.got.tgz:10929.got - 2010.06.03 13:09:01.
