data_PCOD9422783
_publ_section_title
;
Structure prediction by ZEFSAII (Michael W. Deem and Ramdas Pophale) SiO2 
 PCOD9422783
Probable space group: P C C A
;
_chemical_formula_sum "Si O2"
_cell_formula_units_Z 40
_cell_length_a 14.644104
_cell_length_b 7.026920
_cell_length_c 17.418386
_cell_angle_alpha 90.000000
_cell_angle_beta 90.000000
_cell_angle_gamma 90.000000
_cell_volume 1792.403256
_symmetry_space_group_name_H-M "P C C A"
_symmetry_group_IT_number 54
_symmetry_cell_setting 'orthorhombic'
loop_
_space_group_symop_operation_xyz
x,y,z
1/2-x,-y,z
1/2+x,-y,1/2-z
-x,y,1/2-z
-x,-y,-z
1/2+x,y,-z
1/2-x,y,1/2+z
x,-y,1/2+z
loop_
_atom_site_type_symbol
_atom_site_label
_atom_site_fract_x
_atom_site_fract_y
_atom_site_fract_z
Si Si1 0.500000 0.029472 0.250000
Si Si2 0.055982 0.814408 0.091818
Si Si3 0.250000 0.500000 0.872792
Si Si4 0.941864 0.257529 0.453417
Si Si5 0.743921 0.771393 0.984241
Si Si6 0.067681 0.349417 0.312971
O O1 0.462796 0.158781 0.181310
O O2 0.477996 0.282682 0.460110
O O3 0.152823 0.732602 0.064324
O O4 0.073910 0.125712 0.284350
O O5 0.056710 0.033260 0.064204
O O6 0.255142 0.321769 0.931583
O O7 0.339880 0.465732 0.822276
O O8 0.835967 0.307359 0.445387
O O9 0.011832 0.342216 0.392361
O O10 0.750000 0.000000 0.991780
O O11 0.000000 0.434468 0.250000
#
# Coordination Sequence:
#
# PCOD9422783 Si02
#       6
#     4   8   4   8   8   8
#     4   8  18  34  68  92 142 186 216 294 358 410
#     4   9  16  35  62  94 128 172 230 269 337 407
#     4  12  22  42  68  98 130 176 234 278 336 412
#     4   9  17  35  64  90 131 171 222 277 326 404
#     4  10  22  36  67 101 124 171 228 276 328 405
#     4   9  20  38  64  92 136 186 218 284 353 399
#
# _framework density 22.316405
#
# number of rings (size 3 to 8) (size 9 to 14) (size 15 to 20)
#    0.600    2.000    2.000    0.000    2.800    0.800 
#    0.000    3.000    6.600    1.200    0.000    0.000 
#    0.000    0.000    0.000    0.000    0.000    0.000 
#
# Total GULP energy -223105.743688 kJ/mol
# GULP energy per Si atom -5577.643592 kJ/mol
# Density = 2.226561 g / cm^3
# Si number density = 22.316405 Si / 1000 Ang^3
#
#
#
# Elastic Constant Matrix: (Units=GPa)
#
#
# Indices 1 2 3 4 5 6 
#
# 1 196.9911 34.0601 85.3276 0.0000 0.0000 0.0000
# 2 34.0601 115.8570 43.2226 0.0000 0.0000 0.0000
# 3 85.3276 43.2226 146.3551 0.0000 0.0000 0.0000
# 4 0.0000 0.0000 0.0000 -54.6882 0.0000 0.0000
# 5 0.0000 0.0000 0.0000 0.0000 31.5222 0.0000
# 6 0.0000 0.0000 0.0000 0.0000 0.0000 108.8933
#
#
#
# Elastic Compliance Matrix: (Units=1/GPa)
#
#
# Indices 1 2 3 4 5 6 
#
# 1 0.006827 -0.000587 -0.003807 0.000000 0.000000 0.000000
# 2 -0.000587 0.009750 -0.002537 0.000000 0.000000 0.000000
# 3 -0.003807 -0.002537 0.009802 0.000000 0.000000 0.000000
# 4 0.000000 0.000000 0.000000 -0.018285 0.000000 0.000000
# 5 0.000000 0.000000 0.000000 0.000000 0.031724 0.000000
# 6 0.000000 0.000000 0.000000 0.000000 0.000000 0.009183
#
#
# Mechanical properties :
#
#
# Convention : Reuss Voigt Hill
#
# Bulk Modulus (GPa) = 79.89375 87.15819 83.52597
# Shear Modulus (GPa) = 74.58830 36.91834 55.75332
#
# Velocity S-wave (km/s) = 5.78754 4.07174 5.00373
# Velocity P-wave (km/s) = 8.97435 7.82597 8.41976
#
# Compressibility (1/GPa) = 0.01251662
#
# Stress axis : x y z
#
# Youngs Moduli (GPa) = 146.48213 102.55907 102.02482
#
# Poissons Ratio (x) = 0.06018 0.38839
# Poissons Ratio (y) = 0.08595 0.25889
# Poissons Ratio (z) = 0.55763 0.26024
#
# Static dielectric constant tensor:
#      x y z
#    x 1.918340 0.000000 0.000000 
#    y 0.000000 1.898000 0.000000 
#    z 0.000000 0.000000 1.869980 
# 
# From -- ./inp_files/8789.got.cif
#   From: 2010.05.17/outbox.cif.g08.bks.cpg/sg54_5_cif.got.tgz:8789.got - 2010.06.03 13:09:01.
