data_PCOD9422375
_publ_section_title
;
Structure prediction by ZEFSAII (Michael W. Deem and Ramdas Pophale) SiO2 
 PCOD9422375
Probable space group: P C C A
;
_chemical_formula_sum "Si O2"
_cell_formula_units_Z 60
_cell_length_a 18.199431
_cell_length_b 16.650412
_cell_length_c 8.822203
_cell_angle_alpha 90.000000
_cell_angle_beta 90.000000
_cell_angle_gamma 90.000000
_cell_volume 2673.374745
_symmetry_space_group_name_H-M "P C C A"
_symmetry_group_IT_number 54
_symmetry_cell_setting 'orthorhombic'
loop_
_space_group_symop_operation_xyz
x,y,z
1/2-x,-y,z
1/2+x,-y,1/2-z
-x,y,1/2-z
-x,-y,-z
1/2+x,y,-z
1/2-x,y,1/2+z
x,-y,1/2+z
loop_
_atom_site_type_symbol
_atom_site_label
_atom_site_fract_x
_atom_site_fract_y
_atom_site_fract_z
Si Si1 0.859350 0.214884 0.357478
Si Si2 0.372320 0.614791 0.504984
Si Si3 0.586378 0.048112 0.745090
Si Si4 0.917561 0.475161 0.693891
Si Si5 0.463302 0.327297 0.500745
Si Si6 0.223890 0.235359 0.459041
Si Si7 0.000000 0.792975 0.250000
Si Si8 0.876827 0.896653 0.409144
O O1 0.897246 0.127886 0.343889
O O2 0.920164 0.285080 0.363648
O O3 0.807002 0.223483 0.210504
O O4 0.809374 0.226370 0.506252
O O5 0.380315 0.569563 0.665454
O O6 0.371890 0.548741 0.372481
O O7 0.449537 0.661634 0.480812
O O8 0.306405 0.677483 0.505975
O O9 0.500000 0.028171 0.750000
O O10 0.604611 0.068377 0.573258
O O11 0.633864 0.972814 0.801291
O O12 0.931326 0.411714 0.557445
O O13 0.000000 0.499886 0.750000
O O14 0.456244 0.265319 0.361606
O O15 0.187519 0.166401 0.563363
O O16 0.054419 0.847127 0.153561
#
# Coordination Sequence:
#
# PCOD9422375 Si02
#       8
#     8   8   8   8   8   8   4   8
#     4  11  29  44  71  98 143 187 242 291 355 434
#     4  11  23  42  71 102 140 172 239 284 363 420
#     4  11  24  43  67 108 137 176 233 295 360 408
#     4  10  21  38  66 105 135 170 225 289 359 414
#     4  11  21  40  70 102 131 189 224 298 347 421
#     4  11  27  48  67  99 139 193 234 289 357 439
#     4  12  20  38  70 104 144 182 226 294 350 430
#     4  11  24  41  68 102 138 178 230 283 350 420
#
# _framework density 22.443542000000001
#
# number of rings (size 3 to 8) (size 9 to 14) (size 15 to 20)
#    0.000    1.067    4.000    2.800   11.200    0.533 
#    0.000    3.333    0.000    0.000    0.000    0.000 
#    0.000    0.000    0.000    0.000    0.000    0.000 
#
# Total GULP energy -335837.918178 kJ/mol
# GULP energy per Si atom -5597.298636 kJ/mol
# Density = 2.239246 g / cm^3
# Si number density = 22.443542 Si / 1000 Ang^3
#
#
#
# Elastic Constant Matrix: (Units=GPa)
#
#
# Indices 1 2 3 4 5 6 
#
# 1 55.8789 24.7230 22.3920 0.0000 0.0000 0.0000
# 2 24.7230 115.9104 41.4920 0.0000 0.0000 0.0000
# 3 22.3920 41.4920 78.6278 0.0000 0.0000 0.0000
# 4 0.0000 0.0000 0.0000 29.9753 0.0000 0.0000
# 5 0.0000 0.0000 0.0000 0.0000 30.7708 0.0000
# 6 0.0000 0.0000 0.0000 0.0000 0.0000 0.3604
#
#
#
# Elastic Compliance Matrix: (Units=1/GPa)
#
#
# Indices 1 2 3 4 5 6 
#
# 1 0.020951 -0.002876 -0.004449 0.000000 0.000000 0.000000
# 2 -0.002876 0.011031 -0.005002 0.000000 0.000000 0.000000
# 3 -0.004449 -0.005002 0.016625 0.000000 0.000000 0.000000
# 4 0.000000 0.000000 0.000000 0.033361 0.000000 0.000000
# 5 0.000000 0.000000 0.000000 0.000000 0.032498 0.000000
# 6 0.000000 0.000000 0.000000 0.000000 0.000000 2.774546
#
#
# Mechanical properties :
#
#
# Convention : Reuss Voigt Hill
#
# Bulk Modulus (GPa) = 41.74854 47.51456 44.63155
# Shear Modulus (GPa) = 1.71136 23.00864 12.36000
#
# Velocity S-wave (km/s) = 0.87417 3.20531 2.34928
# Velocity P-wave (km/s) = 4.43406 5.90892 5.22380
#
# Compressibility (1/GPa) = 0.02395293
#
# Stress axis : x y z
#
# Youngs Moduli (GPa) = 47.73008 90.64989 60.15131
#
# Poissons Ratio (x) = 0.26073 0.26760
# Poissons Ratio (y) = 0.13728 0.30089
# Poissons Ratio (z) = 0.21234 0.45345
#
# Static dielectric constant tensor:
#      x y z
#    x 1.793670 0.000000 0.000000 
#    y 0.000000 1.833490 0.000000 
#    z 0.000000 0.000000 1.689370 
# 
# From -- ./inp_files/4369.got.cif
#   From: 2010.05.17/outbox.cif.g08.bks.cpg/sg54_3_cif.got.tgz:4369.got - 2010.06.03 13:09:01.
