data_PCOD9422234
_publ_section_title
;
Structure prediction by ZEFSAII (Michael W. Deem and Ramdas Pophale) SiO2 
 PCOD9422234
Probable space group: P C C A
;
_chemical_formula_sum "Si O2"
_cell_formula_units_Z 64
_cell_length_a 30.638804
_cell_length_b 10.286323
_cell_length_c 8.686319
_cell_angle_alpha 90.000000
_cell_angle_beta 90.000000
_cell_angle_gamma 90.000000
_cell_volume 2737.585806
_symmetry_space_group_name_H-M "P C C A"
_symmetry_group_IT_number 54
_symmetry_cell_setting 'orthorhombic'
loop_
_space_group_symop_operation_xyz
x,y,z
1/2-x,-y,z
1/2+x,-y,1/2-z
-x,y,1/2-z
-x,-y,-z
1/2+x,y,-z
1/2-x,y,1/2+z
x,-y,1/2+z
loop_
_atom_site_type_symbol
_atom_site_label
_atom_site_fract_x
_atom_site_fract_y
_atom_site_fract_z
Si Si1 0.850551 0.066054 0.404339
Si Si2 0.517720 0.648632 0.033452
Si Si3 0.423535 0.283716 0.224059
Si Si4 0.568506 0.209938 0.937240
Si Si5 0.166863 0.820151 0.253306
Si Si6 0.731103 0.643125 0.565584
Si Si7 0.601699 0.418565 0.729885
Si Si8 0.689849 0.301687 0.731081
O O1 0.903858 0.083680 0.383238
O O2 0.842331 0.112415 0.579291
O O3 0.832651 0.169630 0.282507
O O4 0.823389 0.937841 0.361902
O O5 0.479781 0.738519 0.103749
O O6 0.563381 0.639079 0.124189
O O7 0.500000 0.500000 0.000000
O O8 0.534392 0.716991 0.880353
O O9 0.432718 0.209166 0.380353
O O10 0.377169 0.230145 0.171794
O O11 0.412705 0.434932 0.250379
O O12 0.597993 0.334956 0.886821
O O13 0.197561 0.701407 0.307379
O O14 0.750000 0.500000 0.598671
O O15 0.775029 0.724099 0.598609
O O16 0.712154 0.650082 0.392689
O O17 0.651242 0.398539 0.676678
#
# Coordination Sequence:
#
# PCOD9422234 Si02
#       8
#     8   8   8   8   8   8   8   8
#     4   9  22  44  63  91 130 173 234 270 339 407
#     4  12  22  34  60  98 132 174 231 289 351 424
#     4  11  21  36  60  92 130 171 223 281 361 408
#     4  10  21  37  59  89 131 173 221 290 339 413
#     4  10  23  42  67  92 131 183 222 288 335 415
#     4  11  23  43  69 102 137 168 220 276 353 426
#     4  11  21  37  59  95 135 174 221 283 362 426
#     4  10  24  41  65  95 134 177 216 281 337 421
#
# _framework density 23.378261999999999
#
# number of rings (size 3 to 8) (size 9 to 14) (size 15 to 20)
#    0.000    1.500    2.500    2.625    0.000    5.500 
#    0.000    3.125    0.000    4.500    0.000    2.625 
#    0.000    0.000    0.000    0.000    0.000    0.000 
#
# Total GULP energy -356626.356020 kJ/mol
# GULP energy per Si atom -5572.286813 kJ/mol
# Density = 2.332505 g / cm^3
# Si number density = 23.378262 Si / 1000 Ang^3
#
#
#
# Elastic Constant Matrix: (Units=GPa)
#
#
# Indices 1 2 3 4 5 6 
#
# 1 132.3025 24.8747 28.1601 0.0000 0.0000 0.0000
# 2 24.8747 64.9883 16.9787 0.0000 0.0000 0.0000
# 3 28.1601 16.9787 47.4673 0.0000 0.0000 0.0000
# 4 0.0000 0.0000 0.0000 16.5629 0.0000 0.0000
# 5 0.0000 0.0000 0.0000 0.0000 43.6261 0.0000
# 6 0.0000 0.0000 0.0000 0.0000 0.0000 20.5647
#
#
#
# Elastic Compliance Matrix: (Units=1/GPa)
#
#
# Indices 1 2 3 4 5 6 
#
# 1 0.008938 -0.002246 -0.004499 0.000000 0.000000 0.000000
# 2 -0.002246 0.017538 -0.004941 0.000000 0.000000 0.000000
# 3 -0.004499 -0.004941 0.025504 0.000000 0.000000 0.000000
# 4 0.000000 0.000000 0.000000 0.060376 0.000000 0.000000
# 5 0.000000 0.000000 0.000000 0.000000 0.022922 0.000000
# 6 0.000000 0.000000 0.000000 0.000000 0.000000 0.048627
#
#
# Mechanical properties :
#
#
# Convention : Reuss Voigt Hill
#
# Bulk Modulus (GPa) = 34.95542 42.75392 38.85467
# Shear Modulus (GPa) = 23.06138 27.80038 25.43088
#
# Velocity S-wave (km/s) = 3.14418 3.45215 3.30176
# Velocity P-wave (km/s) = 5.30714 5.84957 5.58494
#
# Compressibility (1/GPa) = 0.02860787
#
# Stress axis : x y z
#
# Youngs Moduli (GPa) = 111.87759 57.01971 39.20994
#
# Poissons Ratio (x) = 0.12805 0.17642
# Poissons Ratio (y) = 0.25124 0.19373
# Poissons Ratio (z) = 0.50338 0.28173
#
# Static dielectric constant tensor:
#      x y z
#    x 1.971070 0.000000 0.000000 
#    y 0.000000 2.014650 0.000000 
#    z 0.000000 0.000000 1.853630 
# 
# From -- ./inp_files/5967.got.cif
#   From: 2010.05.17/outbox.cif.g08.bks.cpg/sg54_3_cif.got.tgz:5967.got - 2010.06.03 13:09:01.
