data_PCOD9422385
_publ_section_title
;
Structure prediction by ZEFSAII (Michael W. Deem and Ramdas Pophale) SiO2 
 PCOD9422385
Probable space group: P C C A
;
_chemical_formula_sum "Si O2"
_cell_formula_units_Z 56
_cell_length_a 29.100915
_cell_length_b 15.219454
_cell_length_c 5.510974
_cell_angle_alpha 90.000000
_cell_angle_beta 90.000000
_cell_angle_gamma 90.000000
_cell_volume 2440.810590
_symmetry_space_group_name_H-M "P C C A"
_symmetry_group_IT_number 54
_symmetry_cell_setting 'orthorhombic'
loop_
_space_group_symop_operation_xyz
x,y,z
1/2-x,-y,z
1/2+x,-y,1/2-z
-x,y,1/2-z
-x,-y,-z
1/2+x,y,-z
1/2-x,y,1/2+z
x,-y,1/2+z
loop_
_atom_site_type_symbol
_atom_site_label
_atom_site_fract_x
_atom_site_fract_y
_atom_site_fract_z
Si Si1 0.528304 0.222204 0.999876
Si Si2 0.669530 0.502698 0.590534
Si Si3 0.886776 0.316838 0.564838
Si Si4 0.352764 0.309594 0.935249
Si Si5 0.674844 0.969262 0.082699
Si Si6 0.776307 0.800442 0.452085
Si Si7 0.069527 0.963650 0.410431
O O1 0.500000 0.215317 0.750000
O O2 0.560260 0.308517 0.995352
O O3 0.500000 0.222742 0.250000
O O4 0.561638 0.137132 0.019421
O O5 0.696210 0.497888 0.840274
O O6 0.637203 0.588470 0.590425
O O7 0.639206 0.413775 0.589115
O O8 0.881308 0.275777 0.833745
O O9 0.861516 0.272248 0.333571
O O10 0.300232 0.293419 0.011214
O O11 0.695931 0.979611 0.351427
O O12 0.622886 0.005247 0.108480
O O13 0.682622 0.869635 0.001689
O O14 0.741902 0.811518 0.679351
O O15 0.049989 0.017667 0.641198
#
# Coordination Sequence:
#
# PCOD9422385 Si02
#       7
#     8   8   8   8   8   8   8
#     4  12  26  41  63  98 134 162 203 270 333 366
#     4   8  16  34  60  94 114 154 214 256 286 352
#     4  10  21  38  69  91 126 166 218 253 299 384
#     4  10  21  38  69  91 126 166 218 253 299 384
#     4  10  23  40  63  87 123 168 218 255 303 382
#     4  12  26  41  63  98 134 162 203 270 333 366
#     4  10  23  40  63  87 123 168 218 255 303 382
#
# _framework density 22.943197999999999
#
# number of rings (size 3 to 8) (size 9 to 14) (size 15 to 20)
#    0.000    1.714    0.000    3.429    8.000    3.429 
#    0.000    0.000    0.000   46.286    0.000    0.000 
#    0.000    0.000    0.000    0.000    0.000    0.000 
#
# Total GULP energy -311995.823617 kJ/mol
# GULP energy per Si atom -5571.353993 kJ/mol
# Density = 2.289098 g / cm^3
# Si number density = 22.943198 Si / 1000 Ang^3
#
#
#
# Elastic Constant Matrix: (Units=GPa)
#
#
# Indices 1 2 3 4 5 6 
#
# 1 69.2670 25.5532 8.3357 0.0000 0.0000 0.0000
# 2 25.5532 60.5914 4.3527 0.0000 0.0000 0.0000
# 3 8.3357 4.3527 195.8444 0.0000 0.0000 0.0000
# 4 0.0000 0.0000 0.0000 16.7849 0.0000 0.0000
# 5 0.0000 0.0000 0.0000 0.0000 20.5784 0.0000
# 6 0.0000 0.0000 0.0000 0.0000 0.0000 -17.2631
#
#
#
# Elastic Compliance Matrix: (Units=1/GPa)
#
#
# Indices 1 2 3 4 5 6 
#
# 1 0.017160 -0.007196 -0.000570 0.000000 0.000000 0.000000
# 2 -0.007196 0.019548 -0.000128 0.000000 0.000000 0.000000
# 3 -0.000570 -0.000128 0.005133 0.000000 0.000000 0.000000
# 4 0.000000 0.000000 0.000000 0.059577 0.000000 0.000000
# 5 0.000000 0.000000 0.000000 0.000000 0.048595 0.000000
# 6 0.000000 0.000000 0.000000 0.000000 0.000000 -0.057927
#
#
# Mechanical properties :
#
#
# Convention : Reuss Voigt Hill
#
# Bulk Modulus (GPa) = 38.38453 44.68731 41.53592
# Shear Modulus (GPa) = 42.89649 23.18412 33.04030
#
# Velocity S-wave (km/s) = 4.32867 3.18229 3.79897
# Velocity P-wave (km/s) = 6.46141 5.74650 6.11441
#
# Compressibility (1/GPa) = 0.02605216
#
# Stress axis : x y z
#
# Youngs Moduli (GPa) = 58.27437 51.15624 194.80933
#
# Poissons Ratio (x) = 0.36812 0.11113
# Poissons Ratio (y) = 0.41934 0.02497
# Poissons Ratio (z) = 0.03324 0.00656
#
# Static dielectric constant tensor:
#      x y z
#    x 1.737910 0.000000 0.000000 
#    y 0.000000 1.938420 0.000000 
#    z 0.000000 0.000000 1.973640 
# 
# From -- ./inp_files/743.got.cif
#   From: 2010.05.17/outbox.cif.g08.bks.cpg/sg54_1_cif.got.tgz:743.got - 2010.06.03 13:09:01.
