data_PCOD9422314
_publ_section_title
;
Structure prediction by ZEFSAII (Michael W. Deem and Ramdas Pophale) SiO2 
 PCOD9422314
Probable space group: P C C A
;
_chemical_formula_sum "Si O2"
_cell_formula_units_Z 40
_cell_length_a 5.409319
_cell_length_b 16.308529
_cell_length_c 18.821973
_cell_angle_alpha 90.000000
_cell_angle_beta 90.000000
_cell_angle_gamma 90.000000
_cell_volume 1660.437488
_symmetry_space_group_name_H-M "P C C A"
_symmetry_group_IT_number 54
_symmetry_cell_setting 'orthorhombic'
loop_
_space_group_symop_operation_xyz
x,y,z
1/2-x,-y,z
1/2+x,-y,1/2-z
-x,y,1/2-z
-x,-y,-z
1/2+x,y,-z
1/2-x,y,1/2+z
x,-y,1/2+z
loop_
_atom_site_type_symbol
_atom_site_label
_atom_site_fract_x
_atom_site_fract_y
_atom_site_fract_z
Si Si1 0.673709 0.702068 0.032212
Si Si2 0.910496 0.326854 0.331033
Si Si3 0.750000 0.500000 0.796971
Si Si4 0.896622 0.111220 0.975534
Si Si5 0.500000 0.052550 0.750000
Si Si6 0.852387 0.837517 0.324299
O O1 0.633868 0.690275 0.115525
O O2 0.427529 0.666026 0.996110
O O3 0.657701 0.797994 0.009687
O O4 0.799686 0.417018 0.339811
O O5 0.713538 0.255245 0.343846
O O6 0.000000 0.319597 0.250000
O O7 0.500000 0.512472 0.750000
O O8 0.971290 0.120887 0.893003
O O9 0.623249 0.074261 0.981452
O O10 0.403441 0.113336 0.688970
O O11 0.250000 0.000000 0.765755
O O12 0.000000 0.839074 0.250000
#
# Coordination Sequence:
#
# PCOD9422314 Si02
#       6
#     8   8   4   8   4   8
#     4  10  21  38  59  92 141 175 225 292 335 400
#     4  11  23  40  70 104 135 186 244 281 349 408
#     4  10  24  44  60  96 150 178 226 310 340 394
#     4  10  22  39  62 101 144 175 225 291 338 403
#     4  12  28  50  68 110 146 170 224 310 362 410
#     4  12  25  40  79 105 134 187 243 278 353 433
#
# _framework density 24.090036999999999
#
# number of rings (size 3 to 8) (size 9 to 14) (size 15 to 20)
#    0.000    1.200    6.000    0.600    8.400    3.200 
#    0.000    1.000    0.000    3.600    0.000    0.000 
#    0.000    0.000    0.000    0.000    0.000    0.000 
#
# Total GULP energy -223645.201726 kJ/mol
# GULP energy per Si atom -5591.130043 kJ/mol
# Density = 2.403521 g / cm^3
# Si number density = 24.090037 Si / 1000 Ang^3
#
#
#
# Elastic Constant Matrix: (Units=GPa)
#
#
# Indices 1 2 3 4 5 6 
#
# 1 156.2616 20.1613 33.5548 0.0000 0.0000 0.0000
# 2 20.1613 98.6054 -0.6080 0.0000 0.0000 0.0000
# 3 33.5548 -0.6080 134.3484 0.0000 0.0000 0.0000
# 4 0.0000 0.0000 0.0000 -23.1965 0.0000 0.0000
# 5 0.0000 0.0000 0.0000 0.0000 44.9854 0.0000
# 6 0.0000 0.0000 0.0000 0.0000 0.0000 20.9994
#
#
#
# Elastic Compliance Matrix: (Units=1/GPa)
#
#
# Indices 1 2 3 4 5 6 
#
# 1 0.006959 -0.001434 -0.001745 0.000000 0.000000 0.000000
# 2 -0.001434 0.010437 0.000405 0.000000 0.000000 0.000000
# 3 -0.001745 0.000405 0.007881 0.000000 0.000000 0.000000
# 4 0.000000 0.000000 0.000000 -0.043110 0.000000 0.000000
# 5 0.000000 0.000000 0.000000 0.000000 0.022229 0.000000
# 6 0.000000 0.000000 0.000000 0.000000 0.000000 0.047620
#
#
# Mechanical properties :
#
#
# Convention : Reuss Voigt Hill
#
# Bulk Modulus (GPa) = 50.68117 55.04796 52.86457
# Shear Modulus (GPa) = 77.95454 30.96481 54.45968
#
# Velocity S-wave (km/s) = 5.69473 3.58911 4.75981
# Velocity P-wave (km/s) = 8.02021 6.33057 7.22495
#
# Compressibility (1/GPa) = 0.01973119
#
# Stress axis : x y z
#
# Youngs Moduli (GPa) = 143.69623 95.81239 126.88905
#
# Poissons Ratio (x) = 0.13736 0.22137
# Poissons Ratio (y) = 0.20601 -0.05143
# Poissons Ratio (z) = 0.25069 -0.03883
#
# Static dielectric constant tensor:
#      x y z
#    x 1.992180 0.000000 0.000000 
#    y 0.000000 1.956010 0.000000 
#    z 0.000000 0.000000 1.909910 
# 
# From -- ./inp_files/15806.got.cif
#   From: 2010.05.17/outbox.cif.g08.bks.cpg/sg54_8_cif.got.tgz:15806.got - 2010.06.03 13:09:01.
