data_PCOD9422377
_publ_section_title
;
Structure prediction by ZEFSAII (Michael W. Deem and Ramdas Pophale) SiO2 
 PCOD9422377
Probable space group: P C C A
;
_chemical_formula_sum "Si O2"
_cell_formula_units_Z 40
_cell_length_a 15.906979
_cell_length_b 5.180743
_cell_length_c 19.610151
_cell_angle_alpha 90.000000
_cell_angle_beta 90.000000
_cell_angle_gamma 90.000000
_cell_volume 1616.071958
_symmetry_space_group_name_H-M "P C C A"
_symmetry_group_IT_number 54
_symmetry_cell_setting 'orthorhombic'
loop_
_space_group_symop_operation_xyz
x,y,z
1/2-x,-y,z
1/2+x,-y,1/2-z
-x,y,1/2-z
-x,-y,-z
1/2+x,y,-z
1/2-x,y,1/2+z
x,-y,1/2+z
loop_
_atom_site_type_symbol
_atom_site_label
_atom_site_fract_x
_atom_site_fract_y
_atom_site_fract_z
Si Si1 0.250000 0.000000 0.542061
Si Si2 0.250000 0.500000 0.633478
Si Si3 0.648632 0.376210 0.245960
Si Si4 0.750000 0.000000 0.175331
Si Si5 0.602379 0.072026 0.065314
Si Si6 0.000000 0.050863 0.250000
Si Si7 0.456544 0.595988 0.373018
O O1 0.263442 0.750295 0.587822
O O2 0.166766 0.923395 0.497875
O O3 0.332514 0.497283 0.681578
O O4 0.619043 0.537009 0.180632
O O5 0.734767 0.234592 0.225826
O O6 0.578382 0.148167 0.251875
O O7 0.830038 0.978280 0.126349
O O8 0.545123 0.317001 0.087862
O O9 0.551432 0.805737 0.067026
O O10 0.991589 0.238650 0.315783
#
# Coordination Sequence:
#
# PCOD9422377 Si02
#       7
#     4   4   8   4   8   4   8
#     4  11  25  44  66 100 131 193 238 292 336 391
#     4  12  26  42  70  96 144 180 232 292 342 416
#     4  11  24  42  67 106 145 174 224 283 373 430
#     4   9  17  38  62 100 121 167 212 298 336 395
#     4  10  21  38  66  95 131 165 241 287 328 395
#     4  12  24  42  66 112 142 186 210 278 384 446
#     4  11  21  39  65 101 134 172 215 289 346 413
#
# _framework density 24.751372
#
# number of rings (size 3 to 8) (size 9 to 14) (size 15 to 20)
#    0.000    1.200    4.000    3.600    2.800    5.600 
#    0.000    0.000    0.000    7.200    0.000    0.000 
#    0.000    0.000    0.000    0.000    0.000    0.000 
#
# Total GULP energy -222694.751181 kJ/mol
# GULP energy per Si atom -5567.368780 kJ/mol
# Density = 2.469504 g / cm^3
# Si number density = 24.751372 Si / 1000 Ang^3
#
#
#
# Elastic Constant Matrix: (Units=GPa)
#
#
# Indices 1 2 3 4 5 6 
#
# 1 48.9017 29.1099 17.1261 0.0000 0.0000 0.0000
# 2 29.1099 173.7031 42.5589 0.0000 0.0000 0.0000
# 3 17.1261 42.5589 103.0043 0.0000 0.0000 0.0000
# 4 0.0000 0.0000 0.0000 40.9181 0.0000 0.0000
# 5 0.0000 0.0000 0.0000 0.0000 24.4738 0.0000
# 6 0.0000 0.0000 0.0000 0.0000 0.0000 33.7754
#
#
#
# Elastic Compliance Matrix: (Units=1/GPa)
#
#
# Indices 1 2 3 4 5 6 
#
# 1 0.023286 -0.003286 -0.002514 0.000000 0.000000 0.000000
# 2 -0.003286 0.006869 -0.002292 0.000000 0.000000 0.000000
# 3 -0.002514 -0.002292 0.011073 0.000000 0.000000 0.000000
# 4 0.000000 0.000000 0.000000 0.024439 0.000000 0.000000
# 5 0.000000 0.000000 0.000000 0.000000 0.040860 0.000000
# 6 0.000000 0.000000 0.000000 0.000000 0.000000 0.029607
#
#
# Mechanical properties :
#
#
# Convention : Reuss Voigt Hill
#
# Bulk Modulus (GPa) = 39.92923 55.91098 47.92011
# Shear Modulus (GPa) = 31.12029 35.62105 33.37067
#
# Velocity S-wave (km/s) = 3.54971 3.79773 3.67582
# Velocity P-wave (km/s) = 5.74176 6.47058 6.11703
#
# Compressibility (1/GPa) = 0.02504431
#
# Stress axis : x y z
#
# Youngs Moduli (GPa) = 42.94448 145.57711 90.30818
#
# Poissons Ratio (x) = 0.47843 0.22701
# Poissons Ratio (y) = 0.14113 0.20697
# Poissons Ratio (z) = 0.10795 0.33363
#
# Static dielectric constant tensor:
#      x y z
#    x 2.226530 0.000000 0.000000 
#    y 0.000000 2.099110 0.000000 
#    z 0.000000 0.000000 1.982690 
# 
# From -- ./inp_files/18447.got.cif
#   From: 2010.05.17/outbox.cif.g08.bks.cpg/sg54_10_cif.got.tgz:18447.got - 2010.06.03 13:09:01.
