data_PCOD9422913
_publ_section_title
;
Structure prediction by ZEFSAII (Michael W. Deem and Ramdas Pophale) SiO2 
 PCOD9422913
Probable space group: P C C A
;
_chemical_formula_sum "Si O2"
_cell_formula_units_Z 48
_cell_length_a 8.779462
_cell_length_b 8.757931
_cell_length_c 31.460319
_cell_angle_alpha 90.000000
_cell_angle_beta 90.000000
_cell_angle_gamma 90.000000
_cell_volume 2418.981487
_symmetry_space_group_name_H-M "P C C A"
_symmetry_group_IT_number 54
_symmetry_cell_setting 'orthorhombic'
loop_
_space_group_symop_operation_xyz
x,y,z
1/2-x,-y,z
1/2+x,-y,1/2-z
-x,y,1/2-z
-x,-y,-z
1/2+x,y,-z
1/2-x,y,1/2+z
x,-y,1/2+z
loop_
_atom_site_type_symbol
_atom_site_label
_atom_site_fract_x
_atom_site_fract_y
_atom_site_fract_z
Si Si1 0.250000 0.500000 0.776225
Si Si2 0.239349 0.828155 0.050752
Si Si3 0.819924 0.838564 0.760537
Si Si4 0.750000 0.500000 0.578888
Si Si5 0.246447 0.748808 0.147448
Si Si6 0.558609 0.664360 0.514896
Si Si7 0.997470 0.509548 0.150889
O O1 0.256402 0.332604 0.753062
O O2 0.397217 0.499240 0.806791
O O3 0.259751 0.822791 0.101326
O O4 0.079214 0.752939 0.037166
O O5 0.250000 0.000000 0.035278
O O6 0.373488 0.740460 0.026844
O O7 0.784584 0.842773 0.810686
O O8 0.000000 0.837934 0.750000
O O9 0.750000 0.000000 0.742462
O O10 0.696522 0.636425 0.548133
O O11 0.608758 0.476449 0.610413
O O12 0.079096 0.673219 0.149338
O O13 0.370056 0.613772 0.149862
O O14 0.500000 0.500000 0.500000
#
# Coordination Sequence:
#
# PCOD9422913 Si02
#       7
#     4   8   8   4   8   8   8
#     4  11  24  48  71 104 138 186 237 286 354 417
#     4  12  26  43  64 101 137 178 226 287 354 407
#     4  12  28  47  72 107 145 186 234 292 352 426
#     4  11  20  38  65 102 130 172 237 286 342 397
#     4  11  23  42  69  98 138 181 228 281 348 414
#     4  12  23  42  69  94 131 179 233 283 335 418
#     4  10  22  39  72 102 133 177 236 287 337 415
#
# _framework density 19.843062
#
# number of rings (size 3 to 8) (size 9 to 14) (size 15 to 20)
#    0.000    0.667    5.000    3.000    4.667    0.000 
#    0.000    0.000    0.000    0.000    0.000    0.000 
#    0.000    0.000    0.000    0.000    0.000    0.000 
#
# Total GULP energy -267899.817457 kJ/mol
# GULP energy per Si atom -5581.246197 kJ/mol
# Density = 1.979790 g / cm^3
# Si number density = 19.843062 Si / 1000 Ang^3
#
#
#
# Elastic Constant Matrix: (Units=GPa)
#
#
# Indices 1 2 3 4 5 6 
#
# 1 97.9649 52.5841 41.0949 0.0000 0.0000 0.0000
# 2 52.5841 141.1861 50.0728 0.0000 0.0000 0.0000
# 3 41.0949 50.0728 124.8802 0.0000 0.0000 0.0000
# 4 0.0000 0.0000 0.0000 260.8298 0.0000 0.0000
# 5 0.0000 0.0000 0.0000 0.0000 6.4767 0.0000
# 6 0.0000 0.0000 0.0000 0.0000 0.0000 -12.0300
#
#
#
# Elastic Compliance Matrix: (Units=1/GPa)
#
#
# Indices 1 2 3 4 5 6 
#
# 1 0.013573 -0.004046 -0.002844 0.000000 0.000000 0.000000
# 2 -0.004046 0.009463 -0.002463 0.000000 0.000000 0.000000
# 3 -0.002844 -0.002463 0.009931 0.000000 0.000000 0.000000
# 4 0.000000 0.000000 0.000000 0.003834 0.000000 0.000000
# 5 0.000000 0.000000 0.000000 0.000000 0.154399 0.000000
# 6 0.000000 0.000000 0.000000 0.000000 0.000000 -0.083126
#
#
# Mechanical properties :
#
#
# Convention : Reuss Voigt Hill
#
# Bulk Modulus (GPa) = 70.12339 72.39277 71.25808
# Shear Modulus (GPa) = 38.01294 65.74061 51.87677
#
# Velocity S-wave (km/s) = 4.38160 5.76213 5.11862
# Velocity P-wave (km/s) = 7.81112 8.99063 8.42155
#
# Compressibility (1/GPa) = 0.01426058
#
# Stress axis : x y z
#
# Youngs Moduli (GPa) = 73.67705 105.66976 100.69384
#
# Poissons Ratio (x) = 0.42759 0.28637
# Poissons Ratio (y) = 0.29813 0.24800
# Poissons Ratio (z) = 0.20953 0.26026
#
# Static dielectric constant tensor:
#      x y z
#    x 1.689320 0.000000 0.000000 
#    y 0.000000 1.710350 0.000000 
#    z 0.000000 0.000000 1.718640 
# 
# From -- ./inp_files/27808.got.cif
#   From: 2010.05.17/outbox.cif.g08.bks.cpg/sg54_14_cif.got.tgz:27808.got - 2010.06.03 13:09:01.
