data_PCOD9422791
_publ_section_title
;
Structure prediction by ZEFSAII (Michael W. Deem and Ramdas Pophale) SiO2 
 PCOD9422791
Probable space group: P C C A
;
_chemical_formula_sum "Si O2"
_cell_formula_units_Z 44
_cell_length_a 13.430332
_cell_length_b 13.065147
_cell_length_c 9.236403
_cell_angle_alpha 90.000000
_cell_angle_beta 90.000000
_cell_angle_gamma 90.000000
_cell_volume 1620.704816
_symmetry_space_group_name_H-M "P C C A"
_symmetry_group_IT_number 54
_symmetry_cell_setting 'orthorhombic'
loop_
_space_group_symop_operation_xyz
x,y,z
1/2-x,-y,z
1/2+x,-y,1/2-z
-x,y,1/2-z
-x,-y,-z
1/2+x,y,-z
1/2-x,y,1/2+z
x,-y,1/2+z
loop_
_atom_site_type_symbol
_atom_site_label
_atom_site_fract_x
_atom_site_fract_y
_atom_site_fract_z
Si Si1 0.886165 0.466979 0.218447
Si Si2 0.500000 0.174637 0.750000
Si Si3 0.647626 0.710775 0.706802
Si Si4 0.104819 0.997639 0.584133
Si Si5 0.750000 0.500000 0.965619
Si Si6 0.000000 0.150484 0.750000
Si Si7 0.667196 0.203625 0.532201
O O1 0.876160 0.591010 0.208729
O O2 0.828462 0.441559 0.069581
O O3 0.739006 0.247131 0.116216
O O4 0.000000 0.440647 0.250000
O O5 0.569227 0.226229 0.629313
O O6 0.410655 0.111780 0.662132
O O7 0.551843 0.770461 0.642737
O O8 0.818758 0.565221 0.855774
O O9 0.659754 0.747097 0.873067
O O10 0.173549 0.077940 0.492218
O O11 0.088569 0.072769 0.720084
O O12 0.000000 0.000000 0.500000
#
# Coordination Sequence:
#
# PCOD9422791 Si02
#       7
#     8   4   8   8   4   4   8
#     4  11  22  44  70  99 138 180 216 274 339 391
#     4   9  18  40  60  86 121 168 216 276 329 392
#     4  11  22  39  60  90 124 163 207 262 331 394
#     4   8  16  34  56  76 112 154 204 259 315 368
#     4  10  24  42  70 104 136 170 236 266 312 428
#     4   9  18  34  52  76 111 156 196 248 309 374
#     4  10  22  37  59  89 123 160 216 271 326 394
#
# _framework density 27.148683999999999
#
# number of rings (size 3 to 8) (size 9 to 14) (size 15 to 20)
#    0.000    2.182    0.909    1.636    0.000    4.364 
#    3.273   23.636    4.000    0.000    0.000    0.000 
#    0.000    0.000    0.000    0.000    0.000    0.000 
#
# Total GULP energy -244980.537992 kJ/mol
# GULP energy per Si atom -5567.739500 kJ/mol
# Density = 2.708689 g / cm^3
# Si number density = 27.148684 Si / 1000 Ang^3
#
#
#
# Elastic Constant Matrix: (Units=GPa)
#
#
# Indices 1 2 3 4 5 6 
#
# 1 153.1005 20.7098 58.9812 0.0000 0.0000 0.0000
# 2 20.7098 82.7491 11.1036 0.0000 0.0000 0.0000
# 3 58.9812 11.1036 166.9276 0.0000 0.0000 0.0000
# 4 0.0000 0.0000 0.0000 12.5125 0.0000 0.0000
# 5 0.0000 0.0000 0.0000 0.0000 37.9845 0.0000
# 6 0.0000 0.0000 0.0000 0.0000 0.0000 40.7016
#
#
#
# Elastic Compliance Matrix: (Units=1/GPa)
#
#
# Indices 1 2 3 4 5 6 
#
# 1 0.007763 -0.001589 -0.002637 0.000000 0.000000 0.000000
# 2 -0.001589 0.012519 -0.000271 0.000000 0.000000 0.000000
# 3 -0.002637 -0.000271 0.006940 0.000000 0.000000 0.000000
# 4 0.000000 0.000000 0.000000 0.079920 0.000000 0.000000
# 5 0.000000 0.000000 0.000000 0.000000 0.026327 0.000000
# 6 0.000000 0.000000 0.000000 0.000000 0.000000 0.024569
#
#
# Mechanical properties :
#
#
# Convention : Reuss Voigt Hill
#
# Bulk Modulus (GPa) = 54.86313 64.92963 59.89638
# Shear Modulus (GPa) = 28.88374 39.03857 33.96115
#
# Velocity S-wave (km/s) = 3.26530 3.79615 3.54069
# Velocity P-wave (km/s) = 5.87099 6.57135 6.23101
#
# Compressibility (1/GPa) = 0.01822718
#
# Stress axis : x y z
#
# Youngs Moduli (GPa) = 128.82444 79.88001 144.08322
#
# Poissons Ratio (x) = 0.12692 0.37996
# Poissons Ratio (y) = 0.20469 0.03909
# Poissons Ratio (z) = 0.33972 0.02167
#
# Static dielectric constant tensor:
#      x y z
#    x 2.449990 0.000000 0.000000 
#    y 0.000000 2.254860 0.000000 
#    z 0.000000 0.000000 3.680480 
# 
# From -- ./inp_files/8323.got.cif
#   From: 2010.05.17/outbox.cif.g08.bks.cpg/sg54_5_cif.got.tgz:8323.got - 2010.06.03 13:09:01.
