data_PCOD9422122
_publ_section_title
;
Structure prediction by ZEFSAII (Michael W. Deem and Ramdas Pophale) SiO2 
 PCOD9422122
Probable space group: P C C A
;
_chemical_formula_sum "Si O2"
_cell_formula_units_Z 40
_cell_length_a 13.428800
_cell_length_b 6.019891
_cell_length_c 18.417505
_cell_angle_alpha 90.000000
_cell_angle_beta 90.000000
_cell_angle_gamma 90.000000
_cell_volume 1488.869488
_symmetry_space_group_name_H-M "P C C A"
_symmetry_group_IT_number 54
_symmetry_cell_setting 'orthorhombic'
loop_
_space_group_symop_operation_xyz
x,y,z
1/2-x,-y,z
1/2+x,-y,1/2-z
-x,y,1/2-z
-x,-y,-z
1/2+x,y,-z
1/2-x,y,1/2+z
x,-y,1/2+z
loop_
_atom_site_type_symbol
_atom_site_label
_atom_site_fract_x
_atom_site_fract_y
_atom_site_fract_z
Si Si1 0.879257 0.338572 0.747700
Si Si2 0.119071 0.154736 0.244514
Si Si3 0.151816 0.635670 0.088150
Si Si4 0.138548 0.986359 0.959814
Si Si5 0.943833 0.772979 0.913704
O O1 0.849302 0.596643 0.726146
O O2 0.837063 0.308562 0.828327
O O3 0.000000 0.340789 0.750000
O O4 0.851092 0.086279 0.720675
O O5 0.125856 0.161419 0.155030
O O6 0.000000 0.160249 0.250000
O O7 0.250000 0.500000 0.067693
O O8 0.142232 0.821393 0.028901
O O9 0.050679 0.490942 0.091298
O O10 0.250000 0.000000 0.930476
O O11 0.101724 0.197170 0.005576
O O12 0.048566 0.898262 0.910934
#
# Coordination Sequence:
#
# PCOD9422122 Si02
#       5
#     8   8   8   8   8
#     4   9  18  32  54  81 112 146 190 243 292 346
#     4   9  17  33  56  82 107 146 193 233 289 356
#     4  11  20  34  56  84 116 154 205 251 300 365
#     4  11  21  36  54  82 117 150 204 243 302 362
#     4  10  21  35  56  81 114 157 192 249 307 352
#
# _framework density 26.866025
#
# number of rings (size 3 to 8) (size 9 to 14) (size 15 to 20)
#    0.000    2.000    4.000    0.600    0.000    0.000 
#    0.000    0.000    0.000   20.400    0.000    1.400 
#    0.000    0.000    0.000    0.000    0.000    0.000 
#
# Total GULP energy -222829.148938 kJ/mol
# GULP energy per Si atom -5570.728723 kJ/mol
# Density = 2.680488 g / cm^3
# Si number density = 26.866025 Si / 1000 Ang^3
#
#
#
# Elastic Constant Matrix: (Units=GPa)
#
#
# Indices 1 2 3 4 5 6 
#
# 1 132.7466 40.4483 31.7946 0.0000 0.0000 0.0000
# 2 40.4483 189.2873 8.4322 0.0000 0.0000 0.0000
# 3 31.7946 8.4322 59.8843 0.0000 0.0000 0.0000
# 4 0.0000 0.0000 0.0000 27.7629 0.0000 0.0000
# 5 0.0000 0.0000 0.0000 0.0000 29.2673 0.0000
# 6 0.0000 0.0000 0.0000 0.0000 0.0000 30.2465
#
#
#
# Elastic Compliance Matrix: (Units=1/GPa)
#
#
# Indices 1 2 3 4 5 6 
#
# 1 0.009175 -0.001755 -0.004624 0.000000 0.000000 0.000000
# 2 -0.001755 0.005652 0.000136 0.000000 0.000000 0.000000
# 3 -0.004624 0.000136 0.019135 0.000000 0.000000 0.000000
# 4 0.000000 0.000000 0.000000 0.036019 0.000000 0.000000
# 5 0.000000 0.000000 0.000000 0.000000 0.034168 0.000000
# 6 0.000000 0.000000 0.000000 0.000000 0.000000 0.033062
#
#
# Mechanical properties :
#
#
# Convention : Reuss Voigt Hill
#
# Bulk Modulus (GPa) = 46.56440 60.36314 53.46377
# Shear Modulus (GPa) = 31.87631 37.53823 34.70727
#
# Velocity S-wave (km/s) = 3.44829 3.74202 3.59815
# Velocity P-wave (km/s) = 5.76402 6.41773 6.09964
#
# Compressibility (1/GPa) = 0.02147563
#
# Stress axis : x y z
#
# Youngs Moduli (GPa) = 108.98684 176.93243 52.26018
#
# Poissons Ratio (x) = 0.31046 0.24168
# Poissons Ratio (y) = 0.19124 -0.00710
# Poissons Ratio (z) = 0.50401 -0.02402
#
# Static dielectric constant tensor:
#      x y z
#    x 2.202790 0.000000 0.000000 
#    y 0.000000 2.273140 0.000000 
#    z 0.000000 0.000000 2.112820 
# 
# From -- ./inp_files/24312.got.cif
#   From: 2010.05.17/outbox.cif.g08.bks.cpg/sg54_13_cif.got.tgz:24312.got - 2010.06.03 13:09:01.
