data_PCOD9422229
_publ_section_title
;
Structure prediction by ZEFSAII (Michael W. Deem and Ramdas Pophale) SiO2 
 PCOD9422229
Probable space group: P C C A
;
_chemical_formula_sum "Si O2"
_cell_formula_units_Z 32
_cell_length_a 19.067834
_cell_length_b 7.641451
_cell_length_c 8.211737
_cell_angle_alpha 90.000000
_cell_angle_beta 90.000000
_cell_angle_gamma 90.000000
_cell_volume 1196.498688
_symmetry_space_group_name_H-M "P C C A"
_symmetry_group_IT_number 54
_symmetry_cell_setting 'orthorhombic'
loop_
_space_group_symop_operation_xyz
x,y,z
1/2-x,-y,z
1/2+x,-y,1/2-z
-x,y,1/2-z
-x,-y,-z
1/2+x,y,-z
1/2-x,y,1/2+z
x,-y,1/2+z
loop_
_atom_site_type_symbol
_atom_site_label
_atom_site_fract_x
_atom_site_fract_y
_atom_site_fract_z
Si Si1 0.353684 0.341955 0.323535
Si Si2 0.734689 0.189462 0.885545
Si Si3 0.485662 0.711342 0.994608
Si Si4 0.390559 0.750177 0.311441
O O1 0.307442 0.300603 0.482520
O O2 0.305139 0.282286 0.175429
O O3 0.431355 0.257056 0.346819
O O4 0.368067 0.547350 0.320036
O O5 0.681029 0.156047 0.734687
O O6 0.750000 0.000000 0.952059
O O7 0.439991 0.761178 0.152799
O O8 0.561336 0.796211 0.032867
O O9 0.500000 0.500000 0.000000
#
# Coordination Sequence:
#
# PCOD9422229 Si02
#       4
#     8   8   8   8
#     4  10  21  37  59  86 117 157 201 247 303 367
#     4  11  23  38  56  86 124 159 196 248 306 364
#     4   8  16  33  58  89 116 144 194 258 304 347
#     4   9  18  34  60  87 115 153 199 249 300 360
#
# _framework density 26.744702
#
# number of rings (size 3 to 8) (size 9 to 14) (size 15 to 20)
#    0.000    2.500    0.000    1.500    0.000   10.000 
#    0.000    1.250    0.000   24.000    0.000    0.000 
#    0.000    0.000    0.000    0.000    0.000    0.000 
#
# Total GULP energy -179123.529390 kJ/mol
# GULP energy per Si atom -5597.610293 kJ/mol
# Density = 2.668383 g / cm^3
# Si number density = 26.744702 Si / 1000 Ang^3
#
#
#
# Elastic Constant Matrix: (Units=GPa)
#
#
# Indices 1 2 3 4 5 6 
#
# 1 183.0615 21.6465 49.0224 0.0000 0.0000 0.0000
# 2 21.6465 41.1847 22.2417 0.0000 0.0000 0.0000
# 3 49.0224 22.2417 81.2596 0.0000 0.0000 0.0000
# 4 0.0000 0.0000 0.0000 -5.5376 0.0000 0.0000
# 5 0.0000 0.0000 0.0000 0.0000 62.2368 0.0000
# 6 0.0000 0.0000 0.0000 0.0000 0.0000 -16.7458
#
#
#
# Elastic Compliance Matrix: (Units=1/GPa)
#
#
# Indices 1 2 3 4 5 6 
#
# 1 0.006598 -0.001547 -0.003557 0.000000 0.000000 0.000000
# 2 -0.001547 0.028855 -0.006965 0.000000 0.000000 0.000000
# 3 -0.003557 -0.006965 0.016359 0.000000 0.000000 0.000000
# 4 0.000000 0.000000 0.000000 -0.180584 0.000000 0.000000
# 5 0.000000 0.000000 0.000000 0.000000 0.016068 0.000000
# 6 0.000000 0.000000 0.000000 0.000000 0.000000 -0.059716
#
#
# Mechanical properties :
#
#
# Convention : Reuss Voigt Hill
#
# Bulk Modulus (GPa) = 36.13470 54.59188 45.36329
# Shear Modulus (GPa) = -35.95600 22.16369 -6.89616
#
# Velocity S-wave (km/s) = -3.67061 2.88186 -1.60752
# Velocity P-wave (km/s) = 2.10337 5.61516 3.68143
#
# Compressibility (1/GPa) = 0.02767423
#
# Stress axis : x y z
#
# Youngs Moduli (GPa) = 151.55797 34.65580 61.13019
#
# Poissons Ratio (x) = 0.05361 0.21745
# Poissons Ratio (y) = 0.23445 0.42576
# Poissons Ratio (z) = 0.53911 0.24137
#
# Static dielectric constant tensor:
#      x y z
#    x 2.111420 0.000000 0.000000 
#    y 0.000000 2.011180 0.000000 
#    z 0.000000 0.000000 2.211420 
# 
# From -- ./inp_files/8654.got.cif
#   From: 2010.05.17/outbox.cif.g08.bks.cpg/sg54_5_cif.got.tgz:8654.got - 2010.06.03 13:09:01.
