data_PCOD9422723
_publ_section_title
;
Structure prediction by ZEFSAII (Michael W. Deem and Ramdas Pophale) SiO2 
 PCOD9422723
Probable space group: P C C A
;
_chemical_formula_sum "Si O2"
_cell_formula_units_Z 40
_cell_length_a 13.393427
_cell_length_b 5.287606
_cell_length_c 24.254018
_cell_angle_alpha 90.000000
_cell_angle_beta 90.000000
_cell_angle_gamma 90.000000
_cell_volume 1717.649302
_symmetry_space_group_name_H-M "P C C A"
_symmetry_group_IT_number 54
_symmetry_cell_setting 'orthorhombic'
loop_
_space_group_symop_operation_xyz
x,y,z
1/2-x,-y,z
1/2+x,-y,1/2-z
-x,y,1/2-z
-x,-y,-z
1/2+x,y,-z
1/2-x,y,1/2+z
x,-y,1/2+z
loop_
_atom_site_type_symbol
_atom_site_label
_atom_site_fract_x
_atom_site_fract_y
_atom_site_fract_z
Si Si1 0.946457 0.437841 0.800953
Si Si2 0.311865 0.236754 0.772487
Si Si3 0.567216 0.251728 0.503234
Si Si4 0.060868 0.780283 0.875182
Si Si5 0.358125 0.117674 0.111549
O O1 0.896353 0.676761 0.770731
O O2 0.864292 0.298880 0.836060
O O3 0.000000 0.296555 0.750000
O O4 0.025622 0.516467 0.847686
O O5 0.250000 0.500000 0.782339
O O6 0.363161 0.131013 0.828394
O O7 0.250000 0.000000 0.751109
O O8 0.500000 0.500000 0.500000
O O9 0.610873 0.246315 0.565053
O O10 0.632991 0.249647 0.448369
O O11 0.500000 0.000000 0.500000
O O12 0.957200 0.938302 0.882086
O O13 0.250000 0.000000 0.111982
#
# Coordination Sequence:
#
# PCOD9422723 Si02
#       5
#     8   8   8   8   8
#     4  10  24  43  68 100 145 195 237 295 364 427
#     4  11  28  45  71 106 145 192 246 298 355 425
#     4  10  21  44  72  98 137 183 233 297 360 421
#     4  10  24  45  72 103 142 191 235 304 359 429
#     4  11  25  43  73 108 146 189 242 297 365 435
#
# _framework density 23.287641000000001
#
# number of rings (size 3 to 8) (size 9 to 14) (size 15 to 20)
#    0.000    1.600    2.000    0.000   11.200    1.600 
#    0.000    2.000    0.000    0.000    0.000    0.000 
#    0.000    0.000    0.000    0.000    0.000    0.000 
#
# Total GULP energy -223427.852099 kJ/mol
# GULP energy per Si atom -5585.696302 kJ/mol
# Density = 2.323464 g / cm^3
# Si number density = 23.287641 Si / 1000 Ang^3
#
#
#
# Elastic Constant Matrix: (Units=GPa)
#
#
# Indices 1 2 3 4 5 6 
#
# 1 92.3043 33.8046 52.3204 0.0000 0.0000 0.0000
# 2 33.8046 89.5667 44.5539 0.0000 0.0000 0.0000
# 3 52.3204 44.5539 242.9065 0.0000 0.0000 0.0000
# 4 0.0000 0.0000 0.0000 27.2217 0.0000 0.0000
# 5 0.0000 0.0000 0.0000 0.0000 31.7309 0.0000
# 6 0.0000 0.0000 0.0000 0.0000 0.0000 39.8043
#
#
#
# Elastic Compliance Matrix: (Units=1/GPa)
#
#
# Indices 1 2 3 4 5 6 
#
# 1 0.013544 -0.004028 -0.002178 0.000000 0.000000 0.000000
# 2 -0.004028 0.013484 -0.001606 0.000000 0.000000 0.000000
# 3 -0.002178 -0.001606 0.004881 0.000000 0.000000 0.000000
# 4 0.000000 0.000000 0.000000 0.036735 0.000000 0.000000
# 5 0.000000 0.000000 0.000000 0.000000 0.031515 0.000000
# 6 0.000000 0.000000 0.000000 0.000000 0.000000 0.025123
#
#
# Mechanical properties :
#
#
# Convention : Reuss Voigt Hill
#
# Bulk Modulus (GPa) = 61.41026 76.23725 68.82376
# Shear Modulus (GPa) = 34.16854 39.35797 36.76325
#
# Velocity S-wave (km/s) = 3.83461 4.11552 3.97755
# Velocity P-wave (km/s) = 6.78478 7.44255 7.12126
#
# Compressibility (1/GPa) = 0.01628392
#
# Stress axis : x y z
#
# Youngs Moduli (GPa) = 73.83506 74.16282 204.89637
#
# Poissons Ratio (x) = 0.29874 0.44634
# Poissons Ratio (y) = 0.29742 0.32898
# Poissons Ratio (z) = 0.16084 0.11907
#
# Static dielectric constant tensor:
#      x y z
#    x 1.834310 0.000000 0.000000 
#    y 0.000000 1.926470 0.000000 
#    z 0.000000 0.000000 1.919820 
# 
# From -- ./inp_files/24335.got.cif
#   From: 2010.05.17/outbox.cif.g08.bks.cpg/sg54_13_cif.got.tgz:24335.got - 2010.06.03 13:09:01.
