data_PCOD9422781
_publ_section_title
;
Structure prediction by ZEFSAII (Michael W. Deem and Ramdas Pophale) SiO2 
 PCOD9422781
Probable space group: P C C A
;
_chemical_formula_sum "Si O2"
_cell_formula_units_Z 24
_cell_length_a 10.892609
_cell_length_b 7.739989
_cell_length_c 13.481274
_cell_angle_alpha 90.000000
_cell_angle_beta 90.000000
_cell_angle_gamma 90.000000
_cell_volume 1136.588333
_symmetry_space_group_name_H-M "P C C A"
_symmetry_group_IT_number 54
_symmetry_cell_setting 'orthorhombic'
loop_
_space_group_symop_operation_xyz
x,y,z
1/2-x,-y,z
1/2+x,-y,1/2-z
-x,y,1/2-z
-x,-y,-z
1/2+x,y,-z
1/2-x,y,1/2+z
x,-y,1/2+z
loop_
_atom_site_type_symbol
_atom_site_label
_atom_site_fract_x
_atom_site_fract_y
_atom_site_fract_z
Si Si1 0.750000 0.000000 0.721217
Si Si2 0.000000 0.143910 0.250000
Si Si3 0.720932 0.308906 0.067734
Si Si4 0.473793 0.798143 0.473613
O O1 0.876454 0.961353 0.775850
O O2 0.719172 0.837342 0.651535
O O3 0.973369 0.234438 0.145532
O O4 0.750000 0.500000 0.105107
O O5 0.835111 0.253953 0.996129
O O6 0.587365 0.305282 0.018293
O O7 0.500000 0.000000 0.500000
#
# Coordination Sequence:
#
# PCOD9422781 Si02
#       4
#     4   4   8   8
#     4  10  22  40  60  94 122 164 208 252 310 370
#     4  10  22  36  66  86 124 164 206 250 314 366
#     4  11  22  40  64  91 124 163 210 254 307 370
#     4  11  21  41  63  91 121 167 206 252 311 366
#
# _framework density 21.115825999999998
#
# number of rings (size 3 to 8) (size 9 to 14) (size 15 to 20)
#    0.000    1.333    6.667    1.000    4.667    0.000 
#    0.000   13.333    0.000    0.000    0.000    0.000 
#    0.000    0.000    0.000    0.000    0.000    0.000 
#
# Total GULP energy -133746.209936 kJ/mol
# GULP energy per Si atom -5572.758747 kJ/mol
# Density = 2.106777 g / cm^3
# Si number density = 21.115826 Si / 1000 Ang^3
#
#
#
# Elastic Constant Matrix: (Units=GPa)
#
#
# Indices 1 2 3 4 5 6 
#
# 1 153.4722 -21.9753 -12.0646 0.0000 0.0000 0.0000
# 2 -21.9753 85.7040 -6.2943 0.0000 0.0000 0.0000
# 3 -12.0646 -6.2943 38.9424 0.0000 0.0000 0.0000
# 4 0.0000 0.0000 0.0000 -26.3293 0.0000 0.0000
# 5 0.0000 0.0000 0.0000 0.0000 27.9734 0.0000
# 6 0.0000 0.0000 0.0000 0.0000 0.0000 33.4720
#
#
#
# Elastic Compliance Matrix: (Units=1/GPa)
#
#
# Indices 1 2 3 4 5 6 
#
# 1 0.006994 0.001976 0.002486 0.000000 0.000000 0.000000
# 2 0.001976 0.012366 0.002611 0.000000 0.000000 0.000000
# 3 0.002486 0.002611 0.026871 0.000000 0.000000 0.000000
# 4 0.000000 0.000000 0.000000 -0.037981 0.000000 0.000000
# 5 0.000000 0.000000 0.000000 0.000000 0.035748 0.000000
# 6 0.000000 0.000000 0.000000 0.000000 0.000000 0.029876
#
#
# Mechanical properties :
#
#
# Convention : Reuss Voigt Hill
#
# Bulk Modulus (GPa) = 16.56225 21.93891 19.25058
# Shear Modulus (GPa) = 62.61345 28.25341 45.43343
#
# Velocity S-wave (km/s) = 5.45131 3.66186 4.64360
# Velocity P-wave (km/s) = 6.89078 5.31896 6.15525
#
# Compressibility (1/GPa) = 0.06037826
#
# Stress axis : x y z
#
# Youngs Moduli (GPa) = 142.97520 80.86372 37.21455
#
# Poissons Ratio (x) = -0.15978 -0.09252
# Poissons Ratio (y) = -0.28252 -0.09717
# Poissons Ratio (z) = -0.35547 -0.21113
#
# Static dielectric constant tensor:
#      x y z
#    x 1.919200 0.000000 0.000000 
#    y 0.000000 1.783700 0.000000 
#    z 0.000000 0.000000 1.756340 
# 
# From -- ./inp_files/7143.got.cif
#   From: 2010.05.17/outbox.cif.g08.bks.cpg/sg54_4_cif.got.tgz:7143.got - 2010.06.03 13:09:01.
