data_PCOD9422273
_publ_section_title
;
Structure prediction by ZEFSAII (Michael W. Deem and Ramdas Pophale) SiO2 
 PCOD9422273
Probable space group: P C C A
;
_chemical_formula_sum "Si O2"
_cell_formula_units_Z 40
_cell_length_a 20.258845
_cell_length_b 4.997352
_cell_length_c 17.935548
_cell_angle_alpha 90.000000
_cell_angle_beta 90.000000
_cell_angle_gamma 90.000000
_cell_volume 1815.805275
_symmetry_space_group_name_H-M "P C C A"
_symmetry_group_IT_number 54
_symmetry_cell_setting 'orthorhombic'
loop_
_space_group_symop_operation_xyz
x,y,z
1/2-x,-y,z
1/2+x,-y,1/2-z
-x,y,1/2-z
-x,-y,-z
1/2+x,y,-z
1/2-x,y,1/2+z
x,-y,1/2+z
loop_
_atom_site_type_symbol
_atom_site_label
_atom_site_fract_x
_atom_site_fract_y
_atom_site_fract_z
Si Si1 0.817668 0.357004 0.702998
Si Si2 0.464336 0.981248 0.660177
Si Si3 0.615319 0.495960 0.840678
Si Si4 0.061237 0.297012 0.515422
Si Si5 0.391741 0.849261 0.354115
O O1 0.750000 0.500000 0.678912
O O2 0.824254 0.391773 0.792639
O O3 0.873655 0.554940 0.672650
O O4 0.836655 0.064500 0.672265
O O5 0.406500 0.194242 0.674391
O O6 0.463934 0.937287 0.570170
O O7 0.462463 0.067593 0.820301
O O8 0.444354 0.688026 0.686599
O O9 0.613470 0.550731 0.929334
O O10 0.096565 0.183390 0.442507
O O11 0.000000 0.500000 0.500000
#
# Coordination Sequence:
#
# PCOD9422273 Si02
#       5
#     8   8   8   8   8
#     4  12  28  46  61  88 135 187 235 270 315 386
#     4  10  21  37  67 102 128 158 208 266 353 403
#     4  10  23  39  66  94 134 174 209 269 337 412
#     4  10  21  40  67 107 141 162 204 277 361 421
#     4  12  23  40  72  95 136 169 214 285 343 396
#
# _framework density 22.028794999999999
#
# number of rings (size 3 to 8) (size 9 to 14) (size 15 to 20)
#    1.200    0.000    2.000    4.800    2.800    4.800 
#    0.000    1.000    4.400    0.000    0.000    0.000 
#    0.000    0.000    0.000    0.000    0.000    0.000 
#
# Total GULP energy -223057.516622 kJ/mol
# GULP energy per Si atom -5576.437916 kJ/mol
# Density = 2.197866 g / cm^3
# Si number density = 22.028795 Si / 1000 Ang^3
#
#
#
# Elastic Constant Matrix: (Units=GPa)
#
#
# Indices 1 2 3 4 5 6 
#
# 1 44.6766 -0.9386 18.2612 0.0000 0.0000 0.0000
# 2 -0.9386 99.3435 19.7498 0.0000 0.0000 0.0000
# 3 18.2612 19.7498 114.5609 0.0000 0.0000 0.0000
# 4 0.0000 0.0000 0.0000 41.7784 0.0000 0.0000
# 5 0.0000 0.0000 0.0000 0.0000 16.8748 0.0000
# 6 0.0000 0.0000 0.0000 0.0000 0.0000 24.9174
#
#
#
# Elastic Compliance Matrix: (Units=1/GPa)
#
#
# Indices 1 2 3 4 5 6 
#
# 1 0.024043 0.001024 -0.004009 0.000000 0.000000 0.000000
# 2 0.001024 0.010467 -0.001968 0.000000 0.000000 0.000000
# 3 -0.004009 -0.001968 0.009707 0.000000 0.000000 0.000000
# 4 0.000000 0.000000 0.000000 0.023936 0.000000 0.000000
# 5 0.000000 0.000000 0.000000 0.000000 0.059260 0.000000
# 6 0.000000 0.000000 0.000000 0.000000 0.000000 0.040133
#
#
# Mechanical properties :
#
#
# Convention : Reuss Voigt Hill
#
# Bulk Modulus (GPa) = 29.14412 36.96953 33.05683
# Shear Modulus (GPa) = 26.47063 31.48137 28.97600
#
# Velocity S-wave (km/s) = 3.47023 3.78445 3.63074
# Velocity P-wave (km/s) = 5.41437 5.99290 5.71096
#
# Compressibility (1/GPa) = 0.03431224
#
# Stress axis : x y z
#
# Youngs Moduli (GPa) = 41.59164 95.53887 103.01566
#
# Poissons Ratio (x) = -0.09785 0.41300
# Poissons Ratio (y) = -0.04260 0.20270
# Poissons Ratio (z) = 0.16675 0.18799
#
# Static dielectric constant tensor:
#      x y z
#    x 1.807380 0.000000 0.000000 
#    y 0.000000 1.782160 0.000000 
#    z 0.000000 0.000000 2.004900 
# 
# From -- ./inp_files/14804.got.cif
#   From: 2010.05.17/outbox.cif.g08.bks.cpg/sg54_8_cif.got.tgz:14804.got - 2010.06.03 13:09:01.
