data_PCOD9422152
_publ_section_title
;
Structure prediction by ZEFSAII (Michael W. Deem and Ramdas Pophale) SiO2 
 PCOD9422152
Probable space group: P C C A
;
_chemical_formula_sum "Si O2"
_cell_formula_units_Z 48
_cell_length_a 28.749171
_cell_length_b 7.231720
_cell_length_c 8.236484
_cell_angle_alpha 90.000000
_cell_angle_beta 90.000000
_cell_angle_gamma 90.000000
_cell_volume 1712.414071
_symmetry_space_group_name_H-M "P C C A"
_symmetry_group_IT_number 54
_symmetry_cell_setting 'orthorhombic'
loop_
_space_group_symop_operation_xyz
x,y,z
1/2-x,-y,z
1/2+x,-y,1/2-z
-x,y,1/2-z
-x,-y,-z
1/2+x,y,-z
1/2-x,y,1/2+z
x,-y,1/2+z
loop_
_atom_site_type_symbol
_atom_site_label
_atom_site_fract_x
_atom_site_fract_y
_atom_site_fract_z
Si Si1 0.925126 0.243199 0.817081
Si Si2 0.239527 0.690854 0.572623
Si Si3 0.010016 0.778371 0.501464
Si Si4 0.405592 0.199835 0.689156
Si Si5 0.818259 0.144673 0.140563
Si Si6 0.655698 0.282995 0.119772
O O1 0.957934 0.255699 0.657047
O O2 0.876624 0.340807 0.770421
O O3 0.958905 0.303573 0.963953
O O4 0.911621 0.024295 0.830001
O O5 0.250000 0.500000 0.656871
O O6 0.285196 0.789721 0.504051
O O7 0.211089 0.813872 0.698139
O O8 0.203167 0.624898 0.433279
O O9 0.041846 0.731627 0.657549
O O10 0.000000 0.000000 0.500000
O O11 0.370422 0.229670 0.839929
O O12 0.377462 0.277080 0.536383
O O13 0.827369 0.927944 0.138357
#
# Coordination Sequence:
#
# PCOD9422152 Si02
#       6
#     8   8   8   8   8   8
#     4   8  13  22  39  67 102 137 170 212 265 320
#     4  11  23  38  54  76 106 141 179 225 278 330
#     4   8  12  20  37  64 103 140 167 208 265 318
#     4   8  15  27  44  71 102 134 172 218 266 317
#     4  10  21  36  54  76 104 140 181 225 271 326
#     4   9  18  31  50  74 102 136 179 223 267 324
#
# _framework density 28.030601999999998
#
# number of rings (size 3 to 8) (size 9 to 14) (size 15 to 20)
#    0.000    3.000    0.000    1.000    0.000    6.667 
#    0.000    0.000    0.000    0.000    0.000    1.167 
#    0.000  122.667    0.000   84.000    0.000    4.833 
#
# Total GULP energy -268494.078258 kJ/mol
# GULP energy per Si atom -5593.626630 kJ/mol
# Density = 2.796680 g / cm^3
# Si number density = 28.030602 Si / 1000 Ang^3
#
#
#
# Elastic Constant Matrix: (Units=GPa)
#
#
# Indices 1 2 3 4 5 6 
#
# 1 198.9432 32.2125 66.8669 0.0000 0.0000 0.0000
# 2 32.2125 69.8185 25.1189 0.0000 0.0000 0.0000
# 3 66.8669 25.1189 98.7631 0.0000 0.0000 0.0000
# 4 0.0000 0.0000 0.0000 10.2956 0.0000 0.0000
# 5 0.0000 0.0000 0.0000 0.0000 79.8187 0.0000
# 6 0.0000 0.0000 0.0000 0.0000 0.0000 -20.8814
#
#
#
# Elastic Compliance Matrix: (Units=1/GPa)
#
#
# Indices 1 2 3 4 5 6 
#
# 1 0.006666 -0.001598 -0.004106 0.000000 0.000000 0.000000
# 2 -0.001598 0.016148 -0.003025 0.000000 0.000000 0.000000
# 3 -0.004106 -0.003025 0.013675 0.000000 0.000000 0.000000
# 4 0.000000 0.000000 0.000000 0.097129 0.000000 0.000000
# 5 0.000000 0.000000 0.000000 0.000000 0.012528 0.000000
# 6 0.000000 0.000000 0.000000 0.000000 0.000000 -0.047889
#
#
# Mechanical properties :
#
#
# Convention : Reuss Voigt Hill
#
# Bulk Modulus (GPa) = 52.54948 68.43571 60.49260
# Shear Modulus (GPa) = 40.96370 30.06833 35.51602
#
# Velocity S-wave (km/s) = 3.82696 3.27876 3.56342
# Velocity P-wave (km/s) = 6.18994 6.22907 6.20954
#
# Compressibility (1/GPa) = 0.01902968
#
# Stress axis : x y z
#
# Youngs Moduli (GPa) = 150.02605 61.92530 73.12666
#
# Poissons Ratio (x) = 0.09895 0.30029
# Poissons Ratio (y) = 0.23973 0.22123
# Poissons Ratio (z) = 0.61607 0.18734
#
# Static dielectric constant tensor:
#      x y z
#    x 2.210280 0.000000 0.000000 
#    y 0.000000 2.150170 0.000000 
#    z 0.000000 0.000000 2.207710 
# 
# From -- ./inp_files/10257.got.cif
#   From: 2010.05.17/outbox.cif.g08.bks.cpg/sg54_6_cif.got.tgz:10257.got - 2010.06.03 13:09:01.
