data_PCOD9422131
_publ_section_title
;
Structure prediction by ZEFSAII (Michael W. Deem and Ramdas Pophale) SiO2 
 PCOD9422131
Probable space group: P C C A
;
_chemical_formula_sum "Si O2"
_cell_formula_units_Z 64
_cell_length_a 8.796740
_cell_length_b 14.961499
_cell_length_c 25.809155
_cell_angle_alpha 90.000000
_cell_angle_beta 90.000000
_cell_angle_gamma 90.000000
_cell_volume 3396.805263
_symmetry_space_group_name_H-M "P C C A"
_symmetry_group_IT_number 54
_symmetry_cell_setting 'orthorhombic'
loop_
_space_group_symop_operation_xyz
x,y,z
1/2-x,-y,z
1/2+x,-y,1/2-z
-x,y,1/2-z
-x,-y,-z
1/2+x,y,-z
1/2-x,y,1/2+z
x,-y,1/2+z
loop_
_atom_site_type_symbol
_atom_site_label
_atom_site_fract_x
_atom_site_fract_y
_atom_site_fract_z
Si Si1 0.125624 0.157557 0.346510
Si Si2 0.934478 0.196930 0.692965
Si Si3 0.933789 0.677133 0.393894
Si Si4 0.432495 0.492465 0.557908
Si Si5 0.576990 0.297418 0.901885
Si Si6 0.931781 0.007278 0.807766
Si Si7 0.967854 0.205824 0.994119
Si Si8 0.285745 0.898127 0.951745
O O1 0.253349 0.177768 0.303425
O O2 0.230531 0.127356 0.394700
O O3 0.027056 0.244571 0.360901
O O4 0.012733 0.075126 0.336383
O O5 0.000000 0.217411 0.750000
O O6 0.972603 0.273623 0.651179
O O7 0.015805 0.105301 0.673709
O O8 0.972886 0.573487 0.403329
O O9 0.753253 0.694380 0.385206
O O10 0.965907 0.719688 0.450214
O O11 0.250000 0.500000 0.552006
O O12 0.500000 0.500000 0.500000
O O13 0.474092 0.397444 0.583106
O O14 0.553415 0.240690 0.954685
O O15 0.000000 0.002321 0.750000
O O16 0.750000 0.000000 0.808582
O O17 0.042421 0.121307 0.965827
O O18 0.806191 0.172182 0.013372
O O19 0.250000 0.000000 0.962345
#
# Coordination Sequence:
#
# PCOD9422131 Si02
#       8
#     8   8   8   8   8   8   8   8
#     4  11  23  38  61  86 121 159 205 250 301 359
#     4  11  23  40  63  88 118 161 208 254 303 352
#     4  11  21  38  59  84 121 156 198 256 304 368
#     4  10  21  35  61  88 122 156 198 253 313 368
#     4  10  22  38  56  91 120 158 198 246 313 370
#     4  11  22  40  63  90 120 156 207 258 300 353
#     4  11  20  34  56  78 119 155 198 242 295 357
#     4  11  22  36  50  80 119 165 198 239 291 366
#
# _framework density 18.841234
#
# number of rings (size 3 to 8) (size 9 to 14) (size 15 to 20)
#    0.000    1.250    3.750    3.750    0.000    1.000 
#    0.000    0.000    0.000    5.250    0.000    0.000 
#    0.000    0.000    0.000    0.000    0.000    0.000 
#
# Total GULP energy -357124.334774 kJ/mol
# GULP energy per Si atom -5580.067731 kJ/mol
# Density = 1.879835 g / cm^3
# Si number density = 18.841234 Si / 1000 Ang^3
#
#
#
# Elastic Constant Matrix: (Units=GPa)
#
#
# Indices 1 2 3 4 5 6 
#
# 1 75.1374 15.8913 24.8412 0.0000 0.0000 0.0000
# 2 15.8913 105.3747 20.0967 0.0000 0.0000 0.0000
# 3 24.8412 20.0967 56.3977 0.0000 0.0000 0.0000
# 4 0.0000 0.0000 0.0000 21.3410 0.0000 0.0000
# 5 0.0000 0.0000 0.0000 0.0000 20.6935 0.0000
# 6 0.0000 0.0000 0.0000 0.0000 0.0000 24.0759
#
#
#
# Elastic Compliance Matrix: (Units=1/GPa)
#
#
# Indices 1 2 3 4 5 6 
#
# 1 0.015701 -0.001125 -0.006515 0.000000 0.000000 0.000000
# 2 -0.001125 0.010263 -0.003161 0.000000 0.000000 0.000000
# 3 -0.006515 -0.003161 0.021727 0.000000 0.000000 0.000000
# 4 0.000000 0.000000 0.000000 0.046858 0.000000 0.000000
# 5 0.000000 0.000000 0.000000 0.000000 0.048324 0.000000
# 6 0.000000 0.000000 0.000000 0.000000 0.000000 0.041535
#
#
# Mechanical properties :
#
#
# Convention : Reuss Voigt Hill
#
# Bulk Modulus (GPa) = 38.33183 39.84093 39.08638
# Shear Modulus (GPa) = 23.28755 24.96077 24.12416
#
# Velocity S-wave (km/s) = 3.51948 3.64372 3.58214
# Velocity P-wave (km/s) = 6.07490 6.23649 6.15623
#
# Compressibility (1/GPa) = 0.02608798
#
# Stress axis : x y z
#
# Youngs Moduli (GPa) = 63.69115 97.44154 46.02533
#
# Poissons Ratio (x) = 0.10966 0.29984
# Poissons Ratio (y) = 0.07167 0.14550
# Poissons Ratio (z) = 0.41492 0.30804
#
# Static dielectric constant tensor:
#      x y z
#    x 1.687100 0.000000 0.000000 
#    y 0.000000 1.659360 0.000000 
#    z 0.000000 0.000000 1.658540 
# 
# From -- ./inp_files/23656.got.cif
#   From: 2010.05.17/outbox.cif.g08.bks.cpg/sg54_12_cif.got.tgz:23656.got - 2010.06.03 13:09:01.
