data_PCOD9422443
_publ_section_title
;
Structure prediction by ZEFSAII (Michael W. Deem and Ramdas Pophale) SiO2 
 PCOD9422443
Probable space group: P C C A
;
_chemical_formula_sum "Si O2"
_cell_formula_units_Z 36
_cell_length_a 5.218403
_cell_length_b 24.650447
_cell_length_c 12.231507
_cell_angle_alpha 90.000000
_cell_angle_beta 90.000000
_cell_angle_gamma 90.000000
_cell_volume 1573.411726
_symmetry_space_group_name_H-M "P C C A"
_symmetry_group_IT_number 54
_symmetry_cell_setting 'orthorhombic'
loop_
_space_group_symop_operation_xyz
x,y,z
1/2-x,-y,z
1/2+x,-y,1/2-z
-x,y,1/2-z
-x,-y,-z
1/2+x,y,-z
1/2-x,y,1/2+z
x,-y,1/2+z
loop_
_atom_site_type_symbol
_atom_site_label
_atom_site_fract_x
_atom_site_fract_y
_atom_site_fract_z
Si Si1 0.250024 0.118125 0.823170
Si Si2 0.249942 0.234646 0.828115
Si Si3 0.500000 0.416949 0.750000
Si Si4 0.731469 0.349229 0.066721
Si Si5 0.750000 0.500000 0.419125
Si Si6 0.250000 0.000000 0.928853
O O1 0.500000 0.121027 0.750000
O O2 0.250563 0.175466 0.887372
O O3 0.249934 0.058021 0.870778
O O4 0.000000 0.121065 0.750000
O O5 0.500000 0.238712 0.750000
O O6 0.246112 0.285178 0.908797
O O7 0.000000 0.238414 0.750000
O O8 0.312572 0.380364 0.823849
O O9 0.328986 0.452607 0.666608
O O10 0.450964 0.362760 0.022000
O O11 0.500000 0.500000 0.500000
O O12 0.500000 0.000000 0.000000
#
# Coordination Sequence:
#
# PCOD9422443 Si02
#       6
#     8   8   4   8   4   4
#     4  10  21  39  64  87 123 176 227 275 343 421
#     4  10  21  42  67  95 135 180 226 293 356 411
#     4  12  28  52  80 108 160 188 240 312 344 428
#     4  12  27  44  73 110 144 191 239 287 362 426
#     4  12  28  52  80 112 144 196 246 288 362 422
#     4  12  24  36  56  90 128 168 220 292 346 400
#
# _framework density 22.880216999999998
#
# number of rings (size 3 to 8) (size 9 to 14) (size 15 to 20)
#    0.000    0.889    1.111    5.333    0.000    5.333 
#    0.000    0.000    0.000    0.000    0.000    0.000 
#    0.000    0.000    0.000    0.000    0.000    0.000 
#
# Total GULP energy -201271.160974 kJ/mol
# GULP energy per Si atom -5590.865583 kJ/mol
# Density = 2.282814 g / cm^3
# Si number density = 22.880217 Si / 1000 Ang^3
#
#
#
# Elastic Constant Matrix: (Units=GPa)
#
#
# Indices 1 2 3 4 5 6 
#
# 1 180.5180 35.6882 43.2764 0.0000 0.0000 0.0000
# 2 35.6882 192.9037 72.2191 0.0000 0.0000 0.0000
# 3 43.2764 72.2191 86.5471 0.0000 0.0000 0.0000
# 4 0.0000 0.0000 0.0000 0.5253 0.0000 0.0000
# 5 0.0000 0.0000 0.0000 0.0000 31.8151 0.0000
# 6 0.0000 0.0000 0.0000 0.0000 0.0000 31.3552
#
#
#
# Elastic Compliance Matrix: (Units=1/GPa)
#
#
# Indices 1 2 3 4 5 6 
#
# 1 0.006294 0.000020 -0.003164 0.000000 0.000000 0.000000
# 2 0.000020 0.007539 -0.006301 0.000000 0.000000 0.000000
# 3 -0.003164 -0.006301 0.018395 0.000000 0.000000 0.000000
# 4 0.000000 0.000000 0.000000 1.903596 0.000000 0.000000
# 5 0.000000 0.000000 0.000000 0.000000 0.031432 0.000000
# 6 0.000000 0.000000 0.000000 0.000000 0.000000 0.031893
#
#
# Mechanical properties :
#
#
# Convention : Reuss Voigt Hill
#
# Bulk Modulus (GPa) = 74.97545 84.70402 79.83974
# Shear Modulus (GPa) = 2.47221 33.32479 17.89850
#
# Velocity S-wave (km/s) = 1.04060 3.82054 2.79994
# Velocity P-wave (km/s) = 5.85522 7.52084 6.73968
#
# Compressibility (1/GPa) = 0.01333770
#
# Stress axis : x y z
#
# Youngs Moduli (GPa) = 158.87707 132.63936 54.36395
#
# Poissons Ratio (x) = -0.00267 0.17201
# Poissons Ratio (y) = -0.00319 0.34256
# Poissons Ratio (z) = 0.50270 0.83578
#
# Static dielectric constant tensor:
#      x y z
#    x 1.789640 0.000000 0.000000 
#    y 0.000000 2.194710 0.000000 
#    z 0.000000 0.000000 1.835700 
# 
# From -- ./inp_files/6402.got.cif
#   From: 2010.05.17/outbox.cif.g08.bks.cpg/sg54_4_cif.got.tgz:6402.got - 2010.06.03 13:09:01.
