data_PCOD9422105
_publ_section_title
;
Structure prediction by ZEFSAII (Michael W. Deem and Ramdas Pophale) SiO2 
 PCOD9422105
Probable space group: P C C A
;
_chemical_formula_sum "Si O2"
_cell_formula_units_Z 40
_cell_length_a 7.960407
_cell_length_b 14.373609
_cell_length_c 14.332405
_cell_angle_alpha 90.000000
_cell_angle_beta 90.000000
_cell_angle_gamma 90.000000
_cell_volume 1639.910594
_symmetry_space_group_name_H-M "P C C A"
_symmetry_group_IT_number 54
_symmetry_cell_setting 'orthorhombic'
loop_
_space_group_symop_operation_xyz
x,y,z
1/2-x,-y,z
1/2+x,-y,1/2-z
-x,y,1/2-z
-x,-y,-z
1/2+x,y,-z
1/2-x,y,1/2+z
x,-y,1/2+z
loop_
_atom_site_type_symbol
_atom_site_label
_atom_site_fract_x
_atom_site_fract_y
_atom_site_fract_z
Si Si1 0.362043 0.814403 0.353150
Si Si2 0.582417 0.608234 0.105704
Si Si3 0.984087 0.586489 0.110783
Si Si4 0.685710 0.895644 0.356516
Si Si5 0.487698 0.787943 0.645651
O O1 0.447624 0.711875 0.358019
O O2 0.499161 0.883507 0.397279
O O3 0.333599 0.851490 0.247682
O O4 0.174286 0.802580 0.394629
O O5 0.782260 0.594588 0.117474
O O6 0.479765 0.518663 0.144152
O O7 0.540993 0.600364 0.996039
O O8 0.056497 0.678837 0.156975
O O9 0.833076 0.836446 0.404409
O O10 0.750000 0.000000 0.350592
O O11 0.500000 0.828603 0.750000
#
# Coordination Sequence:
#
# PCOD9422105 Si02
#       5
#     8   8   8   8   8
#     4   9  20  34  53  81 110 136 179 235 268 326
#     4   9  18  34  54  81 112 145 188 218 275 331
#     4   9  18  33  57  79 112 152 180 223 271 338
#     4  10  21  34  57  81 106 141 187 228 283 332
#     4   9  19  35  53  82 110 143 181 226 280 324
#
# _framework density 24.391573000000001
#
# number of rings (size 3 to 8) (size 9 to 14) (size 15 to 20)
#    0.000    2.800    0.000    0.000   11.200    0.000 
#    3.600    0.000    0.000    2.400    0.000    0.000 
#    0.000    0.000    0.000    0.000    0.000    0.000 
#
# Total GULP energy -222935.393884 kJ/mol
# GULP energy per Si atom -5573.384847 kJ/mol
# Density = 2.433606 g / cm^3
# Si number density = 24.391573 Si / 1000 Ang^3
#
#
#
# Elastic Constant Matrix: (Units=GPa)
#
#
# Indices 1 2 3 4 5 6 
#
# 1 118.5038 57.0236 -3.9780 0.0000 0.0000 0.0000
# 2 57.0236 179.1921 9.4123 0.0000 0.0000 0.0000
# 3 -3.9780 9.4123 66.0199 0.0000 0.0000 0.0000
# 4 0.0000 0.0000 0.0000 33.3537 0.0000 0.0000
# 5 0.0000 0.0000 0.0000 0.0000 18.8576 0.0000
# 6 0.0000 0.0000 0.0000 0.0000 0.0000 28.7699
#
#
#
# Elastic Compliance Matrix: (Units=1/GPa)
#
#
# Indices 1 2 3 4 5 6 
#
# 1 0.010039 -0.003251 0.001068 0.000000 0.000000 0.000000
# 2 -0.003251 0.006675 -0.001148 0.000000 0.000000 0.000000
# 3 0.001068 -0.001148 0.015375 0.000000 0.000000 0.000000
# 4 0.000000 0.000000 0.000000 0.029982 0.000000 0.000000
# 5 0.000000 0.000000 0.000000 0.000000 0.053029 0.000000
# 6 0.000000 0.000000 0.000000 0.000000 0.000000 0.034759
#
#
# Mechanical properties :
#
#
# Convention : Reuss Voigt Hill
#
# Bulk Modulus (GPa) = 39.32507 54.29237 46.80872
# Shear Modulus (GPa) = 30.30407 36.28010 33.29208
#
# Velocity S-wave (km/s) = 3.52859 3.86087 3.69846
# Velocity P-wave (km/s) = 5.72352 6.49477 6.12131
#
# Compressibility (1/GPa) = 0.02542907
#
# Stress axis : x y z
#
# Youngs Moduli (GPa) = 99.61530 149.80541 65.04098
#
# Poissons Ratio (x) = 0.48697 -0.06948
# Poissons Ratio (y) = 0.32382 0.07464
# Poissons Ratio (z) = -0.10642 0.17191
#
# Static dielectric constant tensor:
#      x y z
#    x 2.068660 0.000000 0.000000 
#    y 0.000000 1.965190 0.000000 
#    z 0.000000 0.000000 2.033620 
# 
# From -- ./inp_files/20290.got.cif
#   From: 2010.05.17/outbox.cif.g08.bks.cpg/sg54_11_cif.got.tgz:20290.got - 2010.06.03 13:09:01.
