data_PCOD9422870
_publ_section_title
;
Structure prediction by ZEFSAII (Michael W. Deem and Ramdas Pophale) SiO2 
 PCOD9422870
Probable space group: P C C A
;
_chemical_formula_sum "Si O2"
_cell_formula_units_Z 44
_cell_length_a 16.342485
_cell_length_b 9.329610
_cell_length_c 13.968312
_cell_angle_alpha 90.000000
_cell_angle_beta 90.000000
_cell_angle_gamma 90.000000
_cell_volume 2129.734723
_symmetry_space_group_name_H-M "P C C A"
_symmetry_group_IT_number 54
_symmetry_cell_setting 'orthorhombic'
loop_
_space_group_symop_operation_xyz
x,y,z
1/2-x,-y,z
1/2+x,-y,1/2-z
-x,y,1/2-z
-x,-y,-z
1/2+x,y,-z
1/2-x,y,1/2+z
x,-y,1/2+z
loop_
_atom_site_type_symbol
_atom_site_label
_atom_site_fract_x
_atom_site_fract_y
_atom_site_fract_z
Si Si1 0.847270 0.287208 0.006956
Si Si2 0.085754 0.416156 0.005670
Si Si3 0.999612 0.208308 0.137790
Si Si4 0.823408 0.181775 0.589355
Si Si5 0.250000 0.000000 0.740618
Si Si6 0.618365 0.006897 0.414520
O O1 0.758063 0.246850 0.042400
O O2 0.914328 0.253347 0.089860
O O3 0.852063 0.453867 0.981246
O O4 0.872499 0.177536 0.922851
O O5 0.070757 0.307531 0.092516
O O6 0.110938 0.311610 0.917876
O O7 0.000000 0.500000 0.000000
O O8 0.027850 0.048566 0.108908
O O9 0.000000 0.223307 0.250000
O O10 0.795003 0.113424 0.689324
O O11 0.853360 0.057191 0.516833
O O12 0.178846 0.949013 0.668244
#
# Coordination Sequence:
#
# PCOD9422870 Si02
#       6
#     8   8   8   8   4   8
#     4  11  19  41  60  90 124 168 214 262 342 386
#     4   9  22  41  62  85 127 170 210 263 329 393
#     4  10  22  39  61  89 127 171 217 268 327 400
#     4  11  21  39  66  87 127 166 208 274 323 386
#     4  12  20  38  64  96 124 160 230 266 332 404
#     4  11  22  39  61  93 128 166 207 276 328 387
#
# _framework density 20.659849999999999
#
# number of rings (size 3 to 8) (size 9 to 14) (size 15 to 20)
#    0.000    1.455    3.636    2.182    0.000    0.000 
#    6.545    0.000    4.000    0.000    0.000    0.000 
#    0.000    0.000    0.000    0.000    0.000    0.000 
#
# Total GULP energy -245478.841796 kJ/mol
# GULP energy per Si atom -5579.064586 kJ/mol
# Density = 2.061283 g / cm^3
# Si number density = 20.659850 Si / 1000 Ang^3
#
#
#
# Elastic Constant Matrix: (Units=GPa)
#
#
# Indices 1 2 3 4 5 6 
#
# 1 70.8710 20.0323 21.8546 0.0000 0.0000 0.0000
# 2 20.0323 103.8000 29.2226 0.0000 0.0000 0.0000
# 3 21.8546 29.2226 99.6744 0.0000 0.0000 0.0000
# 4 0.0000 0.0000 0.0000 12.4933 0.0000 0.0000
# 5 0.0000 0.0000 0.0000 0.0000 30.9616 0.0000
# 6 0.0000 0.0000 0.0000 0.0000 0.0000 39.5109
#
#
#
# Elastic Compliance Matrix: (Units=1/GPa)
#
#
# Indices 1 2 3 4 5 6 
#
# 1 0.015593 -0.002231 -0.002765 0.000000 0.000000 0.000000
# 2 -0.002231 0.010820 -0.002683 0.000000 0.000000 0.000000
# 3 -0.002765 -0.002683 0.011426 0.000000 0.000000 0.000000
# 4 0.000000 0.000000 0.000000 0.080043 0.000000 0.000000
# 5 0.000000 0.000000 0.000000 0.000000 0.032298 0.000000
# 6 0.000000 0.000000 0.000000 0.000000 0.000000 0.025309
#
#
# Mechanical properties :
#
#
# Convention : Reuss Voigt Hill
#
# Bulk Modulus (GPa) = 44.48216 46.28493 45.38355
# Shear Modulus (GPa) = 25.20914 30.14221 27.67567
#
# Velocity S-wave (km/s) = 3.49693 3.82380 3.66401
# Velocity P-wave (km/s) = 6.15485 6.47667 6.31780
#
# Compressibility (1/GPa) = 0.02248092
#
# Stress axis : x y z
#
# Youngs Moduli (GPa) = 64.12982 92.42312 87.52344
#
# Poissons Ratio (x) = 0.20619 0.24200
# Poissons Ratio (y) = 0.14307 0.23483
# Poissons Ratio (z) = 0.17731 0.24797
#
# Static dielectric constant tensor:
#      x y z
#    x 1.807380 0.000000 0.000000 
#    y 0.000000 1.823140 0.000000 
#    z 0.000000 0.000000 1.701940 
# 
# From -- ./inp_files/14011.got.cif
#   From: 2010.05.17/outbox.cif.g08.bks.cpg/sg54_8_cif.got.tgz:14011.got - 2010.06.03 13:09:01.
