data_PCOD9422274
_publ_section_title
;
Structure prediction by ZEFSAII (Michael W. Deem and Ramdas Pophale) SiO2 
 PCOD9422274
Probable space group: P C C A
;
_chemical_formula_sum "Si O2"
_cell_formula_units_Z 48
_cell_length_a 16.747041
_cell_length_b 11.704627
_cell_length_c 11.987685
_cell_angle_alpha 90.000000
_cell_angle_beta 90.000000
_cell_angle_gamma 90.000000
_cell_volume 2349.800459
_symmetry_space_group_name_H-M "P C C A"
_symmetry_group_IT_number 54
_symmetry_cell_setting 'orthorhombic'
loop_
_space_group_symop_operation_xyz
x,y,z
1/2-x,-y,z
1/2+x,-y,1/2-z
-x,y,1/2-z
-x,-y,-z
1/2+x,y,-z
1/2-x,y,1/2+z
x,-y,1/2+z
loop_
_atom_site_type_symbol
_atom_site_label
_atom_site_fract_x
_atom_site_fract_y
_atom_site_fract_z
Si Si1 0.181920 0.832588 0.417274
Si Si2 0.084028 0.200412 0.697464
Si Si3 0.143286 0.747269 0.859411
Si Si4 0.359327 0.402655 0.068885
Si Si5 0.586359 0.945262 0.018318
Si Si6 0.826441 0.341764 0.387271
O O1 0.144480 0.799802 0.299108
O O2 0.275532 0.810410 0.400215
O O3 0.154742 0.748128 0.515749
O O4 0.149431 0.957662 0.447577
O O5 0.081465 0.325213 0.641527
O O6 0.109487 0.116101 0.597973
O O7 0.000000 0.165494 0.750000
O O8 0.079631 0.844929 0.889381
O O9 0.150462 0.708021 0.732819
O O10 0.132757 0.638601 0.941027
O O11 0.367327 0.536730 0.087693
O O12 0.269199 0.366828 0.106878
O O13 0.500000 0.000000 0.000000
#
# Coordination Sequence:
#
# PCOD9422274 Si02
#       6
#     8   8   8   8   8   8
#     4  11  23  40  63  94 122 165 216 255 315 378
#     4  11  22  41  64  87 128 168 204 260 319 377
#     4  10  22  41  62  96 127 160 213 263 310 377
#     4   9  21  38  62  94 122 162 204 258 322 368
#     4  11  24  42  62  90 126 170 209 258 321 378
#     4  10  21  37  67  93 123 160 209 263 310 374
#
# _framework density 20.427267000000001
#
# number of rings (size 3 to 8) (size 9 to 14) (size 15 to 20)
#    0.000    1.667    3.333    0.500    4.667    1.333 
#    0.000    2.500    0.000    0.000    0.000    0.000 
#    0.000    0.000    0.000    0.000    0.000    0.000 
#
# Total GULP energy -268122.131817 kJ/mol
# GULP energy per Si atom -5585.877746 kJ/mol
# Density = 2.038077 g / cm^3
# Si number density = 20.427267 Si / 1000 Ang^3
#
#
#
# Elastic Constant Matrix: (Units=GPa)
#
#
# Indices 1 2 3 4 5 6 
#
# 1 16.3372 4.0208 0.6104 0.0000 0.0000 0.0000
# 2 4.0208 152.1536 80.4986 0.0000 0.0000 0.0000
# 3 0.6104 80.4986 157.0334 0.0000 0.0000 0.0000
# 4 0.0000 0.0000 0.0000 14.4552 0.0000 0.0000
# 5 0.0000 0.0000 0.0000 0.0000 17.0199 0.0000
# 6 0.0000 0.0000 0.0000 0.0000 0.0000 26.2154
#
#
#
# Elastic Compliance Matrix: (Units=1/GPa)
#
#
# Indices 1 2 3 4 5 6 
#
# 1 0.061687 -0.002063 0.000818 0.000000 0.000000 0.000000
# 2 -0.002063 0.009087 -0.004650 0.000000 0.000000 0.000000
# 3 0.000818 -0.004650 0.008749 0.000000 0.000000 0.000000
# 4 0.000000 0.000000 0.000000 0.069179 0.000000 0.000000
# 5 0.000000 0.000000 0.000000 0.000000 0.058755 0.000000
# 6 0.000000 0.000000 0.000000 0.000000 0.000000 0.038145
#
#
# Mechanical properties :
#
#
# Convention : Reuss Voigt Hill
#
# Bulk Modulus (GPa) = 14.76400 55.08709 34.92554
# Shear Modulus (GPa) = 17.85904 27.56441 22.71173
#
# Velocity S-wave (km/s) = 2.96002 3.67739 3.33803
# Velocity P-wave (km/s) = 4.35035 6.71245 5.65608
#
# Compressibility (1/GPa) = 0.06773233
#
# Stress axis : x y z
#
# Youngs Moduli (GPa) = 16.21082 110.04672 114.30299
#
# Poissons Ratio (x) = 0.22700 -0.09346
# Poissons Ratio (y) = 0.03344 0.53153
# Poissons Ratio (z) = -0.01325 0.51174
#
# Static dielectric constant tensor:
#      x y z
#    x 1.804510 0.000000 0.000000 
#    y 0.000000 1.723760 0.000000 
#    z 0.000000 0.000000 1.693120 
# 
# From -- ./inp_files/8916.got.cif
#   From: 2010.05.17/outbox.cif.g08.bks.cpg/sg54_5_cif.got.tgz:8916.got - 2010.06.03 13:09:01.
