data_PCOD9422684
_publ_section_title
;
Structure prediction by ZEFSAII (Michael W. Deem and Ramdas Pophale) SiO2 
 PCOD9422684
Probable space group: P C C A
;
_chemical_formula_sum "Si O2"
_cell_formula_units_Z 56
_cell_length_a 14.941666
_cell_length_b 5.574077
_cell_length_c 32.433564
_cell_angle_alpha 90.000000
_cell_angle_beta 90.000000
_cell_angle_gamma 90.000000
_cell_volume 2701.261707
_symmetry_space_group_name_H-M "P C C A"
_symmetry_group_IT_number 54
_symmetry_cell_setting 'orthorhombic'
loop_
_space_group_symop_operation_xyz
x,y,z
1/2-x,-y,z
1/2+x,-y,1/2-z
-x,y,1/2-z
-x,-y,-z
1/2+x,y,-z
1/2-x,y,1/2+z
x,-y,1/2+z
loop_
_atom_site_type_symbol
_atom_site_label
_atom_site_fract_x
_atom_site_fract_y
_atom_site_fract_z
Si Si1 0.504297 0.141257 0.860155
Si Si2 0.418694 0.225904 0.076556
Si Si3 0.995728 0.234204 0.701526
Si Si4 0.646933 0.520021 0.641197
Si Si5 0.909897 0.436111 0.552471
Si Si6 0.145255 0.945871 0.989378
Si Si7 0.651522 0.528346 0.849944
O O1 0.412037 0.281121 0.866420
O O2 0.595171 0.293380 0.861237
O O3 0.518403 0.940618 0.894795
O O4 0.497052 0.038117 0.813972
O O5 0.484358 0.442934 0.063157
O O6 0.343839 0.319600 0.107869
O O7 0.380048 0.098590 0.036895
O O8 0.085419 0.342845 0.681752
O O9 0.000000 0.266001 0.750000
O O10 0.911678 0.346027 0.676254
O O11 0.750000 0.500000 0.653687
O O12 0.643761 0.623645 0.594693
O O13 0.879572 0.691625 0.533271
O O14 0.901200 0.194099 0.525167
O O15 0.250000 0.000000 0.984412
O O16 0.750000 0.500000 0.833002
#
# Coordination Sequence:
#
# PCOD9422684 Si02
#       7
#     8   8   8   8   8   8   8
#     4  10  21  43  66  97 133 178 223 283 358 413
#     4  11  24  41  66  95 135 185 233 286 350 418
#     4  10  23  44  67 100 135 171 226 284 356 430
#     4  11  23  42  69  97 134 179 229 277 351 420
#     4  12  24  46  64  98 141 191 234 295 348 414
#     4  12  28  41  65 103 141 187 246 297 346 409
#     4  10  23  41  70  99 136 178 232 284 352 422
#
# _framework density 20.731052999999999
#
# number of rings (size 3 to 8) (size 9 to 14) (size 15 to 20)
#    0.000    1.143    4.286    3.000    4.000    5.143 
#    0.000    1.429    0.000    0.000    0.000    0.000 
#    0.000    0.000    0.000    0.000    0.000    0.000 
#
# Total GULP energy -312444.229377 kJ/mol
# GULP energy per Si atom -5579.361239 kJ/mol
# Density = 2.068387 g / cm^3
# Si number density = 20.731053 Si / 1000 Ang^3
#
#
#
# Elastic Constant Matrix: (Units=GPa)
#
#
# Indices 1 2 3 4 5 6 
#
# 1 114.9801 22.7653 20.8785 0.0000 0.0000 0.0000
# 2 22.7653 88.4888 42.2404 0.0000 0.0000 0.0000
# 3 20.8785 42.2404 154.6817 0.0000 0.0000 0.0000
# 4 0.0000 0.0000 0.0000 13.6078 0.0000 0.0000
# 5 0.0000 0.0000 0.0000 0.0000 0.8463 0.0000
# 6 0.0000 0.0000 0.0000 0.0000 0.0000 -1.8109
#
#
#
# Elastic Compliance Matrix: (Units=1/GPa)
#
#
# Indices 1 2 3 4 5 6 
#
# 1 0.009227 -0.002046 -0.000687 0.000000 0.000000 0.000000
# 2 -0.002046 0.013448 -0.003396 0.000000 0.000000 0.000000
# 3 -0.000687 -0.003396 0.007485 0.000000 0.000000 0.000000
# 4 0.000000 0.000000 0.000000 0.073488 0.000000 0.000000
# 5 0.000000 0.000000 0.000000 0.000000 1.181579 0.000000
# 6 0.000000 0.000000 0.000000 0.000000 0.000000 -0.552199
#
#
# Mechanical properties :
#
#
# Convention : Reuss Voigt Hill
#
# Bulk Modulus (GPa) = 55.85846 58.87989 57.36917
# Shear Modulus (GPa) = 6.65554 20.67972 13.66763
#
# Velocity S-wave (km/s) = 1.79371 3.16179 2.57044
# Velocity P-wave (km/s) = 5.59399 6.46472 6.04505
#
# Compressibility (1/GPa) = 0.01790239
#
# Stress axis : x y z
#
# Youngs Moduli (GPa) = 108.37825 74.35781 133.59963
#
# Poissons Ratio (x) = 0.15214 0.09174
# Poissons Ratio (y) = 0.22174 0.45375
# Poissons Ratio (z) = 0.07442 0.25254
#
# Static dielectric constant tensor:
#      x y z
#    x 1.778950 0.000000 0.000000 
#    y 0.000000 1.891910 0.000000 
#    z 0.000000 0.000000 1.747470 
# 
# From -- ./inp_files/28256.got.cif
#   From: 2010.05.17/outbox.cif.g08.bks.cpg/sg54_15_cif.got.tgz:28256.got - 2010.06.03 13:09:01.
