data_PCOD9422537
_publ_section_title
;
Structure prediction by ZEFSAII (Michael W. Deem and Ramdas Pophale) SiO2 
 PCOD9422537
Probable space group: P C C A
;
_chemical_formula_sum "Si O2"
_cell_formula_units_Z 24
_cell_length_a 13.778289
_cell_length_b 4.831663
_cell_length_c 12.764074
_cell_angle_alpha 90.000000
_cell_angle_beta 90.000000
_cell_angle_gamma 90.000000
_cell_volume 849.730562
_symmetry_space_group_name_H-M "P C C A"
_symmetry_group_IT_number 54
_symmetry_cell_setting 'orthorhombic'
loop_
_space_group_symop_operation_xyz
x,y,z
1/2-x,-y,z
1/2+x,-y,1/2-z
-x,y,1/2-z
-x,-y,-z
1/2+x,y,-z
1/2-x,y,1/2+z
x,-y,1/2+z
loop_
_atom_site_type_symbol
_atom_site_label
_atom_site_fract_x
_atom_site_fract_y
_atom_site_fract_z
Si Si1 0.149607 0.844075 0.043526
Si Si2 0.472306 0.145197 0.860795
Si Si3 0.680355 0.264513 0.231885
O O1 0.157353 0.658051 0.147180
O O2 0.070918 0.069668 0.081342
O O3 0.250000 0.000000 0.017138
O O4 0.098383 0.708265 0.943262
O O5 0.500000 0.281479 0.750000
O O6 0.412113 0.865992 0.827325
O O7 0.750000 0.500000 0.186842
O O8 0.750000 0.000000 0.243669
#
# Coordination Sequence:
#
# PCOD9422537 Si02
#       3
#     8   8   8
#     4   9  18  36  63  97 137 180 230 290 354 420
#     4   9  18  36  64  97 135 180 232 290 352 421
#     4  10  21  40  66  97 134 180 231 282 346 420
#
# _framework density 28.244247999999999
#
# number of rings (size 3 to 8) (size 9 to 14) (size 15 to 20)
#    0.000    2.667    0.000    1.000    0.000    1.333 
#    0.000   40.000    0.000   60.000    0.000    2.333 
#    0.000    0.000    0.000    0.000    0.000    0.000 
#
# Total GULP energy -134373.049883 kJ/mol
# GULP energy per Si atom -5598.877078 kJ/mol
# Density = 2.817996 g / cm^3
# Si number density = 28.244248 Si / 1000 Ang^3
#
#
#
# Elastic Constant Matrix: (Units=GPa)
#
#
# Indices 1 2 3 4 5 6 
#
# 1 212.0718 36.6081 76.9535 0.0000 0.0000 0.0000
# 2 36.6081 102.4191 14.1809 0.0000 0.0000 0.0000
# 3 76.9535 14.1809 150.2862 0.0000 0.0000 0.0000
# 4 0.0000 0.0000 0.0000 7.6510 0.0000 0.0000
# 5 0.0000 0.0000 0.0000 0.0000 80.3457 0.0000
# 6 0.0000 0.0000 0.0000 0.0000 0.0000 17.2417
#
#
#
# Elastic Compliance Matrix: (Units=1/GPa)
#
#
# Indices 1 2 3 4 5 6 
#
# 1 0.006092 -0.001769 -0.002953 0.000000 0.000000 0.000000
# 2 -0.001769 0.010407 -0.000076 0.000000 0.000000 0.000000
# 3 -0.002953 -0.000076 0.008173 0.000000 0.000000 0.000000
# 4 0.000000 0.000000 0.000000 0.130702 0.000000 0.000000
# 5 0.000000 0.000000 0.000000 0.000000 0.012446 0.000000
# 6 0.000000 0.000000 0.000000 0.000000 0.000000 0.057999
#
#
# Mechanical properties :
#
#
# Convention : Reuss Voigt Hill
#
# Bulk Modulus (GPa) = 66.32807 80.02912 73.17860
# Shear Modulus (GPa) = 20.79530 43.51664 32.15597
#
# Velocity S-wave (km/s) = 2.71637 3.92947 3.37782
# Velocity P-wave (km/s) = 5.77693 6.99884 6.41704
#
# Compressibility (1/GPa) = 0.01507657
#
# Stress axis : x y z
#
# Youngs Moduli (GPa) = 164.14770 96.09317 122.35402
#
# Poissons Ratio (x) = 0.16996 0.36125
# Poissons Ratio (y) = 0.29033 0.00933
# Poissons Ratio (z) = 0.48465 0.00733
#
# Static dielectric constant tensor:
#      x y z
#    x 2.158760 0.000000 0.000000 
#    y 0.000000 2.092520 0.000000 
#    z 0.000000 0.000000 2.259290 
# 
# From -- ./inp_files/12849.got.cif
#   From: 2010.05.17/outbox.cif.g08.bks.cpg/sg54_7_cif.got.tgz:12849.got - 2010.06.03 13:09:01.
