data_PCOD9422268
_publ_section_title
;
Structure prediction by ZEFSAII (Michael W. Deem and Ramdas Pophale) SiO2 
 PCOD9422268
Probable space group: P C C A
;
_chemical_formula_sum "Si O2"
_cell_formula_units_Z 44
_cell_length_a 16.389418
_cell_length_b 5.914914
_cell_length_c 20.950831
_cell_angle_alpha 90.000000
_cell_angle_beta 90.000000
_cell_angle_gamma 90.000000
_cell_volume 2031.015416
_symmetry_space_group_name_H-M "P C C A"
_symmetry_group_IT_number 54
_symmetry_cell_setting 'orthorhombic'
loop_
_space_group_symop_operation_xyz
x,y,z
1/2-x,-y,z
1/2+x,-y,1/2-z
-x,y,1/2-z
-x,-y,-z
1/2+x,y,-z
1/2-x,y,1/2+z
x,-y,1/2+z
loop_
_atom_site_type_symbol
_atom_site_label
_atom_site_fract_x
_atom_site_fract_y
_atom_site_fract_z
Si Si1 0.000000 0.499998 0.750000
Si Si2 0.625440 0.837803 0.810383
Si Si3 0.250000 0.500000 0.136437
Si Si4 0.625441 0.162197 0.689619
Si Si5 0.839290 0.879083 0.071155
Si Si6 0.160710 0.120916 0.071153
Si Si7 0.250000 0.500000 0.863562
O O1 0.054890 0.338436 0.706279
O O2 0.054892 0.661561 0.793720
O O3 0.706371 0.690536 0.822165
O O4 0.634310 0.000001 0.750001
O O5 0.612788 0.988527 0.873675
O O6 0.182069 0.374742 0.093624
O O7 0.706372 0.309462 0.677837
O O8 0.612789 0.011472 0.626327
O O9 0.817931 0.625257 0.093626
O O10 0.750000 0.000000 0.068382
O O11 0.874465 0.886629 0.000001
O O12 0.250000 0.000000 0.068380
#
# Coordination Sequence:
#
# PCOD9422268 Si02
#       7
#     4   8   4   8   8   8   4
#     4  12  26  42  58  82 120 166 206 250 300 348
#     4  11  24  40  61  89 121 158 202 249 298 355
#     4  10  21  37  64  94 121 155 196 246 303 357
#     4  11  24  40  61  89 121 158 202 249 298 355
#     4   9  19  36  60  92 125 155 193 243 298 358
#     4   9  19  36  60  92 125 155 193 243 298 358
#     4  10  21  37  64  94 121 155 196 246 303 357
#
# _framework density 21.664041999999998
#
# number of rings (size 3 to 8) (size 9 to 14) (size 15 to 20)
#    0.000    1.818    0.000    3.273    0.000   18.909 
#    0.000    0.909    0.000   10.909    0.000    0.000 
#    0.000    0.000    0.000    0.000    0.000    0.000 
#
# Total GULP energy -246093.700125 kJ/mol
# GULP energy per Si atom -5593.038639 kJ/mol
# Density = 2.161473 g / cm^3
# Si number density = 21.664042 Si / 1000 Ang^3
#
#
#
# Elastic Constant Matrix: (Units=GPa)
#
#
# Indices 1 2 3 4 5 6 
#
# 1 38.8633 28.3538 56.2679 0.0000 0.0000 0.0000
# 2 28.3538 141.0230 104.3910 0.0000 0.0000 0.0000
# 3 56.2679 104.3910 232.6746 0.0000 0.0000 0.0000
# 4 0.0000 0.0000 0.0000 15.2689 0.0000 0.0000
# 5 0.0000 0.0000 0.0000 0.0000 -3.7148 0.0000
# 6 0.0000 0.0000 0.0000 0.0000 0.0000 35.2335
#
#
#
# Elastic Compliance Matrix: (Units=1/GPa)
#
#
# Indices 1 2 3 4 5 6 
#
# 1 0.039756 -0.001312 -0.009026 0.000000 0.000000 0.000000
# 2 -0.001312 0.010660 -0.004466 0.000000 0.000000 0.000000
# 3 -0.009026 -0.004466 0.008484 0.000000 0.000000 0.000000
# 4 0.000000 0.000000 0.000000 0.065493 0.000000 0.000000
# 5 0.000000 0.000000 0.000000 0.000000 -0.269194 0.000000
# 6 0.000000 0.000000 0.000000 0.000000 0.000000 0.028382
#
#
# Mechanical properties :
#
#
# Convention : Reuss Voigt Hill
#
# Bulk Modulus (GPa) = 34.13669 87.84292 60.98981
# Shear Modulus (GPa) = -64.89464 24.26074 -20.31695
#
# Velocity S-wave (km/s) = -5.47905 3.35006 -3.06571
# Velocity P-wave (km/s) = 4.92293 7.45652 3.96008
#
# Compressibility (1/GPa) = 0.02929399
#
# Stress axis : x y z
#
# Youngs Moduli (GPa) = 25.15336 93.80458 117.86887
#
# Poissons Ratio (x) = 0.12309 1.06383
# Poissons Ratio (y) = 0.03301 0.52635
# Poissons Ratio (z) = 0.22702 0.41889
#
# Static dielectric constant tensor:
#      x y z
#    x 1.809520 0.000000 0.000000 
#    y 0.000000 1.824020 0.000000 
#    z 0.000000 0.000000 1.810630 
# 
# From -- ./inp_files/22052.got.cif
#   From: 2010.05.17/outbox.cif.g08.bks.cpg/sg54_12_cif.got.tgz:22052.got - 2010.06.03 13:09:01.
