data_PCOD9422856
_publ_section_title
;
Structure prediction by ZEFSAII (Michael W. Deem and Ramdas Pophale) SiO2 
 PCOD9422856
Probable space group: P C C A
;
_chemical_formula_sum "Si O2"
_cell_formula_units_Z 60
_cell_length_a 18.006823
_cell_length_b 5.125840
_cell_length_c 28.476372
_cell_angle_alpha 90.000000
_cell_angle_beta 90.000000
_cell_angle_gamma 90.000000
_cell_volume 2628.371801
_symmetry_space_group_name_H-M "P C C A"
_symmetry_group_IT_number 54
_symmetry_cell_setting 'orthorhombic'
loop_
_space_group_symop_operation_xyz
x,y,z
1/2-x,-y,z
1/2+x,-y,1/2-z
-x,y,1/2-z
-x,-y,-z
1/2+x,y,-z
1/2-x,y,1/2+z
x,-y,1/2+z
loop_
_atom_site_type_symbol
_atom_site_label
_atom_site_fract_x
_atom_site_fract_y
_atom_site_fract_z
Si Si1 0.686368 0.297809 0.993771
Si Si2 0.435044 0.227110 0.788368
Si Si3 0.750000 0.000000 0.811389
Si Si4 0.096314 0.780306 0.988240
Si Si5 0.378137 0.268360 0.246139
Si Si6 0.029607 0.399656 0.655943
Si Si7 0.509918 0.965718 0.920868
Si Si8 0.151335 0.713966 0.612190
O O1 0.750000 0.500000 0.011961
O O2 0.693680 0.298780 0.937098
O O3 0.616784 0.477555 0.007933
O O4 0.664057 0.998067 0.007152
O O5 0.500000 0.215915 0.750000
O O6 0.378198 0.446774 0.769174
O O7 0.479099 0.349457 0.832050
O O8 0.397844 0.945893 0.785641
O O9 0.695786 0.826057 0.779665
O O10 0.799217 0.821056 0.845852
O O11 0.043205 0.827308 0.032898
O O12 0.052657 0.845745 0.941002
O O13 0.442325 0.278635 0.205359
O O14 0.984145 0.224901 0.619979
O O15 0.107983 0.459281 0.629886
O O16 0.581558 0.104644 0.899232
#
# Coordination Sequence:
#
# PCOD9422856 Si02
#       8
#     8   8   4   8   8   8   8   8
#     4  11  24  40  61  91 133 175 218 253 330 395
#     4  10  22  39  60  83 124 159 210 260 311 377
#     4  12  24  40  60  92 136 172 210 258 336 420
#     4  10  23  41  62  90 138 174 211 276 320 389
#     4  11  24  39  57  90 124 168 199 253 322 392
#     4  11  22  39  65  93 126 164 220 269 327 390
#     4  10  22  39  61  97 130 167 223 266 335 375
#     4  11  25  35  62  96 135 168 213 268 328 400
#
# _framework density 22.827822999999999
#
# number of rings (size 3 to 8) (size 9 to 14) (size 15 to 20)
#    0.000    1.333    2.667    3.200    9.333    3.200 
#    0.000    0.000    0.000    0.000    6.933    0.000 
#    0.000    0.000    0.000    0.000    0.000    0.000 
#
# Total GULP energy -335150.456324 kJ/mol
# GULP energy per Si atom -5585.840939 kJ/mol
# Density = 2.277587 g / cm^3
# Si number density = 22.827823 Si / 1000 Ang^3
#
#
#
# Elastic Constant Matrix: (Units=GPa)
#
#
# Indices 1 2 3 4 5 6 
#
# 1 60.0612 4.2030 13.9163 0.0000 0.0000 0.0000
# 2 4.2030 99.7503 11.5537 0.0000 0.0000 0.0000
# 3 13.9163 11.5537 57.3696 0.0000 0.0000 0.0000
# 4 0.0000 0.0000 0.0000 -40.6459 0.0000 0.0000
# 5 0.0000 0.0000 0.0000 0.0000 33.5666 0.0000
# 6 0.0000 0.0000 0.0000 0.0000 0.0000 14.3309
#
#
#
# Elastic Compliance Matrix: (Units=1/GPa)
#
#
# Indices 1 2 3 4 5 6 
#
# 1 0.017647 -0.000254 -0.004230 0.000000 0.000000 0.000000
# 2 -0.000254 0.010268 -0.002006 0.000000 0.000000 0.000000
# 3 -0.004230 -0.002006 0.018861 0.000000 0.000000 0.000000
# 4 0.000000 0.000000 0.000000 -0.024603 0.000000 0.000000
# 5 0.000000 0.000000 0.000000 0.000000 0.029792 0.000000
# 6 0.000000 0.000000 0.000000 0.000000 0.000000 0.069779
#
#
# Mechanical properties :
#
#
# Convention : Reuss Voigt Hill
#
# Bulk Modulus (GPa) = 29.58844 30.72524 30.15684
# Shear Modulus (GPa) = 34.24902 13.95087 24.09995
#
# Velocity S-wave (km/s) = 3.87760 2.47480 3.25272
# Velocity P-wave (km/s) = 5.74782 4.65349 5.22936
#
# Compressibility (1/GPa) = 0.03379698
#
# Stress axis : x y z
#
# Youngs Moduli (GPa) = 56.66538 97.38891 53.01969
#
# Poissons Ratio (x) = 0.02470 0.22426
# Poissons Ratio (y) = 0.01437 0.10638
# Poissons Ratio (z) = 0.23968 0.19540
#
# Static dielectric constant tensor:
#      x y z
#    x 1.885960 0.000000 0.000000 
#    y 0.000000 1.946620 0.000000 
#    z 0.000000 0.000000 1.852200 
# 
# From -- ./inp_files/26666.got.cif
#   From: 2010.05.17/outbox.cif.g08.bks.cpg/sg54_14_cif.got.tgz:26666.got - 2010.06.03 13:09:01.
