data_PCOD9422660
_publ_section_title
;
Structure prediction by ZEFSAII (Michael W. Deem and Ramdas Pophale) SiO2 
 PCOD9422660
Probable space group: P C C A
;
_chemical_formula_sum "Si O2"
_cell_formula_units_Z 64
_cell_length_a 15.093624
_cell_length_b 20.626626
_cell_length_c 9.138970
_cell_angle_alpha 90.000000
_cell_angle_beta 90.000000
_cell_angle_gamma 90.000000
_cell_volume 2845.240440
_symmetry_space_group_name_H-M "P C C A"
_symmetry_group_IT_number 54
_symmetry_cell_setting 'orthorhombic'
loop_
_space_group_symop_operation_xyz
x,y,z
1/2-x,-y,z
1/2+x,-y,1/2-z
-x,y,1/2-z
-x,-y,-z
1/2+x,y,-z
1/2-x,y,1/2+z
x,-y,1/2+z
loop_
_atom_site_type_symbol
_atom_site_label
_atom_site_fract_x
_atom_site_fract_y
_atom_site_fract_z
Si Si1 0.658989 0.531226 0.394439
Si Si2 0.008187 0.194250 0.075247
Si Si3 0.749127 0.342836 0.273784
Si Si4 0.540136 0.939247 0.913487
Si Si5 0.410261 0.420083 0.321861
Si Si6 0.193200 0.843806 0.509777
Si Si7 0.835279 0.263627 0.031836
Si Si8 0.721890 0.069857 0.268412
O O1 0.750000 0.500000 0.461311
O O2 0.689883 0.595848 0.311159
O O3 0.621326 0.477862 0.285021
O O4 0.588013 0.550229 0.516696
O O5 0.938965 0.248582 0.023800
O O6 0.000000 0.189638 0.250000
O O7 0.109654 0.203221 0.027930
O O8 0.981753 0.126017 0.001269
O O9 0.668293 0.367801 0.174025
O O10 0.805311 0.288656 0.190539
O O11 0.700621 0.315541 0.416734
O O12 0.500000 0.937571 0.750000
O O13 0.645355 0.942728 0.887819
O O14 0.500000 0.000000 0.000000
O O15 0.500000 0.394321 0.250000
O O16 0.282522 0.802313 0.502003
O O17 0.186665 0.885552 0.362385
O O18 0.200146 0.891853 0.648203
O O19 0.750000 0.000000 0.210363
#
# Coordination Sequence:
#
# PCOD9422660 Si02
#       8
#     8   8   8   8   8   8   8   8
#     4  10  21  42  70 100 143 193 236 292 360 421
#     4  12  26  49  71 102 141 187 241 295 362 433
#     4  11  24  45  71 101 142 195 248 291 360 434
#     4  12  26  45  71 106 140 180 232 296 366 444
#     4  11  23  41  70 110 149 185 237 302 354 418
#     4  12  26  47  72 102 142 184 242 295 366 440
#     4  12  26  47  73  99 141 199 242 300 359 428
#     4  12  26  45  72 106 138 183 231 301 375 447
#
# _framework density 22.493707000000001
#
# number of rings (size 3 to 8) (size 9 to 14) (size 15 to 20)
#    0.000    0.500    3.750    5.250    3.500    1.000 
#    2.250    0.000    0.000    0.000    0.000    0.000 
#    0.000    0.000    0.000    0.000    0.000    0.000 
#
# Total GULP energy -358396.349062 kJ/mol
# GULP energy per Si atom -5599.942954 kJ/mol
# Density = 2.244251 g / cm^3
# Si number density = 22.493707 Si / 1000 Ang^3
#
#
#
# Elastic Constant Matrix: (Units=GPa)
#
#
# Indices 1 2 3 4 5 6 
#
# 1 95.8229 14.7408 8.3735 0.0000 0.0000 0.0000
# 2 14.7408 50.2178 3.0067 0.0000 0.0000 0.0000
# 3 8.3735 3.0067 66.0885 0.0000 0.0000 0.0000
# 4 0.0000 0.0000 0.0000 25.5262 0.0000 0.0000
# 5 0.0000 0.0000 0.0000 0.0000 5.3385 0.0000
# 6 0.0000 0.0000 0.0000 0.0000 0.0000 33.7612
#
#
#
# Elastic Compliance Matrix: (Units=1/GPa)
#
#
# Indices 1 2 3 4 5 6 
#
# 1 0.011032 -0.003163 -0.001254 0.000000 0.000000 0.000000
# 2 -0.003163 0.020875 -0.000549 0.000000 0.000000 0.000000
# 3 -0.001254 -0.000549 0.015315 0.000000 0.000000 0.000000
# 4 0.000000 0.000000 0.000000 0.039175 0.000000 0.000000
# 5 0.000000 0.000000 0.000000 0.000000 0.187317 0.000000
# 6 0.000000 0.000000 0.000000 0.000000 0.000000 0.029620
#
#
# Mechanical properties :
#
#
# Convention : Reuss Voigt Hill
#
# Bulk Modulus (GPa) = 26.81700 29.37457 28.09578
# Shear Modulus (GPa) = 15.35173 25.32573 20.33873
#
# Velocity S-wave (km/s) = 2.61529 3.35909 3.01025
# Velocity P-wave (km/s) = 4.58994 5.30396 4.95981
#
# Compressibility (1/GPa) = 0.03728978
#
# Stress axis : x y z
#
# Youngs Moduli (GPa) = 90.64451 47.90496 65.29518
#
# Poissons Ratio (x) = 0.15154 0.08187
# Poissons Ratio (y) = 0.28673 0.03584
# Poissons Ratio (z) = 0.11366 0.02629
#
# Static dielectric constant tensor:
#      x y z
#    x 1.893700 0.000000 0.000000 
#    y 0.000000 1.797890 0.000000 
#    z 0.000000 0.000000 1.821180 
# 
# From -- ./inp_files/3745.got.cif
#   From: 2010.05.17/outbox.cif.g08.bks.cpg/sg54_2_cif.got.tgz:3745.got - 2010.06.03 13:09:01.
