data_PCOD9422282
_publ_section_title
;
Structure prediction by ZEFSAII (Michael W. Deem and Ramdas Pophale) SiO2 
 PCOD9422282
Probable space group: P C C A
;
_chemical_formula_sum "Si O2"
_cell_formula_units_Z 48
_cell_length_a 30.013856
_cell_length_b 6.042871
_cell_length_c 12.289441
_cell_angle_alpha 90.000000
_cell_angle_beta 90.000000
_cell_angle_gamma 90.000000
_cell_volume 2228.934194
_symmetry_space_group_name_H-M "P C C A"
_symmetry_group_IT_number 54
_symmetry_cell_setting 'orthorhombic'
loop_
_space_group_symop_operation_xyz
x,y,z
1/2-x,-y,z
1/2+x,-y,1/2-z
-x,y,1/2-z
-x,-y,-z
1/2+x,y,-z
1/2-x,y,1/2+z
x,-y,1/2+z
loop_
_atom_site_type_symbol
_atom_site_label
_atom_site_fract_x
_atom_site_fract_y
_atom_site_fract_z
Si Si1 0.208077 0.889790 0.983037
Si Si2 0.957274 0.607041 0.058726
Si Si3 0.919059 0.061083 0.378625
Si Si4 0.122916 0.666011 0.984312
Si Si5 0.750000 0.500000 0.868099
Si Si6 0.500000 0.880715 0.750000
Si Si7 0.833684 0.720159 0.868068
O O1 0.163946 0.792518 0.926731
O O2 0.250000 0.000000 0.920615
O O3 0.229539 0.693372 0.055653
O O4 0.188096 0.079871 0.062168
O O5 0.917944 0.433163 0.083181
O O6 0.975272 0.727833 0.163694
O O7 0.935204 0.786199 0.978162
O O8 0.000000 0.500000 0.000000
O O9 0.877901 0.176284 0.316533
O O10 0.900286 0.833071 0.429616
O O11 0.962035 0.022942 0.306674
O O12 0.146548 0.466534 0.050497
O O13 0.792318 0.605197 0.806252
#
# Coordination Sequence:
#
# PCOD9422282 Si02
#       7
#     8   8   8   8   4   4   8
#     4   8  13  23  45  77 112 148 187 237 302 371
#     4  11  23  40  57  82 116 163 203 261 307 365
#     4  10  21  38  54  81 118 155 199 260 300 367
#     4   9  17  33  51  74 119 150 190 253 298 354
#     4   8  12  22  44  78 112 148 186 234 300 372
#     4  12  24  38  60  82 112 170 218 244 322 368
#     4   8  15  27  48  75 115 149 186 244 296 363
#
# _framework density 21.534956000000001
#
# number of rings (size 3 to 8) (size 9 to 14) (size 15 to 20)
#    0.000    2.667    1.667    0.500    0.000    0.667 
#    0.000    0.000    0.000    0.000    0.000    0.000 
#    0.000  813.333    0.000    0.000    4.333    4.000 
#
# Total GULP energy -267461.578292 kJ/mol
# GULP energy per Si atom -5572.116214 kJ/mol
# Density = 2.148594 g / cm^3
# Si number density = 21.534956 Si / 1000 Ang^3
#
#
#
# Elastic Constant Matrix: (Units=GPa)
#
#
# Indices 1 2 3 4 5 6 
#
# 1 232.2637 67.2259 45.3388 0.0000 0.0000 0.0000
# 2 67.2259 106.0996 20.2355 0.0000 0.0000 0.0000
# 3 45.3388 20.2355 45.5508 0.0000 0.0000 0.0000
# 4 0.0000 0.0000 0.0000 82.4130 0.0000 0.0000
# 5 0.0000 0.0000 0.0000 0.0000 11.6106 0.0000
# 6 0.0000 0.0000 0.0000 0.0000 0.0000 81.3986
#
#
#
# Elastic Compliance Matrix: (Units=1/GPa)
#
#
# Indices 1 2 3 4 5 6 
#
# 1 0.006086 -0.002951 -0.004747 0.000000 0.000000 0.000000
# 2 -0.002951 0.011728 -0.002273 0.000000 0.000000 0.000000
# 3 -0.004747 -0.002273 0.027688 0.000000 0.000000 0.000000
# 4 0.000000 0.000000 0.000000 0.012134 0.000000 0.000000
# 5 0.000000 0.000000 0.000000 0.000000 0.086128 0.000000
# 6 0.000000 0.000000 0.000000 0.000000 0.000000 0.012285
#
#
# Mechanical properties :
#
#
# Convention : Reuss Voigt Hill
#
# Bulk Modulus (GPa) = 39.12224 72.16829 55.64526
# Shear Modulus (GPa) = 27.09853 51.82539 39.46196
#
# Velocity S-wave (km/s) = 3.55117 4.91100 4.28537
# Velocity P-wave (km/s) = 5.91783 8.10815 7.09799
#
# Compressibility (1/GPa) = 0.02556091
#
# Stress axis : x y z
#
# Youngs Moduli (GPa) = 164.30651 85.26338 36.11659
#
# Poissons Ratio (x) = 0.25161 0.17144
# Poissons Ratio (y) = 0.48486 0.08209
# Poissons Ratio (z) = 0.77995 0.19380
#
# Static dielectric constant tensor:
#      x y z
#    x 1.837810 0.000000 0.000000 
#    y 0.000000 1.997990 0.000000 
#    z 0.000000 0.000000 1.637080 
# 
# From -- ./inp_files/15315.got.cif
#   From: 2010.05.17/outbox.cif.g08.bks.cpg/sg54_8_cif.got.tgz:15315.got - 2010.06.03 13:09:01.
