data_PCOD9422945
_publ_section_title
;
Structure prediction by ZEFSAII (Michael W. Deem and Ramdas Pophale) SiO2 
 PCOD9422945
Probable space group: P C C A
;
_chemical_formula_sum "Si O2"
_cell_formula_units_Z 36
_cell_length_a 5.313132
_cell_length_b 22.447025
_cell_length_c 12.473533
_cell_angle_alpha 90.000000
_cell_angle_beta 90.000000
_cell_angle_gamma 90.000000
_cell_volume 1487.643525
_symmetry_space_group_name_H-M "P C C A"
_symmetry_group_IT_number 54
_symmetry_cell_setting 'orthorhombic'
loop_
_space_group_symop_operation_xyz
x,y,z
1/2-x,-y,z
1/2+x,-y,1/2-z
-x,y,1/2-z
-x,-y,-z
1/2+x,y,-z
1/2-x,y,1/2+z
x,-y,1/2+z
loop_
_atom_site_type_symbol
_atom_site_label
_atom_site_fract_x
_atom_site_fract_y
_atom_site_fract_z
Si Si1 0.156280 0.083214 0.469739
Si Si2 0.500000 0.279827 0.250000
Si Si3 0.500000 0.039691 0.750000
Si Si4 0.695805 0.370047 0.075963
Si Si5 0.276022 0.216490 0.055792
Si Si6 0.250000 0.500000 0.426733
O O1 0.430614 0.054406 0.463973
O O2 0.213689 0.146199 0.527609
O O3 0.060067 0.082139 0.349502
O O4 0.661167 0.321852 0.170392
O O5 0.331924 0.236909 0.175343
O O6 0.250000 0.000000 0.730836
O O7 0.728442 0.435888 0.129562
O O8 0.438987 0.366352 0.003477
O O9 0.509384 0.239240 0.984551
O O10 0.500000 0.500000 0.500000
#
# Coordination Sequence:
#
# PCOD9422945 Si02
#       6
#     8   4   4   8   8   4
#     4  10  23  43  66  95 131 169 212 264 325 389
#     4  12  24  40  67  98 130 169 220 272 324 390
#     4  12  26  42  69 100 128 169 220 270 322 382
#     4  10  22  40  62  92 127 166 214 266 320 379
#     4  10  24  42  64  94 131 172 215 265 324 387
#     4   8  16  36  60  82 120 162 198 254 316 368
#
# _framework density 24.199345000000001
#
# number of rings (size 3 to 8) (size 9 to 14) (size 15 to 20)
#    0.000    1.778    0.000    2.667    0.000   13.333 
#    0.000    6.667    0.000    0.000    0.000    0.000 
#    0.000    0.000    0.000    0.000    0.000    0.000 
#
# Total GULP energy -200987.061720 kJ/mol
# GULP energy per Si atom -5582.973937 kJ/mol
# Density = 2.414427 g / cm^3
# Si number density = 24.199345 Si / 1000 Ang^3
#
#
#
# Elastic Constant Matrix: (Units=GPa)
#
#
# Indices 1 2 3 4 5 6 
#
# 1 159.9411 35.4551 13.6416 0.0000 0.0000 0.0000
# 2 35.4551 169.8846 74.5423 0.0000 0.0000 0.0000
# 3 13.6416 74.5423 111.5156 0.0000 0.0000 0.0000
# 4 0.0000 0.0000 0.0000 37.7186 0.0000 0.0000
# 5 0.0000 0.0000 0.0000 0.0000 17.9098 0.0000
# 6 0.0000 0.0000 0.0000 0.0000 0.0000 7.3706
#
#
#
# Elastic Compliance Matrix: (Units=1/GPa)
#
#
# Indices 1 2 3 4 5 6 
#
# 1 0.006558 -0.001439 0.000159 0.000000 0.000000 0.000000
# 2 -0.001439 0.008645 -0.005603 0.000000 0.000000 0.000000
# 3 0.000159 -0.005603 0.012693 0.000000 0.000000 0.000000
# 4 0.000000 0.000000 0.000000 0.026512 0.000000 0.000000
# 5 0.000000 0.000000 0.000000 0.000000 0.055835 0.000000
# 6 0.000000 0.000000 0.000000 0.000000 0.000000 0.135673
#
#
# Mechanical properties :
#
#
# Convention : Reuss Voigt Hill
#
# Bulk Modulus (GPa) = 70.76224 76.51325 73.63774
# Shear Modulus (GPa) = 18.91140 33.77996 26.34568
#
# Velocity S-wave (km/s) = 2.79854 3.74023 3.30312
# Velocity P-wave (km/s) = 6.30454 7.09500 6.71142
#
# Compressibility (1/GPa) = 0.01413183
#
# Stress axis : x y z
#
# Youngs Moduli (GPa) = 152.49504 115.67465 78.78372
#
# Poissons Ratio (x) = 0.16640 -0.01256
# Poissons Ratio (y) = 0.21937 0.44140
# Poissons Ratio (z) = -0.02431 0.64809
#
# Static dielectric constant tensor:
#      x y z
#    x 2.123210 0.000000 0.000000 
#    y 0.000000 2.111790 0.000000 
#    z 0.000000 0.000000 1.886010 
# 
# From -- ./inp_files/6390.got.cif
#   From: 2010.05.17/outbox.cif.g08.bks.cpg/sg54_4_cif.got.tgz:6390.got - 2010.06.03 13:09:01.
