data_PCOD9422337
_publ_section_title
;
Structure prediction by ZEFSAII (Michael W. Deem and Ramdas Pophale) SiO2 
 PCOD9422337
Probable space group: P C C A
;
_chemical_formula_sum "Si O2"
_cell_formula_units_Z 64
_cell_length_a 9.682307
_cell_length_b 21.596838
_cell_length_c 15.035226
_cell_angle_alpha 90.000000
_cell_angle_beta 90.000000
_cell_angle_gamma 90.000000
_cell_volume 3143.974247
_symmetry_space_group_name_H-M "P C C A"
_symmetry_group_IT_number 54
_symmetry_cell_setting 'orthorhombic'
loop_
_space_group_symop_operation_xyz
x,y,z
1/2-x,-y,z
1/2+x,-y,1/2-z
-x,y,1/2-z
-x,-y,-z
1/2+x,y,-z
1/2-x,y,1/2+z
x,-y,1/2+z
loop_
_atom_site_type_symbol
_atom_site_label
_atom_site_fract_x
_atom_site_fract_y
_atom_site_fract_z
Si Si1 0.151084 0.055944 0.715164
Si Si2 0.658339 0.441167 0.781025
Si Si3 0.240746 0.075132 0.905999
Si Si4 0.892659 0.682358 0.044421
Si Si5 0.842155 0.676388 0.239011
Si Si6 0.867764 0.543504 0.992216
Si Si7 0.331296 0.262698 0.076266
Si Si8 0.446587 0.126988 0.041874
O O1 0.220460 0.088314 0.801005
O O2 0.123352 0.095823 0.628444
O O3 0.000000 0.034357 0.750000
O O4 0.250000 0.000000 0.690265
O O5 0.750000 0.500000 0.752333
O O6 0.500000 0.445365 0.750000
O O7 0.732760 0.378507 0.749157
O O8 0.658325 0.441566 0.888456
O O9 0.106601 0.106138 0.952892
O O10 0.250000 0.000000 0.914295
O O11 0.375913 0.101778 0.952645
O O12 0.841268 0.705171 0.140935
O O13 0.057313 0.688312 0.039230
O O14 0.866667 0.609362 0.039374
O O15 0.812646 0.721705 0.970558
O O16 0.820819 0.725325 0.318349
O O17 0.000000 0.651504 0.250000
O O18 0.750000 0.500000 0.029743
O O19 0.000000 0.500000 0.000000
O O20 0.404743 0.198381 0.052545
#
# Coordination Sequence:
#
# PCOD9422337 Si02
#       8
#     8   8   8   8   8   8   8   8
#     4   9  20  37  60  88 125 161 203 248 305 360
#     4  11  25  40  63  92 125 150 201 252 314 382
#     4  10  21  38  61  94 125 162 204 253 310 366
#     4  11  24  42  66  83 127 159 204 257 311 366
#     4  10  24  42  64  86 119 165 206 253 309 370
#     4  11  25  40  63  92 120 154 198 253 317 379
#     4  11  24  43  61  93 119 165 212 252 300 369
#     4  11  22  38  64  88 127 163 209 252 305 360
#
# _framework density 20.356401000000002
#
# number of rings (size 3 to 8) (size 9 to 14) (size 15 to 20)
#    0.000    1.500    1.250    2.625   10.500    7.500 
#    0.000    0.000    0.000    3.750    0.000    0.000 
#    0.000    0.000    0.000    0.000    0.000    0.000 
#
# Total GULP energy -357428.307543 kJ/mol
# GULP energy per Si atom -5584.817305 kJ/mol
# Density = 2.031007 g / cm^3
# Si number density = 20.356401 Si / 1000 Ang^3
#
#
#
# Elastic Constant Matrix: (Units=GPa)
#
#
# Indices 1 2 3 4 5 6 
#
# 1 58.5134 -1.0019 9.7302 0.0000 0.0000 0.0000
# 2 -1.0019 53.1493 -10.6656 0.0000 0.0000 0.0000
# 3 9.7302 -10.6656 55.7378 0.0000 0.0000 0.0000
# 4 0.0000 0.0000 0.0000 5.7687 0.0000 0.0000
# 5 0.0000 0.0000 0.0000 0.0000 34.2265 0.0000
# 6 0.0000 0.0000 0.0000 0.0000 0.0000 25.5231
#
#
#
# Elastic Compliance Matrix: (Units=1/GPa)
#
#
# Indices 1 2 3 4 5 6 
#
# 1 0.017606 -0.000296 -0.003130 0.000000 0.000000 0.000000
# 2 -0.000296 0.019571 0.003797 0.000000 0.000000 0.000000
# 3 -0.003130 0.003797 0.019214 0.000000 0.000000 0.000000
# 4 0.000000 0.000000 0.000000 0.173350 0.000000 0.000000
# 5 0.000000 0.000000 0.000000 0.000000 0.029217 0.000000
# 6 0.000000 0.000000 0.000000 0.000000 0.000000 0.039180
#
#
# Mechanical properties :
#
#
# Convention : Reuss Voigt Hill
#
# Bulk Modulus (GPa) = 17.50345 18.16956 17.83651
# Shear Modulus (GPa) = 15.80073 24.39282 20.09678
#
# Velocity S-wave (km/s) = 2.78907 3.46538 3.14546
# Velocity P-wave (km/s) = 4.35764 4.99569 4.68754
#
# Compressibility (1/GPa) = 0.05713159
#
# Stress axis : x y z
#
# Youngs Moduli (GPa) = 56.80033 51.09538 52.04510
#
# Poissons Ratio (x) = 0.01514 0.16291
# Poissons Ratio (y) = 0.01683 -0.19760
# Poissons Ratio (z) = 0.17779 -0.19400
#
# Static dielectric constant tensor:
#      x y z
#    x 1.853330 0.000000 0.000000 
#    y 0.000000 1.714320 0.000000 
#    z 0.000000 0.000000 1.739820 
# 
# From -- ./inp_files/11944.got.cif
#   From: 2010.05.17/outbox.cif.g08.bks.cpg/sg54_6_cif.got.tgz:11944.got - 2010.06.03 13:09:01.
