data_PCOD9422481
_publ_section_title
;
Structure prediction by ZEFSAII (Michael W. Deem and Ramdas Pophale) SiO2 
 PCOD9422481
Probable space group: P C C A
;
_chemical_formula_sum "Si O2"
_cell_formula_units_Z 40
_cell_length_a 14.811229
_cell_length_b 10.897334
_cell_length_c 10.088568
_cell_angle_alpha 90.000000
_cell_angle_beta 90.000000
_cell_angle_gamma 90.000000
_cell_volume 1628.324227
_symmetry_space_group_name_H-M "P C C A"
_symmetry_group_IT_number 54
_symmetry_cell_setting 'orthorhombic'
loop_
_space_group_symop_operation_xyz
x,y,z
1/2-x,-y,z
1/2+x,-y,1/2-z
-x,y,1/2-z
-x,-y,-z
1/2+x,y,-z
1/2-x,y,1/2+z
x,-y,1/2+z
loop_
_atom_site_type_symbol
_atom_site_label
_atom_site_fract_x
_atom_site_fract_y
_atom_site_fract_z
Si Si1 0.396963 0.723252 0.297360
Si Si2 0.026060 0.349486 0.564269
Si Si3 0.850370 0.551464 0.925333
Si Si4 0.073841 0.923185 0.153895
Si Si5 0.653658 0.990440 0.107181
O O1 0.500000 0.738873 0.250000
O O2 0.412586 0.646037 0.430564
O O3 0.338531 0.655953 0.186740
O O4 0.358447 0.853921 0.337600
O O5 0.922766 0.385475 0.529444
O O6 0.083428 0.449669 0.644891
O O7 0.038699 0.211410 0.615008
O O8 0.750000 0.500000 0.961775
O O9 0.000000 0.983921 0.250000
O O10 0.151119 0.919397 0.266089
O O11 0.091706 0.001789 0.023204
O O12 0.750000 0.000000 0.041919
#
# Coordination Sequence:
#
# PCOD9422481 Si02
#       5
#     8   8   8   8   8
#     4   9  20  41  64  91 139 186 236 298 360 432
#     4   9  22  42  62 103 142 181 241 301 357 443
#     4  10  21  39  68  97 140 191 241 294 367 431
#     4  11  24  45  70 102 142 198 238 296 371 442
#     4  11  24  43  70 105 145 183 246 304 364 435
#
# _framework density 24.565131999999998
#
# number of rings (size 3 to 8) (size 9 to 14) (size 15 to 20)
#    0.000    2.000    0.000    1.800    2.800    8.000 
#    7.200    0.000    0.000    0.000    0.000    0.000 
#    0.000    0.000    0.000    0.000    0.000    0.000 
#
# Total GULP energy -222964.892259 kJ/mol
# GULP energy per Si atom -5574.122306 kJ/mol
# Density = 2.450922 g / cm^3
# Si number density = 24.565132 Si / 1000 Ang^3
#
#
#
# Elastic Constant Matrix: (Units=GPa)
#
#
# Indices 1 2 3 4 5 6 
#
# 1 161.5043 28.8501 40.5320 0.0000 0.0000 0.0000
# 2 28.8501 96.6494 38.1224 0.0000 0.0000 0.0000
# 3 40.5320 38.1224 126.9265 0.0000 0.0000 0.0000
# 4 0.0000 0.0000 0.0000 2.2388 0.0000 0.0000
# 5 0.0000 0.0000 0.0000 0.0000 33.5039 0.0000
# 6 0.0000 0.0000 0.0000 0.0000 0.0000 10.0965
#
#
#
# Elastic Compliance Matrix: (Units=1/GPa)
#
#
# Indices 1 2 3 4 5 6 
#
# 1 0.006882 -0.001347 -0.001793 0.000000 0.000000 0.000000
# 2 -0.001347 0.012001 -0.003174 0.000000 0.000000 0.000000
# 3 -0.001793 -0.003174 0.009405 0.000000 0.000000 0.000000
# 4 0.000000 0.000000 0.000000 0.446675 0.000000 0.000000
# 5 0.000000 0.000000 0.000000 0.000000 0.029847 0.000000
# 6 0.000000 0.000000 0.000000 0.000000 0.000000 0.099044
#
#
# Mechanical properties :
#
#
# Convention : Reuss Voigt Hill
#
# Bulk Modulus (GPa) = 63.86217 66.67657 65.26937
# Shear Modulus (GPa) = 8.04243 27.67290 17.85766
#
# Velocity S-wave (km/s) = 1.81136 3.36000 2.69913
# Velocity P-wave (km/s) = 5.51618 6.50034 6.02838
#
# Compressibility (1/GPa) = 0.01565872
#
# Stress axis : x y z
#
# Youngs Moduli (GPa) = 145.29695 83.32737 106.33092
#
# Poissons Ratio (x) = 0.11225 0.19067
# Poissons Ratio (y) = 0.19573 0.33752
# Poissons Ratio (z) = 0.26055 0.26450
#
# Static dielectric constant tensor:
#      x y z
#    x 0.158740 0.000000 0.000000 
#    y 0.000000 1.956980 0.000000 
#    z 0.000000 0.000000 2.229840 
# 
# From -- ./inp_files/8191.got.cif
#   From: 2010.05.17/outbox.cif.g08.bks.cpg/sg54_5_cif.got.tgz:8191.got - 2010.06.03 13:09:01.
