data_PCOD9422740
_publ_section_title
;
Structure prediction by ZEFSAII (Michael W. Deem and Ramdas Pophale) SiO2 
 PCOD9422740
Probable space group: P C C A
;
_chemical_formula_sum "Si O2"
_cell_formula_units_Z 64
_cell_length_a 9.494772
_cell_length_b 12.236105
_cell_length_c 31.769128
_cell_angle_alpha 90.000000
_cell_angle_beta 90.000000
_cell_angle_gamma 90.000000
_cell_volume 3690.906384
_symmetry_space_group_name_H-M "P C C A"
_symmetry_group_IT_number 54
_symmetry_cell_setting 'orthorhombic'
loop_
_space_group_symop_operation_xyz
x,y,z
1/2-x,-y,z
1/2+x,-y,1/2-z
-x,y,1/2-z
-x,-y,-z
1/2+x,y,-z
1/2-x,y,1/2+z
x,-y,1/2+z
loop_
_atom_site_type_symbol
_atom_site_label
_atom_site_fract_x
_atom_site_fract_y
_atom_site_fract_z
Si Si1 0.023840 0.689116 0.606756
Si Si2 0.170238 0.616327 0.250260
Si Si3 0.725269 0.632411 0.159595
Si Si4 0.463015 0.700602 0.896422
Si Si5 0.919603 0.498542 0.543819
Si Si6 0.418580 0.867894 0.042135
Si Si7 0.413227 0.870684 0.543096
Si Si8 0.214185 0.371348 0.658089
O O1 0.933701 0.663349 0.648696
O O2 0.974953 0.596234 0.573687
O O3 0.015303 0.801913 0.581140
O O4 0.181903 0.679172 0.623793
O O5 0.250000 0.500000 0.250445
O O6 0.221444 0.666294 0.294334
O O7 0.217656 0.670108 0.206231
O O8 0.000000 0.603612 0.250000
O O9 0.750000 0.500000 0.154441
O O10 0.809778 0.698238 0.123957
O O11 0.461653 0.612914 0.933438
O O12 0.520402 0.810895 0.916619
O O13 0.560072 0.652069 0.859572
O O14 0.750000 0.500000 0.539350
O O15 0.000000 0.500000 0.500000
O O16 0.251917 0.840780 0.038415
O O17 0.426227 0.998520 0.047760
O O18 0.501133 0.839561 0.999158
O O19 0.250000 0.500000 0.658836
#
# Coordination Sequence:
#
# PCOD9422740 Si02
#       8
#     8   8   8   8   8   8   8   8
#     4  12  22  37  57  81 112 149 184 231 278 329
#     4  10  22  34  53  82 117 153 186 223 278 330
#     4  11  21  38  56  81 121 152 181 230 274 334
#     4  12  20  37  57  80 111 152 182 225 280 329
#     4  12  26  37  51  77 116 150 183 224 278 334
#     4  10  23  41  57  82 110 146 192 242 282 325
#     4  10  23  40  59  80 111 146 192 241 283 326
#     4  11  21  34  56  84 114 148 186 224 272 344
#
# _framework density 17.339915000000001
#
# number of rings (size 3 to 8) (size 9 to 14) (size 15 to 20)
#    0.000    1.000    6.250    0.750    8.750    2.000 
#    0.000    0.000    0.000    0.000    0.000    5.250 
#    0.000    0.000    0.000    0.000    0.000    0.000 
#
# Total GULP energy -356946.269209 kJ/mol
# GULP energy per Si atom -5577.285456 kJ/mol
# Density = 1.730045 g / cm^3
# Si number density = 17.339915 Si / 1000 Ang^3
#
#
#
# Elastic Constant Matrix: (Units=GPa)
#
#
# Indices 1 2 3 4 5 6 
#
# 1 47.7165 12.3903 12.2949 0.0000 0.0000 0.0000
# 2 12.3903 37.1370 24.5680 0.0000 0.0000 0.0000
# 3 12.2949 24.5680 113.6012 0.0000 0.0000 0.0000
# 4 0.0000 0.0000 0.0000 16.1464 0.0000 0.0000
# 5 0.0000 0.0000 0.0000 0.0000 33.2646 0.0000
# 6 0.0000 0.0000 0.0000 0.0000 0.0000 19.0855
#
#
#
# Elastic Compliance Matrix: (Units=1/GPa)
#
#
# Indices 1 2 3 4 5 6 
#
# 1 0.023036 -0.007044 -0.000970 0.000000 0.000000 0.000000
# 2 -0.007044 0.033577 -0.006499 0.000000 0.000000 0.000000
# 3 -0.000970 -0.006499 0.010313 0.000000 0.000000 0.000000
# 4 0.000000 0.000000 0.000000 0.061933 0.000000 0.000000
# 5 0.000000 0.000000 0.000000 0.000000 0.030062 0.000000
# 6 0.000000 0.000000 0.000000 0.000000 0.000000 0.052396
#
#
# Mechanical properties :
#
#
# Convention : Reuss Voigt Hill
#
# Bulk Modulus (GPa) = 26.38507 32.99569 29.69038
# Shear Modulus (GPa) = 19.76462 23.64606 21.70534
#
# Velocity S-wave (km/s) = 3.37981 3.69681 3.54185
# Velocity P-wave (km/s) = 5.52089 6.10671 5.82117
#
# Compressibility (1/GPa) = 0.03790022
#
# Stress axis : x y z
#
# Youngs Moduli (GPa) = 43.41009 29.78222 96.96284
#
# Poissons Ratio (x) = 0.20979 0.09403
# Poissons Ratio (y) = 0.30579 0.63018
# Poissons Ratio (z) = 0.04210 0.19356
#
# Static dielectric constant tensor:
#      x y z
#    x 1.572150 0.000000 0.000000 
#    y 0.000000 1.530670 0.000000 
#    z 0.000000 0.000000 1.607070 
# 
# From -- ./inp_files/27948.got.cif
#   From: 2010.05.17/outbox.cif.g08.bks.cpg/sg54_14_cif.got.tgz:27948.got - 2010.06.03 13:09:01.
