data_PCOD9422380
_publ_section_title
;
Structure prediction by ZEFSAII (Michael W. Deem and Ramdas Pophale) SiO2 
 PCOD9422380
Probable space group: P C C A
;
_chemical_formula_sum "Si O2"
_cell_formula_units_Z 48
_cell_length_a 17.702213
_cell_length_b 12.304070
_cell_length_c 10.579091
_cell_angle_alpha 90.000000
_cell_angle_beta 90.000000
_cell_angle_gamma 90.000000
_cell_volume 2304.224066
_symmetry_space_group_name_H-M "P C C A"
_symmetry_group_IT_number 54
_symmetry_cell_setting 'orthorhombic'
loop_
_space_group_symop_operation_xyz
x,y,z
1/2-x,-y,z
1/2+x,-y,1/2-z
-x,y,1/2-z
-x,-y,-z
1/2+x,y,-z
1/2-x,y,1/2+z
x,-y,1/2+z
loop_
_atom_site_type_symbol
_atom_site_label
_atom_site_fract_x
_atom_site_fract_y
_atom_site_fract_z
Si Si1 0.755441 0.868134 0.130195
Si Si2 0.061560 0.606391 0.134422
Si Si3 0.684333 0.206116 0.368920
Si Si4 0.450536 0.944294 0.640275
Si Si5 0.460602 0.364530 0.616884
Si Si6 0.917176 0.156894 0.513720
O O1 0.747453 0.811873 0.268463
O O2 0.750000 0.000000 0.136268
O O3 0.704768 0.820366 0.015098
O O4 0.839631 0.837901 0.086305
O O5 0.134645 0.684264 0.145455
O O6 0.000000 0.619437 0.250000
O O7 0.083336 0.478370 0.131156
O O8 0.019390 0.623084 0.999943
O O9 0.627480 0.110350 0.327216
O O10 0.500000 0.998424 0.750000
O O11 0.505669 0.846408 0.595749
O O12 0.427192 0.038020 0.545324
O O13 0.500000 0.346474 0.750000
O O14 0.416654 0.256069 0.581693
#
# Coordination Sequence:
#
# PCOD9422380 Si02
#       6
#     8   8   8   8   8   8
#     4  12  26  42  62  96 139 185 214 266 339 407
#     4  10  21  42  69  96 129 172 217 272 336 388
#     4  12  24  43  66  95 133 176 222 266 332 401
#     4  11  21  37  65  94 128 168 220 274 325 392
#     4  10  21  38  68 103 129 157 215 284 332 381
#     4  11  22  38  62  99 129 167 216 275 327 387
#
# _framework density 20.831306999999999
#
# number of rings (size 3 to 8) (size 9 to 14) (size 15 to 20)
#    0.000    1.000    5.000    2.500    0.000    1.333 
#    0.000    0.833    0.000    2.000    0.000    0.000 
#    0.000    0.000    0.000    0.000    0.000    0.000 
#
# Total GULP energy -267500.399486 kJ/mol
# GULP energy per Si atom -5572.924989 kJ/mol
# Density = 2.078389 g / cm^3
# Si number density = 20.831307 Si / 1000 Ang^3
#
#
#
# Elastic Constant Matrix: (Units=GPa)
#
#
# Indices 1 2 3 4 5 6 
#
# 1 46.9840 21.1332 26.6982 0.0000 0.0000 0.0000
# 2 21.1332 122.6707 33.3056 0.0000 0.0000 0.0000
# 3 26.6982 33.3056 109.9380 0.0000 0.0000 0.0000
# 4 0.0000 0.0000 0.0000 28.8047 0.0000 0.0000
# 5 0.0000 0.0000 0.0000 0.0000 26.9171 0.0000
# 6 0.0000 0.0000 0.0000 0.0000 0.0000 18.9965
#
#
#
# Elastic Compliance Matrix: (Units=1/GPa)
#
#
# Indices 1 2 3 4 5 6 
#
# 1 0.025648 -0.002972 -0.005328 0.000000 0.000000 0.000000
# 2 -0.002972 0.009227 -0.002074 0.000000 0.000000 0.000000
# 3 -0.005328 -0.002074 0.011018 0.000000 0.000000 0.000000
# 4 0.000000 0.000000 0.000000 0.034717 0.000000 0.000000
# 5 0.000000 0.000000 0.000000 0.000000 0.037151 0.000000
# 6 0.000000 0.000000 0.000000 0.000000 0.000000 0.052641
#
#
# Mechanical properties :
#
#
# Convention : Reuss Voigt Hill
#
# Bulk Modulus (GPa) = 39.76800 49.09631 44.43215
# Shear Modulus (GPa) = 25.05866 28.17405 26.61635
#
# Velocity S-wave (km/s) = 3.47209 3.68161 3.57838
# Velocity P-wave (km/s) = 5.93345 6.45693 6.20072
#
# Compressibility (1/GPa) = 0.02514584
#
# Stress axis : x y z
#
# Youngs Moduli (GPa) = 38.98886 108.37899 90.75909
#
# Poissons Ratio (x) = 0.32210 0.48359
# Poissons Ratio (y) = 0.11587 0.18819
# Poissons Ratio (z) = 0.20774 0.22473
#
# Static dielectric constant tensor:
#      x y z
#    x 1.766710 0.000000 0.000000 
#    y 0.000000 1.758100 0.000000 
#    z 0.000000 0.000000 2.007720 
# 
# From -- ./inp_files/8954.got.cif
#   From: 2010.05.17/outbox.cif.g08.bks.cpg/sg54_5_cif.got.tgz:8954.got - 2010.06.03 13:09:01.
