data_PCOD9422990
_publ_section_title
;
Structure prediction by ZEFSAII (Michael W. Deem and Ramdas Pophale) SiO2 
 PCOD9422990
Probable space group: P C C A
;
_chemical_formula_sum "Si O2"
_cell_formula_units_Z 60
_cell_length_a 10.398469
_cell_length_b 11.411692
_cell_length_c 19.778051
_cell_angle_alpha 90.000000
_cell_angle_beta 90.000000
_cell_angle_gamma 90.000000
_cell_volume 2346.945126
_symmetry_space_group_name_H-M "P C C A"
_symmetry_group_IT_number 54
_symmetry_cell_setting 'orthorhombic'
loop_
_space_group_symop_operation_xyz
x,y,z
1/2-x,-y,z
1/2+x,-y,1/2-z
-x,y,1/2-z
-x,-y,-z
1/2+x,y,-z
1/2-x,y,1/2+z
x,-y,1/2+z
loop_
_atom_site_type_symbol
_atom_site_label
_atom_site_fract_x
_atom_site_fract_y
_atom_site_fract_z
Si Si1 0.750000 0.000000 0.989318
Si Si2 0.796417 0.126694 0.776869
Si Si3 0.021108 0.975213 0.112396
Si Si4 0.831772 0.220245 0.552257
Si Si5 0.019977 0.644070 0.952513
Si Si6 0.526915 0.208535 0.825484
Si Si7 0.629263 0.418273 0.420485
Si Si8 0.056373 0.692616 0.319390
O O1 0.874085 0.980604 0.941619
O O2 0.775611 0.125056 0.027039
O O3 0.903476 0.094323 0.830673
O O4 0.679592 0.184566 0.819009
O O5 0.864242 0.207093 0.721882
O O6 0.750000 0.000000 0.749994
O O7 0.926603 0.884493 0.078807
O O8 0.964911 0.085137 0.152768
O O9 0.906067 0.287942 0.492201
O O10 0.838272 0.309841 0.616761
O O11 0.026667 0.705592 0.880990
O O12 0.982703 0.512640 0.933248
O O13 0.139069 0.641736 0.005058
O O14 0.500000 0.247289 0.750000
O O15 0.750000 0.500000 0.402176
O O16 0.572069 0.330003 0.365795
O O17 0.000000 0.626542 0.250000
#
# Coordination Sequence:
#
# PCOD9422990 Si02
#       8
#     4   8   8   8   8   8   8   8
#     4  12  22  38  60 104 148 194 252 288 366 456
#     4  10  22  40  66 102 156 200 243 302 391 481
#     4  11  21  41  62 100 148 200 237 292 369 474
#     4  11  24  38  67 100 149 193 245 308 365 466
#     4  10  23  48  68 104 137 185 264 314 394 459
#     4  11  24  40  66 101 149 199 233 306 386 470
#     4  10  25  49  80  99 139 196 264 343 397 454
#     4  11  24  42  71 108 142 197 259 322 396 475
#
# _framework density 25.565147
#
# number of rings (size 3 to 8) (size 9 to 14) (size 15 to 20)
#    0.000    1.333    4.667    0.400    6.533    2.667 
#    7.200    0.000    0.000    0.800    0.000    0.000 
#    0.000    0.000    0.000    0.000    0.000    0.000 
#
# Total GULP energy -334192.376902 kJ/mol
# GULP energy per Si atom -5569.872948 kJ/mol
# Density = 2.550696 g / cm^3
# Si number density = 25.565147 Si / 1000 Ang^3
#
#
#
# Elastic Constant Matrix: (Units=GPa)
#
#
# Indices 1 2 3 4 5 6 
#
# 1 63.0311 15.4323 22.9666 0.0000 0.0000 0.0000
# 2 15.4323 111.6833 30.0194 0.0000 0.0000 0.0000
# 3 22.9666 30.0194 175.3157 0.0000 0.0000 0.0000
# 4 0.0000 0.0000 0.0000 -181.3081 0.0000 0.0000
# 5 0.0000 0.0000 0.0000 0.0000 56.9403 0.0000
# 6 0.0000 0.0000 0.0000 0.0000 0.0000 36.6542
#
#
#
# Elastic Compliance Matrix: (Units=1/GPa)
#
#
# Indices 1 2 3 4 5 6 
#
# 1 0.017012 -0.001836 -0.001914 0.000000 0.000000 0.000000
# 2 -0.001836 0.009584 -0.001401 0.000000 0.000000 0.000000
# 3 -0.001914 -0.001401 0.006195 0.000000 0.000000 0.000000
# 4 0.000000 0.000000 0.000000 -0.005515 0.000000 0.000000
# 5 0.000000 0.000000 0.000000 0.000000 0.017562 0.000000
# 6 0.000000 0.000000 0.000000 0.000000 0.000000 0.027282
#
#
# Mechanical properties :
#
#
# Convention : Reuss Voigt Hill
#
# Bulk Modulus (GPa) = 44.46629 54.09630 49.28129
# Shear Modulus (GPa) = 55.60630 1.23141 28.41886
#
# Velocity S-wave (km/s) = 4.66884 0.69478 3.33772
# Velocity P-wave (km/s) = 6.81873 4.67437 5.84572
#
# Compressibility (1/GPa) = 0.02248895
#
# Stress axis : x y z
#
# Youngs Moduli (GPa) = 58.78122 104.33987 161.43155
#
# Poissons Ratio (x) = 0.19159 0.30901
# Poissons Ratio (y) = 0.10794 0.22609
# Poissons Ratio (z) = 0.11252 0.14613
#
# Static dielectric constant tensor:
#      x y z
#    x 2.219850 0.000000 0.000000 
#    y 0.000000 2.191290 0.000000 
#    z 0.000000 0.000000 2.139710 
# 
# From -- ./inp_files/21246.got.cif
#   From: 2010.05.17/outbox.cif.g08.bks.cpg/sg54_11_cif.got.tgz:21246.got - 2010.06.03 13:09:01.
