data_PCOD9422611
_publ_section_title
;
Structure prediction by ZEFSAII (Michael W. Deem and Ramdas Pophale) SiO2 
 PCOD9422611
Probable space group: P C C A
;
_chemical_formula_sum "Si O2"
_cell_formula_units_Z 48
_cell_length_a 10.350308
_cell_length_b 11.431415
_cell_length_c 18.748547
_cell_angle_alpha 90.000000
_cell_angle_beta 90.000000
_cell_angle_gamma 90.000000
_cell_volume 2218.303073
_symmetry_space_group_name_H-M "P C C A"
_symmetry_group_IT_number 54
_symmetry_cell_setting 'orthorhombic'
loop_
_space_group_symop_operation_xyz
x,y,z
1/2-x,-y,z
1/2+x,-y,1/2-z
-x,y,1/2-z
-x,-y,-z
1/2+x,y,-z
1/2-x,y,1/2+z
x,-y,1/2+z
loop_
_atom_site_type_symbol
_atom_site_label
_atom_site_fract_x
_atom_site_fract_y
_atom_site_fract_z
Si Si1 0.491830 0.231970 0.641699
Si Si2 0.925571 0.457763 0.429039
Si Si3 0.720237 0.136329 0.136123
Si Si4 0.827534 0.695688 0.420936
Si Si5 0.252218 0.861392 0.705936
Si Si6 0.974980 0.139119 0.507272
O O1 0.491160 0.369854 0.626471
O O2 0.639056 0.193683 0.637987
O O3 0.395301 0.188393 0.703464
O O4 0.426768 0.172537 0.571097
O O5 0.903129 0.582171 0.392435
O O6 0.798055 0.378829 0.448830
O O7 0.000000 0.500000 0.500000
O O8 0.676286 0.152305 0.218104
O O9 0.622442 0.166321 0.072464
O O10 0.750000 0.000000 0.125789
O O11 0.814097 0.784033 0.355507
O O12 0.902379 0.775149 0.478654
O O13 0.250000 0.000000 0.690107
O O14 0.000000 0.000000 0.500000
#
# Coordination Sequence:
#
# PCOD9422611 Si02
#       6
#     8   8   8   8   8   8
#     4  11  23  40  69  96 135 175 236 285 350 424
#     4  10  21  41  69  95 131 183 224 293 355 416
#     4  11  25  41  64  98 140 184 228 284 364 435
#     4  10  23  41  67  97 137 177 235 285 357 424
#     4  10  23  43  67  94 136 186 228 287 357 432
#     4  12  24  39  66 107 139 175 227 301 360 422
#
# _framework density 21.638161
#
# number of rings (size 3 to 8) (size 9 to 14) (size 15 to 20)
#    0.000    1.333    3.333    1.500    4.667    1.333 
#    0.000    0.000   25.667    0.000    0.000    0.000 
#    0.000    0.000    0.000    0.000    0.000    0.000 
#
# Total GULP energy -267253.915756 kJ/mol
# GULP energy per Si atom -5567.789912 kJ/mol
# Density = 2.158891 g / cm^3
# Si number density = 21.638161 Si / 1000 Ang^3
#
#
#
# Elastic Constant Matrix: (Units=GPa)
#
#
# Indices 1 2 3 4 5 6 
#
# 1 60.9606 25.4347 22.2778 0.0000 0.0000 0.0000
# 2 25.4347 156.0087 14.6136 0.0000 0.0000 0.0000
# 3 22.2778 14.6136 100.0504 0.0000 0.0000 0.0000
# 4 0.0000 0.0000 0.0000 49.9804 0.0000 0.0000
# 5 0.0000 0.0000 0.0000 0.0000 36.4448 0.0000
# 6 0.0000 0.0000 0.0000 0.0000 0.0000 25.2508
#
#
#
# Elastic Compliance Matrix: (Units=1/GPa)
#
#
# Indices 1 2 3 4 5 6 
#
# 1 0.018938 -0.002730 -0.003818 0.000000 0.000000 0.000000
# 2 -0.002730 0.006892 -0.000399 0.000000 0.000000 0.000000
# 3 -0.003818 -0.000399 0.010903 0.000000 0.000000 0.000000
# 4 0.000000 0.000000 0.000000 0.020008 0.000000 0.000000
# 5 0.000000 0.000000 0.000000 0.000000 0.027439 0.000000
# 6 0.000000 0.000000 0.000000 0.000000 0.000000 0.039603
#
#
# Mechanical properties :
#
#
# Convention : Reuss Voigt Hill
#
# Bulk Modulus (GPa) = 43.78252 49.07467 46.42860
# Shear Modulus (GPa) = 34.41373 39.31476 36.86425
#
# Velocity S-wave (km/s) = 3.99233 4.26716 4.13203
# Velocity P-wave (km/s) = 6.44434 6.85617 6.65344
#
# Compressibility (1/GPa) = 0.02284016
#
# Stress axis : x y z
#
# Youngs Moduli (GPa) = 52.80277 145.08873 91.71456
#
# Poissons Ratio (x) = 0.39608 0.35018
# Poissons Ratio (y) = 0.14415 0.03658
# Poissons Ratio (z) = 0.20161 0.05787
#
# Static dielectric constant tensor:
#      x y z
#    x 1.997530 0.000000 0.000000 
#    y 0.000000 1.845560 0.000000 
#    z 0.000000 0.000000 1.827020 
# 
# From -- ./inp_files/17301.got.cif
#   From: 2010.05.17/outbox.cif.g08.bks.cpg/sg54_9_cif.got.tgz:17301.got - 2010.06.03 13:09:01.
