data_PCOD9422524
_publ_section_title
;
Structure prediction by ZEFSAII (Michael W. Deem and Ramdas Pophale) SiO2 
 PCOD9422524
Probable space group: P C C A
;
_chemical_formula_sum "Si O2"
_cell_formula_units_Z 56
_cell_length_a 10.588359
_cell_length_b 17.846855
_cell_length_c 15.169274
_cell_angle_alpha 90.000000
_cell_angle_beta 90.000000
_cell_angle_gamma 90.000000
_cell_volume 2866.521139
_symmetry_space_group_name_H-M "P C C A"
_symmetry_group_IT_number 54
_symmetry_cell_setting 'orthorhombic'
loop_
_space_group_symop_operation_xyz
x,y,z
1/2-x,-y,z
1/2+x,-y,1/2-z
-x,y,1/2-z
-x,-y,-z
1/2+x,y,-z
1/2-x,y,1/2+z
x,-y,1/2+z
loop_
_atom_site_type_symbol
_atom_site_label
_atom_site_fract_x
_atom_site_fract_y
_atom_site_fract_z
Si Si1 0.996740 0.845006 0.353361
Si Si2 0.802807 0.280598 0.882411
Si Si3 0.372404 0.451077 0.085352
Si Si4 0.376748 0.048735 0.021651
Si Si5 0.384109 0.462246 0.872517
Si Si6 0.258009 0.192502 0.943519
Si Si7 0.367652 0.703880 0.290189
O O1 0.929250 0.767225 0.374912
O O2 0.909122 0.912439 0.386204
O O3 0.000000 0.850858 0.250000
O O4 0.130178 0.841910 0.402975
O O5 0.840630 0.365584 0.897611
O O6 0.728097 0.282487 0.790546
O O7 0.733981 0.239887 0.965854
O O8 0.250000 0.500000 0.108395
O O9 0.492822 0.484501 0.137910
O O10 0.387769 0.452962 0.979014
O O11 0.350297 0.122043 0.961549
O O12 0.250000 0.000000 0.021919
O O13 0.500000 0.000000 0.000000
O O14 0.250000 0.500000 0.849754
O O15 0.386702 0.382280 0.823080
O O16 0.319934 0.248879 0.873571
O O17 0.500000 0.729950 0.250000
#
# Coordination Sequence:
#
# PCOD9422524 Si02
#       7
#     8   8   8   8   8   8   8
#     4  11  24  45  71 105 139 178 235 278 340 413
#     4  11  25  40  72  97 135 189 229 287 356 408
#     4  10  21  40  64  93 130 183 233 285 350 408
#     4  11  24  48  76 103 139 185 218 271 345 410
#     4  10  23  40  62  92 133 179 233 291 348 403
#     4  11  25  46  71 101 142 176 228 290 337 417
#     4  12  26  42  65 102 138 179 237 291 348 410
#
# _framework density 19.535874
#
# number of rings (size 3 to 8) (size 9 to 14) (size 15 to 20)
#    0.000    1.143    4.286    0.857    6.000    2.857 
#    2.571    0.000    0.000    0.000    0.000    0.000 
#    0.000    0.000    0.000    0.000    0.000    0.000 
#
# Total GULP energy -312536.484209 kJ/mol
# GULP energy per Si atom -5581.008647 kJ/mol
# Density = 1.949141 g / cm^3
# Si number density = 19.535874 Si / 1000 Ang^3
#
#
#
# Elastic Constant Matrix: (Units=GPa)
#
#
# Indices 1 2 3 4 5 6 
#
# 1 94.9909 42.7174 32.2081 0.0000 0.0000 0.0000
# 2 42.7174 135.3809 43.7766 0.0000 0.0000 0.0000
# 3 32.2081 43.7766 101.5755 0.0000 0.0000 0.0000
# 4 0.0000 0.0000 0.0000 8.6754 0.0000 0.0000
# 5 0.0000 0.0000 0.0000 0.0000 21.1834 0.0000
# 6 0.0000 0.0000 0.0000 0.0000 0.0000 4.3942
#
#
#
# Elastic Compliance Matrix: (Units=1/GPa)
#
#
# Indices 1 2 3 4 5 6 
#
# 1 0.012880 -0.003188 -0.002710 0.000000 0.000000 0.000000
# 2 -0.003188 0.009372 -0.003028 0.000000 0.000000 0.000000
# 3 -0.002710 -0.003028 0.012009 0.000000 0.000000 0.000000
# 4 0.000000 0.000000 0.000000 0.115268 0.000000 0.000000
# 5 0.000000 0.000000 0.000000 0.000000 0.047207 0.000000
# 6 0.000000 0.000000 0.000000 0.000000 0.000000 0.227573
#
#
# Mechanical properties :
#
#
# Convention : Reuss Voigt Hill
#
# Bulk Modulus (GPa) = 60.94350 63.26129 62.10239
# Shear Modulus (GPa) = 11.16994 21.06695 16.11845
#
# Velocity S-wave (km/s) = 2.39376 3.28742 2.87552
# Velocity P-wave (km/s) = 6.23727 6.84558 6.54849
#
# Compressibility (1/GPa) = 0.01640864
#
# Stress axis : x y z
#
# Youngs Moduli (GPa) = 77.64135 106.70582 83.26862
#
# Poissons Ratio (x) = 0.34014 0.22567
# Poissons Ratio (y) = 0.24749 0.25215
# Poissons Ratio (z) = 0.21042 0.32312
#
# Static dielectric constant tensor:
#      x y z
#    x 1.738190 0.000000 0.000000 
#    y 0.000000 1.615570 0.000000 
#    z 0.000000 0.000000 1.770530 
# 
# From -- ./inp_files/12736.got.cif
#   From: 2010.05.17/outbox.cif.g08.bks.cpg/sg54_7_cif.got.tgz:12736.got - 2010.06.03 13:09:01.
