data_PCOD9422218
_publ_section_title
;
Structure prediction by ZEFSAII (Michael W. Deem and Ramdas Pophale) SiO2 
 PCOD9422218
Probable space group: P C C A
;
_chemical_formula_sum "Si O2"
_cell_formula_units_Z 48
_cell_length_a 28.592543
_cell_length_b 6.292602
_cell_length_c 12.829552
_cell_angle_alpha 90.000000
_cell_angle_beta 90.000000
_cell_angle_gamma 90.000000
_cell_volume 2308.312154
_symmetry_space_group_name_H-M "P C C A"
_symmetry_group_IT_number 54
_symmetry_cell_setting 'orthorhombic'
loop_
_space_group_symop_operation_xyz
x,y,z
1/2-x,-y,z
1/2+x,-y,1/2-z
-x,y,1/2-z
-x,-y,-z
1/2+x,y,-z
1/2-x,y,1/2+z
x,-y,1/2+z
loop_
_atom_site_type_symbol
_atom_site_label
_atom_site_fract_x
_atom_site_fract_y
_atom_site_fract_z
Si Si1 0.576620 0.296557 0.256555
Si Si2 0.466983 0.620292 0.082584
Si Si3 0.378844 0.606864 0.947490
Si Si4 0.663910 0.261191 0.396562
Si Si5 0.250000 0.500000 0.107041
Si Si6 0.000000 0.048526 0.250000
Si Si7 0.293145 0.881578 0.973091
O O1 0.547393 0.444271 0.333286
O O2 0.594396 0.436196 0.159638
O O3 0.621381 0.216814 0.320586
O O4 0.544153 0.101208 0.224891
O O5 0.489702 0.809569 0.148233
O O6 0.500000 0.500000 0.000000
O O7 0.419093 0.692251 0.025337
O O8 0.355573 0.408268 0.008039
O O9 0.338397 0.777278 0.920514
O O10 0.704783 0.397415 0.338858
O O11 0.686168 0.050989 0.445064
O O12 0.269575 0.687762 0.034884
O O13 0.250000 0.000000 0.914649
#
# Coordination Sequence:
#
# PCOD9422218 Si02
#       7
#     8   8   8   8   4   4   8
#     4  11  24  39  59  92 120 154 209 253 302 371
#     4  11  24  42  61  85 120 160 200 251 310 370
#     4  10  21  37  57  83 118 156 198 251 303 361
#     4   9  19  37  59  83 119 158 198 248 304 361
#     4   8  16  34  60  84 116 158 198 246 300 362
#     4  12  24  40  64  88 118 156 198 250 306 368
#     4   9  17  34  58  84 114 157 200 243 306 368
#
# _framework density 20.794415000000001
#
# number of rings (size 3 to 8) (size 9 to 14) (size 15 to 20)
#    0.000    2.000    0.000    3.500    0.000    6.667 
#    0.000    7.500    0.000    0.000    0.000    0.000 
#    0.000    0.000    0.000    0.000    0.000    0.000 
#
# Total GULP energy -267795.427786 kJ/mol
# GULP energy per Si atom -5579.071412 kJ/mol
# Density = 2.074709 g / cm^3
# Si number density = 20.794415 Si / 1000 Ang^3
#
#
#
# Elastic Constant Matrix: (Units=GPa)
#
#
# Indices 1 2 3 4 5 6 
#
# 1 140.9419 59.1009 42.1056 0.0000 0.0000 0.0000
# 2 59.1009 80.1291 30.6159 0.0000 0.0000 0.0000
# 3 42.1056 30.6159 74.6783 0.0000 0.0000 0.0000
# 4 0.0000 0.0000 0.0000 17.2744 0.0000 0.0000
# 5 0.0000 0.0000 0.0000 0.0000 18.7687 0.0000
# 6 0.0000 0.0000 0.0000 0.0000 0.0000 37.7950
#
#
#
# Elastic Compliance Matrix: (Units=1/GPa)
#
#
# Indices 1 2 3 4 5 6 
#
# 1 0.010953 -0.006781 -0.003396 0.000000 0.000000 0.000000
# 2 -0.006781 0.018996 -0.003964 0.000000 0.000000 0.000000
# 3 -0.003396 -0.003964 0.016931 0.000000 0.000000 0.000000
# 4 0.000000 0.000000 0.000000 0.057889 0.000000 0.000000
# 5 0.000000 0.000000 0.000000 0.000000 0.053280 0.000000
# 6 0.000000 0.000000 0.000000 0.000000 0.000000 0.026459
#
#
# Mechanical properties :
#
#
# Convention : Reuss Voigt Hill
#
# Bulk Modulus (GPa) = 53.77087 62.15489 57.96288
# Shear Modulus (GPa) = 22.83214 25.69607 24.26410
#
# Velocity S-wave (km/s) = 3.31719 3.51909 3.41963
# Velocity P-wave (km/s) = 6.37073 6.81668 6.59747
#
# Compressibility (1/GPa) = 0.01859743
#
# Stress axis : x y z
#
# Youngs Moduli (GPa) = 91.29819 52.64182 59.06485
#
# Poissons Ratio (x) = 0.35698 0.20056
# Poissons Ratio (y) = 0.61912 0.23416
# Poissons Ratio (z) = 0.31000 0.20869
#
# Static dielectric constant tensor:
#      x y z
#    x 1.825880 0.000000 0.000000 
#    y 0.000000 1.728660 0.000000 
#    z 0.000000 0.000000 1.715290 
# 
# From -- ./inp_files/15320.got.cif
#   From: 2010.05.17/outbox.cif.g08.bks.cpg/sg54_8_cif.got.tgz:15320.got - 2010.06.03 13:09:01.
