data_PCOD9422104
_publ_section_title
;
Structure prediction by ZEFSAII (Michael W. Deem and Ramdas Pophale) SiO2 
 PCOD9422104
Probable space group: P C C A
;
_chemical_formula_sum "Si O2"
_cell_formula_units_Z 64
_cell_length_a 25.469100
_cell_length_b 12.096542
_cell_length_c 11.559904
_cell_angle_alpha 90.000000
_cell_angle_beta 90.000000
_cell_angle_gamma 90.000000
_cell_volume 3561.468141
_symmetry_space_group_name_H-M "P C C A"
_symmetry_group_IT_number 54
_symmetry_cell_setting 'orthorhombic'
loop_
_space_group_symop_operation_xyz
x,y,z
1/2-x,-y,z
1/2+x,-y,1/2-z
-x,y,1/2-z
-x,-y,-z
1/2+x,y,-z
1/2-x,y,1/2+z
x,-y,1/2+z
loop_
_atom_site_type_symbol
_atom_site_label
_atom_site_fract_x
_atom_site_fract_y
_atom_site_fract_z
Si Si1 0.924598 0.402673 0.955081
Si Si2 0.453341 0.349670 0.516005
Si Si3 0.622359 0.212102 0.581822
Si Si4 0.722616 0.118477 0.297879
Si Si5 0.241273 0.133300 0.448751
Si Si6 0.943318 0.847799 0.804247
Si Si7 0.061232 0.723541 0.268017
Si Si8 0.601130 0.920599 0.860938
O O1 0.911488 0.351316 0.829607
O O2 0.984393 0.370175 0.992529
O O3 0.926522 0.534503 0.950979
O O4 0.886276 0.339333 0.043802
O O5 0.449380 0.255142 0.610662
O O6 0.426763 0.307805 0.398064
O O7 0.681774 0.168894 0.580709
O O8 0.595527 0.187606 0.702314
O O9 0.592669 0.141032 0.482562
O O10 0.727196 0.170216 0.168081
O O11 0.748043 0.171994 0.415733
O O12 0.662296 0.094184 0.329921
O O13 0.750000 0.000000 0.285034
O O14 0.250000 0.000000 0.457446
O O15 0.000000 0.874913 0.750000
O O16 0.918643 0.955208 0.864318
O O17 0.071459 0.850283 0.236808
O O18 0.000000 0.700370 0.250000
#
# Coordination Sequence:
#
# PCOD9422104 Si02
#       8
#     8   8   8   8   8   8   8   8
#     4   9  19  37  57  73 109 148 192 245 277 324
#     4  10  21  34  55  79 105 149 201 237 271 324
#     4  10  21  37  53  80 115 147 186 234 296 338
#     4   9  17  33  52  75 105 139 177 220 275 336
#     4   9  17  32  54  77 109 138 177 227 285 349
#     4  12  23  32  51  80 115 149 195 233 279 342
#     4   9  19  36  53  75 107 151 186 220 280 335
#     4  10  22  36  52  75 119 153 175 222 286 359
#
# _framework density 17.970116999999998
#
# number of rings (size 3 to 8) (size 9 to 14) (size 15 to 20)
#    0.000    2.250    1.250    1.875    3.500    1.000 
#    2.250    0.000    0.000    0.000    0.000    0.875 
#    3.750    0.000    0.000    0.000    0.000    0.000 
#
# Total GULP energy -356379.326008 kJ/mol
# GULP energy per Si atom -5568.426969 kJ/mol
# Density = 1.792922 g / cm^3
# Si number density = 17.970117 Si / 1000 Ang^3
#
#
#
# Elastic Constant Matrix: (Units=GPa)
#
#
# Indices 1 2 3 4 5 6 
#
# 1 21.0243 21.1977 6.3514 0.0000 0.0000 0.0000
# 2 21.1977 87.7718 36.6752 0.0000 0.0000 0.0000
# 3 6.3514 36.6752 91.9636 0.0000 0.0000 0.0000
# 4 0.0000 0.0000 0.0000 14.0572 0.0000 0.0000
# 5 0.0000 0.0000 0.0000 0.0000 28.9043 0.0000
# 6 0.0000 0.0000 0.0000 0.0000 0.0000 15.1890
#
#
#
# Elastic Compliance Matrix: (Units=1/GPa)
#
#
# Indices 1 2 3 4 5 6 
#
# 1 0.063199 -0.016127 0.002067 0.000000 0.000000 0.000000
# 2 -0.016127 0.017786 -0.005979 0.000000 0.000000 0.000000
# 3 0.002067 -0.005979 0.013116 0.000000 0.000000 0.000000
# 4 0.000000 0.000000 0.000000 0.071138 0.000000 0.000000
# 5 0.000000 0.000000 0.000000 0.000000 0.034597 0.000000
# 6 0.000000 0.000000 0.000000 0.000000 0.000000 0.065837
#
#
# Mechanical properties :
#
#
# Convention : Reuss Voigt Hill
#
# Bulk Modulus (GPa) = 18.51088 36.57871 27.54479
# Shear Modulus (GPa) = 15.44352 20.73247 18.08800
#
# Velocity S-wave (km/s) = 2.93473 3.40033 3.17607
# Velocity P-wave (km/s) = 4.66978 5.98463 5.36762
#
# Compressibility (1/GPa) = 0.05402229
#
# Stress axis : x y z
#
# Youngs Moduli (GPa) = 15.82292 56.22260 76.24419
#
# Poissons Ratio (x) = 0.90669 -0.15756
# Poissons Ratio (y) = 0.25517 0.45590
# Poissons Ratio (z) = -0.03270 0.33618
#
# Static dielectric constant tensor:
#      x y z
#    x 1.658670 0.000000 0.000000 
#    y 0.000000 1.606180 0.000000 
#    z 0.000000 0.000000 1.680290 
# 
# From -- ./inp_files/10079.got.cif
#   From: 2010.05.17/outbox.cif.g08.bks.cpg/sg54_6_cif.got.tgz:10079.got - 2010.06.03 13:09:01.
