data_PCOD9422681
_publ_section_title
;
Structure prediction by ZEFSAII (Michael W. Deem and Ramdas Pophale) SiO2 
 PCOD9422681
Probable space group: P C C A
;
_chemical_formula_sum "Si O2"
_cell_formula_units_Z 60
_cell_length_a 19.097011
_cell_length_b 6.173981
_cell_length_c 23.144699
_cell_angle_alpha 90.000000
_cell_angle_beta 90.000000
_cell_angle_gamma 90.000000
_cell_volume 2728.866086
_symmetry_space_group_name_H-M "P C C A"
_symmetry_group_IT_number 54
_symmetry_cell_setting 'orthorhombic'
loop_
_space_group_symop_operation_xyz
x,y,z
1/2-x,-y,z
1/2+x,-y,1/2-z
-x,y,1/2-z
-x,-y,-z
1/2+x,y,-z
1/2-x,y,1/2+z
x,-y,1/2+z
loop_
_atom_site_type_symbol
_atom_site_label
_atom_site_fract_x
_atom_site_fract_y
_atom_site_fract_z
Si Si1 0.250000 0.000000 0.926571
Si Si2 0.432853 0.910886 0.824338
Si Si3 0.581273 0.721791 0.078001
Si Si4 0.684546 0.340820 0.371918
Si Si5 0.683257 0.397759 0.142326
Si Si6 0.410253 0.960369 0.697673
Si Si7 0.361744 0.078602 0.024286
Si Si8 0.075454 0.697275 0.597980
O O1 0.277402 0.799274 0.889704
O O2 0.186775 0.956209 0.969416
O O3 0.381425 0.706747 0.824355
O O4 0.413339 0.028425 0.764287
O O5 0.514726 0.851319 0.818862
O O6 0.419708 0.063591 0.879950
O O7 0.643937 0.564200 0.098810
O O8 0.504557 0.628505 0.091393
O O9 0.583250 0.766941 0.009122
O O10 0.750000 0.500000 0.360948
O O11 0.653300 0.199240 0.319270
O O12 0.688105 0.172922 0.425421
O O13 0.624460 0.494017 0.396869
O O14 0.750000 0.500000 0.175321
O O15 0.410857 0.167982 0.656687
O O16 0.400286 0.866766 0.048574
#
# Coordination Sequence:
#
# PCOD9422681 Si02
#       8
#     4   8   8   8   8   8   8   8
#     4  12  24  42  60  88 136 168 204 256 314 388
#     4  10  21  43  66  92 128 166 212 272 327 380
#     4  11  23  39  64  93 125 167 217 268 325 381
#     4  11  24  40  62  95 126 171 217 259 318 390
#     4  12  23  38  61  94 128 168 209 257 317 385
#     4   9  22  43  67  91 125 168 214 267 327 382
#     4  11  23  38  62  89 128 171 209 261 327 378
#     4  10  23  42  63  91 124 165 218 268 318 382
#
# _framework density 21.987152999999999
#
# number of rings (size 3 to 8) (size 9 to 14) (size 15 to 20)
#    0.000    1.333    2.667    2.000    3.733    3.733 
#    0.000    5.333    0.000    0.000    0.000    0.000 
#    0.000    0.000    0.000    0.000    0.000    0.000 
#
# Total GULP energy -334534.737143 kJ/mol
# GULP energy per Si atom -5575.578952 kJ/mol
# Density = 2.193711 g / cm^3
# Si number density = 21.987153 Si / 1000 Ang^3
#
#
#
# Elastic Constant Matrix: (Units=GPa)
#
#
# Indices 1 2 3 4 5 6 
#
# 1 77.8178 11.5651 -11.6566 0.0000 0.0000 0.0000
# 2 11.5651 27.6995 -9.7945 0.0000 0.0000 0.0000
# 3 -11.6566 -9.7945 60.6460 0.0000 0.0000 0.0000
# 4 0.0000 0.0000 0.0000 2.2507 0.0000 0.0000
# 5 0.0000 0.0000 0.0000 0.0000 11.9033 0.0000
# 6 0.0000 0.0000 0.0000 0.0000 0.0000 43.9941
#
#
#
# Elastic Compliance Matrix: (Units=1/GPa)
#
#
# Indices 1 2 3 4 5 6 
#
# 1 0.013891 -0.005150 0.001838 0.000000 0.000000 0.000000
# 2 -0.005150 0.040197 0.005502 0.000000 0.000000 0.000000
# 3 0.001838 0.005502 0.017731 0.000000 0.000000 0.000000
# 4 0.000000 0.000000 0.000000 0.444301 0.000000 0.000000
# 5 0.000000 0.000000 0.000000 0.000000 0.084010 0.000000
# 6 0.000000 0.000000 0.000000 0.000000 0.000000 0.022730
#
#
# Mechanical properties :
#
#
# Convention : Reuss Voigt Hill
#
# Bulk Modulus (GPa) = 13.12319 16.26568 14.69444
# Shear Modulus (GPa) = 7.76541 23.36626 15.56584
#
# Velocity S-wave (km/s) = 1.88135 3.26348 2.66362
# Velocity P-wave (km/s) = 3.27121 4.64912 4.01965
#
# Compressibility (1/GPa) = 0.07620098
#
# Stress axis : x y z
#
# Youngs Moduli (GPa) = 71.98779 24.87724 56.39814
#
# Poissons Ratio (x) = 0.12811 -0.10368
# Poissons Ratio (y) = 0.37072 -0.31031
# Poissons Ratio (z) = -0.13233 -0.13688
#
# Static dielectric constant tensor:
#      x y z
#    x 2.005520 0.000000 0.000000 
#    y 0.000000 1.935820 0.000000 
#    z 0.000000 0.000000 1.799350 
# 
# From -- ./inp_files/24782.got.cif
#   From: 2010.05.17/outbox.cif.g08.bks.cpg/sg54_13_cif.got.tgz:24782.got - 2010.06.03 13:09:01.
