data_PCOD9422311
_publ_section_title
;
Structure prediction by ZEFSAII (Michael W. Deem and Ramdas Pophale) SiO2 
 PCOD9422311
Probable space group: P C C A
;
_chemical_formula_sum "Si O2"
_cell_formula_units_Z 36
_cell_length_a 9.401614
_cell_length_b 12.242316
_cell_length_c 14.137594
_cell_angle_alpha 90.000000
_cell_angle_beta 90.000000
_cell_angle_gamma 90.000000
_cell_volume 1627.202142
_symmetry_space_group_name_H-M "P C C A"
_symmetry_group_IT_number 54
_symmetry_cell_setting 'orthorhombic'
loop_
_space_group_symop_operation_xyz
x,y,z
1/2-x,-y,z
1/2+x,-y,1/2-z
-x,y,1/2-z
-x,-y,-z
1/2+x,y,-z
1/2-x,y,1/2+z
x,-y,1/2+z
loop_
_atom_site_type_symbol
_atom_site_label
_atom_site_fract_x
_atom_site_fract_y
_atom_site_fract_z
Si Si1 0.905819 0.681977 0.498070
Si Si2 0.250000 0.500000 0.875373
Si Si3 0.161453 0.666777 0.628352
Si Si4 0.500000 0.485954 0.250000
Si Si5 0.110899 0.069499 0.440075
Si Si6 0.500000 0.155054 0.750000
O O1 0.832731 0.590199 0.563916
O O2 0.827966 0.662773 0.397497
O O3 0.869486 0.807055 0.522916
O O4 0.071472 0.674367 0.529295
O O5 0.373842 0.561841 0.815040
O O6 0.095771 0.563930 0.682268
O O7 0.113424 0.767224 0.695235
O O8 0.067293 0.083081 0.331477
O O9 0.250000 0.000000 0.447700
O O10 0.000000 0.000000 0.500000
#
# Coordination Sequence:
#
# PCOD9422311 Si02
#       6
#     8   4   8   4   8   4
#     4  10  21  38  59  87 117 158 205 254 312 378
#     4  10  22  38  58  88 124 160 212 258 314 382
#     4   9  19  37  59  84 121 159 203 254 314 378
#     4   9  20  36  55  84 122 166 201 257 318 374
#     4  11  23  41  64  89 122 163 208 258 318 384
#     4   9  20  38  59  86 120 154 199 257 312 372
#
# _framework density 22.123864999999999
#
# number of rings (size 3 to 8) (size 9 to 14) (size 15 to 20)
#    0.000    2.222    0.000    4.000    0.000    8.889 
#    0.000    1.111    0.000    0.000    0.000    0.000 
#    0.000    0.000    0.000    0.000    0.000    0.000 
#
# Total GULP energy -200904.315915 kJ/mol
# GULP energy per Si atom -5580.675442 kJ/mol
# Density = 2.207351 g / cm^3
# Si number density = 22.123865 Si / 1000 Ang^3
#
#
#
# Elastic Constant Matrix: (Units=GPa)
#
#
# Indices 1 2 3 4 5 6 
#
# 1 96.0167 32.4846 44.0695 0.0000 0.0000 0.0000
# 2 32.4846 106.1570 21.1881 0.0000 0.0000 0.0000
# 3 44.0695 21.1881 97.7108 0.0000 0.0000 0.0000
# 4 0.0000 0.0000 0.0000 24.2522 0.0000 0.0000
# 5 0.0000 0.0000 0.0000 0.0000 36.4346 0.0000
# 6 0.0000 0.0000 0.0000 0.0000 0.0000 26.5193
#
#
#
# Elastic Compliance Matrix: (Units=1/GPa)
#
#
# Indices 1 2 3 4 5 6 
#
# 1 0.014092 -0.003181 -0.005666 0.000000 0.000000 0.000000
# 2 -0.003181 0.010564 -0.000856 0.000000 0.000000 0.000000
# 3 -0.005666 -0.000856 0.012975 0.000000 0.000000 0.000000
# 4 0.000000 0.000000 0.000000 0.041233 0.000000 0.000000
# 5 0.000000 0.000000 0.000000 0.000000 0.027446 0.000000
# 6 0.000000 0.000000 0.000000 0.000000 0.000000 0.037708
#
#
# Mechanical properties :
#
#
# Convention : Reuss Voigt Hill
#
# Bulk Modulus (GPa) = 54.86919 55.04099 54.95509
# Shear Modulus (GPa) = 29.49843 30.91737 30.20790
#
# Velocity S-wave (km/s) = 3.65544 3.74233 3.69914
# Velocity P-wave (km/s) = 6.53231 6.60348 6.56799
#
# Compressibility (1/GPa) = 0.01822516
#
# Stress axis : x y z
#
# Youngs Moduli (GPa) = 70.96431 94.65798 77.06969
#
# Poissons Ratio (x) = 0.30113 0.43666
# Poissons Ratio (y) = 0.22576 0.06597
# Poissons Ratio (z) = 0.40207 0.08103
#
# Static dielectric constant tensor:
#      x y z
#    x 1.819600 0.000000 0.000000 
#    y 0.000000 1.765210 0.000000 
#    z 0.000000 0.000000 1.884080 
# 
# From -- ./inp_files/7445.got.cif
#   From: 2010.05.17/outbox.cif.g08.bks.cpg/sg54_4_cif.got.tgz:7445.got - 2010.06.03 13:09:01.
