data_PCOD9422682
_publ_section_title
;
Structure prediction by ZEFSAII (Michael W. Deem and Ramdas Pophale) SiO2 
 PCOD9422682
Probable space group: P C C A
;
_chemical_formula_sum "Si O2"
_cell_formula_units_Z 36
_cell_length_a 5.486390
_cell_length_b 20.219001
_cell_length_c 14.014292
_cell_angle_alpha 90.000000
_cell_angle_beta 90.000000
_cell_angle_gamma 90.000000
_cell_volume 1554.595950
_symmetry_space_group_name_H-M "P C C A"
_symmetry_group_IT_number 54
_symmetry_cell_setting 'orthorhombic'
loop_
_space_group_symop_operation_xyz
x,y,z
1/2-x,-y,z
1/2+x,-y,1/2-z
-x,y,1/2-z
-x,-y,-z
1/2+x,y,-z
1/2-x,y,1/2+z
x,-y,1/2+z
loop_
_atom_site_type_symbol
_atom_site_label
_atom_site_fract_x
_atom_site_fract_y
_atom_site_fract_z
Si Si1 0.389426 0.737878 0.041909
Si Si2 0.000000 0.876124 0.250000
Si Si3 0.842687 0.587007 0.029868
Si Si4 0.500000 0.210141 0.750000
Si Si5 0.982117 0.925214 0.459600
Si Si6 0.250000 0.500000 0.304466
O O1 0.462810 0.748508 0.152161
O O2 0.616275 0.764169 0.978744
O O3 0.372634 0.661495 0.007562
O O4 0.250271 0.833206 0.258371
O O5 0.020824 0.919605 0.154172
O O6 0.744208 0.567485 0.133147
O O7 0.616956 0.559692 0.968657
O O8 0.732803 0.895542 0.500766
O O9 0.000000 0.000000 0.500000
O O10 0.500000 0.498224 0.250000
#
# Coordination Sequence:
#
# PCOD9422682 Si02
#       6
#     8   4   8   4   8   4
#     4  10  23  45  68  98 136 179 228 291 343 416
#     4  12  26  42  69 108 137 178 242 290 336 418
#     4  10  21  43  66  93 137 180 219 283 347 409
#     4  12  26  44  71 102 137 184 238 294 346 398
#     4  10  23  42  67 100 141 188 224 279 351 411
#     4  12  24  40  66 108 140 176 228 286 352 424
#
# _framework density 23.157142
#
# number of rings (size 3 to 8) (size 9 to 14) (size 15 to 20)
#    0.000    1.333    0.000    4.667    0.000    8.889 
#   24.000    0.000    0.000    0.000    0.000    0.000 
#    0.000    0.000    0.000    0.000    0.000    0.000 
#
# Total GULP energy -200764.698802 kJ/mol
# GULP energy per Si atom -5576.797189 kJ/mol
# Density = 2.310444 g / cm^3
# Si number density = 23.157142 Si / 1000 Ang^3
#
#
#
# Elastic Constant Matrix: (Units=GPa)
#
#
# Indices 1 2 3 4 5 6 
#
# 1 205.7436 25.0639 42.2705 0.0000 0.0000 0.0000
# 2 25.0639 110.9968 38.2938 0.0000 0.0000 0.0000
# 3 42.2705 38.2938 191.2896 0.0000 0.0000 0.0000
# 4 0.0000 0.0000 0.0000 1.9321 0.0000 0.0000
# 5 0.0000 0.0000 0.0000 0.0000 51.8362 0.0000
# 6 0.0000 0.0000 0.0000 0.0000 0.0000 -30.3314
#
#
#
# Elastic Compliance Matrix: (Units=1/GPa)
#
#
# Indices 1 2 3 4 5 6 
#
# 1 0.005162 -0.000829 -0.000975 0.000000 0.000000 0.000000
# 2 -0.000829 0.009811 -0.001781 0.000000 0.000000 0.000000
# 3 -0.000975 -0.001781 0.005800 0.000000 0.000000 0.000000
# 4 0.000000 0.000000 0.000000 0.517575 0.000000 0.000000
# 5 0.000000 0.000000 0.000000 0.000000 0.019292 0.000000
# 6 0.000000 0.000000 0.000000 0.000000 0.000000 -0.032969
#
#
# Mechanical properties :
#
#
# Convention : Reuss Voigt Hill
#
# Bulk Modulus (GPa) = 73.51448 79.92074 76.71761
# Shear Modulus (GPa) = 9.32187 31.51417 20.41802
#
# Velocity S-wave (km/s) = 2.00854 3.69302 2.97259
# Velocity P-wave (km/s) = 6.09867 7.26442 6.70692
#
# Compressibility (1/GPa) = 0.01360276
#
# Stress axis : x y z
#
# Youngs Moduli (GPa) = 193.73547 101.92755 172.42799
#
# Poissons Ratio (x) = 0.08453 0.16805
# Poissons Ratio (y) = 0.16067 0.30705
# Poissons Ratio (z) = 0.18881 0.18151
#
# Static dielectric constant tensor:
#      x y z
#    x 0.541100 0.000000 0.000000 
#    y 0.000000 1.703560 0.000000 
#    z 0.000000 0.000000 1.877740 
# 
# From -- ./inp_files/6401.got.cif
#   From: 2010.05.17/outbox.cif.g08.bks.cpg/sg54_4_cif.got.tgz:6401.got - 2010.06.03 13:09:01.
