data_PCOD9422004
_publ_section_title
;
Structure prediction by ZEFSAII (Michael W. Deem and Ramdas Pophale) SiO2 
 PCOD9422004
Probable space group: P C C A
;
_chemical_formula_sum "Si O2"
_cell_formula_units_Z 48
_cell_length_a 15.163031
_cell_length_b 13.124975
_cell_length_c 10.020121
_cell_angle_alpha 90.000000
_cell_angle_beta 90.000000
_cell_angle_gamma 90.000000
_cell_volume 1994.148397
_symmetry_space_group_name_H-M "P C C A"
_symmetry_group_IT_number 54
_symmetry_cell_setting 'orthorhombic'
loop_
_space_group_symop_operation_xyz
x,y,z
1/2-x,-y,z
1/2+x,-y,1/2-z
-x,y,1/2-z
-x,-y,-z
1/2+x,y,-z
1/2-x,y,1/2+z
x,-y,1/2+z
loop_
_atom_site_type_symbol
_atom_site_label
_atom_site_fract_x
_atom_site_fract_y
_atom_site_fract_z
Si Si1 0.577724 0.059687 0.863503
Si Si2 0.027593 0.839755 0.098775
Si Si3 0.176917 0.296485 0.508329
Si Si4 0.916541 0.405297 0.378845
Si Si5 0.807138 0.226497 0.271315
Si Si6 0.883969 0.491323 0.124386
O O1 0.500000 0.067727 0.750000
O O2 0.663996 0.114484 0.810682
O O3 0.589312 0.940331 0.891775
O O4 0.546772 0.118791 0.997440
O O5 0.000000 0.815887 0.250000
O O6 0.078692 0.745132 0.036274
O O7 0.213080 0.231997 0.383926
O O8 0.231224 0.274840 0.639984
O O9 0.176515 0.409990 0.450737
O O10 0.891401 0.299737 0.308002
O O11 0.868243 0.489439 0.282398
O O12 0.885371 0.409576 0.532311
O O13 0.017717 0.441169 0.382331
#
# Coordination Sequence:
#
# PCOD9422004 Si02
#       6
#     8   8   8   8   8   8
#     4  10  20  41  66  86 114 157 196 246 298 354
#     4  10  22  39  64  92 115 148 205 249 293 355
#     4  11  24  41  57  89 124 160 197 243 302 361
#     4   9  19  37  62  86 112 155 196 245 292 347
#     4  11  24  39  61  85 124 163 196 242 306 358
#     4   9  19  38  61  86 115 150 201 243 292 346
#
# _framework density 24.070425
#
# number of rings (size 3 to 8) (size 9 to 14) (size 15 to 20)
#    0.000    2.000    1.667    1.000    4.667    2.667 
#    6.000    5.000    0.000    0.000    0.000    0.000 
#    0.000    0.000    0.000    0.000    0.000    0.000 
#
# Total GULP energy -268172.860084 kJ/mol
# GULP energy per Si atom -5586.934585 kJ/mol
# Density = 2.401564 g / cm^3
# Si number density = 24.070425 Si / 1000 Ang^3
#
#
#
# Elastic Constant Matrix: (Units=GPa)
#
#
# Indices 1 2 3 4 5 6 
#
# 1 34.2253 -0.5043 3.0900 0.0000 0.0000 0.0000
# 2 -0.5043 31.0999 4.8300 0.0000 0.0000 0.0000
# 3 3.0900 4.8300 137.3450 0.0000 0.0000 0.0000
# 4 0.0000 0.0000 0.0000 31.9185 0.0000 0.0000
# 5 0.0000 0.0000 0.0000 0.0000 33.3794 0.0000
# 6 0.0000 0.0000 0.0000 0.0000 0.0000 13.7050
#
#
#
# Elastic Compliance Matrix: (Units=1/GPa)
#
#
# Indices 1 2 3 4 5 6 
#
# 1 0.029288 0.000580 -0.000679 0.000000 0.000000 0.000000
# 2 0.000580 0.032343 -0.001150 0.000000 0.000000 0.000000
# 3 -0.000679 -0.001150 0.007337 0.000000 0.000000 0.000000
# 4 0.000000 0.000000 0.000000 0.031330 0.000000 0.000000
# 5 0.000000 0.000000 0.000000 0.000000 0.029959 0.000000
# 6 0.000000 0.000000 0.000000 0.000000 0.000000 0.072966
#
#
# Mechanical properties :
#
#
# Convention : Reuss Voigt Hill
#
# Bulk Modulus (GPa) = 15.04470 24.16683 19.60577
# Shear Modulus (GPa) = 21.94171 28.81754 25.37962
#
# Velocity S-wave (km/s) = 3.02249 3.46384 3.25066
# Velocity P-wave (km/s) = 4.29470 5.10484 4.71719
#
# Compressibility (1/GPa) = 0.06646859
#
# Stress axis : x y z
#
# Youngs Moduli (GPa) = 34.14361 30.91907 136.30148
#
# Poissons Ratio (x) = -0.01795 0.09260
# Poissons Ratio (y) = -0.01982 0.15681
# Poissons Ratio (z) = 0.02320 0.03557
#
# Static dielectric constant tensor:
#      x y z
#    x 1.976460 0.000000 0.000000 
#    y 0.000000 1.906050 0.000000 
#    z 0.000000 0.000000 1.963190 
# 
# From -- ./inp_files/4183.got.cif
#   From: 2010.05.17/outbox.cif.g08.bks.cpg/sg54_3_cif.got.tgz:4183.got - 2010.06.03 13:09:01.
