data_PCOD9422869
_publ_section_title
;
Structure prediction by ZEFSAII (Michael W. Deem and Ramdas Pophale) SiO2 
 PCOD9422869
Probable space group: P C C A
;
_chemical_formula_sum "Si O2"
_cell_formula_units_Z 56
_cell_length_a 21.146302
_cell_length_b 13.386428
_cell_length_c 8.411913
_cell_angle_alpha 90.000000
_cell_angle_beta 90.000000
_cell_angle_gamma 90.000000
_cell_volume 2381.189227
_symmetry_space_group_name_H-M "P C C A"
_symmetry_group_IT_number 54
_symmetry_cell_setting 'orthorhombic'
loop_
_space_group_symop_operation_xyz
x,y,z
1/2-x,-y,z
1/2+x,-y,1/2-z
-x,y,1/2-z
-x,-y,-z
1/2+x,y,-z
1/2-x,y,1/2+z
x,-y,1/2+z
loop_
_atom_site_type_symbol
_atom_site_label
_atom_site_fract_x
_atom_site_fract_y
_atom_site_fract_z
Si Si1 0.665866 0.323287 0.649707
Si Si2 0.792652 0.257042 0.502429
Si Si3 0.429588 0.533420 0.197470
Si Si4 0.349563 0.939275 0.073346
Si Si5 0.021222 0.863047 0.422772
Si Si6 0.083583 0.654515 0.373172
Si Si7 0.389985 0.878255 0.425153
O O1 0.729504 0.316009 0.547565
O O2 0.686505 0.286778 0.825395
O O3 0.624827 0.420325 0.689045
O O4 0.622232 0.239210 0.571391
O O5 0.795657 0.135330 0.494882
O O6 0.847503 0.294724 0.620786
O O7 0.500000 0.563915 0.250000
O O8 0.425882 0.414017 0.218812
O O9 0.421032 0.579223 0.023190
O O10 0.365173 0.915309 0.255122
O O11 0.413012 0.908697 0.978417
O O12 0.348294 0.057850 0.049018
O O13 0.035367 0.744844 0.405171
O O14 0.000000 0.899967 0.250000
O O15 0.964418 0.887990 0.541702
#
# Coordination Sequence:
#
# PCOD9422869 Si02
#       7
#     8   8   8   8   8   8   8
#     4  10  23  40  64  87 124 168 207 265 317 388
#     4   9  22  42  59  88 121 161 212 254 319 379
#     4  11  22  40  63  93 123 160 208 260 323 381
#     4  10  22  39  61  89 125 162 208 261 308 382
#     4  11  22  38  60  90 124 163 208 260 317 378
#     4  10  23  40  62  89 123 160 204 263 314 382
#     4  11  22  39  61  90 122 166 207 256 320 370
#
# _framework density 23.517661
#
# number of rings (size 3 to 8) (size 9 to 14) (size 15 to 20)
#    0.000    1.714    0.000    4.286    0.000    6.857 
#    0.000    5.714    0.000    0.000    0.000    0.000 
#    0.000    0.000    0.000    0.000    0.000    0.000 
#
# Total GULP energy -312962.745055 kJ/mol
# GULP energy per Si atom -5588.620447 kJ/mol
# Density = 2.346413 g / cm^3
# Si number density = 23.517661 Si / 1000 Ang^3
#
#
#
# Elastic Constant Matrix: (Units=GPa)
#
#
# Indices 1 2 3 4 5 6 
#
# 1 105.4531 11.4939 7.3757 0.0000 0.0000 0.0000
# 2 11.4939 83.1772 6.6077 0.0000 0.0000 0.0000
# 3 7.3757 6.6077 41.8604 0.0000 0.0000 0.0000
# 4 0.0000 0.0000 0.0000 27.2849 0.0000 0.0000
# 5 0.0000 0.0000 0.0000 0.0000 24.9623 0.0000
# 6 0.0000 0.0000 0.0000 0.0000 0.0000 8.1573
#
#
#
# Elastic Compliance Matrix: (Units=1/GPa)
#
#
# Indices 1 2 3 4 5 6 
#
# 1 0.009722 -0.001223 -0.001520 0.000000 0.000000 0.000000
# 2 -0.001223 0.012329 -0.001731 0.000000 0.000000 0.000000
# 3 -0.001520 -0.001731 0.024430 0.000000 0.000000 0.000000
# 4 0.000000 0.000000 0.000000 0.036650 0.000000 0.000000
# 5 0.000000 0.000000 0.000000 0.000000 0.040060 0.000000
# 6 0.000000 0.000000 0.000000 0.000000 0.000000 0.122589
#
#
# Mechanical properties :
#
#
# Convention : Reuss Voigt Hill
#
# Bulk Modulus (GPa) = 26.64225 31.27171 28.95698
# Shear Modulus (GPa) = 18.70979 25.74846 22.22913
#
# Velocity S-wave (km/s) = 2.82363 3.31245 3.07776
# Velocity P-wave (km/s) = 4.68868 5.28732 4.99697
#
# Compressibility (1/GPa) = 0.03753436
#
# Stress axis : x y z
#
# Youngs Moduli (GPa) = 102.85446 81.10969 40.93340
#
# Poissons Ratio (x) = 0.09918 0.06222
# Poissons Ratio (y) = 0.12577 0.07084
# Poissons Ratio (z) = 0.15635 0.14038
#
# Static dielectric constant tensor:
#      x y z
#    x 1.890990 0.000000 0.000000 
#    y 0.000000 2.110930 0.000000 
#    z 0.000000 0.000000 1.904210 
# 
# From -- ./inp_files/4825.got.cif
#   From: 2010.05.17/outbox.cif.g08.bks.cpg/sg54_3_cif.got.tgz:4825.got - 2010.06.03 13:09:01.
