data_PCOD9422392
_publ_section_title
;
Structure prediction by ZEFSAII (Michael W. Deem and Ramdas Pophale) SiO2 
 PCOD9422392
Probable space group: P C C A
;
_chemical_formula_sum "Si O2"
_cell_formula_units_Z 64
_cell_length_a 8.712870
_cell_length_b 20.442576
_cell_length_c 17.788493
_cell_angle_alpha 90.000000
_cell_angle_beta 90.000000
_cell_angle_gamma 90.000000
_cell_volume 3168.370875
_symmetry_space_group_name_H-M "P C C A"
_symmetry_group_IT_number 54
_symmetry_cell_setting 'orthorhombic'
loop_
_space_group_symop_operation_xyz
x,y,z
1/2-x,-y,z
1/2+x,-y,1/2-z
-x,y,1/2-z
-x,-y,-z
1/2+x,y,-z
1/2-x,y,1/2+z
x,-y,1/2+z
loop_
_atom_site_type_symbol
_atom_site_label
_atom_site_fract_x
_atom_site_fract_y
_atom_site_fract_z
Si Si1 0.640148 0.866276 0.437440
Si Si2 0.512700 0.750333 0.545248
Si Si3 0.626964 0.047444 0.537576
Si Si4 0.810829 0.692756 0.927994
Si Si5 0.183424 0.570948 0.831347
Si Si6 0.859885 0.782142 0.800675
Si Si7 0.864196 0.699088 0.194827
Si Si8 0.668892 0.566677 0.350474
O O1 0.574421 0.812918 0.498459
O O2 0.770106 0.910309 0.478263
O O3 0.483122 0.904717 0.416799
O O4 0.699294 0.837133 0.358319
O O5 0.331482 0.738913 0.549022
O O6 0.581490 0.689040 0.499344
O O7 0.572058 0.745746 0.629583
O O8 0.750000 0.000000 0.577202
O O9 0.500000 0.000000 0.500000
O O10 0.908936 0.726588 0.861254
O O11 0.750864 0.626243 0.893016
O O12 0.250000 0.500000 0.853541
O O13 0.280108 0.637132 0.843575
O O14 0.178888 0.570984 0.739842
O O15 0.012714 0.573219 0.865038
O O16 0.743220 0.743777 0.747314
O O17 0.000000 0.804825 0.750000
O O18 0.000000 0.674765 0.250000
O O19 0.750000 0.500000 0.373491
#
# Coordination Sequence:
#
# PCOD9422392 Si02
#       8
#     8   8   8   8   8   8   8   8
#     4  10  21  39  64 100 131 163 219 254 313 378
#     4  11  25  38  64  89 131 167 204 268 322 386
#     4   9  19  38  67  98 127 171 212 254 289 360
#     4  11  23  42  57  89 123 163 210 265 333 387
#     4  10  22  35  62  89 114 163 216 270 325 394
#     4  11  23  37  62  93 133 167 206 265 326 381
#     4  12  24  40  60  91 130 165 216 269 331 388
#     4  10  21  39  60  82 116 157 212 268 325 396
#
# _framework density 20.199655
#
# number of rings (size 3 to 8) (size 9 to 14) (size 15 to 20)
#    0.000    1.500    2.500    2.250   12.250    0.000 
#    0.000    1.250    0.000    2.250    0.000    0.000 
#    0.000    0.000    0.000    0.000    0.000    0.000 
#
# Total GULP energy -356558.589320 kJ/mol
# GULP energy per Si atom -5571.227958 kJ/mol
# Density = 2.015368 g / cm^3
# Si number density = 20.199655 Si / 1000 Ang^3
#
#
#
# Elastic Constant Matrix: (Units=GPa)
#
#
# Indices 1 2 3 4 5 6 
#
# 1 104.9656 32.0937 23.3885 0.0000 0.0000 0.0000
# 2 32.0937 81.0805 15.2339 0.0000 0.0000 0.0000
# 3 23.3885 15.2339 68.4742 0.0000 0.0000 0.0000
# 4 0.0000 0.0000 0.0000 6.6619 0.0000 0.0000
# 5 0.0000 0.0000 0.0000 0.0000 21.1717 0.0000
# 6 0.0000 0.0000 0.0000 0.0000 0.0000 32.5114
#
#
#
# Elastic Compliance Matrix: (Units=1/GPa)
#
#
# Indices 1 2 3 4 5 6 
#
# 1 0.011406 -0.003948 -0.003018 0.000000 0.000000 0.000000
# 2 -0.003948 0.014238 -0.001819 0.000000 0.000000 0.000000
# 3 -0.003018 -0.001819 0.016039 0.000000 0.000000 0.000000
# 4 0.000000 0.000000 0.000000 0.150107 0.000000 0.000000
# 5 0.000000 0.000000 0.000000 0.000000 0.047233 0.000000
# 6 0.000000 0.000000 0.000000 0.000000 0.000000 0.030758
#
#
# Mechanical properties :
#
#
# Convention : Reuss Voigt Hill
#
# Bulk Modulus (GPa) = 41.46924 43.99471 42.73197
# Shear Modulus (GPa) = 16.92680 24.32262 20.62471
#
# Velocity S-wave (km/s) = 2.89792 3.47379 3.19884
# Velocity P-wave (km/s) = 5.63662 6.15767 5.90290
#
# Compressibility (1/GPa) = 0.02411426
#
# Stress axis : x y z
#
# Youngs Moduli (GPa) = 87.66972 70.23500 62.34612
#
# Poissons Ratio (x) = 0.27729 0.18814
# Poissons Ratio (y) = 0.34612 0.11341
# Poissons Ratio (z) = 0.26456 0.12776
#
# Static dielectric constant tensor:
#      x y z
#    x 1.755160 0.000000 0.000000 
#    y 0.000000 1.809980 0.000000 
#    z 0.000000 0.000000 1.692420 
# 
# From -- ./inp_files/16865.got.cif
#   From: 2010.05.17/outbox.cif.g08.bks.cpg/sg54_9_cif.got.tgz:16865.got - 2010.06.03 13:09:01.
