data_PCOD9422794
_publ_section_title
;
Structure prediction by ZEFSAII (Michael W. Deem and Ramdas Pophale) SiO2 
 PCOD9422794
Probable space group: P C C A
;
_chemical_formula_sum "Si O2"
_cell_formula_units_Z 48
_cell_length_a 22.364047
_cell_length_b 8.495544
_cell_length_c 11.801872
_cell_angle_alpha 90.000000
_cell_angle_beta 90.000000
_cell_angle_gamma 90.000000
_cell_volume 2242.293665
_symmetry_space_group_name_H-M "P C C A"
_symmetry_group_IT_number 54
_symmetry_cell_setting 'orthorhombic'
loop_
_space_group_symop_operation_xyz
x,y,z
1/2-x,-y,z
1/2+x,-y,1/2-z
-x,y,1/2-z
-x,-y,-z
1/2+x,y,-z
1/2-x,y,1/2+z
x,-y,1/2+z
loop_
_atom_site_type_symbol
_atom_site_label
_atom_site_fract_x
_atom_site_fract_y
_atom_site_fract_z
Si Si1 0.839526 0.753338 0.211222
Si Si2 0.400805 0.468834 0.917020
Si Si3 0.750000 0.000000 0.103676
Si Si4 0.940931 0.081587 0.566241
Si Si5 0.465238 0.643297 0.089555
Si Si6 0.143342 0.161268 0.529160
Si Si7 0.500000 0.131184 0.750000
O O1 0.857923 0.578757 0.160790
O O2 0.780295 0.853984 0.174038
O O3 0.891094 0.851565 0.149514
O O4 0.846381 0.768440 0.346174
O O5 0.472572 0.449668 0.887754
O O6 0.409820 0.545707 0.042667
O O7 0.375271 0.297433 0.941103
O O8 0.701018 0.922541 0.022155
O O9 0.974438 0.229724 0.511728
O O10 0.907793 0.972743 0.474259
O O11 0.979186 0.974086 0.647903
O O12 0.451029 0.749534 0.198152
#
# Coordination Sequence:
#
# PCOD9422794 Si02
#       7
#     8   8   4   8   8   8   4
#     4  10  23  43  65  91 123 164 205 265 324 372
#     4  10  23  40  57  92 131 164 205 246 314 381
#     4  10  24  46  68  96 114 152 220 278 326 376
#     4  10  22  37  60  95 128 168 218 250 299 373
#     4  10  22  38  54  89 135 169 205 250 295 376
#     4  11  22  42  69  92 125 163 213 269 316 383
#     4  12  20  32  62  90 126 176 212 252 296 356
#
# _framework density 21.406651
#
# number of rings (size 3 to 8) (size 9 to 14) (size 15 to 20)
#    0.000    1.667    1.667    2.000    4.667    0.667 
#    0.000    5.000    0.000    0.000    0.000    0.000 
#    0.000    0.000    0.000    0.000    0.000    0.000 
#
# Total GULP energy -267286.001068 kJ/mol
# GULP energy per Si atom -5568.458356 kJ/mol
# Density = 2.135793 g / cm^3
# Si number density = 21.406651 Si / 1000 Ang^3
#
#
#
# Elastic Constant Matrix: (Units=GPa)
#
#
# Indices 1 2 3 4 5 6 
#
# 1 66.1410 40.9219 28.2780 0.0000 0.0000 0.0000
# 2 40.9219 130.0539 43.6226 0.0000 0.0000 0.0000
# 3 28.2780 43.6226 92.5438 0.0000 0.0000 0.0000
# 4 0.0000 0.0000 0.0000 19.2976 0.0000 0.0000
# 5 0.0000 0.0000 0.0000 0.0000 15.3400 0.0000
# 6 0.0000 0.0000 0.0000 0.0000 0.0000 42.2125
#
#
#
# Elastic Compliance Matrix: (Units=1/GPa)
#
#
# Indices 1 2 3 4 5 6 
#
# 1 0.019784 -0.004986 -0.003695 0.000000 0.000000 0.000000
# 2 -0.004986 0.010390 -0.003374 0.000000 0.000000 0.000000
# 3 -0.003695 -0.003374 0.013525 0.000000 0.000000 0.000000
# 4 0.000000 0.000000 0.000000 0.051820 0.000000 0.000000
# 5 0.000000 0.000000 0.000000 0.000000 0.065189 0.000000
# 6 0.000000 0.000000 0.000000 0.000000 0.000000 0.023690
#
#
# Mechanical properties :
#
#
# Convention : Reuss Voigt Hill
#
# Bulk Modulus (GPa) = 51.04876 57.15377 54.10126
# Shear Modulus (GPa) = 23.25196 27.09777 25.17486
#
# Velocity S-wave (km/s) = 3.29933 3.56175 3.43305
# Velocity P-wave (km/s) = 6.19783 6.60846 6.40644
#
# Compressibility (1/GPa) = 0.01958912
#
# Stress axis : x y z
#
# Youngs Moduli (GPa) = 50.54684 96.25073 73.93633
#
# Poissons Ratio (x) = 0.47987 0.27320
# Poissons Ratio (y) = 0.25201 0.24946
# Poissons Ratio (z) = 0.18677 0.32474
#
# Static dielectric constant tensor:
#      x y z
#    x 1.802780 0.000000 0.000000 
#    y 0.000000 1.849700 0.000000 
#    z 0.000000 0.000000 1.816990 
# 
# From -- ./inp_files/9942.got.cif
#   From: 2010.05.17/outbox.cif.g08.bks.cpg/sg54_5_cif.got.tgz:9942.got - 2010.06.03 13:09:01.
