data_PCOD9422283
_publ_section_title
;
Structure prediction by ZEFSAII (Michael W. Deem and Ramdas Pophale) SiO2 
 PCOD9422283
Probable space group: P C C A
;
_chemical_formula_sum "Si O2"
_cell_formula_units_Z 40
_cell_length_a 14.738340
_cell_length_b 23.071307
_cell_length_c 5.262729
_cell_angle_alpha 90.000000
_cell_angle_beta 90.000000
_cell_angle_gamma 90.000000
_cell_volume 1789.500303
_symmetry_space_group_name_H-M "P C C A"
_symmetry_group_IT_number 54
_symmetry_cell_setting 'orthorhombic'
loop_
_space_group_symop_operation_xyz
x,y,z
1/2-x,-y,z
1/2+x,-y,1/2-z
-x,y,1/2-z
-x,-y,-z
1/2+x,y,-z
1/2-x,y,1/2+z
x,-y,1/2+z
loop_
_atom_site_type_symbol
_atom_site_label
_atom_site_fract_x
_atom_site_fract_y
_atom_site_fract_z
Si Si1 0.147753 0.023845 0.886794
Si Si2 0.390719 0.467086 0.750618
Si Si3 0.695023 0.344134 0.629825
Si Si4 0.890884 0.779000 0.752858
Si Si5 0.110269 0.846228 0.246663
O O1 0.147347 0.090329 0.806459
O O2 0.250000 0.000000 0.922187
O O3 0.104024 0.986876 0.660189
O O4 0.500000 0.468207 0.750000
O O5 0.359340 0.490645 0.477751
O O6 0.359662 0.402310 0.808391
O O7 0.723045 0.344598 0.334524
O O8 0.642598 0.285147 0.692293
O O9 0.861219 0.822006 0.526841
O O10 0.000000 0.778650 0.750000
O O11 0.862011 0.802476 0.028091
O O12 0.000000 0.850265 0.250000
#
# Coordination Sequence:
#
# PCOD9422283 Si02
#       5
#     8   8   8   8   8
#     4  10  21  38  54  85 118 151 191 236 304 372
#     4  10  22  41  66  93 124 171 217 253 303 364
#     4  12  25  41  60  96 131 162 208 255 315 364
#     4  10  22  43  64  87 120 163 207 255 305 360
#     4  10  21  39  64  87 113 156 207 250 300 359
#
# _framework density 22.352606999999999
#
# number of rings (size 3 to 8) (size 9 to 14) (size 15 to 20)
#    0.000    1.600    0.000    4.200    0.000    3.200 
#   21.600    8.000    0.000    0.000    0.000    0.000 
#    0.000    0.000    0.000    0.000    0.000    0.000 
#
# Total GULP energy -223883.243355 kJ/mol
# GULP energy per Si atom -5597.081084 kJ/mol
# Density = 2.230173 g / cm^3
# Si number density = 22.352607 Si / 1000 Ang^3
#
#
#
# Elastic Constant Matrix: (Units=GPa)
#
#
# Indices 1 2 3 4 5 6 
#
# 1 53.5646 7.2086 3.1294 0.0000 0.0000 0.0000
# 2 7.2086 93.0214 -20.0770 0.0000 0.0000 0.0000
# 3 3.1294 -20.0770 84.7227 0.0000 0.0000 0.0000
# 4 0.0000 0.0000 0.0000 37.5712 0.0000 0.0000
# 5 0.0000 0.0000 0.0000 0.0000 8.5847 0.0000
# 6 0.0000 0.0000 0.0000 0.0000 0.0000 36.8687
#
#
#
# Elastic Compliance Matrix: (Units=1/GPa)
#
#
# Indices 1 2 3 4 5 6 
#
# 1 0.018963 -0.001708 -0.001105 0.000000 0.000000 0.000000
# 2 -0.001708 0.011484 0.002784 0.000000 0.000000 0.000000
# 3 -0.001105 0.002784 0.012504 0.000000 0.000000 0.000000
# 4 0.000000 0.000000 0.000000 0.026616 0.000000 0.000000
# 5 0.000000 0.000000 0.000000 0.000000 0.116487 0.000000
# 6 0.000000 0.000000 0.000000 0.000000 0.000000 0.027123
#
#
# Mechanical properties :
#
#
# Convention : Reuss Voigt Hill
#
# Bulk Modulus (GPa) = 23.31383 23.53674 23.42529
# Shear Modulus (GPa) = 21.97487 32.67476 27.32481
#
# Velocity S-wave (km/s) = 3.13885 3.82748 3.50014
# Velocity P-wave (km/s) = 4.85686 5.48502 5.18047
#
# Compressibility (1/GPa) = 0.04289300
#
# Stress axis : x y z
#
# Youngs Moduli (GPa) = 52.73292 87.08114 79.97526
#
# Poissons Ratio (x) = 0.14874 0.08839
# Poissons Ratio (y) = 0.09007 -0.22268
# Poissons Ratio (z) = 0.05828 -0.24247
#
# Static dielectric constant tensor:
#      x y z
#    x 1.790600 0.000000 0.000000 
#    y 0.000000 1.746380 0.000000 
#    z 0.000000 0.000000 1.855910 
# 
# From -- ./inp_files/539.got.cif
#   From: 2010.05.17/outbox.cif.g08.bks.cpg/sg54_1_cif.got.tgz:539.got - 2010.06.03 13:09:01.
