data_PCOD9422040
_publ_section_title
;
Structure prediction by ZEFSAII (Michael W. Deem and Ramdas Pophale) SiO2 
 PCOD9422040
Probable space group: P C C A
;
_chemical_formula_sum "Si O2"
_cell_formula_units_Z 44
_cell_length_a 14.526997
_cell_length_b 7.452978
_cell_length_c 17.867857
_cell_angle_alpha 90.000000
_cell_angle_beta 90.000000
_cell_angle_gamma 90.000000
_cell_volume 1934.541961
_symmetry_space_group_name_H-M "P C C A"
_symmetry_group_IT_number 54
_symmetry_cell_setting 'orthorhombic'
loop_
_space_group_symop_operation_xyz
x,y,z
1/2-x,-y,z
1/2+x,-y,1/2-z
-x,y,1/2-z
-x,-y,-z
1/2+x,y,-z
1/2-x,y,1/2+z
x,-y,1/2+z
loop_
_atom_site_type_symbol
_atom_site_label
_atom_site_fract_x
_atom_site_fract_y
_atom_site_fract_z
Si Si1 0.250000 0.500000 0.475132
Si Si2 0.898479 0.984623 0.402232
Si Si3 0.250000 0.000000 0.226241
Si Si4 0.508415 0.342042 0.162559
Si Si5 0.066242 0.612987 0.556488
Si Si6 0.250000 0.000000 0.980531
Si Si7 0.207314 0.244812 0.861721
O O1 0.168525 0.575209 0.525565
O O2 0.221259 0.345526 0.415870
O O3 0.838578 0.020851 0.326852
O O4 0.822103 0.912360 0.461282
O O5 0.940624 0.172123 0.432641
O O6 0.969525 0.829095 0.382378
O O7 0.239134 0.832260 0.282973
O O8 0.500000 0.307452 0.250000
O O9 0.616506 0.361100 0.147733
O O10 0.452648 0.514806 0.135026
O O11 0.000000 0.500000 0.500000
O O12 0.318338 0.912479 0.919497
#
# Coordination Sequence:
#
# PCOD9422040 Si02
#       7
#     4   8   4   8   8   4   8
#     4  12  24  46  70 106 138 186 242 304 350 418
#     4  11  24  46  72 100 145 186 235 293 362 426
#     4  10  24  44  68 108 134 198 236 284 374 432
#     4  12  26  46  68 106 149 183 234 295 360 434
#     4  12  27  47  73 107 138 189 243 294 363 421
#     4  10  20  42  68 100 130 182 238 286 344 422
#     4  11  23  43  70 102 143 184 240 295 359 427
#
# _framework density 22.744402999999998
#
# number of rings (size 3 to 8) (size 9 to 14) (size 15 to 20)
#    0.000    0.727    5.455    1.091    2.545    8.000 
#    0.000    0.000    0.000    0.000    0.000    0.000 
#    0.000    0.000    0.000    0.000    0.000    0.000 
#
# Total GULP energy -245409.091562 kJ/mol
# GULP energy per Si atom -5577.479354 kJ/mol
# Density = 2.269264 g / cm^3
# Si number density = 22.744403 Si / 1000 Ang^3
#
#
#
# Elastic Constant Matrix: (Units=GPa)
#
#
# Indices 1 2 3 4 5 6 
#
# 1 56.4229 23.5379 19.6950 0.0000 0.0000 0.0000
# 2 23.5379 84.4079 18.0592 0.0000 0.0000 0.0000
# 3 19.6950 18.0592 119.2715 0.0000 0.0000 0.0000
# 4 0.0000 0.0000 0.0000 37.5921 0.0000 0.0000
# 5 0.0000 0.0000 0.0000 0.0000 32.6531 0.0000
# 6 0.0000 0.0000 0.0000 0.0000 0.0000 21.3244
#
#
#
# Elastic Compliance Matrix: (Units=1/GPa)
#
#
# Indices 1 2 3 4 5 6 
#
# 1 0.020835 -0.005244 -0.002646 0.000000 0.000000 0.000000
# 2 -0.005244 0.013564 -0.001188 0.000000 0.000000 0.000000
# 3 -0.002646 -0.001188 0.009001 0.000000 0.000000 0.000000
# 4 0.000000 0.000000 0.000000 0.026601 0.000000 0.000000
# 5 0.000000 0.000000 0.000000 0.000000 0.030625 0.000000
# 6 0.000000 0.000000 0.000000 0.000000 0.000000 0.046895
#
#
# Mechanical properties :
#
#
# Convention : Reuss Voigt Hill
#
# Bulk Modulus (GPa) = 39.61427 42.52070 41.06748
# Shear Modulus (GPa) = 28.72071 31.56795 30.14433
#
# Velocity S-wave (km/s) = 3.55739 3.72955 3.64449
# Velocity P-wave (km/s) = 5.85904 6.10587 5.98373
#
# Compressibility (1/GPa) = 0.02524343
#
# Stress axis : x y z
#
# Youngs Moduli (GPa) = 47.99713 73.72662 111.09783
#
# Poissons Ratio (x) = 0.38660 0.29401
# Poissons Ratio (y) = 0.25168 0.13196
# Poissons Ratio (z) = 0.12702 0.08757
#
# Static dielectric constant tensor:
#      x y z
#    x 1.939860 0.000000 0.000000 
#    y 0.000000 2.149910 0.000000 
#    z 0.000000 0.000000 1.873090 
# 
# From -- ./inp_files/17966.got.cif
#   From: 2010.05.17/outbox.cif.g08.bks.cpg/sg54_9_cif.got.tgz:17966.got - 2010.06.03 13:09:01.
