data_PCOD9422400
_publ_section_title
;
Structure prediction by ZEFSAII (Michael W. Deem and Ramdas Pophale) SiO2 
 PCOD9422400
Probable space group: P C C A
;
_chemical_formula_sum "Si O2"
_cell_formula_units_Z 36
_cell_length_a 21.856136
_cell_length_b 6.042031
_cell_length_c 11.925845
_cell_angle_alpha 90.000000
_cell_angle_beta 90.000000
_cell_angle_gamma 90.000000
_cell_volume 1574.872843
_symmetry_space_group_name_H-M "P C C A"
_symmetry_group_IT_number 54
_symmetry_cell_setting 'orthorhombic'
loop_
_space_group_symop_operation_xyz
x,y,z
1/2-x,-y,z
1/2+x,-y,1/2-z
-x,y,1/2-z
-x,-y,-z
1/2+x,y,-z
1/2-x,y,1/2+z
x,-y,1/2+z
loop_
_atom_site_type_symbol
_atom_site_label
_atom_site_fract_x
_atom_site_fract_y
_atom_site_fract_z
Si Si1 0.640954 0.473443 0.604983
Si Si2 0.206057 0.171005 0.056496
Si Si3 0.022821 0.306380 0.916188
Si Si4 0.092604 0.079608 0.552815
Si Si5 0.750000 0.500000 0.775483
O O1 0.674527 0.643230 0.519702
O O2 0.577422 0.576568 0.650787
O O3 0.621830 0.255826 0.534786
O O4 0.690261 0.455444 0.702142
O O5 0.250741 0.288670 0.143764
O O6 0.250000 0.000000 0.991025
O O7 0.149042 0.041707 0.111653
O O8 0.959721 0.198158 0.873383
O O9 0.000000 0.500000 0.000000
O O10 0.057207 0.110757 0.983436
#
# Coordination Sequence:
#
# PCOD9422400 Si02
#       5
#     8   8   8   8   4
#     4  10  21  39  61  86 118 157 203 250 303 373
#     4  11  23  38  58  84 118 156 199 254 307 360
#     4   8  16  32  61  89 111 149 197 244 299 360
#     4   9  17  35  62  85 112 153 197 245 302 358
#     4  12  24  36  56  88 122 158 202 250 310 382
#
# _framework density 22.858986999999999
#
# number of rings (size 3 to 8) (size 9 to 14) (size 15 to 20)
#    0.000    2.222    0.000    3.333    0.000    4.444 
#    0.000    0.000    0.000   94.667    0.000    0.000 
#    0.000    0.000    0.000    0.000    0.000    0.000 
#
# Total GULP energy -200679.257312 kJ/mol
# GULP energy per Si atom -5574.423814 kJ/mol
# Density = 2.280696 g / cm^3
# Si number density = 22.858987 Si / 1000 Ang^3
#
#
#
# Elastic Constant Matrix: (Units=GPa)
#
#
# Indices 1 2 3 4 5 6 
#
# 1 117.7506 63.2982 21.8244 0.0000 0.0000 0.0000
# 2 63.2982 129.7817 28.3893 0.0000 0.0000 0.0000
# 3 21.8244 28.3893 38.1053 0.0000 0.0000 0.0000
# 4 0.0000 0.0000 0.0000 6.5339 0.0000 0.0000
# 5 0.0000 0.0000 0.0000 0.0000 7.9493 0.0000
# 6 0.0000 0.0000 0.0000 0.0000 0.0000 77.7317
#
#
#
# Elastic Compliance Matrix: (Units=1/GPa)
#
#
# Indices 1 2 3 4 5 6 
#
# 1 0.011781 -0.005101 -0.002947 0.000000 0.000000 0.000000
# 2 -0.005101 0.011414 -0.005582 0.000000 0.000000 0.000000
# 3 -0.002947 -0.005582 0.032090 0.000000 0.000000 0.000000
# 4 0.000000 0.000000 0.000000 0.153048 0.000000 0.000000
# 5 0.000000 0.000000 0.000000 0.000000 0.125798 0.000000
# 6 0.000000 0.000000 0.000000 0.000000 0.000000 0.012865
#
#
# Mechanical properties :
#
#
# Convention : Reuss Voigt Hill
#
# Bulk Modulus (GPa) = 35.68332 56.96236 46.32284
# Shear Modulus (GPa) = 13.03449 29.91803 21.47626
#
# Velocity S-wave (km/s) = 2.39050 3.62167 3.06847
# Velocity P-wave (km/s) = 4.82322 6.51627 5.73259
#
# Compressibility (1/GPa) = 0.02802430
#
# Stress axis : x y z
#
# Youngs Moduli (GPa) = 84.88269 87.60877 31.16263
#
# Poissons Ratio (x) = 0.44692 0.09183
# Poissons Ratio (y) = 0.43301 0.17396
# Poissons Ratio (z) = 0.25014 0.48905
#
# Static dielectric constant tensor:
#      x y z
#    x 1.902130 0.000000 0.000000 
#    y 0.000000 1.950770 0.000000 
#    z 0.000000 0.000000 1.819190 
# 
# From -- ./inp_files/9736.got.cif
#   From: 2010.05.17/outbox.cif.g08.bks.cpg/sg54_5_cif.got.tgz:9736.got - 2010.06.03 13:09:01.
