data_PCOD9422279
_publ_section_title
;
Structure prediction by ZEFSAII (Michael W. Deem and Ramdas Pophale) SiO2 
 PCOD9422279
Probable space group: P C C A
;
_chemical_formula_sum "Si O2"
_cell_formula_units_Z 56
_cell_length_a 13.881277
_cell_length_b 35.023882
_cell_length_c 5.335594
_cell_angle_alpha 90.000000
_cell_angle_beta 90.000000
_cell_angle_gamma 90.000000
_cell_volume 2594.038857
_symmetry_space_group_name_H-M "P C C A"
_symmetry_group_IT_number 54
_symmetry_cell_setting 'orthorhombic'
loop_
_space_group_symop_operation_xyz
x,y,z
1/2-x,-y,z
1/2+x,-y,1/2-z
-x,y,1/2-z
-x,-y,-z
1/2+x,y,-z
1/2-x,y,1/2+z
x,-y,1/2+z
loop_
_atom_site_type_symbol
_atom_site_label
_atom_site_fract_x
_atom_site_fract_y
_atom_site_fract_z
Si Si1 0.861754 0.484353 0.853549
Si Si2 0.500000 0.367025 0.750000
Si Si3 0.191616 0.772517 0.856546
Si Si4 0.114068 0.855214 0.748174
Si Si5 0.642115 0.984169 0.632456
Si Si6 0.116419 0.103343 0.748531
Si Si7 0.684387 0.312439 0.720172
Si Si8 0.000000 0.417364 0.750000
O O1 0.750000 0.500000 0.877153
O O2 0.900854 0.510751 0.632067
O O3 0.902003 0.443215 0.768963
O O4 0.595475 0.341181 0.725114
O O5 0.493059 0.392444 0.500174
O O6 0.277186 0.773266 0.647943
O O7 0.135391 0.811119 0.800253
O O8 0.145733 0.731268 0.799351
O O9 0.147158 0.868865 0.474779
O O10 0.000000 0.860047 0.750000
O O11 0.148945 0.881387 0.978549
O O12 0.646540 0.939745 0.696024
O O13 0.750000 0.000000 0.601716
O O14 0.596862 0.993095 0.364174
O O15 0.000000 0.102952 0.750000
O O16 0.752312 0.317176 0.474051
#
# Coordination Sequence:
#
# PCOD9422279 Si02
#       8
#     8   4   8   8   8   8   8   4
#     4  10  21  41  65  94 132 182 226 290 361 407
#     4  12  26  45  70 108 138 194 234 286 360 393
#     4  10  21  40  63  95 126 165 210 252 312 378
#     4  10  21  38  60  90 120 154 194 245 307 368
#     4  10  21  38  53  76 104 144 190 229 284 360
#     4  10  21  38  57  82 117 147 189 250 300 352
#     4  10  23  46  69  97 143 181 229 286 332 416
#     4  12  24  43  66 104 142 172 248 296 332 437
#
# _framework density 21.587956999999999
#
# number of rings (size 3 to 8) (size 9 to 14) (size 15 to 20)
#    0.000    1.714    0.000    3.857    1.000    0.571 
#   30.857    0.000    0.000    0.000    0.000    0.000 
#    0.000    0.000    0.000    0.000    0.000    0.000 
#
# Total GULP energy -312503.231621 kJ/mol
# GULP energy per Si atom -5580.414850 kJ/mol
# Density = 2.153882 g / cm^3
# Si number density = 21.587957 Si / 1000 Ang^3
#
#
#
# Elastic Constant Matrix: (Units=GPa)
#
#
# Indices 1 2 3 4 5 6 
#
# 1 100.8940 38.2878 19.4326 0.0000 0.0000 0.0000
# 2 38.2878 127.8817 49.1909 0.0000 0.0000 0.0000
# 3 19.4326 49.1909 142.5493 0.0000 0.0000 0.0000
# 4 0.0000 0.0000 0.0000 40.2002 0.0000 0.0000
# 5 0.0000 0.0000 0.0000 0.0000 9.0898 0.0000
# 6 0.0000 0.0000 0.0000 0.0000 0.0000 45.4930
#
#
#
# Elastic Compliance Matrix: (Units=1/GPa)
#
#
# Indices 1 2 3 4 5 6 
#
# 1 0.011204 -0.003191 -0.000426 0.000000 0.000000 0.000000
# 2 -0.003191 0.009925 -0.002990 0.000000 0.000000 0.000000
# 3 -0.000426 -0.002990 0.008105 0.000000 0.000000 0.000000
# 4 0.000000 0.000000 0.000000 0.024875 0.000000 0.000000
# 5 0.000000 0.000000 0.000000 0.000000 0.110014 0.000000
# 6 0.000000 0.000000 0.000000 0.000000 0.000000 0.021981
#
#
# Mechanical properties :
#
#
# Convention : Reuss Voigt Hill
#
# Bulk Modulus (GPa) = 62.41996 65.01640 63.71818
# Shear Modulus (GPa) = 24.43084 36.58418 30.50751
#
# Velocity S-wave (km/s) = 3.36771 4.12109 3.76330
# Velocity P-wave (km/s) = 6.64070 7.26821 6.96153
#
# Compressibility (1/GPa) = 0.01602052
#
# Stress axis : x y z
#
# Youngs Moduli (GPa) = 89.25159 100.75455 123.38003
#
# Poissons Ratio (x) = 0.32146 0.05261
# Poissons Ratio (y) = 0.28476 0.36891
# Poissons Ratio (z) = 0.03806 0.30126
#
# Static dielectric constant tensor:
#      x y z
#    x 1.764210 0.000000 0.000000 
#    y 0.000000 1.761020 0.000000 
#    z 0.000000 0.000000 1.819390 
# 
# From -- ./inp_files/777.got.cif
#   From: 2010.05.17/outbox.cif.g08.bks.cpg/sg54_1_cif.got.tgz:777.got - 2010.06.03 13:09:01.
