data_PCOD9422588
_publ_section_title
;
Structure prediction by ZEFSAII (Michael W. Deem and Ramdas Pophale) SiO2 
 PCOD9422588
Probable space group: P C C A
;
_chemical_formula_sum "Si O2"
_cell_formula_units_Z 40
_cell_length_a 18.016115
_cell_length_b 5.735171
_cell_length_c 17.720834
_cell_angle_alpha 90.000000
_cell_angle_beta 90.000000
_cell_angle_gamma 90.000000
_cell_volume 1831.014038
_symmetry_space_group_name_H-M "P C C A"
_symmetry_group_IT_number 54
_symmetry_cell_setting 'orthorhombic'
loop_
_space_group_symop_operation_xyz
x,y,z
1/2-x,-y,z
1/2+x,-y,1/2-z
-x,y,1/2-z
-x,-y,-z
1/2+x,y,-z
1/2-x,y,1/2+z
x,-y,1/2+z
loop_
_atom_site_type_symbol
_atom_site_label
_atom_site_fract_x
_atom_site_fract_y
_atom_site_fract_z
Si Si1 0.946083 0.646480 0.820120
Si Si2 0.224068 0.750501 0.878555
Si Si3 0.722746 0.751277 0.297101
Si Si4 0.566279 0.089505 0.582812
Si Si5 0.020772 0.694182 0.061294
O O1 0.866595 0.746719 0.798853
O O2 0.936060 0.412527 0.869105
O O3 0.000000 0.601642 0.750000
O O4 0.993405 0.814988 0.874657
O O5 0.250000 0.500000 0.910937
O O6 0.248990 0.750763 0.790815
O O7 0.135672 0.779003 0.882920
O O8 0.250000 0.000000 0.912967
O O9 0.750000 0.500000 0.329332
O O10 0.750000 0.000000 0.330076
O O11 0.565892 0.132220 0.492754
O O12 0.555188 0.812920 0.590900
O O13 0.000000 0.500000 0.000000
#
# Coordination Sequence:
#
# PCOD9422588 Si02
#       5
#     8   8   8   8   8
#     4  11  22  38  67  99 121 170 223 264 330 406
#     4  10  22  38  64  95 131 174 219 271 327 389
#     4  10  23  41  60  93 138 168 204 271 338 387
#     4  10  21  41  64  93 127 171 226 273 325 393
#     4   9  22  39  65  89 129 163 218 281 330 375
#
# _framework density 21.845818000000001
#
# number of rings (size 3 to 8) (size 9 to 14) (size 15 to 20)
#    0.000    2.000    2.000    0.000    8.400    2.400 
#    0.000    1.000    0.000    0.000    0.000    0.000 
#    0.000    0.000    0.000    0.000    0.000    0.000 
#
# Total GULP energy -222723.574268 kJ/mol
# GULP energy per Si atom -5568.089357 kJ/mol
# Density = 2.179610 g / cm^3
# Si number density = 21.845818 Si / 1000 Ang^3
#
#
#
# Elastic Constant Matrix: (Units=GPa)
#
#
# Indices 1 2 3 4 5 6 
#
# 1 88.8783 42.4450 -6.2122 0.0000 0.0000 0.0000
# 2 42.4450 150.9283 11.4364 0.0000 0.0000 0.0000
# 3 -6.2122 11.4364 63.8694 0.0000 0.0000 0.0000
# 4 0.0000 0.0000 0.0000 3.7277 0.0000 0.0000
# 5 0.0000 0.0000 0.0000 0.0000 2.4622 0.0000
# 6 0.0000 0.0000 0.0000 0.0000 0.0000 30.5344
#
#
#
# Elastic Compliance Matrix: (Units=1/GPa)
#
#
# Indices 1 2 3 4 5 6 
#
# 1 0.013240 -0.003873 0.001981 0.000000 0.000000 0.000000
# 2 -0.003873 0.007850 -0.001782 0.000000 0.000000 0.000000
# 3 0.001981 -0.001782 0.016169 0.000000 0.000000 0.000000
# 4 0.000000 0.000000 0.000000 0.268264 0.000000 0.000000
# 5 0.000000 0.000000 0.000000 0.000000 0.406139 0.000000
# 6 0.000000 0.000000 0.000000 0.000000 0.000000 0.032750
#
#
# Mechanical properties :
#
#
# Convention : Reuss Voigt Hill
#
# Bulk Modulus (GPa) = 33.43424 44.33493 38.88458
# Shear Modulus (GPa) = 6.56400 24.41198 15.48799
#
# Velocity S-wave (km/s) = 1.73529 3.34648 2.66553
# Velocity P-wave (km/s) = 4.39918 5.93889 5.22605
#
# Compressibility (1/GPa) = 0.02990946
#
# Stress axis : x y z
#
# Youngs Moduli (GPa) = 75.53071 127.38785 61.84744
#
# Poissons Ratio (x) = 0.49343 -0.12254
# Poissons Ratio (y) = 0.29257 0.11024
# Poissons Ratio (z) = -0.14965 0.22705
#
# Static dielectric constant tensor:
#      x y z
#    x 1.829210 0.000000 0.000000 
#    y 0.000000 2.371150 0.000000 
#    z 0.000000 0.000000 1.799150 
# 
# From -- ./inp_files/18385.got.cif
#   From: 2010.05.17/outbox.cif.g08.bks.cpg/sg54_10_cif.got.tgz:18385.got - 2010.06.03 13:09:01.
