data_PCOD9422995
_publ_section_title
;
Structure prediction by ZEFSAII (Michael W. Deem and Ramdas Pophale) SiO2 
 PCOD9422995
Probable space group: P C C A
;
_chemical_formula_sum "Si O2"
_cell_formula_units_Z 24
_cell_length_a 8.674420
_cell_length_b 10.291641
_cell_length_c 12.026387
_cell_angle_alpha 90.000000
_cell_angle_beta 90.000000
_cell_angle_gamma 90.000000
_cell_volume 1073.643872
_symmetry_space_group_name_H-M "P C C A"
_symmetry_group_IT_number 54
_symmetry_cell_setting 'orthorhombic'
loop_
_space_group_symop_operation_xyz
x,y,z
1/2-x,-y,z
1/2+x,-y,1/2-z
-x,y,1/2-z
-x,-y,-z
1/2+x,y,-z
1/2-x,y,1/2+z
x,-y,1/2+z
loop_
_atom_site_type_symbol
_atom_site_label
_atom_site_fract_x
_atom_site_fract_y
_atom_site_fract_z
Si Si1 0.110061 0.674623 0.085668
Si Si2 0.463635 0.613151 0.129917
Si Si3 0.932335 0.965677 0.372813
O O1 0.289619 0.650835 0.103426
O O2 0.022922 0.543727 0.124435
O O3 0.053810 0.809486 0.132753
O O4 0.079758 0.676472 0.954953
O O5 0.500000 0.660967 0.250000
O O6 0.000000 0.013323 0.250000
O O7 0.750000 0.000000 0.375865
O O8 0.000000 0.000000 0.500000
#
# Coordination Sequence:
#
# PCOD9422995 Si02
#       3
#     8   8   8
#     4  10  23  41  64  94 127 164 214 262 319 386
#     4  10  22  40  66  96 127 163 203 263 329 384
#     4  12  27  46  68  96 133 179 226 272 323 386
#
# _framework density 22.353781000000001
#
# number of rings (size 3 to 8) (size 9 to 14) (size 15 to 20)
#    0.000    1.333    0.000    4.000    0.000   21.333 
#    0.000    0.000    0.000    0.000    0.000    0.000 
#    0.000    0.000    0.000    0.000    0.000    0.000 
#
# Total GULP energy -133848.089054 kJ/mol
# GULP energy per Si atom -5577.003711 kJ/mol
# Density = 2.230290 g / cm^3
# Si number density = 22.353781 Si / 1000 Ang^3
#
#
#
# Elastic Constant Matrix: (Units=GPa)
#
#
# Indices 1 2 3 4 5 6 
#
# 1 84.4293 6.3286 83.4737 0.0000 0.0000 0.0000
# 2 6.3286 115.2880 31.3178 0.0000 0.0000 0.0000
# 3 83.4737 31.3178 236.7955 0.0000 0.0000 0.0000
# 4 0.0000 0.0000 0.0000 4.4953 0.0000 0.0000
# 5 0.0000 0.0000 0.0000 0.0000********** 0.0000
# 6 0.0000 0.0000 0.0000 0.0000 0.0000 12.0707
#
#
#
# Elastic Compliance Matrix: (Units=1/GPa)
#
#
# Indices 1 2 3 4 5 6 
#
# 1 0.018247 0.000773 -0.006535 0.000000 0.000000 0.000000
# 2 0.000773 0.009030 -0.001467 0.000000 0.000000 0.000000
# 3 -0.006535 -0.001467 0.006721 0.000000 0.000000 0.000000
# 4 0.000000 0.000000 0.000000 0.222453 0.000000 0.000000
# 5 0.000000 0.000000 0.000000 0.000000 -0.000048 0.000000
# 6 0.000000 0.000000 0.000000 0.000000 0.000000 0.082845
#
#
# Mechanical properties :
#
#
# Convention : Reuss Voigt Hill
#
# Bulk Modulus (GPa) = 51.17354 75.41699 63.29527
# Shear Modulus (GPa) = 13.88049 -4149.45116 -2067.78534
#
# Velocity S-wave (km/s) = 2.49458 -43.13112 -30.44725
# Velocity P-wave (km/s) = 5.58923 49.46292 34.75155
#
# Compressibility (1/GPa) = 0.01954135
#
# Stress axis : x y z
#
# Youngs Moduli (GPa) = 54.80394 110.74247 148.79638
#
# Poissons Ratio (x) = -0.08566 0.97232
# Poissons Ratio (y) = -0.04239 0.21827
# Poissons Ratio (z) = 0.35812 0.16245
#
# Static dielectric constant tensor:
#      x y z
#    x 1.841020 0.000000 0.000000 
#    y 0.000000 2.032480 0.000000 
#    z 0.000000 0.000000 1.875500 
# 
# From -- ./inp_files/6618.got.cif
#   From: 2010.05.17/outbox.cif.g08.bks.cpg/sg54_4_cif.got.tgz:6618.got - 2010.06.03 13:09:01.
