data_PCOD9422250
_publ_section_title
;
Structure prediction by ZEFSAII (Michael W. Deem and Ramdas Pophale) SiO2 
 PCOD9422250
Probable space group: P C C A
;
_chemical_formula_sum "Si O2"
_cell_formula_units_Z 40
_cell_length_a 13.427113
_cell_length_b 10.335435
_cell_length_c 11.246510
_cell_angle_alpha 90.000000
_cell_angle_beta 90.000000
_cell_angle_gamma 90.000000
_cell_volume 1560.735029
_symmetry_space_group_name_H-M "P C C A"
_symmetry_group_IT_number 54
_symmetry_cell_setting 'orthorhombic'
loop_
_space_group_symop_operation_xyz
x,y,z
1/2-x,-y,z
1/2+x,-y,1/2-z
-x,y,1/2-z
-x,-y,-z
1/2+x,y,-z
1/2-x,y,1/2+z
x,-y,1/2+z
loop_
_atom_site_type_symbol
_atom_site_label
_atom_site_fract_x
_atom_site_fract_y
_atom_site_fract_z
Si Si1 0.366206 0.362743 0.300531
Si Si2 0.938472 0.729806 0.434012
Si Si3 0.129989 0.001744 0.959135
Si Si4 0.145377 0.648337 0.834155
Si Si5 0.857218 0.926439 0.789547
O O1 0.455561 0.303402 0.376493
O O2 0.362251 0.291682 0.174458
O O3 0.377630 0.514438 0.268702
O O4 0.262263 0.349235 0.367668
O O5 0.912602 0.869738 0.485440
O O6 0.918231 0.640767 0.546638
O O7 0.250000 0.000000 0.945165
O O8 0.109051 0.091047 0.073394
O O9 0.094274 0.009370 0.821435
O O10 0.133591 0.781678 0.763254
O O11 0.750000 0.000000 0.801842
#
# Coordination Sequence:
#
# PCOD9422250 Si02
#       5
#     8   8   8   8   8
#     4  10  21  37  62  91 123 167 216 264 332 391
#     4  10  21  39  62  90 130 168 211 273 331 387
#     4   9  17  32  59  89 121 169 214 259 322 389
#     4  10  21  37  61  90 121 168 220 266 321 395
#     4   9  17  32  57  87 121 161 212 263 317 383
#
# _framework density 25.628948999999999
#
# number of rings (size 3 to 8) (size 9 to 14) (size 15 to 20)
#    0.000    2.400    0.000    3.000    0.000    3.200 
#    0.000    2.000    0.000   96.000    0.000    0.000 
#    0.000    0.000    0.000    0.000    0.000    0.000 
#
# Total GULP energy -223363.984169 kJ/mol
# GULP energy per Si atom -5584.099604 kJ/mol
# Density = 2.557062 g / cm^3
# Si number density = 25.628949 Si / 1000 Ang^3
#
#
#
# Elastic Constant Matrix: (Units=GPa)
#
#
# Indices 1 2 3 4 5 6 
#
# 1 99.0192 25.2917 29.0876 0.0000 0.0000 0.0000
# 2 25.2917 112.4227 44.7645 0.0000 0.0000 0.0000
# 3 29.0876 44.7645 175.8571 0.0000 0.0000 0.0000
# 4 0.0000 0.0000 0.0000 31.8470 0.0000 0.0000
# 5 0.0000 0.0000 0.0000 0.0000 53.3872 0.0000
# 6 0.0000 0.0000 0.0000 0.0000 0.0000 22.1200
#
#
#
# Elastic Compliance Matrix: (Units=1/GPa)
#
#
# Indices 1 2 3 4 5 6 
#
# 1 0.010984 -0.001945 -0.001322 0.000000 0.000000 0.000000
# 2 -0.001945 0.010243 -0.002286 0.000000 0.000000 0.000000
# 3 -0.001322 -0.002286 0.006487 0.000000 0.000000 0.000000
# 4 0.000000 0.000000 0.000000 0.031400 0.000000 0.000000
# 5 0.000000 0.000000 0.000000 0.000000 0.018731 0.000000
# 6 0.000000 0.000000 0.000000 0.000000 0.000000 0.045208
#
#
# Mechanical properties :
#
#
# Convention : Reuss Voigt Hill
#
# Bulk Modulus (GPa) = 60.20739 65.06517 62.63628
# Shear Modulus (GPa) = 35.79267 40.68119 38.23693
#
# Velocity S-wave (km/s) = 3.74113 3.98843 3.86676
# Velocity P-wave (km/s) = 6.49649 6.83027 6.66547
#
# Compressibility (1/GPa) = 0.01660926
#
# Stress axis : x y z
#
# Youngs Moduli (GPa) = 91.04090 97.63158 154.15778
#
# Poissons Ratio (x) = 0.18987 0.20376
# Poissons Ratio (y) = 0.17705 0.35234
# Poissons Ratio (z) = 0.12034 0.22315
#
# Static dielectric constant tensor:
#      x y z
#    x 2.088290 0.000000 0.000000 
#    y 0.000000 2.121150 0.000000 
#    z 0.000000 0.000000 2.015830 
# 
# From -- ./inp_files/8237.got.cif
#   From: 2010.05.17/outbox.cif.g08.bks.cpg/sg54_5_cif.got.tgz:8237.got - 2010.06.03 13:09:01.
