data_PCOD9422873
_publ_section_title
;
Structure prediction by ZEFSAII (Michael W. Deem and Ramdas Pophale) SiO2 
 PCOD9422873
Probable space group: P C C A
;
_chemical_formula_sum "Si O2"
_cell_formula_units_Z 32
_cell_length_a 4.929922
_cell_length_b 9.186355
_cell_length_c 30.326441
_cell_angle_alpha 90.000000
_cell_angle_beta 90.000000
_cell_angle_gamma 90.000000
_cell_volume 1373.424273
_symmetry_space_group_name_H-M "P C C A"
_symmetry_group_IT_number 54
_symmetry_cell_setting 'orthorhombic'
loop_
_space_group_symop_operation_xyz
x,y,z
1/2-x,-y,z
1/2+x,-y,1/2-z
-x,y,1/2-z
-x,-y,-z
1/2+x,y,-z
1/2-x,y,1/2+z
x,-y,1/2+z
loop_
_atom_site_type_symbol
_atom_site_label
_atom_site_fract_x
_atom_site_fract_y
_atom_site_fract_z
Si Si1 0.750000 0.500000 0.568615
Si Si2 0.934792 0.784813 0.528597
Si Si3 0.529063 0.297655 0.145077
Si Si4 0.750000 0.500000 0.220673
Si Si5 0.961376 0.873788 0.874146
O O1 0.930543 0.612246 0.540588
O O2 0.912664 0.394156 0.601667
O O3 0.636131 0.817853 0.511197
O O4 0.017456 0.866945 0.572889
O O5 0.617671 0.380514 0.188710
O O6 0.731233 0.157772 0.140995
O O7 0.211782 0.263895 0.143448
O O8 0.500000 0.557276 0.250000
O O9 0.750000 0.000000 0.861596
#
# Coordination Sequence:
#
# PCOD9422873 Si02
#       5
#     4   8   8   4   8
#     4   9  20  36  56  81 114 150 194 247 306 360
#     4  11  22  34  53  81 114 152 199 258 307 340
#     4  10  22  39  62  89 115 151 195 232 285 359
#     4  11  22  40  70 101 126 142 170 235 300 350
#     4  11  23  40  59  80 115 164 207 239 277 337
#
# _framework density 23.299427999999999
#
# number of rings (size 3 to 8) (size 9 to 14) (size 15 to 20)
#    0.000    1.500    0.000    6.000    0.000   13.000 
#    0.000    0.000    0.000   15.000    0.000    0.000 
#    0.000    0.000    0.000    0.000    0.000    0.000 
#
# Total GULP energy -178925.372778 kJ/mol
# GULP energy per Si atom -5591.417899 kJ/mol
# Density = 2.324640 g / cm^3
# Si number density = 23.299428 Si / 1000 Ang^3
#
#
#
# Elastic Constant Matrix: (Units=GPa)
#
#
# Indices 1 2 3 4 5 6 
#
# 1 137.4631 0.4503 18.1335 0.0000 0.0000 0.0000
# 2 0.4503 30.1552 -7.3258 0.0000 0.0000 0.0000
# 3 18.1335 -7.3258 84.1226 0.0000 0.0000 0.0000
# 4 0.0000 0.0000 0.0000 5.3803 0.0000 0.0000
# 5 0.0000 0.0000 0.0000 0.0000 29.5028 0.0000
# 6 0.0000 0.0000 0.0000 0.0000 0.0000 29.2464
#
#
#
# Elastic Compliance Matrix: (Units=1/GPa)
#
#
# Indices 1 2 3 4 5 6 
#
# 1 0.007495 -0.000515 -0.001661 0.000000 0.000000 0.000000
# 2 -0.000515 0.033914 0.003064 0.000000 0.000000 0.000000
# 3 -0.001661 0.003064 0.012512 0.000000 0.000000 0.000000
# 4 0.000000 0.000000 0.000000 0.185864 0.000000 0.000000
# 5 0.000000 0.000000 0.000000 0.000000 0.033895 0.000000
# 6 0.000000 0.000000 0.000000 0.000000 0.000000 0.034192
#
#
# Mechanical properties :
#
#
# Convention : Reuss Voigt Hill
#
# Bulk Modulus (GPa) = 17.95374 30.47299 24.21336
# Shear Modulus (GPa) = 15.40064 28.85809 22.12937
#
# Velocity S-wave (km/s) = 2.57376 3.52316 3.08520
# Velocity P-wave (km/s) = 4.06875 5.44586 4.80688
#
# Compressibility (1/GPa) = 0.05569871
#
# Stress axis : x y z
#
# Youngs Moduli (GPa) = 133.41465 29.48637 79.92176
#
# Poissons Ratio (x) = 0.01520 0.13272
# Poissons Ratio (y) = 0.06876 -0.24492
# Poissons Ratio (z) = 0.22155 -0.09036
#
# Static dielectric constant tensor:
#      x y z
#    x 1.816550 0.000000 0.000000 
#    y 0.000000 2.043290 0.000000 
#    z 0.000000 0.000000 1.801170 
# 
# From -- ./inp_files/26900.got.cif
#   From: 2010.05.17/outbox.cif.g08.bks.cpg/sg54_14_cif.got.tgz:26900.got - 2010.06.03 13:09:01.
