data_PCOD9422658
_publ_section_title
;
Structure prediction by ZEFSAII (Michael W. Deem and Ramdas Pophale) SiO2 
 PCOD9422658
Probable space group: P C C A
;
_chemical_formula_sum "Si O2"
_cell_formula_units_Z 52
_cell_length_a 13.945799
_cell_length_b 11.815597
_cell_length_c 11.875827
_cell_angle_alpha 90.000000
_cell_angle_beta 90.000000
_cell_angle_gamma 90.000000
_cell_volume 1956.874319
_symmetry_space_group_name_H-M "P C C A"
_symmetry_group_IT_number 54
_symmetry_cell_setting 'orthorhombic'
loop_
_space_group_symop_operation_xyz
x,y,z
1/2-x,-y,z
1/2+x,-y,1/2-z
-x,y,1/2-z
-x,-y,-z
1/2+x,y,-z
1/2-x,y,1/2+z
x,-y,1/2+z
loop_
_atom_site_type_symbol
_atom_site_label
_atom_site_fract_x
_atom_site_fract_y
_atom_site_fract_z
Si Si1 0.995423 0.632206 0.595029
Si Si2 0.321785 0.712064 0.770481
Si Si3 0.924447 0.895822 0.083722
Si Si4 0.837381 0.556834 0.031230
Si Si5 0.000000 0.552262 0.250000
Si Si6 0.273984 0.872621 0.100304
Si Si7 0.097212 0.144997 0.446126
O O1 0.080586 0.647253 0.504671
O O2 0.051788 0.550301 0.678628
O O3 0.910471 0.544484 0.562877
O O4 0.943408 0.748306 0.620714
O O5 0.369117 0.820453 0.829044
O O6 0.285906 0.622758 0.865315
O O7 0.413816 0.641406 0.727407
O O8 0.254377 0.768189 0.184768
O O9 0.876281 0.885412 0.959227
O O10 0.915155 0.026989 0.116527
O O11 0.033655 0.862769 0.060520
O O12 0.750000 0.500000 0.963689
O O13 0.203847 0.847093 0.993783
O O14 0.250000 0.000000 0.144233
#
# Coordination Sequence:
#
# PCOD9422658 Si02
#       7
#     8   8   8   8   4   8   8
#     4  10  22  43  67  96 137 185 231 293 343 419
#     4  11  22  42  70  98 136 183 236 292 350 423
#     4  10  22  42  67 104 135 180 229 279 364 419
#     4  10  23  41  66  96 132 185 234 281 357 405
#     4  10  24  44  66 104 136 186 250 288 350 420
#     4  10  24  42  67 102 135 178 231 287 350 425
#     4  10  21  42  69  95 138 178 224 284 352 425
#
# _framework density 26.572990000000001
#
# number of rings (size 3 to 8) (size 9 to 14) (size 15 to 20)
#    0.000    1.846    1.538    0.923    6.462    1.846 
#    5.538    4.615    0.000    0.000    0.000    0.000 
#    0.000    0.000    0.000    0.000    0.000    0.000 
#
# Total GULP energy -289663.514956 kJ/mol
# GULP energy per Si atom -5570.452211 kJ/mol
# Density = 2.651251 g / cm^3
# Si number density = 26.572990 Si / 1000 Ang^3
#
#
#
# Elastic Constant Matrix: (Units=GPa)
#
#
# Indices 1 2 3 4 5 6 
#
# 1 228.9058 -5.2727 69.0492 0.0000 0.0000 0.0000
# 2 -5.2727 244.5130 22.8800 0.0000 0.0000 0.0000
# 3 69.0492 22.8800 57.1286 0.0000 0.0000 0.0000
# 4 0.0000 0.0000 0.0000 63.4142 0.0000 0.0000
# 5 0.0000 0.0000 0.0000 0.0000 126.1264 0.0000
# 6 0.0000 0.0000 0.0000 0.0000 0.0000 -162.2277
#
#
#
# Elastic Compliance Matrix: (Units=1/GPa)
#
#
# Indices 1 2 3 4 5 6 
#
# 1 0.007100 0.000993 -0.008980 0.000000 0.000000 0.000000
# 2 0.000993 0.004388 -0.002958 0.000000 0.000000 0.000000
# 3 -0.008980 -0.002958 0.029542 0.000000 0.000000 0.000000
# 4 0.000000 0.000000 0.000000 0.015769 0.000000 0.000000
# 5 0.000000 0.000000 0.000000 0.000000 0.007929 0.000000
# 6 0.000000 0.000000 0.000000 0.000000 0.000000 -0.006164
#
#
# Mechanical properties :
#
#
# Convention : Reuss Voigt Hill
#
# Bulk Modulus (GPa) = 52.24109 78.20671 65.22390
# Shear Modulus (GPa) = 57.58166 35.05529 46.31847
#
# Velocity S-wave (km/s) = 4.66007 3.63603 4.17953
# Velocity P-wave (km/s) = 6.97547 6.86458 6.92025
#
# Compressibility (1/GPa) = 0.01914202
#
# Stress axis : x y z
#
# Youngs Moduli (GPa) = 140.84194 227.89544 33.84979
#
# Poissons Ratio (x) = -0.22638 0.30396
# Poissons Ratio (y) = -0.13991 0.10013
# Poissons Ratio (z) = 1.26469 0.67412
#
# Static dielectric constant tensor:
#      x y z
#    x 2.165440 0.000000 0.000000 
#    y 0.000000 2.004260 0.000000 
#    z 0.000000 0.000000 2.235510 
# 
# From -- ./inp_files/18154.got.cif
#   From: 2010.05.17/outbox.cif.g08.bks.cpg/sg54_10_cif.got.tgz:18154.got - 2010.06.03 13:09:01.
