data_PCOD9422325
_publ_section_title
;
Structure prediction by ZEFSAII (Michael W. Deem and Ramdas Pophale) SiO2 
 PCOD9422325
Probable space group: P C C A
;
_chemical_formula_sum "Si O2"
_cell_formula_units_Z 32
_cell_length_a 13.822654
_cell_length_b 7.328654
_cell_length_c 13.591361
_cell_angle_alpha 90.000000
_cell_angle_beta 90.000000
_cell_angle_gamma 90.000000
_cell_volume 1376.824557
_symmetry_space_group_name_H-M "P C C A"
_symmetry_group_IT_number 54
_symmetry_cell_setting 'orthorhombic'
loop_
_space_group_symop_operation_xyz
x,y,z
1/2-x,-y,z
1/2+x,-y,1/2-z
-x,y,1/2-z
-x,-y,-z
1/2+x,y,-z
1/2-x,y,1/2+z
x,-y,1/2+z
loop_
_atom_site_type_symbol
_atom_site_label
_atom_site_fract_x
_atom_site_fract_y
_atom_site_fract_z
Si Si1 0.817787 0.238201 0.130341
Si Si2 0.590058 0.222780 0.817970
Si Si3 0.113236 0.125958 0.954248
Si Si4 0.475400 0.540402 0.888203
O O1 0.817990 0.195699 0.247295
O O2 0.715796 0.215399 0.077726
O O3 0.875607 0.427612 0.126254
O O4 0.881670 0.084115 0.075482
O O5 0.500000 0.153794 0.750000
O O6 0.561443 0.438241 0.831160
O O7 0.600051 0.147753 0.928253
O O8 0.038599 0.243401 0.888149
O O9 0.500000 0.500000 0.000000
#
# Coordination Sequence:
#
# PCOD9422325 Si02
#       4
#     8   8   8   8
#     4  10  21  38  60  91 121 149 205 254 296 362
#     4   9  20  39  57  85 122 154 202 249 290 367
#     4  10  21  38  63  85 119 165 193 247 317 352
#     4   9  19  38  58  81 116 156 193 238 300 359
#
# _framework density 23.241886000000001
#
# number of rings (size 3 to 8) (size 9 to 14) (size 15 to 20)
#    0.000    2.500    0.000    0.750    0.000   13.000 
#    0.000   46.250    0.000    0.000    0.000    0.000 
#    0.000    0.000    0.000    0.000    0.000    0.000 
#
# Total GULP energy -178229.885448 kJ/mol
# GULP energy per Si atom -5569.683920 kJ/mol
# Density = 2.318899 g / cm^3
# Si number density = 23.241886 Si / 1000 Ang^3
#
#
#
# Elastic Constant Matrix: (Units=GPa)
#
#
# Indices 1 2 3 4 5 6 
#
# 1 73.3660 3.6796 48.7425 0.0000 0.0000 0.0000
# 2 3.6796 106.8667 39.0791 0.0000 0.0000 0.0000
# 3 48.7425 39.0791 178.4810 0.0000 0.0000 0.0000
# 4 0.0000 0.0000 0.0000 31.6730 0.0000 0.0000
# 5 0.0000 0.0000 0.0000 0.0000 43.3680 0.0000
# 6 0.0000 0.0000 0.0000 0.0000 0.0000 36.1173
#
#
#
# Elastic Compliance Matrix: (Units=1/GPa)
#
#
# Indices 1 2 3 4 5 6 
#
# 1 0.016791 0.001194 -0.004847 0.000000 0.000000 0.000000
# 2 0.001194 0.010257 -0.002572 0.000000 0.000000 0.000000
# 3 -0.004847 -0.002572 0.007490 0.000000 0.000000 0.000000
# 4 0.000000 0.000000 0.000000 0.031573 0.000000 0.000000
# 5 0.000000 0.000000 0.000000 0.000000 0.023058 0.000000
# 6 0.000000 0.000000 0.000000 0.000000 0.000000 0.027688
#
#
# Mechanical properties :
#
#
# Convention : Reuss Voigt Hill
#
# Bulk Modulus (GPa) = 45.27360 60.19066 52.73213
# Shear Modulus (GPa) = 36.58515 40.04584 38.31549
#
# Velocity S-wave (km/s) = 3.97180 4.15541 4.06464
# Velocity P-wave (km/s) = 6.36830 6.99835 6.69075
#
# Compressibility (1/GPa) = 0.02208793
#
# Stress axis : x y z
#
# Youngs Moduli (GPa) = 59.55726 97.49595 133.51754
#
# Poissons Ratio (x) = -0.11644 0.64715
# Poissons Ratio (y) = -0.07113 0.34340
# Poissons Ratio (z) = 0.28867 0.25075
#
# Static dielectric constant tensor:
#      x y z
#    x 1.988880 0.000000 0.000000 
#    y 0.000000 1.882600 0.000000 
#    z 0.000000 0.000000 1.898570 
# 
# From -- ./inp_files/8078.got.cif
#   From: 2010.05.17/outbox.cif.g08.bks.cpg/sg54_5_cif.got.tgz:8078.got - 2010.06.03 13:09:01.
