data_PCOD9422513
_publ_section_title
;
Structure prediction by ZEFSAII (Michael W. Deem and Ramdas Pophale) SiO2 
 PCOD9422513
Probable space group: P C C A
;
_chemical_formula_sum "Si O2"
_cell_formula_units_Z 40
_cell_length_a 5.178837
_cell_length_b 23.070166
_cell_length_c 13.651500
_cell_angle_alpha 90.000000
_cell_angle_beta 90.000000
_cell_angle_gamma 90.000000
_cell_volume 1631.035205
_symmetry_space_group_name_H-M "P C C A"
_symmetry_group_IT_number 54
_symmetry_cell_setting 'orthorhombic'
loop_
_space_group_symop_operation_xyz
x,y,z
1/2-x,-y,z
1/2+x,-y,1/2-z
-x,y,1/2-z
-x,-y,-z
1/2+x,y,-z
1/2-x,y,1/2+z
x,-y,1/2+z
loop_
_atom_site_type_symbol
_atom_site_label
_atom_site_fract_x
_atom_site_fract_y
_atom_site_fract_z
Si Si1 0.429572 0.700362 0.966559
Si Si2 0.500000 0.715902 0.750000
Si Si3 0.000000 0.793387 0.750000
Si Si4 0.250000 0.500000 0.801859
Si Si5 0.250000 0.000000 0.430804
Si Si6 0.935823 0.426601 0.451140
Si Si7 0.675084 0.126749 0.570412
O O1 0.437471 0.684259 0.852487
O O2 0.175523 0.733996 0.995439
O O3 0.423733 0.642476 0.034780
O O4 0.753676 0.753221 0.775416
O O5 0.893929 0.831116 0.659818
O O6 0.500000 0.528443 0.750000
O O7 0.405829 0.449713 0.859740
O O8 0.215089 0.062317 0.380715
O O9 0.500000 0.000000 0.500000
O O10 0.139236 0.445910 0.536536
O O11 0.438468 0.132347 0.492866
#
# Coordination Sequence:
#
# PCOD9422513 Si02
#       7
#     8   4   4   4   4   8   8
#     4  10  23  45  68  96 128 171 221 277 336 397
#     4  12  26  44  67  96 131 174 230 286 342 406
#     4  12  26  40  65 104 131 172 236 282 350 418
#     4  12  24  40  66 108 140 176 214 264 340 410
#     4   8  16  34  60  86 124 170 218 254 320 404
#     4  10  21  43  66  93 135 172 214 267 320 405
#     4  10  21  40  63  94 133 177 217 278 339 399
#
# _framework density 24.524303
#
# number of rings (size 3 to 8) (size 9 to 14) (size 15 to 20)
#    0.000    1.600    0.000    4.200    0.000    4.800 
#   21.600    7.000    0.000    0.000    0.000    0.000 
#    0.000    0.000    0.000    0.000    0.000    0.000 
#
# Total GULP energy -223151.739484 kJ/mol
# GULP energy per Si atom -5578.793487 kJ/mol
# Density = 2.446848 g / cm^3
# Si number density = 24.524303 Si / 1000 Ang^3
#
#
#
# Elastic Constant Matrix: (Units=GPa)
#
#
# Indices 1 2 3 4 5 6 
#
# 1 207.4999 11.9617 27.2139 0.0000 0.0000 0.0000
# 2 11.9617 93.6023 29.4908 0.0000 0.0000 0.0000
# 3 27.2139 29.4908 121.5801 0.0000 0.0000 0.0000
# 4 0.0000 0.0000 0.0000 -3.6969 0.0000 0.0000
# 5 0.0000 0.0000 0.0000 0.0000 43.1657 0.0000
# 6 0.0000 0.0000 0.0000 0.0000 0.0000 30.8459
#
#
#
# Elastic Compliance Matrix: (Units=1/GPa)
#
#
# Indices 1 2 3 4 5 6 
#
# 1 0.004973 -0.000308 -0.001038 0.000000 0.000000 0.000000
# 2 -0.000308 0.011587 -0.002741 0.000000 0.000000 0.000000
# 3 -0.001038 -0.002741 0.009122 0.000000 0.000000 0.000000
# 4 0.000000 0.000000 0.000000 -0.270494 0.000000 0.000000
# 5 0.000000 0.000000 0.000000 0.000000 0.023167 0.000000
# 6 0.000000 0.000000 0.000000 0.000000 0.000000 0.032419
#
#
# Mechanical properties :
#
#
# Convention : Reuss Voigt Hill
#
# Bulk Modulus (GPa) = 57.12371 62.22389 59.67380
# Shear Modulus (GPa) = -28.53651 37.66400 4.56375
#
# Velocity S-wave (km/s) = -3.41486 3.92316 1.36563
# Velocity P-wave (km/s) = 2.79193 6.77857 5.18381
#
# Compressibility (1/GPa) = 0.01750587
#
# Stress axis : x y z
#
# Youngs Moduli (GPa) = 201.07604 86.30628 109.61992
#
# Poissons Ratio (x) = 0.02662 0.11383
# Poissons Ratio (y) = 0.06201 0.30052
# Poissons Ratio (z) = 0.20879 0.23660
#
# Static dielectric constant tensor:
#      x y z
#    x 2.290310 0.000000 0.000000 
#    y 0.000000 2.058750 0.000000 
#    z 0.000000 0.000000 2.009520 
# 
# From -- ./inp_files/6511.got.cif
#   From: 2010.05.17/outbox.cif.g08.bks.cpg/sg54_4_cif.got.tgz:6511.got - 2010.06.03 13:09:01.
