data_PCOD9422271
_publ_section_title
;
Structure prediction by ZEFSAII (Michael W. Deem and Ramdas Pophale) SiO2 
 PCOD9422271
Probable space group: P C C A
;
_chemical_formula_sum "Si O2"
_cell_formula_units_Z 32
_cell_length_a 8.550012
_cell_length_b 5.229510
_cell_length_c 28.922764
_cell_angle_alpha 90.000000
_cell_angle_beta 90.000000
_cell_angle_gamma 90.000000
_cell_volume 1293.205420
_symmetry_space_group_name_H-M "P C C A"
_symmetry_group_IT_number 54
_symmetry_cell_setting 'orthorhombic'
loop_
_space_group_symop_operation_xyz
x,y,z
1/2-x,-y,z
1/2+x,-y,1/2-z
-x,y,1/2-z
-x,-y,-z
1/2+x,y,-z
1/2-x,y,1/2+z
x,-y,1/2+z
loop_
_atom_site_type_symbol
_atom_site_label
_atom_site_fract_x
_atom_site_fract_y
_atom_site_fract_z
Si Si1 0.562808 0.477735 0.351812
Si Si2 0.061047 0.978167 0.699165
Si Si3 0.601565 0.117889 0.432737
Si Si4 0.118290 0.677639 0.972163
O O1 0.750000 0.500000 0.346519
O O2 0.502677 0.254219 0.318204
O O3 0.540510 0.359011 0.403003
O O4 0.505744 0.755875 0.336256
O O5 0.000000 0.916606 0.750000
O O6 0.250000 0.000000 0.701240
O O7 0.684563 0.208843 0.479784
O O8 0.750000 0.000000 0.405129
O O9 0.467668 0.908180 0.444738
O O10 0.250000 0.500000 0.949250
O O11 0.000000 0.500000 0.000000
#
# Coordination Sequence:
#
# PCOD9422271 Si02
#       4
#     8   8   8   8
#     4  10  21  37  65  99 128 169 228 279 328 403
#     4  10  21  39  67  99 130 169 217 273 337 412
#     4  11  22  37  64  96 128 173 232 287 340 402
#     4  11  23  39  63  93 132 180 225 282 345 407
#
# _framework density 24.744713000000001
#
# number of rings (size 3 to 8) (size 9 to 14) (size 15 to 20)
#    0.000    1.500    2.500    3.750    3.500    0.000 
#    0.000    0.000    5.500    1.500    0.000    0.000 
#    0.000    0.000    0.000    0.000    0.000    0.000 
#
# Total GULP energy -178547.982799 kJ/mol
# GULP energy per Si atom -5579.624462 kJ/mol
# Density = 2.468839 g / cm^3
# Si number density = 24.744713 Si / 1000 Ang^3
#
#
#
# Elastic Constant Matrix: (Units=GPa)
#
#
# Indices 1 2 3 4 5 6 
#
# 1 58.9786 39.5809 16.8482 0.0000 0.0000 0.0000
# 2 39.5809 186.4936 49.7692 0.0000 0.0000 0.0000
# 3 16.8482 49.7692 133.4911 0.0000 0.0000 0.0000
# 4 0.0000 0.0000 0.0000 34.4136 0.0000 0.0000
# 5 0.0000 0.0000 0.0000 0.0000 26.1430 0.0000
# 6 0.0000 0.0000 0.0000 0.0000 0.0000 52.2242
#
#
#
# Elastic Compliance Matrix: (Units=1/GPa)
#
#
# Indices 1 2 3 4 5 6 
#
# 1 0.019901 -0.003946 -0.001041 0.000000 0.000000 0.000000
# 2 -0.003946 0.006737 -0.002014 0.000000 0.000000 0.000000
# 3 -0.001041 -0.002014 0.008373 0.000000 0.000000 0.000000
# 4 0.000000 0.000000 0.000000 0.029058 0.000000 0.000000
# 5 0.000000 0.000000 0.000000 0.000000 0.038251 0.000000
# 6 0.000000 0.000000 0.000000 0.000000 0.000000 0.019148
#
#
# Mechanical properties :
#
#
# Convention : Reuss Voigt Hill
#
# Bulk Modulus (GPa) = 47.59533 65.70667 56.65100
# Shear Modulus (GPa) = 35.09447 40.74050 37.91749
#
# Velocity S-wave (km/s) = 3.77007 4.06203 3.91877
# Velocity P-wave (km/s) = 6.18284 6.97220 6.58935
#
# Compressibility (1/GPa) = 0.02101046
#
# Stress axis : x y z
#
# Youngs Moduli (GPa) = 50.24946 148.43418 119.42817
#
# Poissons Ratio (x) = 0.58572 0.12427
# Poissons Ratio (y) = 0.19828 0.24049
# Poissons Ratio (z) = 0.05229 0.29890
#
# Static dielectric constant tensor:
#      x y z
#    x 1.984710 0.000000 0.000000 
#    y 0.000000 2.432530 0.000000 
#    z 0.000000 0.000000 2.137040 
# 
# From -- ./inp_files/27500.got.cif
#   From: 2010.05.17/outbox.cif.g08.bks.cpg/sg54_14_cif.got.tgz:27500.got - 2010.06.03 13:09:01.
