data_PCOD9422560
_publ_section_title
;
Structure prediction by ZEFSAII (Michael W. Deem and Ramdas Pophale) SiO2 
 PCOD9422560
Probable space group: P C C A
;
_chemical_formula_sum "Si O2"
_cell_formula_units_Z 36
_cell_length_a 5.145508
_cell_length_b 16.139524
_cell_length_c 20.743191
_cell_angle_alpha 90.000000
_cell_angle_beta 90.000000
_cell_angle_gamma 90.000000
_cell_volume 1722.640074
_symmetry_space_group_name_H-M "P C C A"
_symmetry_group_IT_number 54
_symmetry_cell_setting 'orthorhombic'
loop_
_space_group_symop_operation_xyz
x,y,z
1/2-x,-y,z
1/2+x,-y,1/2-z
-x,y,1/2-z
-x,-y,-z
1/2+x,y,-z
1/2-x,y,1/2+z
x,-y,1/2+z
loop_
_atom_site_type_symbol
_atom_site_label
_atom_site_fract_x
_atom_site_fract_y
_atom_site_fract_z
Si Si1 0.283069 0.829550 0.616555
Si Si2 0.750000 0.000000 0.954657
Si Si3 0.373673 0.309784 0.842015
Si Si4 0.500000 0.555948 0.250000
Si Si5 0.957976 0.693198 0.042119
Si Si6 0.000000 0.211057 0.750000
O O1 0.492320 0.787796 0.567439
O O2 0.391362 0.838363 0.689013
O O3 0.053061 0.760849 0.624647
O O4 0.218285 0.918044 0.588500
O O5 0.500000 0.000000 0.000000
O O6 0.533784 0.384837 0.812188
O O7 0.157444 0.343644 0.891882
O O8 0.220135 0.267471 0.782888
O O9 0.750000 0.500000 0.240559
O O10 0.733630 0.674168 0.990264
#
# Coordination Sequence:
#
# PCOD9422560 Si02
#       6
#     8   4   8   4   8   4
#     4  11  23  43  69  97 145 188 236 297 349 421
#     4  12  30  46  66 104 146 182 248 302 346 402
#     4  11  23  43  73 104 142 186 233 286 356 444
#     4  12  27  44  73 112 144 174 228 305 368 427
#     4  11  22  37  67 102 130 182 238 276 332 413
#     4  10  21  40  69 100 136 184 244 279 346 427
#
# _framework density 20.898154999999999
#
# number of rings (size 3 to 8) (size 9 to 14) (size 15 to 20)
#    0.000    0.889    4.444    2.000    9.333    0.000 
#    4.000    0.000    0.000    4.000    0.000    0.000 
#    0.000    0.000    0.000    0.000    0.000    0.000 
#
# Total GULP energy -200818.667863 kJ/mol
# GULP energy per Si atom -5578.296330 kJ/mol
# Density = 2.085059 g / cm^3
# Si number density = 20.898155 Si / 1000 Ang^3
#
#
#
# Elastic Constant Matrix: (Units=GPa)
#
#
# Indices 1 2 3 4 5 6 
#
# 1 134.3480 37.7877 43.2230 0.0000 0.0000 0.0000
# 2 37.7877 75.0419 26.5514 0.0000 0.0000 0.0000
# 3 43.2230 26.5514 62.6121 0.0000 0.0000 0.0000
# 4 0.0000 0.0000 0.0000 10.9084 0.0000 0.0000
# 5 0.0000 0.0000 0.0000 0.0000 48.0826 0.0000
# 6 0.0000 0.0000 0.0000 0.0000 0.0000 26.9892
#
#
#
# Elastic Compliance Matrix: (Units=1/GPa)
#
#
# Indices 1 2 3 4 5 6 
#
# 1 0.010145 -0.003095 -0.005691 0.000000 0.000000 0.000000
# 2 -0.003095 0.016622 -0.004912 0.000000 0.000000 0.000000
# 3 -0.005691 -0.004912 0.021983 0.000000 0.000000 0.000000
# 4 0.000000 0.000000 0.000000 0.091672 0.000000 0.000000
# 5 0.000000 0.000000 0.000000 0.000000 0.020798 0.000000
# 6 0.000000 0.000000 0.000000 0.000000 0.000000 0.037052
#
#
# Mechanical properties :
#
#
# Convention : Reuss Voigt Hill
#
# Bulk Modulus (GPa) = 46.82969 54.12513 50.47741
# Shear Modulus (GPa) = 21.47893 28.15869 24.81881
#
# Velocity S-wave (km/s) = 3.20940 3.67471 3.44991
# Velocity P-wave (km/s) = 6.01588 6.63026 6.33053
#
# Compressibility (1/GPa) = 0.02135398
#
# Stress axis : x y z
#
# Youngs Moduli (GPa) = 98.57357 60.15951 45.48963
#
# Poissons Ratio (x) = 0.18619 0.25887
# Poissons Ratio (y) = 0.30508 0.22347
# Poissons Ratio (z) = 0.56096 0.29553
#
# Static dielectric constant tensor:
#      x y z
#    x 1.816850 0.000000 0.000000 
#    y 0.000000 1.734240 0.000000 
#    z 0.000000 0.000000 1.782390 
# 
# From -- ./inp_files/19634.got.cif
#   From: 2010.05.17/outbox.cif.g08.bks.cpg/sg54_10_cif.got.tgz:19634.got - 2010.06.03 13:09:01.
