data_PCOD9422664
_publ_section_title
;
Structure prediction by ZEFSAII (Michael W. Deem and Ramdas Pophale) SiO2 
 PCOD9422664
Probable space group: P C C A
;
_chemical_formula_sum "Si O2"
_cell_formula_units_Z 60
_cell_length_a 23.987874
_cell_length_b 11.848414
_cell_length_c 10.445032
_cell_angle_alpha 90.000000
_cell_angle_beta 90.000000
_cell_angle_gamma 90.000000
_cell_volume 2968.668843
_symmetry_space_group_name_H-M "P C C A"
_symmetry_group_IT_number 54
_symmetry_cell_setting 'orthorhombic'
loop_
_space_group_symop_operation_xyz
x,y,z
1/2-x,-y,z
1/2+x,-y,1/2-z
-x,y,1/2-z
-x,-y,-z
1/2+x,y,-z
1/2-x,y,1/2+z
x,-y,1/2+z
loop_
_atom_site_type_symbol
_atom_site_label
_atom_site_fract_x
_atom_site_fract_y
_atom_site_fract_z
Si Si1 0.062326 0.247042 0.313448
Si Si2 0.858535 0.607317 0.193388
Si Si3 0.461521 0.985255 0.376814
Si Si4 0.646872 0.859323 0.646951
Si Si5 0.810143 0.448131 0.412607
Si Si6 0.329642 0.801437 0.142925
Si Si7 0.037246 0.511721 0.875372
Si Si8 0.750000 0.000000 0.252422
O O1 0.062501 0.139638 0.404303
O O2 0.112342 0.213435 0.219211
O O3 0.070385 0.369258 0.376327
O O4 0.000000 0.250870 0.250000
O O5 0.849631 0.739775 0.221933
O O6 0.847369 0.526845 0.316914
O O7 0.921683 0.591560 0.145704
O O8 0.827180 0.566598 0.062588
O O9 0.500000 0.984633 0.250000
O O10 0.500000 0.000000 0.500000
O O11 0.410842 0.070764 0.346438
O O12 0.652217 0.824560 0.500569
O O13 0.700341 0.935717 0.679141
O O14 0.750000 0.500000 0.410848
O O15 0.804814 0.323808 0.351997
O O16 0.285698 0.899478 0.179240
O O17 0.000000 0.515397 0.750000
O O18 0.000000 0.500000 0.000000
#
# Coordination Sequence:
#
# PCOD9422664 Si02
#       8
#     8   8   8   8   8   8   8   4
#     4  10  21  42  70  91 127 181 218 261 346 413
#     4  11  24  43  66  98 135 171 222 277 337 399
#     4  11  24  44  69  99 131 174 227 280 339 405
#     4  11  25  42  68  98 138 176 228 292 338 408
#     4  11  23  43  67  94 129 177 223 272 334 404
#     4  11  23  45  67  93 138 181 222 282 350 416
#     4  11  24  41  67 100 135 174 219 273 335 408
#     4  12  24  44  66 100 130 178 238 286 346 404
#
# _framework density 20.211079999999999
#
# number of rings (size 3 to 8) (size 9 to 14) (size 15 to 20)
#    0.000    1.067    2.667    4.000    7.467    1.600 
#    2.400    1.333    0.000    0.000    0.000    0.000 
#    0.000    0.000    0.000    0.000    0.000    0.000 
#
# Total GULP energy -334310.563278 kJ/mol
# GULP energy per Si atom -5571.842721 kJ/mol
# Density = 2.016508 g / cm^3
# Si number density = 20.211080 Si / 1000 Ang^3
#
#
#
# Elastic Constant Matrix: (Units=GPa)
#
#
# Indices 1 2 3 4 5 6 
#
# 1 96.3610 31.5146 5.7819 0.0000 0.0000 0.0000
# 2 31.5146 124.7425 13.1425 0.0000 0.0000 0.0000
# 3 5.7819 13.1425 53.1755 0.0000 0.0000 0.0000
# 4 0.0000 0.0000 0.0000 29.6412 0.0000 0.0000
# 5 0.0000 0.0000 0.0000 0.0000 29.2018 0.0000
# 6 0.0000 0.0000 0.0000 0.0000 0.0000 36.0506
#
#
#
# Elastic Compliance Matrix: (Units=1/GPa)
#
#
# Indices 1 2 3 4 5 6 
#
# 1 0.011327 -0.002805 -0.000538 0.000000 0.000000 0.000000
# 2 -0.002805 0.008925 -0.001901 0.000000 0.000000 0.000000
# 3 -0.000538 -0.001901 0.019334 0.000000 0.000000 0.000000
# 4 0.000000 0.000000 0.000000 0.033737 0.000000 0.000000
# 5 0.000000 0.000000 0.000000 0.000000 0.034244 0.000000
# 6 0.000000 0.000000 0.000000 0.000000 0.000000 0.027739
#
#
# Mechanical properties :
#
#
# Convention : Reuss Voigt Hill
#
# Bulk Modulus (GPa) = 34.36648 41.68412 38.02530
# Shear Modulus (GPa) = 32.15540 33.90139 33.02840
#
# Velocity S-wave (km/s) = 3.99304 4.10001 4.04688
# Velocity P-wave (km/s) = 6.18868 6.56373 6.37897
#
# Compressibility (1/GPa) = 0.02909812
#
# Stress axis : x y z
#
# Youngs Moduli (GPa) = 88.28229 112.03932 51.72228
#
# Poissons Ratio (x) = 0.31427 0.02785
# Poissons Ratio (y) = 0.24763 0.09832
# Poissons Ratio (z) = 0.04753 0.21298
#
# Static dielectric constant tensor:
#      x y z
#    x 1.653680 0.000000 0.000000 
#    y 0.000000 1.862980 0.000000 
#    z 0.000000 0.000000 1.771140 
# 
# From -- ./inp_files/9616.got.cif
#   From: 2010.05.17/outbox.cif.g08.bks.cpg/sg54_5_cif.got.tgz:9616.got - 2010.06.03 13:09:01.
