data_PCOD9422050
_publ_section_title
;
Structure prediction by ZEFSAII (Michael W. Deem and Ramdas Pophale) SiO2 
 PCOD9422050
Probable space group: P C C A
;
_chemical_formula_sum "Si O2"
_cell_formula_units_Z 40
_cell_length_a 18.976205
_cell_length_b 7.553611
_cell_length_c 12.567270
_cell_angle_alpha 90.000000
_cell_angle_beta 90.000000
_cell_angle_gamma 90.000000
_cell_volume 1801.378291
_symmetry_space_group_name_H-M "P C C A"
_symmetry_group_IT_number 54
_symmetry_cell_setting 'orthorhombic'
loop_
_space_group_symop_operation_xyz
x,y,z
1/2-x,-y,z
1/2+x,-y,1/2-z
-x,y,1/2-z
-x,-y,-z
1/2+x,y,-z
1/2-x,y,1/2+z
x,-y,1/2+z
loop_
_atom_site_type_symbol
_atom_site_label
_atom_site_fract_x
_atom_site_fract_y
_atom_site_fract_z
Si Si1 0.788970 0.170000 0.794482
Si Si2 0.750000 0.500000 0.676079
Si Si3 0.907407 0.746399 0.444352
Si Si4 0.500000 0.712999 0.750000
Si Si5 0.834932 0.042817 0.572859
Si Si6 0.394900 0.587780 0.927060
O O1 0.741736 0.320675 0.742708
O O2 0.834945 0.269002 0.880084
O O3 0.835486 0.088134 0.698468
O O4 0.750000 0.000000 0.839533
O O5 0.819233 0.485471 0.607047
O O6 0.961783 0.806547 0.351436
O O7 0.926653 0.557285 0.493400
O O8 0.885839 0.886215 0.534877
O O9 0.441077 0.606781 0.818627
O O10 0.871626 0.220801 0.524950
O O11 0.750000 0.000000 0.557415
#
# Coordination Sequence:
#
# PCOD9422050 Si02
#       6
#     8   4   8   4   8   8
#     4  10  21  39  67 106 137 166 224 284 340 399
#     4  10  20  42  72 100 136 172 226 292 338 394
#     4  12  24  44  72  95 139 181 224 278 342 402
#     4  12  26  50  64 102 142 182 234 272 330 430
#     4  10  22  44  70 106 134 168 230 289 337 404
#     4  11  24  47  70 101 138 179 230 283 340 404
#
# _framework density 22.205219
#
# number of rings (size 3 to 8) (size 9 to 14) (size 15 to 20)
#    0.000    1.200    4.000    4.800    0.000    4.800 
#    3.600    2.000    0.000    0.000    0.000    0.000 
#    0.000    0.000    0.000    0.000    0.000    0.000 
#
# Total GULP energy -222735.712543 kJ/mol
# GULP energy per Si atom -5568.392814 kJ/mol
# Density = 2.215468 g / cm^3
# Si number density = 22.205219 Si / 1000 Ang^3
#
#
#
# Elastic Constant Matrix: (Units=GPa)
#
#
# Indices 1 2 3 4 5 6 
#
# 1 94.9618 39.1856 27.3698 0.0000 0.0000 0.0000
# 2 39.1856 131.8025 43.6891 0.0000 0.0000 0.0000
# 3 27.3698 43.6891 87.7220 0.0000 0.0000 0.0000
# 4 0.0000 0.0000 0.0000 3.4221 0.0000 0.0000
# 5 0.0000 0.0000 0.0000 0.0000 -24.5447 0.0000
# 6 0.0000 0.0000 0.0000 0.0000 0.0000 11.8633
#
#
#
# Elastic Compliance Matrix: (Units=1/GPa)
#
#
# Indices 1 2 3 4 5 6 
#
# 1 0.012424 -0.002885 -0.002440 0.000000 0.000000 0.000000
# 2 -0.002885 0.009757 -0.003959 0.000000 0.000000 0.000000
# 3 -0.002440 -0.003959 0.014133 0.000000 0.000000 0.000000
# 4 0.000000 0.000000 0.000000 0.292217 0.000000 0.000000
# 5 0.000000 0.000000 0.000000 0.000000 -0.040742 0.000000
# 6 0.000000 0.000000 0.000000 0.000000 0.000000 0.084293
#
#
# Mechanical properties :
#
#
# Convention : Reuss Voigt Hill
#
# Bulk Modulus (GPa) = 56.35005 59.44168 57.89587
# Shear Modulus (GPa) = 12.60824 11.76427 12.18625
#
# Velocity S-wave (km/s) = 2.38545 2.30423 2.34519
# Velocity P-wave (km/s) = 5.74623 5.82294 5.78472
#
# Compressibility (1/GPa) = 0.01774621
#
# Stress axis : x y z
#
# Youngs Moduli (GPa) = 80.48803 102.48744 70.75785
#
# Poissons Ratio (x) = 0.29569 0.17261
# Poissons Ratio (y) = 0.23222 0.28015
# Poissons Ratio (z) = 0.19635 0.40578
#
# Static dielectric constant tensor:
#      x y z
#    x 2.264510 0.000000 0.000000 
#    y 0.000000 1.919390 0.000000 
#    z 0.000000 0.000000 1.864940 
# 
# From -- ./inp_files/8805.got.cif
#   From: 2010.05.17/outbox.cif.g08.bks.cpg/sg54_5_cif.got.tgz:8805.got - 2010.06.03 13:09:01.
