data_PCOD9422539
_publ_section_title
;
Structure prediction by ZEFSAII (Michael W. Deem and Ramdas Pophale) SiO2 
 PCOD9422539
Probable space group: P C C A
;
_chemical_formula_sum "Si O2"
_cell_formula_units_Z 48
_cell_length_a 9.590991
_cell_length_b 8.738316
_cell_length_c 28.712474
_cell_angle_alpha 90.000000
_cell_angle_beta 90.000000
_cell_angle_gamma 90.000000
_cell_volume 2406.366895
_symmetry_space_group_name_H-M "P C C A"
_symmetry_group_IT_number 54
_symmetry_cell_setting 'orthorhombic'
loop_
_space_group_symop_operation_xyz
x,y,z
1/2-x,-y,z
1/2+x,-y,1/2-z
-x,y,1/2-z
-x,-y,-z
1/2+x,y,-z
1/2-x,y,1/2+z
x,-y,1/2+z
loop_
_atom_site_type_symbol
_atom_site_label
_atom_site_fract_x
_atom_site_fract_y
_atom_site_fract_z
Si Si1 0.468853 0.142113 0.466354
Si Si2 0.095397 0.531219 0.209555
Si Si3 0.656563 0.130060 0.312364
Si Si4 0.744705 0.672818 0.473471
Si Si5 0.395823 0.703533 0.126572
Si Si6 0.589714 0.979409 0.131333
O O1 0.604435 0.251545 0.464735
O O2 0.338908 0.228126 0.489147
O O3 0.500000 0.000000 0.500000
O O4 0.433209 0.073874 0.416182
O O5 0.250000 0.500000 0.225714
O O6 0.092449 0.714205 0.207543
O O7 0.080302 0.443311 0.160088
O O8 0.000000 0.466289 0.250000
O O9 0.769986 0.196158 0.350024
O O10 0.750000 0.000000 0.286097
O O11 0.522271 0.046198 0.332828
O O12 0.750000 0.500000 0.490947
O O13 0.658354 0.667370 0.424985
O O14 0.535181 0.805949 0.123896
O O15 0.750000 0.000000 0.145437
#
# Coordination Sequence:
#
# PCOD9422539 Si02
#       6
#     8   8   8   8   8   8
#     4  12  24  39  62  92 130 178 225 278 322 377
#     4  10  22  42  69  99 127 164 214 267 334 398
#     4   9  19  39  64  90 120 170 212 250 317 402
#     4  12  24  41  62  93 133 174 227 274 327 393
#     4  10  21  40  67  89 124 177 213 260 333 399
#     4  11  22  38  58  92 128 167 226 270 321 377
#
# _framework density 19.947082999999999
#
# number of rings (size 3 to 8) (size 9 to 14) (size 15 to 20)
#    0.000    1.333    3.333    3.500    0.000    1.333 
#    0.000    8.333    0.000    0.000    0.000    0.000 
#    0.000    0.000    0.000    0.000    0.000    0.000 
#
# Total GULP energy -267764.498279 kJ/mol
# GULP energy per Si atom -5578.427047 kJ/mol
# Density = 1.990168 g / cm^3
# Si number density = 19.947083 Si / 1000 Ang^3
#
#
#
# Elastic Constant Matrix: (Units=GPa)
#
#
# Indices 1 2 3 4 5 6 
#
# 1 94.0294 30.4622 38.7384 0.0000 0.0000 0.0000
# 2 30.4622 93.0303 -1.5213 0.0000 0.0000 0.0000
# 3 38.7384 -1.5213 26.3658 0.0000 0.0000 0.0000
# 4 0.0000 0.0000 0.0000 14.4777 0.0000 0.0000
# 5 0.0000 0.0000 0.0000 0.0000 32.9964 0.0000
# 6 0.0000 0.0000 0.0000 0.0000 0.0000 -11.7378
#
#
#
# Elastic Compliance Matrix: (Units=1/GPa)
#
#
# Indices 1 2 3 4 5 6 
#
# 1 0.039048 -0.013737 -0.058165 0.000000 0.000000 0.000000
# 2 -0.013737 0.015592 0.021083 0.000000 0.000000 0.000000
# 3 -0.058165 0.021083 0.124604 0.000000 0.000000 0.000000
# 4 0.000000 0.000000 0.000000 0.069072 0.000000 0.000000
# 5 0.000000 0.000000 0.000000 0.000000 0.030306 0.000000
# 6 0.000000 0.000000 0.000000 0.000000 0.000000 -0.085195
#
#
# Mechanical properties :
#
#
# Convention : Reuss Voigt Hill
#
# Bulk Modulus (GPa) = 12.88548 38.75379 25.81963
# Shear Modulus (GPa) = 15.57956 16.86368 16.22162
#
# Velocity S-wave (km/s) = 2.79775 2.91077 2.85482
# Velocity P-wave (km/s) = 4.11222 5.54682 4.88250
#
# Compressibility (1/GPa) = 0.07760675
#
# Stress axis : x y z
#
# Youngs Moduli (GPa) = 25.60943 64.13502 8.02544
#
# Poissons Ratio (x) = 0.88104 0.46680
# Poissons Ratio (y) = 0.35180 -0.16920
# Poissons Ratio (z) = 1.48956 -1.35217
#
# Static dielectric constant tensor:
#      x y z
#    x 1.698920 0.000000 0.000000 
#    y 0.000000 1.692560 0.000000 
#    z 0.000000 0.000000 1.699860 
# 
# From -- ./inp_files/27697.got.cif
#   From: 2010.05.17/outbox.cif.g08.bks.cpg/sg54_14_cif.got.tgz:27697.got - 2010.06.03 13:09:01.
