data_PCOD9422641
_publ_section_title
;
Structure prediction by ZEFSAII (Michael W. Deem and Ramdas Pophale) SiO2 
 PCOD9422641
Probable space group: P C C A
;
_chemical_formula_sum "Si O2"
_cell_formula_units_Z 24
_cell_length_a 12.632541
_cell_length_b 5.175481
_cell_length_c 13.913946
_cell_angle_alpha 90.000000
_cell_angle_beta 90.000000
_cell_angle_gamma 90.000000
_cell_volume 909.686498
_symmetry_space_group_name_H-M "P C C A"
_symmetry_group_IT_number 54
_symmetry_cell_setting 'orthorhombic'
loop_
_space_group_symop_operation_xyz
x,y,z
1/2-x,-y,z
1/2+x,-y,1/2-z
-x,y,1/2-z
-x,-y,-z
1/2+x,y,-z
1/2-x,y,1/2+z
x,-y,1/2+z
loop_
_atom_site_type_symbol
_atom_site_label
_atom_site_fract_x
_atom_site_fract_y
_atom_site_fract_z
Si Si1 0.140145 0.415019 0.901419
Si Si2 0.619711 0.179972 0.290685
Si Si3 0.428896 0.684254 0.101071
O O1 0.250000 0.500000 0.946435
O O2 0.176562 0.257971 0.807499
O O3 0.054286 0.638757 0.874741
O O4 0.080332 0.266582 0.987258
O O5 0.500000 0.174392 0.250000
O O6 0.622390 0.413521 0.366130
O O7 0.631082 0.907889 0.342061
#
# Coordination Sequence:
#
# PCOD9422641 Si02
#       3
#     8   8   8
#     4  10  23  44  71 103 138 184 237 285 345 418
#     4  10  21  42  67  92 130 178 224 278 345 405
#     4  10  23  44  67  96 138 179 222 285 346 403
#
# _framework density 26.382714
#
# number of rings (size 3 to 8) (size 9 to 14) (size 15 to 20)
#    0.000    2.000    0.000    3.000    0.000   16.000 
#    0.000   40.000    0.000    0.000    0.000    0.000 
#    0.000    0.000    0.000    0.000    0.000    0.000 
#
# Total GULP energy -134247.677512 kJ/mol
# GULP energy per Si atom -5593.653230 kJ/mol
# Density = 2.632267 g / cm^3
# Si number density = 26.382714 Si / 1000 Ang^3
#
#
#
# Elastic Constant Matrix: (Units=GPa)
#
#
# Indices 1 2 3 4 5 6 
#
# 1 98.9008 26.9407 13.5098 0.0000 0.0000 0.0000
# 2 26.9407 178.8526 76.3926 0.0000 0.0000 0.0000
# 3 13.5098 76.3926 172.4690 0.0000 0.0000 0.0000
# 4 0.0000 0.0000 0.0000 22.0697 0.0000 0.0000
# 5 0.0000 0.0000 0.0000 0.0000 23.5342 0.0000
# 6 0.0000 0.0000 0.0000 0.0000 0.0000 23.5970
#
#
#
# Elastic Compliance Matrix: (Units=1/GPa)
#
#
# Indices 1 2 3 4 5 6 
#
# 1 0.010547 -0.001524 -0.000151 0.000000 0.000000 0.000000
# 2 -0.001524 0.007116 -0.003033 0.000000 0.000000 0.000000
# 3 -0.000151 -0.003033 0.007153 0.000000 0.000000 0.000000
# 4 0.000000 0.000000 0.000000 0.045311 0.000000 0.000000
# 5 0.000000 0.000000 0.000000 0.000000 0.042491 0.000000
# 6 0.000000 0.000000 0.000000 0.000000 0.000000 0.042378
#
#
# Mechanical properties :
#
#
# Convention : Reuss Voigt Hill
#
# Bulk Modulus (GPa) = 64.93236 75.98987 70.46112
# Shear Modulus (GPa) = 29.49051 36.06546 32.77798
#
# Velocity S-wave (km/s) = 3.34697 3.70132 3.52860
# Velocity P-wave (km/s) = 6.29297 6.86526 6.58533
#
# Compressibility (1/GPa) = 0.01540064
#
# Stress axis : x y z
#
# Youngs Moduli (GPa) = 94.81404 140.52689 139.79745
#
# Poissons Ratio (x) = 0.21419 0.02112
# Poissons Ratio (y) = 0.14451 0.42395
# Poissons Ratio (z) = 0.01432 0.42616
#
# Static dielectric constant tensor:
#      x y z
#    x 2.288860 0.000000 0.000000 
#    y 0.000000 2.111610 0.000000 
#    z 0.000000 0.000000 2.215530 
# 
# From -- ./inp_files/12868.got.cif
#   From: 2010.05.17/outbox.cif.g08.bks.cpg/sg54_7_cif.got.tgz:12868.got - 2010.06.03 13:09:01.
