data_PCOD9422267
_publ_section_title
;
Structure prediction by ZEFSAII (Michael W. Deem and Ramdas Pophale) SiO2 
 PCOD9422267
Probable space group: P C C A
;
_chemical_formula_sum "Si O2"
_cell_formula_units_Z 40
_cell_length_a 9.039604
_cell_length_b 7.452800
_cell_length_c 24.975604
_cell_angle_alpha 90.000000
_cell_angle_beta 90.000000
_cell_angle_gamma 90.000000
_cell_volume 1682.615450
_symmetry_space_group_name_H-M "P C C A"
_symmetry_group_IT_number 54
_symmetry_cell_setting 'orthorhombic'
loop_
_space_group_symop_operation_xyz
x,y,z
1/2-x,-y,z
1/2+x,-y,1/2-z
-x,y,1/2-z
-x,-y,-z
1/2+x,y,-z
1/2-x,y,1/2+z
x,-y,1/2+z
loop_
_atom_site_type_symbol
_atom_site_label
_atom_site_fract_x
_atom_site_fract_y
_atom_site_fract_z
Si Si1 0.040245 0.731454 0.925952
Si Si2 0.918105 0.198062 0.195721
Si Si3 0.916699 0.768314 0.197815
Si Si4 0.763819 0.280115 0.493402
Si Si5 0.397428 0.380790 0.101139
O O1 0.013895 0.778115 0.863839
O O2 0.918664 0.786440 0.970225
O O3 0.015549 0.516684 0.924657
O O4 0.198545 0.783733 0.950371
O O5 0.754850 0.284350 0.193273
O O6 0.000000 0.262489 0.250000
O O7 0.909852 0.983677 0.201494
O O8 0.000000 0.698175 0.250000
O O9 0.020124 0.710421 0.149465
O O10 0.750000 0.500000 0.494482
O O11 0.654894 0.240792 0.443385
O O12 0.250000 0.500000 0.116223
#
# Coordination Sequence:
#
# PCOD9422267 Si02
#       5
#     8   8   8   8   8
#     4  10  21  37  64  90 125 161 212 261 306 394
#     4  10  24  42  64  94 125 172 214 254 331 383
#     4  10  23  43  66  85 129 172 211 264 321 385
#     4   9  19  35  59  90 122 163 203 253 324 369
#     4   9  20  38  62  95 119 159 211 264 316 369
#
# _framework density 23.772516
#
# number of rings (size 3 to 8) (size 9 to 14) (size 15 to 20)
#    0.000    2.800    0.000    2.400   11.200    0.800 
#    0.000    1.000    0.000    0.000    0.000    0.000 
#    0.000    0.000    0.000    0.000    0.000    0.000 
#
# Total GULP energy -223058.318327 kJ/mol
# GULP energy per Si atom -5576.457958 kJ/mol
# Density = 2.371841 g / cm^3
# Si number density = 23.772516 Si / 1000 Ang^3
#
#
#
# Elastic Constant Matrix: (Units=GPa)
#
#
# Indices 1 2 3 4 5 6 
#
# 1 122.2333 17.1847 88.7910 0.0000 0.0000 0.0000
# 2 17.1847 49.8747 7.3103 0.0000 0.0000 0.0000
# 3 88.7910 7.3103 165.3766 0.0000 0.0000 0.0000
# 4 0.0000 0.0000 0.0000 11.3204 0.0000 0.0000
# 5 0.0000 0.0000 0.0000 0.0000 36.0918 0.0000
# 6 0.0000 0.0000 0.0000 0.0000 0.0000 13.1959
#
#
#
# Elastic Compliance Matrix: (Units=1/GPa)
#
#
# Indices 1 2 3 4 5 6 
#
# 1 0.014082 -0.003768 -0.007394 0.000000 0.000000 0.000000
# 2 -0.003768 0.021189 0.001087 0.000000 0.000000 0.000000
# 3 -0.007394 0.001087 0.009969 0.000000 0.000000 0.000000
# 4 0.000000 0.000000 0.000000 0.088336 0.000000 0.000000
# 5 0.000000 0.000000 0.000000 0.000000 0.027707 0.000000
# 6 0.000000 0.000000 0.000000 0.000000 0.000000 0.075781
#
#
# Mechanical properties :
#
#
# Convention : Reuss Voigt Hill
#
# Bulk Modulus (GPa) = 39.85903 62.67295 51.26599
# Shear Modulus (GPa) = 18.82681 27.06819 22.94750
#
# Velocity S-wave (km/s) = 2.81723 3.37803 3.11029
# Velocity P-wave (km/s) = 5.23313 6.45256 5.87457
#
# Compressibility (1/GPa) = 0.02508842
#
# Stress axis : x y z
#
# Youngs Moduli (GPa) = 71.01295 47.19344 100.31446
#
# Poissons Ratio (x) = 0.17784 0.74173
# Poissons Ratio (y) = 0.26760 -0.10900
# Poissons Ratio (z) = 0.52507 -0.05128
#
# Static dielectric constant tensor:
#      x y z
#    x 1.997340 0.000000 0.000000 
#    y 0.000000 1.950000 0.000000 
#    z 0.000000 0.000000 1.927680 
# 
# From -- ./inp_files/23228.got.cif
#   From: 2010.05.17/outbox.cif.g08.bks.cpg/sg54_12_cif.got.tgz:23228.got - 2010.06.03 13:09:01.
