data_PCOD9422609
_publ_section_title
;
Structure prediction by ZEFSAII (Michael W. Deem and Ramdas Pophale) SiO2 
 PCOD9422609
Probable space group: P C C A
;
_chemical_formula_sum "Si O2"
_cell_formula_units_Z 48
_cell_length_a 14.396145
_cell_length_b 8.557431
_cell_length_c 17.390792
_cell_angle_alpha 90.000000
_cell_angle_beta 90.000000
_cell_angle_gamma 90.000000
_cell_volume 2142.441534
_symmetry_space_group_name_H-M "P C C A"
_symmetry_group_IT_number 54
_symmetry_cell_setting 'orthorhombic'
loop_
_space_group_symop_operation_xyz
x,y,z
1/2-x,-y,z
1/2+x,-y,1/2-z
-x,y,1/2-z
-x,-y,-z
1/2+x,y,-z
1/2-x,y,1/2+z
x,-y,1/2+z
loop_
_atom_site_type_symbol
_atom_site_label
_atom_site_fract_x
_atom_site_fract_y
_atom_site_fract_z
Si Si1 0.315246 0.647447 0.153629
Si Si2 0.752534 0.815672 0.210934
Si Si3 0.677533 0.376988 0.572317
Si Si4 0.313072 0.863671 0.549585
Si Si5 0.568547 0.851280 0.810585
Si Si6 0.498930 0.514010 0.841475
O O1 0.250000 0.500000 0.175699
O O2 0.324973 0.757269 0.228588
O O3 0.258927 0.750539 0.093428
O O4 0.412041 0.577685 0.125492
O O5 0.738115 0.716236 0.135316
O O6 0.848288 0.788009 0.256521
O O7 0.750000 0.000000 0.196729
O O8 0.750000 0.500000 0.535938
O O9 0.640455 0.247558 0.512998
O O10 0.593555 0.461845 0.615648
O O11 0.382121 0.929137 0.615831
O O12 0.250000 0.000000 0.514702
O O13 0.500000 0.935385 0.750000
O O14 0.516760 0.699783 0.845010
O O15 0.500000 0.479061 0.750000
#
# Coordination Sequence:
#
# PCOD9422609 Si02
#       6
#     8   8   8   8   8   8
#     4  11  19  41  68  95 128 177 230 282 331 401
#     4  11  22  41  66  96 141 180 220 280 350 408
#     4  12  25  43  69  98 136 183 232 283 341 408
#     4  11  25  46  65  95 141 185 219 280 358 410
#     4  10  21  41  69 100 130 172 230 284 335 403
#     4  11  21  38  70 104 128 166 234 289 327 393
#
# _framework density 22.404343999999998
#
# number of rings (size 3 to 8) (size 9 to 14) (size 15 to 20)
#    0.000    1.000    5.000    5.500    0.000    0.667 
#    9.000    0.833    0.000    0.000    0.000    0.000 
#    0.000    0.000    0.000    0.000    0.000    0.000 
#
# Total GULP energy -268191.330366 kJ/mol
# GULP energy per Si atom -5587.319383 kJ/mol
# Density = 2.235335 g / cm^3
# Si number density = 22.404344 Si / 1000 Ang^3
#
#
#
# Elastic Constant Matrix: (Units=GPa)
#
#
# Indices 1 2 3 4 5 6 
#
# 1 92.2603 16.1906 10.9577 0.0000 0.0000 0.0000
# 2 16.1906 76.3801 6.3514 0.0000 0.0000 0.0000
# 3 10.9577 6.3514 63.2813 0.0000 0.0000 0.0000
# 4 0.0000 0.0000 0.0000 26.4631 0.0000 0.0000
# 5 0.0000 0.0000 0.0000 0.0000 23.0729 0.0000
# 6 0.0000 0.0000 0.0000 0.0000 0.0000 23.4320
#
#
#
# Elastic Compliance Matrix: (Units=1/GPa)
#
#
# Indices 1 2 3 4 5 6 
#
# 1 0.011447 -0.002281 -0.001753 0.000000 0.000000 0.000000
# 2 -0.002281 0.013657 -0.000976 0.000000 0.000000 0.000000
# 3 -0.001753 -0.000976 0.016204 0.000000 0.000000 0.000000
# 4 0.000000 0.000000 0.000000 0.037788 0.000000 0.000000
# 5 0.000000 0.000000 0.000000 0.000000 0.043341 0.000000
# 6 0.000000 0.000000 0.000000 0.000000 0.000000 0.042677
#
#
# Mechanical properties :
#
#
# Convention : Reuss Voigt Hill
#
# Bulk Modulus (GPa) = 31.96043 33.21347 32.58695
# Shear Modulus (GPa) = 26.94493 27.82174 27.38333
#
# Velocity S-wave (km/s) = 3.47171 3.52774 3.49984
# Velocity P-wave (km/s) = 5.51059 5.60803 5.55953
#
# Compressibility (1/GPa) = 0.03128869
#
# Stress axis : x y z
#
# Youngs Moduli (GPa) = 87.35625 73.22246 61.71321
#
# Poissons Ratio (x) = 0.16700 0.10820
# Poissons Ratio (y) = 0.19924 0.06022
# Poissons Ratio (z) = 0.15316 0.07145
#
# Static dielectric constant tensor:
#      x y z
#    x 1.851560 0.000000 0.000000 
#    y 0.000000 1.837410 0.000000 
#    z 0.000000 0.000000 1.855290 
# 
# From -- ./inp_files/18046.got.cif
#   From: 2010.05.17/outbox.cif.g08.bks.cpg/sg54_10_cif.got.tgz:18046.got - 2010.06.03 13:09:01.
