data_PCOD9422459
_publ_section_title
;
Structure prediction by ZEFSAII (Michael W. Deem and Ramdas Pophale) SiO2 
 PCOD9422459
Probable space group: P C C A
;
_chemical_formula_sum "Si O2"
_cell_formula_units_Z 48
_cell_length_a 17.023924
_cell_length_b 8.040403
_cell_length_c 14.357552
_cell_angle_alpha 90.000000
_cell_angle_beta 90.000000
_cell_angle_gamma 90.000000
_cell_volume 1965.250370
_symmetry_space_group_name_H-M "P C C A"
_symmetry_group_IT_number 54
_symmetry_cell_setting 'orthorhombic'
loop_
_space_group_symop_operation_xyz
x,y,z
1/2-x,-y,z
1/2+x,-y,1/2-z
-x,y,1/2-z
-x,-y,-z
1/2+x,y,-z
1/2-x,y,1/2+z
x,-y,1/2+z
loop_
_atom_site_type_symbol
_atom_site_label
_atom_site_fract_x
_atom_site_fract_y
_atom_site_fract_z
Si Si1 0.855043 0.732246 0.855106
Si Si2 0.835701 0.420963 0.071315
Si Si3 0.836996 0.930911 0.681333
Si Si4 0.669989 0.770211 0.894739
Si Si5 0.911465 0.936592 0.005211
Si Si6 0.407631 0.591307 0.759234
O O1 0.874628 0.874459 0.778418
O O2 0.762994 0.745169 0.881173
O O3 0.874725 0.563898 0.801372
O O4 0.902690 0.765373 0.949391
O O5 0.750000 0.500000 0.064687
O O6 0.829735 0.244745 0.125556
O O7 0.885546 0.544401 0.135512
O O8 0.861301 0.368612 0.967999
O O9 0.883361 0.051490 0.611362
O O10 0.750000 0.000000 0.697427
O O11 0.645934 0.939954 0.946318
O O12 0.632494 0.745600 0.793293
O O13 0.000000 0.000000 0.000000
O O14 0.500000 0.604723 0.750000
#
# Coordination Sequence:
#
# PCOD9422459 Si02
#       6
#     8   8   8   8   8   8
#     4  11  23  43  73  90 136 181 224 275 343 423
#     4  10  21  39  67  94 127 171 222 269 331 410
#     4  10  21  39  65  95 126 171 223 272 331 410
#     4  11  23  46  67  99 130 182 226 275 340 425
#     4  11  25  42  65  99 137 171 226 284 346 405
#     4  11  25  42  65  98 138 172 223 283 345 397
#
# _framework density 24.424368999999999
#
# number of rings (size 3 to 8) (size 9 to 14) (size 15 to 20)
#    0.000    1.333    0.000    7.000    7.000    0.667 
#   12.000    0.000    0.000    0.000    0.000    0.000 
#    0.000    0.000    0.000    0.000    0.000    0.000 
#
# Total GULP energy -268772.094773 kJ/mol
# GULP energy per Si atom -5599.418641 kJ/mol
# Density = 2.436878 g / cm^3
# Si number density = 24.424369 Si / 1000 Ang^3
#
#
#
# Elastic Constant Matrix: (Units=GPa)
#
#
# Indices 1 2 3 4 5 6 
#
# 1 77.8583 -10.7967 -2.8233 0.0000 0.0000 0.0000
# 2 -10.7967 58.5460 28.4318 0.0000 0.0000 0.0000
# 3 -2.8233 28.4318 162.0724 0.0000 0.0000 0.0000
# 4 0.0000 0.0000 0.0000 60.8984 0.0000 0.0000
# 5 0.0000 0.0000 0.0000 0.0000 -6.2918 0.0000
# 6 0.0000 0.0000 0.0000 0.0000 0.0000 24.1044
#
#
#
# Elastic Compliance Matrix: (Units=1/GPa)
#
#
# Indices 1 2 3 4 5 6 
#
# 1 0.013188 0.002537 -0.000215 0.000000 0.000000 0.000000
# 2 0.002537 0.019159 -0.003317 0.000000 0.000000 0.000000
# 3 -0.000215 -0.003317 0.006748 0.000000 0.000000 0.000000
# 4 0.000000 0.000000 0.000000 0.016421 0.000000 0.000000
# 5 0.000000 0.000000 0.000000 0.000000 -0.158937 0.000000
# 6 0.000000 0.000000 0.000000 0.000000 0.000000 0.041486
#
#
# Mechanical properties :
#
#
# Convention : Reuss Voigt Hill
#
# Bulk Modulus (GPa) = 26.95124 36.45558 31.70341
# Shear Modulus (GPa) = -105.09627 34.65319 -35.22154
#
# Velocity S-wave (km/s) = -6.56679 3.77078 -3.80157
# Velocity P-wave (km/s) = 6.81457 5.82380 2.50217
#
# Compressibility (1/GPa) = 0.03710404
#
# Stress axis : x y z
#
# Youngs Moduli (GPa) = 75.82776 52.19443 148.18782
#
# Poissons Ratio (x) = -0.13239 0.03190
# Poissons Ratio (y) = -0.19234 0.49151
# Poissons Ratio (z) = 0.01632 0.17312
#
# Static dielectric constant tensor:
#      x y z
#    x 1.823740 0.000000 0.000000 
#    y 0.000000 2.030790 0.000000 
#    z 0.000000 0.000000 1.971730 
# 
# From -- ./inp_files/14074.got.cif
#   From: 2010.05.17/outbox.cif.g08.bks.cpg/sg54_8_cif.got.tgz:14074.got - 2010.06.03 13:09:01.
