data_PCOD9422330
_publ_section_title
;
Structure prediction by ZEFSAII (Michael W. Deem and Ramdas Pophale) SiO2 
 PCOD9422330
Probable space group: P C C A
;
_chemical_formula_sum "Si O2"
_cell_formula_units_Z 56
_cell_length_a 26.694572
_cell_length_b 5.487721
_cell_length_c 15.605669
_cell_angle_alpha 90.000000
_cell_angle_beta 90.000000
_cell_angle_gamma 90.000000
_cell_volume 2286.111333
_symmetry_space_group_name_H-M "P C C A"
_symmetry_group_IT_number 54
_symmetry_cell_setting 'orthorhombic'
loop_
_space_group_symop_operation_xyz
x,y,z
1/2-x,-y,z
1/2+x,-y,1/2-z
-x,y,1/2-z
-x,-y,-z
1/2+x,y,-z
1/2-x,y,1/2+z
x,-y,1/2+z
loop_
_atom_site_type_symbol
_atom_site_label
_atom_site_fract_x
_atom_site_fract_y
_atom_site_fract_z
Si Si1 0.303878 0.883681 0.853195
Si Si2 0.807892 0.015593 0.339320
Si Si3 0.353380 0.607878 0.397171
Si Si4 0.016227 0.248085 0.118212
Si Si5 0.111154 0.379904 0.216218
Si Si6 0.891641 0.754651 0.429994
Si Si7 0.007616 0.237561 0.921792
O O1 0.308353 0.862592 0.749679
O O2 0.313590 0.614548 0.890128
O O3 0.250000 0.000000 0.871422
O O4 0.338983 0.105917 0.885080
O O5 0.845565 0.936553 0.414414
O O6 0.750000 0.000000 0.367802
O O7 0.834416 0.263718 0.306703
O O8 0.388744 0.564343 0.315830
O O9 0.377161 0.589659 0.489971
O O10 0.064418 0.221473 0.180053
O O11 0.992462 0.515922 0.132570
O O12 0.978992 0.016463 0.124381
O O13 0.030392 0.277640 0.016213
O O14 0.106627 0.616761 0.159495
O O15 0.949039 0.824686 0.442400
#
# Coordination Sequence:
#
# PCOD9422330 Si02
#       7
#     8   8   8   8   8   8   8
#     4  10  22  43  60  82 117 157 205 252 302 354
#     4  10  21  38  61  85 117 162 202 253 305 364
#     4  11  24  37  62  88 117 162 198 252 308 362
#     4   9  17  32  59  83 114 152 197 239 299 360
#     4  10  21  40  59  85 123 157 205 247 315 357
#     4  11  22  38  59  87 125 154 207 249 307 368
#     4   9  18  32  56  88 111 152 196 242 295 361
#
# _framework density 24.495743000000001
#
# number of rings (size 3 to 8) (size 9 to 14) (size 15 to 20)
#    0.000    2.000    2.857    0.429    2.000    1.143 
#    2.571    0.714    0.000    0.000    0.000    8.000 
#    0.000    0.000    0.000    0.000    0.000    0.000 
#
# Total GULP energy -312221.021281 kJ/mol
# GULP energy per Si atom -5575.375380 kJ/mol
# Density = 2.443999 g / cm^3
# Si number density = 24.495743 Si / 1000 Ang^3
#
#
#
# Elastic Constant Matrix: (Units=GPa)
#
#
# Indices 1 2 3 4 5 6 
#
# 1 108.1006 15.1228 35.0908 0.0000 0.0000 0.0000
# 2 15.1228 114.4384 15.8547 0.0000 0.0000 0.0000
# 3 35.0908 15.8547 22.9333 0.0000 0.0000 0.0000
# 4 0.0000 0.0000 0.0000 0.4673 0.0000 0.0000
# 5 0.0000 0.0000 0.0000 0.0000 15.4517 0.0000
# 6 0.0000 0.0000 0.0000 0.0000 0.0000 33.0060
#
#
#
# Elastic Compliance Matrix: (Units=1/GPa)
#
#
# Indices 1 2 3 4 5 6 
#
# 1 0.018657 0.001647 -0.029686 0.000000 0.000000 0.000000
# 2 0.001647 0.009809 -0.009302 0.000000 0.000000 0.000000
# 3 -0.029686 -0.009302 0.095459 0.000000 0.000000 0.000000
# 4 0.000000 0.000000 0.000000 2.140173 0.000000 0.000000
# 5 0.000000 0.000000 0.000000 0.000000 0.064718 0.000000
# 6 0.000000 0.000000 0.000000 0.000000 0.000000 0.030298
#
#
# Mechanical properties :
#
#
# Convention : Reuss Voigt Hill
#
# Bulk Modulus (GPa) = 20.30733 41.95656 31.13194
# Shear Modulus (GPa) = 2.04064 21.74525 11.89295
#
# Velocity S-wave (km/s) = 0.91371 2.98269 2.20582
# Velocity P-wave (km/s) = 3.06941 5.38769 4.38455
#
# Compressibility (1/GPa) = 0.04924331
#
# Stress axis : x y z
#
# Youngs Moduli (GPa) = 53.60056 101.94296 10.47574
#
# Poissons Ratio (x) = -0.16794 0.31098
# Poissons Ratio (y) = -0.08830 0.09745
# Poissons Ratio (z) = 1.59117 0.94830
#
# Static dielectric constant tensor:
#      x y z
#    x 2.024440 0.000000 0.000000 
#    y 0.000000 2.538830 0.000000 
#    z 0.000000 0.000000 1.925280 
# 
# From -- ./inp_files/15339.got.cif
#   From: 2010.05.17/outbox.cif.g08.bks.cpg/sg54_8_cif.got.tgz:15339.got - 2010.06.03 13:09:01.
