data_PCOD9422636
_publ_section_title
;
Structure prediction by ZEFSAII (Michael W. Deem and Ramdas Pophale) SiO2 
 PCOD9422636
Probable space group: P C C A
;
_chemical_formula_sum "Si O2"
_cell_formula_units_Z 52
_cell_length_a 19.778374
_cell_length_b 8.533058
_cell_length_c 14.537896
_cell_angle_alpha 90.000000
_cell_angle_beta 90.000000
_cell_angle_gamma 90.000000
_cell_volume 2453.560889
_symmetry_space_group_name_H-M "P C C A"
_symmetry_group_IT_number 54
_symmetry_cell_setting 'orthorhombic'
loop_
_space_group_symop_operation_xyz
x,y,z
1/2-x,-y,z
1/2+x,-y,1/2-z
-x,y,1/2-z
-x,-y,-z
1/2+x,y,-z
1/2-x,y,1/2+z
x,-y,1/2+z
loop_
_atom_site_type_symbol
_atom_site_label
_atom_site_fract_x
_atom_site_fract_y
_atom_site_fract_z
Si Si1 0.115501 0.674999 0.188039
Si Si2 0.539259 0.109801 0.898699
Si Si3 0.748724 0.186571 0.504452
Si Si4 0.000000 0.850101 0.250000
Si Si5 0.090054 0.176409 0.498910
Si Si6 0.337582 0.321508 0.661819
Si Si7 0.734769 0.182265 0.207497
O O1 0.061665 0.730176 0.263820
O O2 0.082345 0.724488 0.091950
O O3 0.141784 0.500754 0.175743
O O4 0.178353 0.782558 0.216635
O O5 0.595344 0.219428 0.853864
O O6 0.513925 0.972838 0.831350
O O7 0.578123 0.008881 0.977768
O O8 0.473099 0.204692 0.931674
O O9 0.668279 0.211732 0.523957
O O10 0.786387 0.283369 0.423852
O O11 0.783489 0.223439 0.602661
O O12 0.750000 0.000000 0.481348
O O13 0.300096 0.270362 0.754631
O O14 0.750000 0.000000 0.206565
#
# Coordination Sequence:
#
# PCOD9422636 Si02
#       7
#     8   8   8   4   8   8   8
#     4  11  25  45  67  97 149 180 223 294 356 418
#     4  10  23  39  72  96 134 180 241 283 337 425
#     4  11  23  40  74 102 132 179 240 289 344 420
#     4  10  24  44  66  96 136 186 232 288 342 414
#     4  10  21  42  65  98 131 183 228 285 344 406
#     4  12  24  46  68 103 143 184 229 295 361 419
#     4  11  24  42  71 102 134 183 239 289 340 416
#
# _framework density 21.193686
#
# number of rings (size 3 to 8) (size 9 to 14) (size 15 to 20)
#    0.000    1.231    3.077    2.769    6.462    2.462 
#    5.538    0.000    0.000    0.000    0.000    0.000 
#    0.000    0.000    0.000    0.000    0.000    0.000 
#
# Total GULP energy -289905.433585 kJ/mol
# GULP energy per Si atom -5575.104492 kJ/mol
# Density = 2.114545 g / cm^3
# Si number density = 21.193686 Si / 1000 Ang^3
#
#
#
# Elastic Constant Matrix: (Units=GPa)
#
#
# Indices 1 2 3 4 5 6 
#
# 1 121.6401 34.1414 30.6805 0.0000 0.0000 0.0000
# 2 34.1414 66.5698 43.2135 0.0000 0.0000 0.0000
# 3 30.6805 43.2135 83.9729 0.0000 0.0000 0.0000
# 4 0.0000 0.0000 0.0000 55.6970 0.0000 0.0000
# 5 0.0000 0.0000 0.0000 0.0000 30.6297 0.0000
# 6 0.0000 0.0000 0.0000 0.0000 0.0000 31.7352
#
#
#
# Elastic Compliance Matrix: (Units=1/GPa)
#
#
# Indices 1 2 3 4 5 6 
#
# 1 0.009725 -0.004026 -0.001481 0.000000 0.000000 0.000000
# 2 -0.004026 0.024224 -0.010995 0.000000 0.000000 0.000000
# 3 -0.001481 -0.010995 0.018108 0.000000 0.000000 0.000000
# 4 0.000000 0.000000 0.000000 0.017954 0.000000 0.000000
# 5 0.000000 0.000000 0.000000 0.000000 0.032648 0.000000
# 6 0.000000 0.000000 0.000000 0.000000 0.000000 0.031511
#
#
# Mechanical properties :
#
#
# Convention : Reuss Voigt Hill
#
# Bulk Modulus (GPa) = 52.48739 54.25042 53.36890
# Shear Modulus (GPa) = 28.81437 34.55554 31.68495
#
# Velocity S-wave (km/s) = 3.69124 4.04228 3.87074
# Velocity P-wave (km/s) = 6.55640 6.88765 6.72406
#
# Compressibility (1/GPa) = 0.01905220
#
# Stress axis : x y z
#
# Youngs Moduli (GPa) = 102.83274 41.28148 55.22430
#
# Poissons Ratio (x) = 0.16619 0.08180
# Poissons Ratio (y) = 0.41399 0.60719
# Poissons Ratio (z) = 0.15232 0.45389
#
# Static dielectric constant tensor:
#      x y z
#    x 1.873130 0.000000 0.000000 
#    y 0.000000 1.825310 0.000000 
#    z 0.000000 0.000000 1.867100 
# 
# From -- ./inp_files/14624.got.cif
#   From: 2010.05.17/outbox.cif.g08.bks.cpg/sg54_8_cif.got.tgz:14624.got - 2010.06.03 13:09:01.
