data_PCOD9422171
_publ_section_title
;
Structure prediction by ZEFSAII (Michael W. Deem and Ramdas Pophale) SiO2 
 PCOD9422171
Probable space group: P C C A
;
_chemical_formula_sum "Si O2"
_cell_formula_units_Z 64
_cell_length_a 8.263666
_cell_length_b 20.595648
_cell_length_c 17.707529
_cell_angle_alpha 90.000000
_cell_angle_beta 90.000000
_cell_angle_gamma 90.000000
_cell_volume 3013.742746
_symmetry_space_group_name_H-M "P C C A"
_symmetry_group_IT_number 54
_symmetry_cell_setting 'orthorhombic'
loop_
_space_group_symop_operation_xyz
x,y,z
1/2-x,-y,z
1/2+x,-y,1/2-z
-x,y,1/2-z
-x,-y,-z
1/2+x,y,-z
1/2-x,y,1/2+z
x,-y,1/2+z
loop_
_atom_site_type_symbol
_atom_site_label
_atom_site_fract_x
_atom_site_fract_y
_atom_site_fract_z
Si Si1 0.440365 0.488034 0.331334
Si Si2 0.425396 0.624106 0.564230
Si Si3 0.046475 0.377692 0.103611
Si Si4 0.565270 0.241401 0.831241
Si Si5 0.387461 0.874127 0.063460
Si Si6 0.557692 0.988786 0.330855
Si Si7 0.451857 0.259374 0.168291
Si Si8 0.004513 0.875820 0.104584
O O1 0.250000 0.500000 0.330802
O O2 0.500000 0.463918 0.250000
O O3 0.491730 0.436794 0.394848
O O4 0.518887 0.557648 0.348817
O O5 0.451752 0.620044 0.475259
O O6 0.235614 0.624556 0.582811
O O7 0.492735 0.690242 0.601844
O O8 0.998347 0.312334 0.147568
O O9 0.500000 0.220043 0.750000
O O10 0.535007 0.188980 0.896793
O O11 0.759069 0.249122 0.828302
O O12 0.196328 0.874818 0.083357
O O13 0.466322 0.937239 0.102396
O O14 0.411116 0.874501 0.974321
O O15 0.500000 0.963655 0.250000
O O16 0.475678 0.057669 0.350288
O O17 0.750000 0.000000 0.325573
O O18 0.500000 0.285590 0.250000
O O19 0.529699 0.189170 0.151930
#
# Coordination Sequence:
#
# PCOD9422171 Si02
#       8
#     8   8   8   8   8   8   8   8
#     4  12  25  42  63  88 118 152 190 236 285 340
#     4  11  23  40  61  87 117 152 192 236 285 340
#     4  11  23  40  61  87 117 152 192 236 285 340
#     4  10  22  38  58  84 115 149 190 235 283 337
#     4  10  21  37  56  83 114 148 189 234 281 335
#     4  10  21  36  56  82 114 148 189 234 280 334
#     4  10  22  38  58  84 115 149 190 235 283 337
#     4  10  21  37  56  83 114 148 189 234 281 335
#
# _framework density 21.236052000000001
#
# number of rings (size 3 to 8) (size 9 to 14) (size 15 to 20)
#    0.000    1.500    0.000    4.875    0.000    6.000 
#    0.000    0.000    0.000    0.000    0.000    0.000 
#    0.000    0.000    0.000    0.000    0.000    0.000 
#
# Total GULP energy -358029.527516 kJ/mol
# GULP energy per Si atom -5594.211367 kJ/mol
# Density = 2.118772 g / cm^3
# Si number density = 21.236052 Si / 1000 Ang^3
#
#
#
# Elastic Constant Matrix: (Units=GPa)
#
#
# Indices 1 2 3 4 5 6 
#
# 1 21.0820 -1.8180 -8.3399 0.0000 0.0000 0.0000
# 2 -1.8180 67.3878 -19.4026 0.0000 0.0000 0.0000
# 3 -8.3399 -19.4026 67.6853 0.0000 0.0000 0.0000
# 4 0.0000 0.0000 0.0000 -56.7532 0.0000 0.0000
# 5 0.0000 0.0000 0.0000 0.0000 48.0264 0.0000
# 6 0.0000 0.0000 0.0000 0.0000 0.0000 1.9143
#
#
#
# Elastic Compliance Matrix: (Units=1/GPa)
#
#
# Indices 1 2 3 4 5 6 
#
# 1 0.050587 0.003444 0.007220 0.000000 0.000000 0.000000
# 2 0.003444 0.016409 0.005128 0.000000 0.000000 0.000000
# 3 0.007220 0.005128 0.017134 0.000000 0.000000 0.000000
# 4 0.000000 0.000000 0.000000 -0.017620 0.000000 0.000000
# 5 0.000000 0.000000 0.000000 0.000000 0.020822 0.000000
# 6 0.000000 0.000000 0.000000 0.000000 0.000000 0.522381
#
#
# Mechanical properties :
#
#
# Convention : Reuss Voigt Hill
#
# Bulk Modulus (GPa) = 8.64201 10.78158 9.71180
# Shear Modulus (GPa) = 8.10767 11.01854 9.56311
#
# Velocity S-wave (km/s) = 1.95606 2.28032 2.12439
# Velocity P-wave (km/s) = 3.02983 3.46716 3.25585
#
# Compressibility (1/GPa) = 0.11571380
#
# Stress axis : x y z
#
# Youngs Moduli (GPa) = 19.76787 60.94265 58.36380
#
# Poissons Ratio (x) = -0.20986 -0.42140
# Poissons Ratio (y) = -0.06807 -0.29929
# Poissons Ratio (z) = -0.14273 -0.31252
#
# Static dielectric constant tensor:
#      x y z
#    x 1.746740 0.000000 0.000000 
#    y 0.000000 1.767530 0.000000 
#    z 0.000000 0.000000 1.719580 
# 
# From -- ./inp_files/16884.got.cif
#   From: 2010.05.17/outbox.cif.g08.bks.cpg/sg54_9_cif.got.tgz:16884.got - 2010.06.03 13:09:01.
