data_PCOD9422678
_publ_section_title
;
Structure prediction by ZEFSAII (Michael W. Deem and Ramdas Pophale) SiO2 
 PCOD9422678
Probable space group: P C C A
;
_chemical_formula_sum "Si O2"
_cell_formula_units_Z 48
_cell_length_a 8.840332
_cell_length_b 9.877873
_cell_length_c 22.354267
_cell_angle_alpha 90.000000
_cell_angle_beta 90.000000
_cell_angle_gamma 90.000000
_cell_volume 1952.056786
_symmetry_space_group_name_H-M "P C C A"
_symmetry_group_IT_number 54
_symmetry_cell_setting 'orthorhombic'
loop_
_space_group_symop_operation_xyz
x,y,z
1/2-x,-y,z
1/2+x,-y,1/2-z
-x,y,1/2-z
-x,-y,-z
1/2+x,y,-z
1/2-x,y,1/2+z
x,-y,1/2+z
loop_
_atom_site_type_symbol
_atom_site_label
_atom_site_fract_x
_atom_site_fract_y
_atom_site_fract_z
Si Si1 0.587503 0.832115 0.050237
Si Si2 0.241850 0.216740 0.564143
Si Si3 0.792565 0.693889 0.136844
Si Si4 0.583388 0.974425 0.666323
Si Si5 0.472639 0.442378 0.817778
Si Si6 0.750000 0.500000 0.894785
Si Si7 0.250000 0.000000 0.167693
O O1 0.417998 0.778475 0.045996
O O2 0.709704 0.722474 0.074387
O O3 0.588878 0.945545 0.102315
O O4 0.646006 0.866854 0.984668
O O5 0.185048 0.371993 0.569004
O O6 0.236333 0.132386 0.625281
O O7 0.644709 0.682136 0.180404
O O8 0.887525 0.559711 0.146090
O O9 0.902620 0.815534 0.152942
O O10 0.420085 0.007866 0.694411
O O11 0.750000 0.000000 0.694851
O O12 0.500000 0.483997 0.750000
O O13 0.628559 0.426434 0.851980
#
# Coordination Sequence:
#
# PCOD9422678 Si02
#       7
#     8   8   8   8   8   4   4
#     4  10  23  40  61  95 134 183 223 270 338 419
#     4  11  25  37  62  95 139 183 231 278 332 418
#     4  10  21  43  65  96 134 172 222 283 352 416
#     4   9  20  37  64  92 134 178 223 271 330 404
#     4  11  24  43  71  95 124 172 229 296 367 425
#     4  12  24  42  60 100 132 166 232 292 346 416
#     4  10  22  38  58  98 132 188 230 266 318 410
#
# _framework density 24.589448000000001
#
# number of rings (size 3 to 8) (size 9 to 14) (size 15 to 20)
#    0.000    1.667    1.667    2.000   10.500    3.333 
#    0.000    0.000    0.000    9.000   13.000    0.000 
#    0.000    0.000    0.000    0.000    0.000    0.000 
#
# Total GULP energy -268141.705174 kJ/mol
# GULP energy per Si atom -5586.285524 kJ/mol
# Density = 2.453348 g / cm^3
# Si number density = 24.589448 Si / 1000 Ang^3
#
#
#
# Elastic Constant Matrix: (Units=GPa)
#
#
# Indices 1 2 3 4 5 6 
#
# 1 189.7475 16.7394 60.8861 0.0000 0.0000 0.0000
# 2 16.7394 107.2771 20.2159 0.0000 0.0000 0.0000
# 3 60.8861 20.2159 55.5675 0.0000 0.0000 0.0000
# 4 0.0000 0.0000 0.0000 71.4606 0.0000 0.0000
# 5 0.0000 0.0000 0.0000 0.0000 43.1781 0.0000
# 6 0.0000 0.0000 0.0000 0.0000 0.0000 30.1298
#
#
#
# Elastic Compliance Matrix: (Units=1/GPa)
#
#
# Indices 1 2 3 4 5 6 
#
# 1 0.008147 0.000441 -0.009088 0.000000 0.000000 0.000000
# 2 0.000441 0.010032 -0.004133 0.000000 0.000000 0.000000
# 3 -0.009088 -0.004133 0.029457 0.000000 0.000000 0.000000
# 4 0.000000 0.000000 0.000000 0.013994 0.000000 0.000000
# 5 0.000000 0.000000 0.000000 0.000000 0.023160 0.000000
# 6 0.000000 0.000000 0.000000 0.000000 0.000000 0.033190
#
#
# Mechanical properties :
#
#
# Convention : Reuss Voigt Hill
#
# Bulk Modulus (GPa) = 45.29551 60.91944 53.10748
# Shear Modulus (GPa) = 33.13514 45.93710 39.53612
#
# Velocity S-wave (km/s) = 3.67486 4.32691 4.01415
# Velocity P-wave (km/s) = 6.03878 7.05630 6.56727
#
# Compressibility (1/GPa) = 0.02207724
#
# Stress axis : x y z
#
# Youngs Moduli (GPa) = 122.74073 99.68437 33.94764
#
# Poissons Ratio (x) = -0.04398 0.30850
# Poissons Ratio (y) = -0.05416 0.14031
# Poissons Ratio (z) = 1.11542 0.41200
#
# Static dielectric constant tensor:
#      x y z
#    x 1.986080 0.000000 0.000000 
#    y 0.000000 1.980250 0.000000 
#    z 0.000000 0.000000 1.953990 
# 
# From -- ./inp_files/23533.got.cif
#   From: 2010.05.17/outbox.cif.g08.bks.cpg/sg54_12_cif.got.tgz:23533.got - 2010.06.03 13:09:01.
