data_PCOD9422148
_publ_section_title
;
Structure prediction by ZEFSAII (Michael W. Deem and Ramdas Pophale) SiO2 
 PCOD9422148
Probable space group: P C C A
;
_chemical_formula_sum "Si O2"
_cell_formula_units_Z 40
_cell_length_a 5.089167
_cell_length_b 24.633691
_cell_length_c 16.132392
_cell_angle_alpha 90.000000
_cell_angle_beta 90.000000
_cell_angle_gamma 90.000000
_cell_volume 2022.436796
_symmetry_space_group_name_H-M "P C C A"
_symmetry_group_IT_number 54
_symmetry_cell_setting 'orthorhombic'
loop_
_space_group_symop_operation_xyz
x,y,z
1/2-x,-y,z
1/2+x,-y,1/2-z
-x,y,1/2-z
-x,-y,-z
1/2+x,y,-z
1/2-x,y,1/2+z
x,-y,1/2+z
loop_
_atom_site_type_symbol
_atom_site_label
_atom_site_fract_x
_atom_site_fract_y
_atom_site_fract_z
Si Si1 0.969312 0.644711 0.945923
Si Si2 0.251765 0.064660 0.947132
Si Si3 0.498253 0.465317 0.849845
Si Si4 0.247821 0.147928 0.305820
Si Si5 0.950638 0.231778 0.057520
O O1 0.015237 0.595073 0.884878
O O2 0.034633 0.705210 0.914288
O O3 0.170218 0.640215 0.023047
O O4 0.181385 0.098135 0.865984
O O5 0.250000 0.000000 0.932564
O O6 0.539243 0.078435 0.982060
O O7 0.250000 0.500000 0.877725
O O8 0.500000 0.462606 0.750000
O O9 0.750000 0.500000 0.876916
O O10 0.500000 0.163128 0.250000
O O11 0.139396 0.195158 0.366124
O O12 0.000000 0.131745 0.250000
O O13 0.733187 0.222171 0.985326
#
# Coordination Sequence:
#
# PCOD9422148 Si02
#       5
#     8   8   8   8   8
#     4  10  21  36  57  82 104 137 184 230 270 314
#     4  10  21  39  62  85 114 157 199 233 284 351
#     4  10  21  36  53  77 110 144 174 213 273 335
#     4  12  24  37  58  89 119 149 190 241 293 337
#     4  10  21  40  60  79 111 151 190 230 279 341
#
# _framework density 19.778120000000001
#
# number of rings (size 3 to 8) (size 9 to 14) (size 15 to 20)
#    0.000    1.600    0.000    4.800    0.000    4.000 
#    0.000    3.000    0.000    0.000    0.000    0.000 
#    0.000    0.000    0.000    0.000    0.000    0.000 
#
# Total GULP energy -223448.947129 kJ/mol
# GULP energy per Si atom -5586.223678 kJ/mol
# Density = 1.973310 g / cm^3
# Si number density = 19.778120 Si / 1000 Ang^3
#
#
#
# Elastic Constant Matrix: (Units=GPa)
#
#
# Indices 1 2 3 4 5 6 
#
# 1 82.2558 4.5765 2.8907 0.0000 0.0000 0.0000
# 2 4.5765 64.2694 34.7348 0.0000 0.0000 0.0000
# 3 2.8907 34.7348 53.4608 0.0000 0.0000 0.0000
# 4 0.0000 0.0000 0.0000 -38.5243 0.0000 0.0000
# 5 0.0000 0.0000 0.0000 0.0000 -16.4167 0.0000
# 6 0.0000 0.0000 0.0000 0.0000 0.0000 22.9084
#
#
#
# Elastic Compliance Matrix: (Units=1/GPa)
#
#
# Indices 1 2 3 4 5 6 
#
# 1 0.012206 -0.000790 -0.000147 0.000000 0.000000 0.000000
# 2 -0.000790 0.024031 -0.015571 0.000000 0.000000 0.000000
# 3 -0.000147 -0.015571 0.028830 0.000000 0.000000 0.000000
# 4 0.000000 0.000000 0.000000 -0.025958 0.000000 0.000000
# 5 0.000000 0.000000 0.000000 0.000000 -0.060913 0.000000
# 6 0.000000 0.000000 0.000000 0.000000 0.000000 0.043652
#
#
# Mechanical properties :
#
#
# Convention : Reuss Voigt Hill
#
# Bulk Modulus (GPa) = 31.19900 31.59889 31.39895
# Shear Modulus (GPa) = 76.28020 4.11239 40.19630
#
# Velocity S-wave (km/s) = 6.21705 1.44353 4.51306
# Velocity P-wave (km/s) = 8.20636 4.33471 6.56255
#
# Compressibility (1/GPa) = 0.03205231
#
# Stress axis : x y z
#
# Youngs Moduli (GPa) = 81.92489 41.61267 34.68608
#
# Poissons Ratio (x) = 0.03287 0.00509
# Poissons Ratio (y) = 0.06471 0.54009
# Poissons Ratio (z) = 0.01203 0.64795
#
# Static dielectric constant tensor:
#      x y z
#    x 1.686110 0.000000 0.000000 
#    y 0.000000 1.696920 0.000000 
#    z 0.000000 0.000000 1.665400 
# 
# From -- ./inp_files/10851.got.cif
#   From: 2010.05.17/outbox.cif.g08.bks.cpg/sg54_6_cif.got.tgz:10851.got - 2010.06.03 13:09:01.
