data_PCOD9422388
_publ_section_title
;
Structure prediction by ZEFSAII (Michael W. Deem and Ramdas Pophale) SiO2 
 PCOD9422388
Probable space group: P C C A
;
_chemical_formula_sum "Si O2"
_cell_formula_units_Z 64
_cell_length_a 9.180617
_cell_length_b 14.482267
_cell_length_c 25.916199
_cell_angle_alpha 90.000000
_cell_angle_beta 90.000000
_cell_angle_gamma 90.000000
_cell_volume 3445.717954
_symmetry_space_group_name_H-M "P C C A"
_symmetry_group_IT_number 54
_symmetry_cell_setting 'orthorhombic'
loop_
_space_group_symop_operation_xyz
x,y,z
1/2-x,-y,z
1/2+x,-y,1/2-z
-x,y,1/2-z
-x,-y,-z
1/2+x,y,-z
1/2-x,y,1/2+z
x,-y,1/2+z
loop_
_atom_site_type_symbol
_atom_site_label
_atom_site_fract_x
_atom_site_fract_y
_atom_site_fract_z
Si Si1 0.406912 0.623910 0.197210
Si Si2 0.821984 0.820089 0.825791
Si Si3 0.431676 0.570788 0.696202
Si Si4 0.708260 0.106247 0.507770
Si Si5 0.725727 0.893544 0.215639
Si Si6 0.018856 0.771573 0.329944
Si Si7 0.023212 0.140368 0.930216
Si Si8 0.037921 0.931330 0.887791
O O1 0.500000 0.638814 0.250000
O O2 0.401944 0.721128 0.167326
O O3 0.235073 0.601891 0.206261
O O4 0.449172 0.528145 0.167610
O O5 0.847757 0.850623 0.766460
O O6 0.647273 0.808811 0.828140
O O7 0.884613 0.891458 0.867746
O O8 0.500000 0.544300 0.750000
O O9 0.514990 0.663202 0.680657
O O10 0.630297 0.147077 0.458352
O O11 0.604957 0.107268 0.558809
O O12 0.859466 0.147826 0.524817
O O13 0.750000 0.000000 0.496437
O O14 0.870164 0.832044 0.204273
O O15 0.639617 0.903456 0.161201
O O16 0.750000 0.000000 0.230557
O O17 0.062261 0.784635 0.388703
O O18 0.034767 0.041143 0.900365
#
# Coordination Sequence:
#
# PCOD9422388 Si02
#       8
#     8   8   8   8   8   8   8   8
#     4   9  17  35  52  78 109 144 192 233 276 314
#     4  11  25  32  54  81 114 155 188 221 264 335
#     4   9  18  33  57  78 108 147 187 234 275 325
#     4  10  21  39  57  76 101 141 182 240 278 318
#     4  12  22  38  49  74 123 163 191 218 264 322
#     4  11  22  37  53  80 112 146 194 225 273 331
#     4  11  23  38  57  78 108 139 187 233 283 326
#     4  11  21  38  51  78 109 149 182 230 270 317
#
# _framework density 18.573778000000001
#
# number of rings (size 3 to 8) (size 9 to 14) (size 15 to 20)
#    0.000    1.500    2.500    4.875    5.250    1.000 
#    0.000    0.000    0.000    0.000    0.000    0.875 
#    0.000    0.000    0.000    0.000    0.000    0.000 
#
# Total GULP energy -356455.776621 kJ/mol
# GULP energy per Si atom -5569.621510 kJ/mol
# Density = 1.853150 g / cm^3
# Si number density = 18.573778 Si / 1000 Ang^3
#
#
#
# Elastic Constant Matrix: (Units=GPa)
#
#
# Indices 1 2 3 4 5 6 
#
# 1 45.8481 25.1036 6.7669 0.0000 0.0000 0.0000
# 2 25.1036 90.8306 9.6283 0.0000 0.0000 0.0000
# 3 6.7669 9.6283 22.9432 0.0000 0.0000 0.0000
# 4 0.0000 0.0000 0.0000 -1.0131 0.0000 0.0000
# 5 0.0000 0.0000 0.0000 0.0000 -145.5812 0.0000
# 6 0.0000 0.0000 0.0000 0.0000 0.0000 27.7412
#
#
#
# Elastic Compliance Matrix: (Units=1/GPa)
#
#
# Indices 1 2 3 4 5 6 
#
# 1 0.026218 -0.006726 -0.004910 0.000000 0.000000 0.000000
# 2 -0.006726 0.013247 -0.003576 0.000000 0.000000 0.000000
# 3 -0.004910 -0.003576 0.046535 0.000000 0.000000 0.000000
# 4 0.000000 0.000000 0.000000 -0.987060 0.000000 0.000000
# 5 0.000000 0.000000 0.000000 0.000000 -0.006869 0.000000
# 6 0.000000 0.000000 0.000000 0.000000 0.000000 0.036047
#
#
# Mechanical properties :
#
#
# Convention : Reuss Voigt Hill
#
# Bulk Modulus (GPa) = 17.99304 26.95771 22.47538
# Shear Modulus (GPa) = -6.07584 -15.89575 -10.98580
#
# Velocity S-wave (km/s) = -1.81061 -2.92861 -2.43465
# Velocity P-wave (km/s) = 2.31026 1.76343 2.05512
#
# Compressibility (1/GPa) = 0.05557704
#
# Stress axis : x y z
#
# Youngs Moduli (GPa) = 38.14102 75.48669 21.48926
#
# Poissons Ratio (x) = 0.50770 0.10552
# Poissons Ratio (y) = 0.25652 0.07684
# Poissons Ratio (z) = 0.18729 0.26992
#
# Static dielectric constant tensor:
#      x y z
#    x 1.742500 0.000000 0.000000 
#    y 0.000000 1.716920 0.000000 
#    z 0.000000 0.000000 1.624920 
# 
# From -- ./inp_files/23654.got.cif
#   From: 2010.05.17/outbox.cif.g08.bks.cpg/sg54_12_cif.got.tgz:23654.got - 2010.06.03 13:09:01.
