data_PCOD9422033
_publ_section_title
;
Structure prediction by ZEFSAII (Michael W. Deem and Ramdas Pophale) SiO2 
 PCOD9422033
Probable space group: P C C A
;
_chemical_formula_sum "Si O2"
_cell_formula_units_Z 44
_cell_length_a 17.516502
_cell_length_b 8.463153
_cell_length_c 13.540328
_cell_angle_alpha 90.000000
_cell_angle_beta 90.000000
_cell_angle_gamma 90.000000
_cell_volume 2007.283710
_symmetry_space_group_name_H-M "P C C A"
_symmetry_group_IT_number 54
_symmetry_cell_setting 'orthorhombic'
loop_
_space_group_symop_operation_xyz
x,y,z
1/2-x,-y,z
1/2+x,-y,1/2-z
-x,y,1/2-z
-x,-y,-z
1/2+x,y,-z
1/2-x,y,1/2+z
x,-y,1/2+z
loop_
_atom_site_type_symbol
_atom_site_label
_atom_site_fract_x
_atom_site_fract_y
_atom_site_fract_z
Si Si1 0.500000 0.991336 0.250000
Si Si2 0.885884 0.560694 0.790704
Si Si3 0.750000 0.000000 0.621935
Si Si4 0.975803 0.712340 0.617943
Si Si5 0.250000 0.500000 0.074444
Si Si6 0.644739 0.801920 0.755280
Si Si7 0.847641 0.214480 0.983859
O O1 0.512693 0.874708 0.342738
O O2 0.428726 0.098634 0.274989
O O3 0.908928 0.668318 0.697475
O O4 0.809878 0.591433 0.854074
O O5 0.874118 0.383498 0.751258
O O6 0.958371 0.582614 0.864706
O O7 0.713887 0.863406 0.689593
O O8 0.814173 0.919760 0.553996
O O9 0.933288 0.738910 0.515909
O O10 0.203497 0.626694 0.011493
O O11 0.657616 0.836744 0.870678
#
# Coordination Sequence:
#
# PCOD9422033 Si02
#       7
#     4   8   4   8   4   8   8
#     4  10  20  42  66  92 130 176 208 274 332 396
#     4   9  22  41  66  94 131 172 212 282 329 396
#     4  12  26  44  66  98 138 182 216 284 338 404
#     4  10  22  41  68  98 128 175 223 267 341 395
#     4  10  24  40  66 100 126 172 228 278 334 394
#     4  11  24  43  67  97 132 174 224 271 340 402
#     4  11  26  43  66 101 129 180 224 278 335 411
#
# _framework density 21.920169000000001
#
# number of rings (size 3 to 8) (size 9 to 14) (size 15 to 20)
#    0.000    1.818    1.818    1.636    7.636    6.545 
#    3.273    0.000    0.000    0.000    0.000    0.000 
#    0.000    0.000    0.000    0.000    0.000    0.000 
#
# Total GULP energy -245777.760514 kJ/mol
# GULP energy per Si atom -5585.858194 kJ/mol
# Density = 2.187028 g / cm^3
# Si number density = 21.920169 Si / 1000 Ang^3
#
#
#
# Elastic Constant Matrix: (Units=GPa)
#
#
# Indices 1 2 3 4 5 6 
#
# 1 49.3324 -16.0579 -10.5489 0.0000 0.0000 0.0000
# 2 -16.0579 52.9121 -14.2469 0.0000 0.0000 0.0000
# 3 -10.5489 -14.2469 52.2723 0.0000 0.0000 0.0000
# 4 0.0000 0.0000 0.0000 33.4886 0.0000 0.0000
# 5 0.0000 0.0000 0.0000 0.0000 31.9879 0.0000
# 6 0.0000 0.0000 0.0000 0.0000 0.0000 15.2248
#
#
#
# Elastic Compliance Matrix: (Units=1/GPa)
#
#
# Indices 1 2 3 4 5 6 
#
# 1 0.025067 0.009680 0.007697 0.000000 0.000000 0.000000
# 2 0.009680 0.024134 0.008531 0.000000 0.000000 0.000000
# 3 0.007697 0.008531 0.023009 0.000000 0.000000 0.000000
# 4 0.000000 0.000000 0.000000 0.029861 0.000000 0.000000
# 5 0.000000 0.000000 0.000000 0.000000 0.031262 0.000000
# 6 0.000000 0.000000 0.000000 0.000000 0.000000 0.065682
#
#
# Mechanical properties :
#
#
# Convention : Reuss Voigt Hill
#
# Bulk Modulus (GPa) = 8.06273 8.08993 8.07633
# Shear Modulus (GPa) = 26.51935 29.16494 27.84214
#
# Velocity S-wave (km/s) = 3.48201 3.65157 3.56780
# Velocity P-wave (km/s) = 4.45557 4.63436 4.54584
#
# Compressibility (1/GPa) = 0.12402748
#
# Stress axis : x y z
#
# Youngs Moduli (GPa) = 39.89237 41.43513 43.46102
#
# Poissons Ratio (x) = -0.40109 -0.33452
# Poissons Ratio (y) = -0.38616 -0.37078
# Poissons Ratio (z) = -0.30706 -0.35350
#
# Static dielectric constant tensor:
#      x y z
#    x 1.802480 0.000000 0.000000 
#    y 0.000000 1.809300 0.000000 
#    z 0.000000 0.000000 1.811760 
# 
# From -- ./inp_files/14061.got.cif
#   From: 2010.05.17/outbox.cif.g08.bks.cpg/sg54_8_cif.got.tgz:14061.got - 2010.06.03 13:09:01.
