data_PCOD9422254
_publ_section_title
;
Structure prediction by ZEFSAII (Michael W. Deem and Ramdas Pophale) SiO2 
 PCOD9422254
Probable space group: P C C A
;
_chemical_formula_sum "Si O2"
_cell_formula_units_Z 60
_cell_length_a 20.481966
_cell_length_b 6.522665
_cell_length_c 20.516658
_cell_angle_alpha 90.000000
_cell_angle_beta 90.000000
_cell_angle_gamma 90.000000
_cell_volume 2740.964015
_symmetry_space_group_name_H-M "P C C A"
_symmetry_group_IT_number 54
_symmetry_cell_setting 'orthorhombic'
loop_
_space_group_symop_operation_xyz
x,y,z
1/2-x,-y,z
1/2+x,-y,1/2-z
-x,y,1/2-z
-x,-y,-z
1/2+x,y,-z
1/2-x,y,1/2+z
x,-y,1/2+z
loop_
_atom_site_type_symbol
_atom_site_label
_atom_site_fract_x
_atom_site_fract_y
_atom_site_fract_z
Si Si1 0.168632 0.664871 0.493926
Si Si2 0.521771 0.049418 0.680491
Si Si3 0.888365 0.400719 0.171147
Si Si4 0.817948 0.918732 0.881459
Si Si5 0.750000 0.500000 0.615685
Si Si6 0.090481 0.615399 0.684945
Si Si7 0.461063 0.291040 0.427487
Si Si8 0.895843 0.308069 0.935058
O O1 0.197206 0.777039 0.556176
O O2 0.217183 0.664769 0.433334
O O3 0.098566 0.762823 0.475228
O O4 0.150899 0.431830 0.515638
O O5 0.500000 0.957109 0.750000
O O6 0.591165 0.162904 0.676525
O O7 0.472873 0.242968 0.674687
O O8 0.521140 0.885366 0.624100
O O9 0.812002 0.424166 0.156283
O O10 0.906024 0.480631 0.243488
O O11 0.929722 0.523616 0.115965
O O12 0.852238 0.778167 0.827996
O O13 0.750000 0.000000 0.855467
O O14 0.864955 0.097243 0.909545
O O15 0.095693 0.447919 0.629151
O O16 0.530524 0.311885 0.463946
#
# Coordination Sequence:
#
# PCOD9422254 Si02
#       8
#     8   8   8   8   4   8   8   8
#     4  10  24  41  60  90 123 165 215 257 308 369
#     4  10  21  37  61  93 127 159 203 253 311 370
#     4  10  23  40  66  93 127 163 200 258 311 375
#     4  11  24  41  63  90 125 171 208 258 316 369
#     4  10  22  46  64  86 124 166 208 250 320 374
#     4  10  22  41  63  96 126 161 207 258 308 378
#     4  11  22  37  64  95 122 166 207 256 316 368
#     4  11  22  39  64  90 127 164 209 259 309 368
#
# _framework density 21.890108000000001
#
# number of rings (size 3 to 8) (size 9 to 14) (size 15 to 20)
#    0.000    1.600    2.667    1.200    1.867    6.400 
#    0.000    4.667    0.000    0.000    0.000    0.000 
#    0.000    0.000    0.000    0.000    0.000    0.000 
#
# Total GULP energy -335041.666005 kJ/mol
# GULP energy per Si atom -5584.027767 kJ/mol
# Density = 2.184028 g / cm^3
# Si number density = 21.890108 Si / 1000 Ang^3
#
#
#
# Elastic Constant Matrix: (Units=GPa)
#
#
# Indices 1 2 3 4 5 6 
#
# 1 111.7905 16.6067 -9.1014 0.0000 0.0000 0.0000
# 2 16.6067 32.3842 6.5439 0.0000 0.0000 0.0000
# 3 -9.1014 6.5439 47.0795 0.0000 0.0000 0.0000
# 4 0.0000 0.0000 0.0000 23.3801 0.0000 0.0000
# 5 0.0000 0.0000 0.0000 0.0000 30.3443 0.0000
# 6 0.0000 0.0000 0.0000 0.0000 0.0000 24.1902
#
#
#
# Elastic Compliance Matrix: (Units=1/GPa)
#
#
# Indices 1 2 3 4 5 6 
#
# 1 0.010012 -0.005685 0.002726 0.000000 0.000000 0.000000
# 2 -0.005685 0.034999 -0.005964 0.000000 0.000000 0.000000
# 3 0.002726 -0.005964 0.022597 0.000000 0.000000 0.000000
# 4 0.000000 0.000000 0.000000 0.042771 0.000000 0.000000
# 5 0.000000 0.000000 0.000000 0.000000 0.032955 0.000000
# 6 0.000000 0.000000 0.000000 0.000000 0.000000 0.041339
#
#
# Mechanical properties :
#
#
# Convention : Reuss Voigt Hill
#
# Bulk Modulus (GPa) = 20.09572 24.37249 22.23411
# Shear Modulus (GPa) = 22.81995 27.39658 25.10826
#
# Velocity S-wave (km/s) = 3.23225 3.54156 3.39043
# Velocity P-wave (km/s) = 4.80937 5.28032 5.05034
#
# Compressibility (1/GPa) = 0.04976185
#
# Stress axis : x y z
#
# Youngs Moduli (GPa) = 99.88319 28.57185 44.25458
#
# Poissons Ratio (x) = 0.16242 -0.12062
# Poissons Ratio (y) = 0.56781 0.26392
# Poissons Ratio (z) = -0.27224 0.17040
#
# Static dielectric constant tensor:
#      x y z
#    x 1.859600 0.000000 0.000000 
#    y 0.000000 1.802410 0.000000 
#    z 0.000000 0.000000 1.792460 
# 
# From -- ./inp_files/24772.got.cif
#   From: 2010.05.17/outbox.cif.g08.bks.cpg/sg54_13_cif.got.tgz:24772.got - 2010.06.03 13:09:01.
