data_PCOD9422206
_publ_section_title
;
Structure prediction by ZEFSAII (Michael W. Deem and Ramdas Pophale) SiO2 
 PCOD9422206
Probable space group: P C C A
;
_chemical_formula_sum "Si O2"
_cell_formula_units_Z 40
_cell_length_a 19.410724
_cell_length_b 9.698365
_cell_length_c 9.334419
_cell_angle_alpha 90.000000
_cell_angle_beta 90.000000
_cell_angle_gamma 90.000000
_cell_volume 1757.225718
_symmetry_space_group_name_H-M "P C C A"
_symmetry_group_IT_number 54
_symmetry_cell_setting 'orthorhombic'
loop_
_space_group_symop_operation_xyz
x,y,z
1/2-x,-y,z
1/2+x,-y,1/2-z
-x,y,1/2-z
-x,-y,-z
1/2+x,y,-z
1/2-x,y,1/2+z
x,-y,1/2+z
loop_
_atom_site_type_symbol
_atom_site_label
_atom_site_fract_x
_atom_site_fract_y
_atom_site_fract_z
Si Si1 0.333819 0.234348 0.393169
Si Si2 0.302976 0.754767 0.576171
Si Si3 0.832022 0.503801 0.253443
Si Si4 0.959344 0.871104 0.940287
Si Si5 0.593156 0.227255 0.660522
O O1 0.361134 0.388132 0.360344
O O2 0.398942 0.156376 0.450068
O O3 0.422838 0.118320 0.714438
O O4 0.329715 0.403852 0.100997
O O5 0.272253 0.239793 0.507503
O O6 0.305539 0.813095 0.737354
O O7 0.354549 0.179819 0.962308
O O8 0.750000 0.500000 0.219653
O O9 0.871071 0.359955 0.237427
O O10 0.018275 0.753723 0.914016
O O11 0.000000 0.000000 0.000000
#
# Coordination Sequence:
#
# PCOD9422206 Si02
#       5
#     8   8   8   8   8
#     4  10  22  39  72 109 149 190 235 294 392 433
#     4  10  22  39  71 113 149 181 230 299 375 455
#     4  10  21  36  73 111 157 172 222 306 385 449
#     4  11  27  49  67  94 149 204 259 307 348 428
#     4  11  24  44  73 103 146 199 244 294 389 441
#
# _framework density 22.763155000000001
#
# number of rings (size 3 to 8) (size 9 to 14) (size 15 to 20)
#    1.200    0.400    2.000    2.400    5.600    4.800 
#    3.600    1.000    0.000    9.600    0.000    0.000 
#    0.000    0.000    0.000    0.000    0.000    0.000 
#
# Total GULP energy -223021.617941 kJ/mol
# GULP energy per Si atom -5575.540449 kJ/mol
# Density = 2.271134 g / cm^3
# Si number density = 22.763155 Si / 1000 Ang^3
#
#
#
# Elastic Constant Matrix: (Units=GPa)
#
#
# Indices 1 2 3 4 5 6 
#
# 1 129.9267 66.7356 98.5548 0.0000 0.0000 0.0000
# 2 66.7356 68.6227 64.8251 0.0000 0.0000 0.0000
# 3 98.5548 64.8251 160.2919 0.0000 0.0000 0.0000
# 4 0.0000 0.0000 0.0000 26.3805 0.0000 0.0000
# 5 0.0000 0.0000 0.0000 0.0000 50.3211 0.0000
# 6 0.0000 0.0000 0.0000 0.0000 0.0000 39.1441
#
#
#
# Elastic Compliance Matrix: (Units=1/GPa)
#
#
# Indices 1 2 3 4 5 6 
#
# 1 0.019122 -0.012120 -0.006856 0.000000 0.000000 0.000000
# 2 -0.012120 0.031264 -0.005191 0.000000 0.000000 0.000000
# 3 -0.006856 -0.005191 0.012553 0.000000 0.000000 0.000000
# 4 0.000000 0.000000 0.000000 0.037907 0.000000 0.000000
# 5 0.000000 0.000000 0.000000 0.000000 0.019872 0.000000
# 6 0.000000 0.000000 0.000000 0.000000 0.000000 0.025547
#
#
# Mechanical properties :
#
#
# Convention : Reuss Voigt Hill
#
# Bulk Modulus (GPa) = 68.47212 91.00802 79.74007
# Shear Modulus (GPa) = 25.06664 31.75086 28.40875
#
# Velocity S-wave (km/s) = 3.32202 3.73880 3.53656
# Velocity P-wave (km/s) = 6.69776 7.66194 7.19602
#
# Compressibility (1/GPa) = 0.01460448
#
# Stress axis : x y z
#
# Youngs Moduli (GPa) = 52.29454 31.98604 79.66002
#
# Poissons Ratio (x) = 0.38768 0.54612
# Poissons Ratio (y) = 0.63383 0.41355
# Poissons Ratio (z) = 0.35851 0.16606
#
# Static dielectric constant tensor:
#      x y z
#    x 1.830470 0.000000 0.000000 
#    y 0.000000 1.952940 0.000000 
#    z 0.000000 0.000000 1.913230 
# 
# From -- ./inp_files/9392.got.cif
#   From: 2010.05.17/outbox.cif.g08.bks.cpg/sg54_5_cif.got.tgz:9392.got - 2010.06.03 13:09:01.
