data_PCOD9422801
_publ_section_title
;
Structure prediction by ZEFSAII (Michael W. Deem and Ramdas Pophale) SiO2 
 PCOD9422801
Probable space group: P C C A
;
_chemical_formula_sum "Si O2"
_cell_formula_units_Z 40
_cell_length_a 8.931968
_cell_length_b 7.775200
_cell_length_c 28.089233
_cell_angle_alpha 90.000000
_cell_angle_beta 90.000000
_cell_angle_gamma 90.000000
_cell_volume 1950.736492
_symmetry_space_group_name_H-M "P C C A"
_symmetry_group_IT_number 54
_symmetry_cell_setting 'orthorhombic'
loop_
_space_group_symop_operation_xyz
x,y,z
1/2-x,-y,z
1/2+x,-y,1/2-z
-x,y,1/2-z
-x,-y,-z
1/2+x,y,-z
1/2-x,y,1/2+z
x,-y,1/2+z
loop_
_atom_site_type_symbol
_atom_site_label
_atom_site_fract_x
_atom_site_fract_y
_atom_site_fract_z
Si Si1 0.033414 0.622407 0.148536
Si Si2 0.397559 0.695281 0.946449
Si Si3 0.937887 0.277209 0.039675
Si Si4 0.500000 0.774379 0.750000
Si Si5 0.750000 0.000000 0.294028
Si Si6 0.373403 0.750445 0.131252
O O1 0.200720 0.684731 0.133114
O O2 0.032277 0.416341 0.146398
O O3 0.933904 0.712757 0.108779
O O4 0.987149 0.669685 0.201421
O O5 0.233865 0.771930 0.954242
O O6 0.420989 0.487273 0.954643
O O7 0.505451 0.768306 0.987079
O O8 0.055587 0.210258 0.079497
O O9 0.351053 0.882384 0.739323
O O10 0.864587 0.099273 0.329722
#
# Coordination Sequence:
#
# PCOD9422801 Si02
#       6
#     8   8   8   4   4   8
#     4   9  18  34  54  77 104 141 186 229 268 324
#     4   9  16  27  48  79 109 135 174 223 274 325
#     4   9  16  27  48  79 109 138 170 219 278 332
#     4  10  22  38  56  78 108 146 188 230 280 330
#     4  10  22  38  56  78 110 148 182 230 290 342
#     4   9  18  34  54  76 105 140 179 223 277 333
#
# _framework density 20.505075999999999
#
# number of rings (size 3 to 8) (size 9 to 14) (size 15 to 20)
#    0.000    2.800    0.000    1.200    0.000    7.200 
#    0.000   14.000    0.000   12.000    0.000    0.000 
#    0.000    0.000    0.000    0.000    0.000    0.000 
#
# Total GULP energy -222702.539215 kJ/mol
# GULP energy per Si atom -5567.563480 kJ/mol
# Density = 2.045841 g / cm^3
# Si number density = 20.505076 Si / 1000 Ang^3
#
#
#
# Elastic Constant Matrix: (Units=GPa)
#
#
# Indices 1 2 3 4 5 6 
#
# 1 75.8563 14.7960 82.4474 0.0000 0.0000 0.0000
# 2 14.7960 28.0547 34.3718 0.0000 0.0000 0.0000
# 3 82.4474 34.3718 201.7119 0.0000 0.0000 0.0000
# 4 0.0000 0.0000 0.0000 -11.6080 0.0000 0.0000
# 5 0.0000 0.0000 0.0000 0.0000 36.0196 0.0000
# 6 0.0000 0.0000 0.0000 0.0000 0.0000 3.8710
#
#
#
# Elastic Compliance Matrix: (Units=1/GPa)
#
#
# Indices 1 2 3 4 5 6 
#
# 1 0.023735 -0.000799 -0.009565 0.000000 0.000000 0.000000
# 2 -0.000799 0.045076 -0.007355 0.000000 0.000000 0.000000
# 3 -0.009565 -0.007355 0.010121 0.000000 0.000000 0.000000
# 4 0.000000 0.000000 0.000000 -0.086147 0.000000 0.000000
# 5 0.000000 0.000000 0.000000 0.000000 0.027763 0.000000
# 6 0.000000 0.000000 0.000000 0.000000 0.000000 0.258328
#
#
# Mechanical properties :
#
#
# Convention : Reuss Voigt Hill
#
# Bulk Modulus (GPa) = 22.99124 63.20590 43.09857
# Shear Modulus (GPa) = 15.20631 17.25705 16.23168
#
# Velocity S-wave (km/s) = 2.72616 2.90418 2.81658
# Velocity P-wave (km/s) = 4.59849 6.49131 5.62509
#
# Compressibility (1/GPa) = 0.04349483
#
# Stress axis : x y z
#
# Youngs Moduli (GPa) = 42.13177 22.18454 98.80926
#
# Poissons Ratio (x) = 0.01772 0.94514
# Poissons Ratio (y) = 0.03365 0.72670
# Poissons Ratio (z) = 0.40300 0.16316
#
# Static dielectric constant tensor:
#      x y z
#    x 1.725580 0.000000 0.000000 
#    y 0.000000 1.812970 0.000000 
#    z 0.000000 0.000000 1.701610 
# 
# From -- ./inp_files/25757.got.cif
#   From: 2010.05.17/outbox.cif.g08.bks.cpg/sg54_13_cif.got.tgz:25757.got - 2010.06.03 13:09:01.
