data_PCOD9422019
_publ_section_title
;
Structure prediction by ZEFSAII (Michael W. Deem and Ramdas Pophale) SiO2 
 PCOD9422019
Probable space group: P C C A
;
_chemical_formula_sum "Si O2"
_cell_formula_units_Z 40
_cell_length_a 12.184794
_cell_length_b 9.377082
_cell_length_c 14.172609
_cell_angle_alpha 90.000000
_cell_angle_beta 90.000000
_cell_angle_gamma 90.000000
_cell_volume 1619.331302
_symmetry_space_group_name_H-M "P C C A"
_symmetry_group_IT_number 54
_symmetry_cell_setting 'orthorhombic'
loop_
_space_group_symop_operation_xyz
x,y,z
1/2-x,-y,z
1/2+x,-y,1/2-z
-x,y,1/2-z
-x,-y,-z
1/2+x,y,-z
1/2-x,y,1/2+z
x,-y,1/2+z
loop_
_atom_site_type_symbol
_atom_site_label
_atom_site_fract_x
_atom_site_fract_y
_atom_site_fract_z
Si Si1 0.953862 0.338844 0.142198
Si Si2 0.020741 0.337078 0.862845
Si Si3 0.815936 0.172029 0.878968
Si Si4 0.407687 0.094938 0.555172
Si Si5 0.265543 0.830258 0.835899
O O1 0.838036 0.260766 0.132347
O O2 0.000000 0.337522 0.250000
O O3 0.947626 0.502885 0.111533
O O4 0.037118 0.240766 0.085060
O O5 0.905598 0.288486 0.906735
O O6 0.000000 0.334228 0.750000
O O7 0.118639 0.224350 0.878361
O O8 0.721565 0.143110 0.955938
O O9 0.769224 0.205894 0.776451
O O10 0.882230 0.023797 0.863645
O O11 0.500000 0.000000 0.500000
O O12 0.250000 0.000000 0.848478
#
# Coordination Sequence:
#
# PCOD9422019 Si02
#       5
#     8   8   8   8   8
#     4  11  20  37  63 100 134 169 223 287 349 410
#     4   9  21  34  61 100 134 166 215 276 354 418
#     4  10  20  42  61  88 134 175 221 281 341 406
#     4  11  23  41  64  92 131 180 240 272 329 412
#     4  11  18  34  64  99 134 170 211 281 349 416
#
# _framework density 24.701554999999999
#
# number of rings (size 3 to 8) (size 9 to 14) (size 15 to 20)
#    0.000    1.600    4.000    1.800    0.000    2.400 
#   10.800    1.000    0.000    0.000    0.000    0.000 
#    0.000    0.000    0.000    0.000    0.000    0.000 
#
# Total GULP energy -223462.144093 kJ/mol
# GULP energy per Si atom -5586.553602 kJ/mol
# Density = 2.464533 g / cm^3
# Si number density = 24.701555 Si / 1000 Ang^3
#
#
#
# Elastic Constant Matrix: (Units=GPa)
#
#
# Indices 1 2 3 4 5 6 
#
# 1 227.1401 127.4373 46.6071 0.0000 0.0000 0.0000
# 2 127.4373 216.1674 19.2631 0.0000 0.0000 0.0000
# 3 46.6071 19.2631 75.3135 0.0000 0.0000 0.0000
# 4 0.0000 0.0000 0.0000 24.9466 0.0000 0.0000
# 5 0.0000 0.0000 0.0000 0.0000 50.2846 0.0000
# 6 0.0000 0.0000 0.0000 0.0000 0.0000 38.2385
#
#
#
# Elastic Compliance Matrix: (Units=1/GPa)
#
#
# Indices 1 2 3 4 5 6 
#
# 1 0.007400 -0.004047 -0.003545 0.000000 0.000000 0.000000
# 2 -0.004047 0.006947 0.000728 0.000000 0.000000 0.000000
# 3 -0.003545 0.000728 0.015285 0.000000 0.000000 0.000000
# 4 0.000000 0.000000 0.000000 0.040086 0.000000 0.000000
# 5 0.000000 0.000000 0.000000 0.000000 0.019887 0.000000
# 6 0.000000 0.000000 0.000000 0.000000 0.000000 0.026152
#
#
# Mechanical properties :
#
#
# Convention : Reuss Voigt Hill
#
# Bulk Modulus (GPa) = 62.87420 100.58179 81.72800
# Shear Modulus (GPa) = 37.09578 44.38151 40.73865
#
# Velocity S-wave (km/s) = 3.87946 4.24336 4.06548
# Velocity P-wave (km/s) = 6.75098 8.05080 7.42937
#
# Compressibility (1/GPa) = 0.01590478
#
# Stress axis : x y z
#
# Youngs Moduli (GPa) = 135.12768 143.94736 65.42237
#
# Poissons Ratio (x) = 0.58254 0.23190
# Poissons Ratio (y) = 0.54685 -0.04760
# Poissons Ratio (z) = 0.47897 -0.10473
#
# Static dielectric constant tensor:
#      x y z
#    x 1.996120 0.000000 0.000000 
#    y 0.000000 1.885060 0.000000 
#    z 0.000000 0.000000 2.053270 
# 
# From -- ./inp_files/17073.got.cif
#   From: 2010.05.17/outbox.cif.g08.bks.cpg/sg54_9_cif.got.tgz:17073.got - 2010.06.03 13:09:01.
