data_PCOD9422025
_publ_section_title
;
Structure prediction by ZEFSAII (Michael W. Deem and Ramdas Pophale) SiO2 
 PCOD9422025
Probable space group: P C C A
;
_chemical_formula_sum "Si O2"
_cell_formula_units_Z 56
_cell_length_a 18.154245
_cell_length_b 9.983561
_cell_length_c 15.739999
_cell_angle_alpha 90.000000
_cell_angle_beta 90.000000
_cell_angle_gamma 90.000000
_cell_volume 2852.780573
_symmetry_space_group_name_H-M "P C C A"
_symmetry_group_IT_number 54
_symmetry_cell_setting 'orthorhombic'
loop_
_space_group_symop_operation_xyz
x,y,z
1/2-x,-y,z
1/2+x,-y,1/2-z
-x,y,1/2-z
-x,-y,-z
1/2+x,y,-z
1/2-x,y,1/2+z
x,-y,1/2+z
loop_
_atom_site_type_symbol
_atom_site_label
_atom_site_fract_x
_atom_site_fract_y
_atom_site_fract_z
Si Si1 0.238891 0.276221 0.546994
Si Si2 0.045500 0.460661 0.144697
Si Si3 0.356754 0.500686 0.990791
Si Si4 0.294216 0.198143 0.237541
Si Si5 0.847647 0.926704 0.702090
Si Si6 0.500000 0.211470 0.750000
Si Si7 0.250000 0.000000 0.449840
Si Si8 0.606180 0.426339 0.193771
O O1 0.167225 0.349673 0.510405
O O2 0.301649 0.384947 0.526102
O O3 0.224046 0.255763 0.645884
O O4 0.255379 0.134076 0.504773
O O5 0.072328 0.471796 0.049130
O O6 0.018739 0.313282 0.172475
O O7 0.107183 0.495454 0.216187
O O8 0.979345 0.565051 0.164192
O O9 0.357076 0.512015 0.889549
O O10 0.215230 0.185643 0.283728
O O11 0.353168 0.288140 0.287078
O O12 0.328347 0.048886 0.234175
O O13 0.928736 0.873010 0.721023
O O14 0.822395 0.985469 0.610676
#
# Coordination Sequence:
#
# PCOD9422025 Si02
#       8
#     8   8   8   8   8   4   4   8
#     4  11  23  38  64  94 127 167 222 274 329 389
#     4  10  23  40  61  95 132 173 212 271 331 392
#     4  11  22  41  62  98 129 171 218 274 334 392
#     4  10  20  42  65  89 125 170 216 269 323 385
#     4  10  22  39  65  91 122 174 213 265 326 396
#     4  10  22  40  62  94 132 170 218 262 334 398
#     4  10  22  40  62  96 130 162 228 278 328 388
#     4  10  21  40  64  90 129 169 214 269 322 395
#
# _framework density 19.629971999999999
#
# number of rings (size 3 to 8) (size 9 to 14) (size 15 to 20)
#    0.000    2.000    1.429    3.857    4.000    1.143 
#    5.143    0.000    0.000    3.429    0.000    0.000 
#    0.000    0.000    0.000    0.000    0.000    0.000 
#
# Total GULP energy -312012.916454 kJ/mol
# GULP energy per Si atom -5571.659222 kJ/mol
# Density = 1.958529 g / cm^3
# Si number density = 19.629972 Si / 1000 Ang^3
#
#
#
# Elastic Constant Matrix: (Units=GPa)
#
#
# Indices 1 2 3 4 5 6 
#
# 1 98.9518 44.3230 19.1886 0.0000 0.0000 0.0000
# 2 44.3230 91.3105 29.4588 0.0000 0.0000 0.0000
# 3 19.1886 29.4588 80.9318 0.0000 0.0000 0.0000
# 4 0.0000 0.0000 0.0000 41.3067 0.0000 0.0000
# 5 0.0000 0.0000 0.0000 0.0000 17.1772 0.0000
# 6 0.0000 0.0000 0.0000 0.0000 0.0000 -103.9916
#
#
#
# Elastic Compliance Matrix: (Units=1/GPa)
#
#
# Indices 1 2 3 4 5 6 
#
# 1 0.012970 -0.006009 -0.000888 0.000000 0.000000 0.000000
# 2 -0.006009 0.015193 -0.004105 0.000000 0.000000 0.000000
# 3 -0.000888 -0.004105 0.014061 0.000000 0.000000 0.000000
# 4 0.000000 0.000000 0.000000 0.024209 0.000000 0.000000
# 5 0.000000 0.000000 0.000000 0.000000 0.058217 0.000000
# 6 0.000000 0.000000 0.000000 0.000000 0.000000 -0.009616
#
#
# Mechanical properties :
#
#
# Convention : Reuss Voigt Hill
#
# Bulk Modulus (GPa) = 49.45864 50.79279 50.12572
# Shear Modulus (GPa) = 34.77587 2.78005 18.77796
#
# Velocity S-wave (km/s) = 4.21357 1.19135 3.09624
# Velocity P-wave (km/s) = 6.99445 5.27482 6.19460
#
# Compressibility (1/GPa) = 0.02021891
#
# Stress axis : x y z
#
# Youngs Moduli (GPa) = 77.10233 65.81935 71.11911
#
# Poissons Ratio (x) = 0.39553 0.06314
# Poissons Ratio (y) = 0.46333 0.29197
# Poissons Ratio (z) = 0.06845 0.27022
#
# Static dielectric constant tensor:
#      x y z
#    x 1.764880 0.000000 0.000000 
#    y 0.000000 1.688180 0.000000 
#    z 0.000000 0.000000 1.745630 
# 
# From -- ./inp_files/14705.got.cif
#   From: 2010.05.17/outbox.cif.g08.bks.cpg/sg54_8_cif.got.tgz:14705.got - 2010.06.03 13:09:01.
