data_PCOD9422863
_publ_section_title
;
Structure prediction by ZEFSAII (Michael W. Deem and Ramdas Pophale) SiO2 
 PCOD9422863
Probable space group: P C C A
;
_chemical_formula_sum "Si O2"
_cell_formula_units_Z 40
_cell_length_a 13.163646
_cell_length_b 15.287915
_cell_length_c 8.520446
_cell_angle_alpha 90.000000
_cell_angle_beta 90.000000
_cell_angle_gamma 90.000000
_cell_volume 1714.694609
_symmetry_space_group_name_H-M "P C C A"
_symmetry_group_IT_number 54
_symmetry_cell_setting 'orthorhombic'
loop_
_space_group_symop_operation_xyz
x,y,z
1/2-x,-y,z
1/2+x,-y,1/2-z
-x,y,1/2-z
-x,-y,-z
1/2+x,y,-z
1/2-x,y,1/2+z
x,-y,1/2+z
loop_
_atom_site_type_symbol
_atom_site_label
_atom_site_fract_x
_atom_site_fract_y
_atom_site_fract_z
Si Si1 0.381522 0.558699 0.745305
Si Si2 0.765675 0.098853 0.776198
Si Si3 0.545140 0.088122 0.076034
Si Si4 0.118814 0.190362 0.436069
Si Si5 0.186147 0.613604 0.902221
O O1 0.500000 0.582343 0.750000
O O2 0.306287 0.610010 0.863532
O O3 0.366233 0.456654 0.787003
O O4 0.338153 0.578606 0.574661
O O5 0.837259 0.093785 0.619891
O O6 0.818883 0.159821 0.906616
O O7 0.659904 0.134043 0.709586
O O8 0.750000 0.000000 0.833079
O O9 0.500000 0.090307 0.250000
O O10 0.496729 0.167353 0.978481
O O11 0.500000 0.000000 0.000000
O O12 0.142410 0.289701 0.395441
#
# Coordination Sequence:
#
# PCOD9422863 Si02
#       5
#     8   8   8   8   8
#     4  11  24  46  75  99 145 190 233 309 387 448
#     4  11  22  39  65  91 130 184 225 280 352 405
#     4  10  22  39  60  88 127 174 221 274 336 401
#     4  11  24  40  63  97 135 174 232 288 336 426
#     4  11  24  44  70 107 139 187 246 299 378 456
#
# _framework density 23.327767999999999
#
# number of rings (size 3 to 8) (size 9 to 14) (size 15 to 20)
#    0.000    1.200    2.000    4.800    2.800    4.000 
#    0.000    3.000    0.000    0.000    0.000    0.000 
#    0.000    0.000    0.000    0.000    0.000    0.000 
#
# Total GULP energy -223818.604565 kJ/mol
# GULP energy per Si atom -5595.465114 kJ/mol
# Density = 2.327467 g / cm^3
# Si number density = 23.327768 Si / 1000 Ang^3
#
#
#
# Elastic Constant Matrix: (Units=GPa)
#
#
# Indices 1 2 3 4 5 6 
#
# 1 145.2400 14.4153 45.3491 0.0000 0.0000 0.0000
# 2 14.4153 147.0869 23.5776 0.0000 0.0000 0.0000
# 3 45.3491 23.5776 84.9388 0.0000 0.0000 0.0000
# 4 0.0000 0.0000 0.0000 13.2629 0.0000 0.0000
# 5 0.0000 0.0000 0.0000 0.0000 47.7326 0.0000
# 6 0.0000 0.0000 0.0000 0.0000 0.0000 19.2787
#
#
#
# Elastic Compliance Matrix: (Units=1/GPa)
#
#
# Indices 1 2 3 4 5 6 
#
# 1 0.008264 -0.000107 -0.004382 0.000000 0.000000 0.000000
# 2 -0.000107 0.007117 -0.001918 0.000000 0.000000 0.000000
# 3 -0.004382 -0.001918 0.014645 0.000000 0.000000 0.000000
# 4 0.000000 0.000000 0.000000 0.075398 0.000000 0.000000
# 5 0.000000 0.000000 0.000000 0.000000 0.020950 0.000000
# 6 0.000000 0.000000 0.000000 0.000000 0.000000 0.051871
#
#
# Mechanical properties :
#
#
# Convention : Reuss Voigt Hill
#
# Bulk Modulus (GPa) = 58.10476 60.43885 59.27181
# Shear Modulus (GPa) = 25.40677 35.64976 30.52827
#
# Velocity S-wave (km/s) = 3.30376 3.91348 3.62147
# Velocity P-wave (km/s) = 6.28611 6.81067 6.55364
#
# Compressibility (1/GPa) = 0.01721029
#
# Stress axis : x y z
#
# Youngs Moduli (GPa) = 121.00419 140.51454 68.28070
#
# Poissons Ratio (x) = 0.01510 0.29924
# Poissons Ratio (y) = 0.01300 0.13097
# Poissons Ratio (z) = 0.53029 0.26952
#
# Static dielectric constant tensor:
#      x y z
#    x 2.043860 0.000000 0.000000 
#    y 0.000000 1.863690 0.000000 
#    z 0.000000 0.000000 1.871990 
# 
# From -- ./inp_files/3436.got.cif
#   From: 2010.05.17/outbox.cif.g08.bks.cpg/sg54_2_cif.got.tgz:3436.got - 2010.06.03 13:09:01.
