data_PCOD9422509
_publ_section_title
;
Structure prediction by ZEFSAII (Michael W. Deem and Ramdas Pophale) SiO2 
 PCOD9422509
Probable space group: P C C A
;
_chemical_formula_sum "Si O2"
_cell_formula_units_Z 60
_cell_length_a 7.540905
_cell_length_b 17.251342
_cell_length_c 19.268848
_cell_angle_alpha 90.000000
_cell_angle_beta 90.000000
_cell_angle_gamma 90.000000
_cell_volume 2506.698525
_symmetry_space_group_name_H-M "P C C A"
_symmetry_group_IT_number 54
_symmetry_cell_setting 'orthorhombic'
loop_
_space_group_symop_operation_xyz
x,y,z
1/2-x,-y,z
1/2+x,-y,1/2-z
-x,y,1/2-z
-x,-y,-z
1/2+x,y,-z
1/2-x,y,1/2+z
x,-y,1/2+z
loop_
_atom_site_type_symbol
_atom_site_label
_atom_site_fract_x
_atom_site_fract_y
_atom_site_fract_z
Si Si1 0.977333 0.210220 0.329390
Si Si2 0.098210 0.409656 0.685666
Si Si3 0.520434 0.072630 0.914210
Si Si4 0.057361 0.770674 0.174117
Si Si5 0.000000 0.434459 0.250000
Si Si6 0.307160 0.417155 0.040157
Si Si7 0.058921 0.100375 0.569360
Si Si8 0.449342 0.360631 0.897383
O O1 0.038609 0.124853 0.350144
O O2 0.767559 0.222367 0.338580
O O3 0.081197 0.273252 0.373154
O O4 0.000000 0.228957 0.250000
O O5 0.023558 0.322178 0.678672
O O6 0.202189 0.583823 0.713112
O O7 0.071174 0.438635 0.607232
O O8 0.000000 0.460321 0.750000
O O9 0.733876 0.083480 0.915465
O O10 0.469015 0.982497 0.912784
O O11 0.457280 0.109273 0.986801
O O12 0.986824 0.826955 0.113322
O O13 0.000000 0.801151 0.250000
O O14 0.088722 0.413422 0.330397
O O15 0.250000 0.500000 0.013148
O O16 0.153528 0.370924 0.078681
O O17 0.358820 0.373667 0.971263
#
# Coordination Sequence:
#
# PCOD9422509 Si02
#       8
#     8   8   8   8   4   8   8   8
#     4  11  24  42  60  92 130 166 211 262 329 387
#     4   9  20  39  65  88 120 166 207 265 315 380
#     4   9  20  37  62  90 129 163 207 257 315 383
#     4  10  21  40  63  89 122 161 213 256 308 381
#     4  10  22  46  64  86 130 172 208 262 330 388
#     4  12  24  45  64  93 128 160 222 270 322 392
#     4   9  19  38  62  93 123 167 206 257 319 379
#     4  12  26  45  64  95 128 170 213 273 324 388
#
# _framework density 23.935865
#
# number of rings (size 3 to 8) (size 9 to 14) (size 15 to 20)
#    0.400    1.333    3.333    0.400    1.867    1.600 
#   12.000    0.000    0.000    0.000    0.000    0.000 
#    0.000    0.000    0.000    0.000    0.000    0.000 
#
# Total GULP energy -334274.801468 kJ/mol
# GULP energy per Si atom -5571.246691 kJ/mol
# Density = 2.388139 g / cm^3
# Si number density = 23.935865 Si / 1000 Ang^3
#
#
#
# Elastic Constant Matrix: (Units=GPa)
#
#
# Indices 1 2 3 4 5 6 
#
# 1 26.7821 25.9319 44.2039 0.0000 0.0000 0.0000
# 2 25.9319 104.6265 55.5617 0.0000 0.0000 0.0000
# 3 44.2039 55.5617 191.1044 0.0000 0.0000 0.0000
# 4 0.0000 0.0000 0.0000 50.8306 0.0000 0.0000
# 5 0.0000 0.0000 0.0000 0.0000 71.7198 0.0000
# 6 0.0000 0.0000 0.0000 0.0000 0.0000 18.9010
#
#
#
# Elastic Compliance Matrix: (Units=1/GPa)
#
#
# Indices 1 2 3 4 5 6 
#
# 1 0.068383 -0.010110 -0.012878 0.000000 0.000000 0.000000
# 2 -0.010110 0.012798 -0.001382 0.000000 0.000000 0.000000
# 3 -0.012878 -0.001382 0.008613 0.000000 0.000000 0.000000
# 4 0.000000 0.000000 0.000000 0.019673 0.000000 0.000000
# 5 0.000000 0.000000 0.000000 0.000000 0.013943 0.000000
# 6 0.000000 0.000000 0.000000 0.000000 0.000000 0.052907
#
#
# Mechanical properties :
#
#
# Convention : Reuss Voigt Hill
#
# Bulk Modulus (GPa) = 24.35864 63.76757 44.06311
# Shear Modulus (GPa) = 20.94307 41.41131 31.17719
#
# Velocity S-wave (km/s) = 2.96119 4.16395 3.61297
# Velocity P-wave (km/s) = 4.67870 7.05811 5.98778
#
# Compressibility (1/GPa) = 0.04105319
#
# Stress axis : x y z
#
# Youngs Moduli (GPa) = 14.62357 78.13937 116.09790
#
# Poissons Ratio (x) = 0.78999 1.49512
# Poissons Ratio (y) = 0.14784 0.16048
# Poissons Ratio (z) = 0.18832 0.10801
#
# Static dielectric constant tensor:
#      x y z
#    x 1.944790 0.000000 0.000000 
#    y 0.000000 2.146590 0.000000 
#    z 0.000000 0.000000 1.926220 
# 
# From -- ./inp_files/16841.got.cif
#   From: 2010.05.17/outbox.cif.g08.bks.cpg/sg54_9_cif.got.tgz:16841.got - 2010.06.03 13:09:01.
