data_PCOD9422998
_publ_section_title
;
Structure prediction by ZEFSAII (Michael W. Deem and Ramdas Pophale) SiO2 
 PCOD9422998
Probable space group: P C C A
;
_chemical_formula_sum "Si O2"
_cell_formula_units_Z 32
_cell_length_a 11.271882
_cell_length_b 6.777865
_cell_length_c 17.582957
_cell_angle_alpha 90.000000
_cell_angle_beta 90.000000
_cell_angle_gamma 90.000000
_cell_volume 1343.325510
_symmetry_space_group_name_H-M "P C C A"
_symmetry_group_IT_number 54
_symmetry_cell_setting 'orthorhombic'
loop_
_space_group_symop_operation_xyz
x,y,z
1/2-x,-y,z
1/2+x,-y,1/2-z
-x,y,1/2-z
-x,-y,-z
1/2+x,y,-z
1/2-x,y,1/2+z
x,-y,1/2+z
loop_
_atom_site_type_symbol
_atom_site_label
_atom_site_fract_x
_atom_site_fract_y
_atom_site_fract_z
Si Si1 0.250000 0.500000 0.466593
Si Si2 0.088366 0.759996 0.317235
Si Si3 0.148431 0.884005 0.926121
Si Si4 0.055756 0.584870 0.592900
Si Si5 0.750000 0.500000 0.786998
O O1 0.276517 0.685905 0.415229
O O2 0.136999 0.520425 0.521990
O O3 0.187695 0.655963 0.266762
O O4 0.000000 0.824594 0.250000
O O5 0.024521 0.594942 0.372215
O O6 0.123514 0.955373 0.362542
O O7 0.018312 0.778882 0.933977
O O8 0.250000 0.000000 0.978594
O O9 0.152485 0.610159 0.660236
#
# Coordination Sequence:
#
# PCOD9422998 Si02
#       5
#     4   8   8   8   4
#     4  11  26  45  66  94 136 184 232 282 344 411
#     4  10  22  40  66  97 129 172 225 282 346 414
#     4  12  25  41  65  96 130 173 221 278 342 411
#     4  10  23  45  68  96 136 181 228 287 346 413
#     4   9  20  45  72  98 136 178 226 288 356 421
#
# _framework density 23.821477999999999
#
# number of rings (size 3 to 8) (size 9 to 14) (size 15 to 20)
#    0.000    1.500    0.000    3.750    0.000    9.000 
#    0.000    8.750    0.000    0.000    0.000    0.000 
#    0.000    0.000    0.000    0.000    0.000    0.000 
#
# Total GULP energy -178150.563176 kJ/mol
# GULP energy per Si atom -5567.205099 kJ/mol
# Density = 2.376726 g / cm^3
# Si number density = 23.821478 Si / 1000 Ang^3
#
#
#
# Elastic Constant Matrix: (Units=GPa)
#
#
# Indices 1 2 3 4 5 6 
#
# 1 165.1052 67.5171 53.5572 0.0000 0.0000 0.0000
# 2 67.5171 121.2494 35.5045 0.0000 0.0000 0.0000
# 3 53.5572 35.5045 121.3308 0.0000 0.0000 0.0000
# 4 0.0000 0.0000 0.0000 -66.1460 0.0000 0.0000
# 5 0.0000 0.0000 0.0000 0.0000 30.8018 0.0000
# 6 0.0000 0.0000 0.0000 0.0000 0.0000 43.2160
#
#
#
# Elastic Compliance Matrix: (Units=1/GPa)
#
#
# Indices 1 2 3 4 5 6 
#
# 1 0.008531 -0.003990 -0.002598 0.000000 0.000000 0.000000
# 2 -0.003990 0.010886 -0.001424 0.000000 0.000000 0.000000
# 3 -0.002598 -0.001424 0.009806 0.000000 0.000000 0.000000
# 4 0.000000 0.000000 0.000000 -0.015118 0.000000 0.000000
# 5 0.000000 0.000000 0.000000 0.000000 0.032466 0.000000
# 6 0.000000 0.000000 0.000000 0.000000 0.000000 0.023140
#
#
# Mechanical properties :
#
#
# Convention : Reuss Voigt Hill
#
# Bulk Modulus (GPa) = 75.76824 80.09367 77.93096
# Shear Modulus (GPa) = 55.47279 18.31481 36.89380
#
# Velocity S-wave (km/s) = 4.83088 2.77580 3.93970
# Velocity P-wave (km/s) = 7.93677 6.63090 7.31304
#
# Compressibility (1/GPa) = 0.01319814
#
# Stress axis : x y z
#
# Youngs Moduli (GPa) = 117.21837 91.85938 101.98159
#
# Poissons Ratio (x) = 0.36649 0.26498
# Poissons Ratio (y) = 0.46766 0.14527
# Poissons Ratio (z) = 0.30457 0.13085
#
# Static dielectric constant tensor:
#      x y z
#    x 2.192080 0.000000 0.000000 
#    y 0.000000 1.862690 0.000000 
#    z 0.000000 0.000000 1.896950 
# 
# From -- ./inp_files/20870.got.cif
#   From: 2010.05.17/outbox.cif.g08.bks.cpg/sg54_11_cif.got.tgz:20870.got - 2010.06.03 13:09:01.
