data_PCOD9422521
_publ_section_title
;
Structure prediction by ZEFSAII (Michael W. Deem and Ramdas Pophale) SiO2 
 PCOD9422521
Probable space group: P C C A
;
_chemical_formula_sum "Si O2"
_cell_formula_units_Z 48
_cell_length_a 9.367484
_cell_length_b 9.133408
_cell_length_c 24.502666
_cell_angle_alpha 90.000000
_cell_angle_beta 90.000000
_cell_angle_gamma 90.000000
_cell_volume 2096.375901
_symmetry_space_group_name_H-M "P C C A"
_symmetry_group_IT_number 54
_symmetry_cell_setting 'orthorhombic'
loop_
_space_group_symop_operation_xyz
x,y,z
1/2-x,-y,z
1/2+x,-y,1/2-z
-x,y,1/2-z
-x,-y,-z
1/2+x,y,-z
1/2-x,y,1/2+z
x,-y,1/2+z
loop_
_atom_site_type_symbol
_atom_site_label
_atom_site_fract_x
_atom_site_fract_y
_atom_site_fract_z
Si Si1 0.183532 0.852583 0.497554
Si Si2 0.872589 0.103524 0.631699
Si Si3 0.104182 0.586002 0.379147
Si Si4 0.947603 0.662358 0.486189
Si Si5 0.902566 0.931988 0.803921
Si Si6 0.899308 0.589921 0.803162
O O1 0.158751 0.886626 0.433453
O O2 0.286943 0.712825 0.505515
O O3 0.033124 0.790601 0.518229
O O4 0.250000 0.000000 0.522478
O O5 0.854371 0.268572 0.654634
O O6 0.750000 0.000000 0.655083
O O7 0.018493 0.024548 0.648527
O O8 0.250000 0.500000 0.396161
O O9 0.000987 0.660183 0.424212
O O10 0.999953 0.476267 0.349572
O O11 0.000000 0.500000 0.500000
O O12 0.878556 0.760713 0.816053
O O13 0.000000 0.943498 0.750000
O O14 0.750000 0.000000 0.793394
O O15 0.750000 0.500000 0.798296
O O16 0.000000 0.577098 0.750000
#
# Coordination Sequence:
#
# PCOD9422521 Si02
#       6
#     8   8   8   8   8   8
#     4  10  22  41  62  90 126 169 216 270 327 384
#     4  10  21  40  64  93 127 169 216 265 323 386
#     4  11  23  41  65  95 129 171 219 271 330 394
#     4  11  22  40  64  92 126 168 217 270 328 386
#     4  11  24  42  67  98 132 170 215 266 324 392
#     4  11  25  44  67  98 133 171 213 266 329 396
#
# _framework density 22.896657000000001
#
# number of rings (size 3 to 8) (size 9 to 14) (size 15 to 20)
#    0.000    1.333    0.000    6.000    0.000    8.000 
#    0.000   13.333    0.000    0.000    0.000    0.000 
#    0.000    0.000    0.000    0.000    0.000    0.000 
#
# Total GULP energy -267791.880814 kJ/mol
# GULP energy per Si atom -5578.997517 kJ/mol
# Density = 2.284454 g / cm^3
# Si number density = 22.896657 Si / 1000 Ang^3
#
#
#
# Elastic Constant Matrix: (Units=GPa)
#
#
# Indices 1 2 3 4 5 6 
#
# 1 127.3058 47.2173 19.4581 0.0000 0.0000 0.0000
# 2 47.2173 161.1914 27.9871 0.0000 0.0000 0.0000
# 3 19.4581 27.9871 37.6239 0.0000 0.0000 0.0000
# 4 0.0000 0.0000 0.0000 14.3279 0.0000 0.0000
# 5 0.0000 0.0000 0.0000 0.0000 19.0845 0.0000
# 6 0.0000 0.0000 0.0000 0.0000 0.0000 56.1667
#
#
#
# Elastic Compliance Matrix: (Units=1/GPa)
#
#
# Indices 1 2 3 4 5 6 
#
# 1 0.009124 -0.002128 -0.003135 0.000000 0.000000 0.000000
# 2 -0.002128 0.007620 -0.004568 0.000000 0.000000 0.000000
# 3 -0.003135 -0.004568 0.031598 0.000000 0.000000 0.000000
# 4 0.000000 0.000000 0.000000 0.069794 0.000000 0.000000
# 5 0.000000 0.000000 0.000000 0.000000 0.052399 0.000000
# 6 0.000000 0.000000 0.000000 0.000000 0.000000 0.017804
#
#
# Mechanical properties :
#
#
# Convention : Reuss Voigt Hill
#
# Bulk Modulus (GPa) = 34.86835 57.27177 46.07006
# Shear Modulus (GPa) = 22.98198 33.34638 28.16418
#
# Velocity S-wave (km/s) = 3.17160 3.82040 3.51102
# Velocity P-wave (km/s) = 5.35478 6.67294 6.04987
#
# Compressibility (1/GPa) = 0.02867931
#
# Stress axis : x y z
#
# Youngs Moduli (GPa) = 109.60497 131.22844 31.64734
#
# Poissons Ratio (x) = 0.27928 0.09923
# Poissons Ratio (y) = 0.23326 0.14456
# Poissons Ratio (z) = 0.34366 0.59943
#
# Static dielectric constant tensor:
#      x y z
#    x 1.867020 0.000000 0.000000 
#    y 0.000000 1.984080 0.000000 
#    z 0.000000 0.000000 1.335330 
# 
# From -- ./inp_files/27723.got.cif
#   From: 2010.05.17/outbox.cif.g08.bks.cpg/sg54_14_cif.got.tgz:27723.got - 2010.06.03 13:09:01.
