data_PCOD9422922
_publ_section_title
;
Structure prediction by ZEFSAII (Michael W. Deem and Ramdas Pophale) SiO2 
 PCOD9422922
Probable space group: P C C A
;
_chemical_formula_sum "Si O2"
_cell_formula_units_Z 32
_cell_length_a 10.967914
_cell_length_b 13.400316
_cell_length_c 9.134467
_cell_angle_alpha 90.000000
_cell_angle_beta 90.000000
_cell_angle_gamma 90.000000
_cell_volume 1342.524709
_symmetry_space_group_name_H-M "P C C A"
_symmetry_group_IT_number 54
_symmetry_cell_setting 'orthorhombic'
loop_
_space_group_symop_operation_xyz
x,y,z
1/2-x,-y,z
1/2+x,-y,1/2-z
-x,y,1/2-z
-x,-y,-z
1/2+x,y,-z
1/2-x,y,1/2+z
x,-y,1/2+z
loop_
_atom_site_type_symbol
_atom_site_label
_atom_site_fract_x
_atom_site_fract_y
_atom_site_fract_z
Si Si1 0.811259 0.657553 0.803692
Si Si2 0.859580 0.921900 0.281210
Si Si3 0.076606 0.455688 0.632917
Si Si4 0.244540 0.791313 0.471529
O O1 0.691963 0.614000 0.888397
O O2 0.879557 0.554585 0.780826
O O3 0.793486 0.716029 0.654039
O O4 0.855213 0.735517 0.925265
O O5 0.819890 0.873526 0.127445
O O6 0.841307 0.841342 0.414647
O O7 0.000000 0.955658 0.250000
O O8 0.750000 0.000000 0.312950
O O9 0.000000 0.394215 0.750000
O O10 0.000000 0.500000 0.500000
#
# Coordination Sequence:
#
# PCOD9422922 Si02
#       4
#     8   8   8   8
#     4  10  22  40  59  94 133 173 229 278 334 397
#     4  11  26  48  73 103 137 176 227 292 368 442
#     4  11  22  36  59  88 131 183 225 273 327 388
#     4  10  23  42  67  96 131 175 225 290 349 418
#
# _framework density 23.835688999999999
#
# number of rings (size 3 to 8) (size 9 to 14) (size 15 to 20)
#    0.000    1.500    0.000    3.750    0.000   18.000 
#    0.000    7.500    0.000    0.000    0.000    0.000 
#    0.000    0.000    0.000    0.000    0.000    0.000 
#
# Total GULP energy -178212.822324 kJ/mol
# GULP energy per Si atom -5569.150698 kJ/mol
# Density = 2.378144 g / cm^3
# Si number density = 23.835689 Si / 1000 Ang^3
#
#
#
# Elastic Constant Matrix: (Units=GPa)
#
#
# Indices 1 2 3 4 5 6 
#
# 1 106.6807 27.5174 34.5019 0.0000 0.0000 0.0000
# 2 27.5174 93.1247 37.8907 0.0000 0.0000 0.0000
# 3 34.5019 37.8907 162.8180 0.0000 0.0000 0.0000
# 4 0.0000 0.0000 0.0000 44.2748 0.0000 0.0000
# 5 0.0000 0.0000 0.0000 0.0000 20.1499 0.0000
# 6 0.0000 0.0000 0.0000 0.0000 0.0000 1.5170
#
#
#
# Elastic Compliance Matrix: (Units=1/GPa)
#
#
# Indices 1 2 3 4 5 6 
#
# 1 0.010541 -0.002437 -0.001667 0.000000 0.000000 0.000000
# 2 -0.002437 0.012425 -0.002375 0.000000 0.000000 0.000000
# 3 -0.001667 -0.002375 0.007048 0.000000 0.000000 0.000000
# 4 0.000000 0.000000 0.000000 0.022586 0.000000 0.000000
# 5 0.000000 0.000000 0.000000 0.000000 0.049628 0.000000
# 6 0.000000 0.000000 0.000000 0.000000 0.000000 0.659213
#
#
# Mechanical properties :
#
#
# Convention : Reuss Voigt Hill
#
# Bulk Modulus (GPa) = 58.62782 62.49373 60.56078
# Shear Modulus (GPa) = 6.40957 30.70255 18.55606
#
# Velocity S-wave (km/s) = 1.64162 3.59289 2.79319
# Velocity P-wave (km/s) = 5.31444 6.59449 5.98876
#
# Compressibility (1/GPa) = 0.01705675
#
# Stress axis : x y z
#
# Youngs Moduli (GPa) = 94.86469 80.48486 141.88953
#
# Poissons Ratio (x) = 0.19612 0.23649
# Poissons Ratio (y) = 0.23116 0.33700
# Poissons Ratio (z) = 0.15811 0.19116
#
# Static dielectric constant tensor:
#      x y z
#    x 2.173570 0.000000 0.000000 
#    y 0.000000 1.943920 0.000000 
#    z 0.000000 0.000000 4.298470 
# 
# From -- ./inp_files/2777.got.cif
#   From: 2010.05.17/outbox.cif.g08.bks.cpg/sg54_2_cif.got.tgz:2777.got - 2010.06.03 13:09:01.
