data_PCOD9422315
_publ_section_title
;
Structure prediction by ZEFSAII (Michael W. Deem and Ramdas Pophale) SiO2 
 PCOD9422315
Probable space group: P C C A
;
_chemical_formula_sum "Si O2"
_cell_formula_units_Z 40
_cell_length_a 7.565869
_cell_length_b 7.967447
_cell_length_c 29.034818
_cell_angle_alpha 90.000000
_cell_angle_beta 90.000000
_cell_angle_gamma 90.000000
_cell_volume 1750.238000
_symmetry_space_group_name_H-M "P C C A"
_symmetry_group_IT_number 54
_symmetry_cell_setting 'orthorhombic'
loop_
_space_group_symop_operation_xyz
x,y,z
1/2-x,-y,z
1/2+x,-y,1/2-z
-x,y,1/2-z
-x,-y,-z
1/2+x,y,-z
1/2-x,y,1/2+z
x,-y,1/2+z
loop_
_atom_site_type_symbol
_atom_site_label
_atom_site_fract_x
_atom_site_fract_y
_atom_site_fract_z
Si Si1 0.022732 0.171281 0.135002
Si Si2 0.374343 0.339285 0.048265
Si Si3 0.538170 0.518541 0.303226
Si Si4 0.545230 0.794366 0.858346
Si Si5 0.530721 0.164718 0.969353
O O1 0.965086 0.329717 0.165433
O O2 0.238744 0.188487 0.139015
O O3 0.953928 0.175241 0.082115
O O4 0.978460 0.982054 0.150122
O O5 0.250000 0.500000 0.058190
O O6 0.493702 0.289375 0.091732
O O7 0.235433 0.189025 0.041104
O O8 0.477119 0.323787 0.000491
O O9 0.750000 0.500000 0.309170
O O10 0.500000 0.548919 0.250000
O O11 0.476759 0.336841 0.320923
O O12 0.500000 0.000000 0.000000
#
# Coordination Sequence:
#
# PCOD9422315 Si02
#       5
#     8   8   8   8   8
#     4   9  18  34  57  81 111 148 189 229 278 344
#     4  11  21  34  55  84 117 156 199 237 283 343
#     4  10  21  38  60  82 108 141 187 240 290 341
#     4   9  17  34  57  82 106 147 192 230 273 344
#     4  11  20  35  56  83 118 153 195 237 283 341
#
# _framework density 22.854036000000001
#
# number of rings (size 3 to 8) (size 9 to 14) (size 15 to 20)
#    0.000    2.000    2.000    4.200    0.000    0.800 
#    0.000    3.000    0.000    0.000    0.000    0.000 
#    0.000    0.000    0.000    0.000    0.000    0.000 
#
# Total GULP energy -222999.809191 kJ/mol
# GULP energy per Si atom -5574.995230 kJ/mol
# Density = 2.280202 g / cm^3
# Si number density = 22.854036 Si / 1000 Ang^3
#
#
#
# Elastic Constant Matrix: (Units=GPa)
#
#
# Indices 1 2 3 4 5 6 
#
# 1 25.3151 -0.4508 -7.9601 0.0000 0.0000 0.0000
# 2 -0.4508 212.6154 99.1884 0.0000 0.0000 0.0000
# 3 -7.9601 99.1884 149.3803 0.0000 0.0000 0.0000
# 4 0.0000 0.0000 0.0000 -1.9061 0.0000 0.0000
# 5 0.0000 0.0000 0.0000 0.0000 15.9662 0.0000
# 6 0.0000 0.0000 0.0000 0.0000 0.0000 4.9494
#
#
#
# Elastic Compliance Matrix: (Units=1/GPa)
#
#
# Indices 1 2 3 4 5 6 
#
# 1 0.040434 -0.001332 0.003039 0.000000 0.000000 0.000000
# 2 -0.001332 0.006858 -0.004625 0.000000 0.000000 0.000000
# 3 0.003039 -0.004625 0.009927 0.000000 0.000000 0.000000
# 4 0.000000 0.000000 0.000000 -0.524625 0.000000 0.000000
# 5 0.000000 0.000000 0.000000 0.000000 0.062632 0.000000
# 6 0.000000 0.000000 0.000000 0.000000 0.000000 0.202045
#
#
# Mechanical properties :
#
#
# Convention : Reuss Voigt Hill
#
# Bulk Modulus (GPa) = 19.46137 63.20730 41.33434
# Shear Modulus (GPa) = -27.81406 23.57078 -2.12164
#
# Velocity S-wave (km/s) = -3.49238 3.21497 -0.96455
# Velocity P-wave (km/s) = 2.77998 6.44192 4.10914
#
# Compressibility (1/GPa) = 0.05138384
#
# Stress axis : x y z
#
# Youngs Moduli (GPa) = 24.73163 145.81541 100.73488
#
# Poissons Ratio (x) = 0.19423 -0.30614
# Poissons Ratio (y) = 0.03294 0.46587
# Poissons Ratio (z) = -0.07516 0.67435
#
# Static dielectric constant tensor:
#      x y z
#    x 1.953770 0.000000 0.000000 
#    y 0.000000 1.895680 0.000000 
#    z 0.000000 0.000000 1.946660 
# 
# From -- ./inp_files/23286.got.cif
#   From: 2010.05.17/outbox.cif.g08.bks.cpg/sg54_12_cif.got.tgz:23286.got - 2010.06.03 13:09:01.
