data_PCOD9422430
_publ_section_title
;
Structure prediction by ZEFSAII (Michael W. Deem and Ramdas Pophale) SiO2 
 PCOD9422430
Probable space group: P C C A
;
_chemical_formula_sum "Si O2"
_cell_formula_units_Z 24
_cell_length_a 5.237901
_cell_length_b 13.437829
_cell_length_c 15.645301
_cell_angle_alpha 90.000000
_cell_angle_beta 90.000000
_cell_angle_gamma 90.000000
_cell_volume 1101.210437
_symmetry_space_group_name_H-M "P C C A"
_symmetry_group_IT_number 54
_symmetry_cell_setting 'orthorhombic'
loop_
_space_group_symop_operation_xyz
x,y,z
1/2-x,-y,z
1/2+x,-y,1/2-z
-x,y,1/2-z
-x,-y,-z
1/2+x,y,-z
1/2-x,y,1/2+z
x,-y,1/2+z
loop_
_atom_site_type_symbol
_atom_site_label
_atom_site_fract_x
_atom_site_fract_y
_atom_site_fract_z
Si Si1 0.267034 0.886482 0.441228
Si Si2 0.056201 0.611242 0.466501
Si Si3 0.750009 0.290481 0.193303
O O1 0.512257 0.874803 0.502144
O O2 0.284545 0.806439 0.366010
O O3 0.250000 0.000000 0.407667
O O4 0.273753 0.657873 0.527734
O O5 0.177189 0.621991 0.373529
O O6 0.000000 0.500000 0.500000
O O7 0.500000 0.275628 0.250000
O O8 0.000000 0.310053 0.250000
#
# Coordination Sequence:
#
# PCOD9422430 Si02
#       3
#     8   8   8
#     4  10  21  39  63  89 123 173 221 253 301 387
#     4  10  21  41  65  85 113 162 208 248 306 382
#     4  12  24  38  61  95 130 160 203 270 332 374
#
# _framework density 21.794198999999999
#
# number of rings (size 3 to 8) (size 9 to 14) (size 15 to 20)
#    0.000    1.333    0.000    6.000    0.000    1.333 
#    0.000   13.333    0.000    0.000    0.000    0.000 
#    0.000    0.000    0.000    0.000    0.000    0.000 
#
# Total GULP energy -134091.741756 kJ/mol
# GULP energy per Si atom -5587.155906 kJ/mol
# Density = 2.174459 g / cm^3
# Si number density = 21.794199 Si / 1000 Ang^3
#
#
#
# Elastic Constant Matrix: (Units=GPa)
#
#
# Indices 1 2 3 4 5 6 
#
# 1 224.3043 35.9856 74.7757 0.0000 0.0000 0.0000
# 2 35.9856 134.1913 62.6819 0.0000 0.0000 0.0000
# 3 74.7757 62.6819 141.6330 0.0000 0.0000 0.0000
# 4 0.0000 0.0000 0.0000 21.7197 0.0000 0.0000
# 5 0.0000 0.0000 0.0000 0.0000 51.6229 0.0000
# 6 0.0000 0.0000 0.0000 0.0000 0.0000 25.9287
#
#
#
# Elastic Compliance Matrix: (Units=1/GPa)
#
#
# Indices 1 2 3 4 5 6 
#
# 1 0.005413 -0.000147 -0.002793 0.000000 0.000000 0.000000
# 2 -0.000147 0.009398 -0.004082 0.000000 0.000000 0.000000
# 3 -0.002793 -0.004082 0.010341 0.000000 0.000000 0.000000
# 4 0.000000 0.000000 0.000000 0.046041 0.000000 0.000000
# 5 0.000000 0.000000 0.000000 0.000000 0.019371 0.000000
# 6 0.000000 0.000000 0.000000 0.000000 0.000000 0.038567
#
#
# Mechanical properties :
#
#
# Convention : Reuss Voigt Hill
#
# Bulk Modulus (GPa) = 90.01306 94.11278 92.06292
# Shear Modulus (GPa) = 34.04199 41.63329 37.83764
#
# Velocity S-wave (km/s) = 3.95647 4.37543 4.17121
# Velocity P-wave (km/s) = 7.89066 8.29470 8.09521
#
# Compressibility (1/GPa) = 0.01110950
#
# Stress axis : x y z
#
# Youngs Moduli (GPa) = 184.74759 106.40517 96.70015
#
# Poissons Ratio (x) = 0.01565 0.27005
# Poissons Ratio (y) = 0.02717 0.39469
# Poissons Ratio (z) = 0.51593 0.43430
#
# Static dielectric constant tensor:
#      x y z
#    x 1.890370 0.000000 0.000000 
#    y 0.000000 1.942590 0.000000 
#    z 0.000000 0.000000 1.793340 
# 
# From -- ./inp_files/10680.got.cif
#   From: 2010.05.17/outbox.cif.g08.bks.cpg/sg54_6_cif.got.tgz:10680.got - 2010.06.03 13:09:01.
