data_PCOD9422732
_publ_section_title
;
Structure prediction by ZEFSAII (Michael W. Deem and Ramdas Pophale) SiO2 
 PCOD9422732
Probable space group: P C C A
;
_chemical_formula_sum "Si O2"
_cell_formula_units_Z 64
_cell_length_a 11.204231
_cell_length_b 12.721019
_cell_length_c 21.609504
_cell_angle_alpha 90.000000
_cell_angle_beta 90.000000
_cell_angle_gamma 90.000000
_cell_volume 3079.986083
_symmetry_space_group_name_H-M "P C C A"
_symmetry_group_IT_number 54
_symmetry_cell_setting 'orthorhombic'
loop_
_space_group_symop_operation_xyz
x,y,z
1/2-x,-y,z
1/2+x,-y,1/2-z
-x,y,1/2-z
-x,-y,-z
1/2+x,y,-z
1/2-x,y,1/2+z
x,-y,1/2+z
loop_
_atom_site_type_symbol
_atom_site_label
_atom_site_fract_x
_atom_site_fract_y
_atom_site_fract_z
Si Si1 0.538198 0.564025 0.320517
Si Si2 0.669769 0.603006 0.513934
Si Si3 0.711154 0.622989 0.140803
Si Si4 0.965005 0.355519 0.898525
Si Si5 0.596720 0.756327 0.700163
Si Si6 0.121906 0.000642 0.810047
Si Si7 0.363759 0.072575 0.672474
Si Si8 0.198465 0.293365 0.110691
O O1 0.500000 0.559840 0.250000
O O2 0.429828 0.628041 0.352430
O O3 0.542533 0.449010 0.349082
O O4 0.659455 0.622195 0.337660
O O5 0.750000 0.500000 0.495814
O O6 0.747944 0.650172 0.570948
O O7 0.540520 0.591341 0.546590
O O8 0.641723 0.672644 0.454407
O O9 0.750000 0.500000 0.148876
O O10 0.781191 0.691182 0.192060
O O11 0.836097 0.307798 0.907399
O O12 0.039036 0.262127 0.866940
O O13 0.500000 0.717315 0.750000
O O14 0.612363 0.878889 0.712411
O O15 0.134330 0.928957 0.748071
O O16 0.997853 0.969195 0.842698
O O17 0.250000 0.000000 0.844485
O O18 0.338274 0.182755 0.639619
O O19 0.250000 0.000000 0.655823
#
# Coordination Sequence:
#
# PCOD9422732 Si02
#       8
#     8   8   8   8   8   8   8   8
#     4  12  26  40  60 105 149 177 212 281 352 412
#     4  10  21  46  71  93 132 186 243 271 330 401
#     4  10  22  41  64  96 141 183 213 277 327 409
#     4  11  24  44  65  99 140 182 228 271 337 431
#     4  11  21  38  69  95 128 187 227 258 346 439
#     4  10  22  39  68  95 129 182 229 291 351 428
#     4  10  22  44  64  97 136 170 233 296 357 406
#     4  12  28  38  72 103 129 188 231 293 339 417
#
# _framework density 20.779315
#
# number of rings (size 3 to 8) (size 9 to 14) (size 15 to 20)
#    0.000    1.250    5.000    2.250    8.750    1.000 
#    0.000    0.000    0.000    9.750    0.000    0.000 
#    0.000    0.000    0.000    0.000    0.000    0.000 
#
# Total GULP energy -356835.830774 kJ/mol
# GULP energy per Si atom -5575.559856 kJ/mol
# Density = 2.073202 g / cm^3
# Si number density = 20.779315 Si / 1000 Ang^3
#
#
#
# Elastic Constant Matrix: (Units=GPa)
#
#
# Indices 1 2 3 4 5 6 
#
# 1 129.3653 36.9832 13.4765 0.0000 0.0000 0.0000
# 2 36.9832 99.6085 58.3105 0.0000 0.0000 0.0000
# 3 13.4765 58.3105 86.6174 0.0000 0.0000 0.0000
# 4 0.0000 0.0000 0.0000 226.6171 0.0000 0.0000
# 5 0.0000 0.0000 0.0000 0.0000 15.6104 0.0000
# 6 0.0000 0.0000 0.0000 0.0000 0.0000 26.3699
#
#
#
# Elastic Compliance Matrix: (Units=1/GPa)
#
#
# Indices 1 2 3 4 5 6 
#
# 1 0.008744 -0.004044 0.001362 0.000000 0.000000 0.000000
# 2 -0.004044 0.018439 -0.011784 0.000000 0.000000 0.000000
# 3 0.001362 -0.011784 0.019266 0.000000 0.000000 0.000000
# 4 0.000000 0.000000 0.000000 0.004413 0.000000 0.000000
# 5 0.000000 0.000000 0.000000 0.000000 0.064060 0.000000
# 6 0.000000 0.000000 0.000000 0.000000 0.000000 0.037922
#
#
# Mechanical properties :
#
#
# Convention : Reuss Voigt Hill
#
# Bulk Modulus (GPa) = 57.08602 59.23684 58.16143
# Shear Modulus (GPa) = 26.65034 67.50753 47.07894
#
# Velocity S-wave (km/s) = 3.58514 5.70600 4.76506
# Velocity P-wave (km/s) = 6.68355 8.48414 7.63710
#
# Compressibility (1/GPa) = 0.01751742
#
# Stress axis : x y z
#
# Youngs Moduli (GPa) = 114.36111 54.23307 51.90490
#
# Poissons Ratio (x) = 0.21931 -0.07068
# Poissons Ratio (y) = 0.46245 0.61164
# Poissons Ratio (z) = -0.15573 0.63907
#
# Static dielectric constant tensor:
#      x y z
#    x 1.869450 0.000000 0.000000 
#    y 0.000000 1.752120 0.000000 
#    z 0.000000 0.000000 1.755730 
# 
# From -- ./inp_files/24266.got.cif
#   From: 2010.05.17/outbox.cif.g08.bks.cpg/sg54_13_cif.got.tgz:24266.got - 2010.06.03 13:09:01.
