data_PCOD9422288
_publ_section_title
;
Structure prediction by ZEFSAII (Michael W. Deem and Ramdas Pophale) SiO2 
 PCOD9422288
Probable space group: P C C A
;
_chemical_formula_sum "Si O2"
_cell_formula_units_Z 48
_cell_length_a 26.042552
_cell_length_b 5.329327
_cell_length_c 14.298199
_cell_angle_alpha 90.000000
_cell_angle_beta 90.000000
_cell_angle_gamma 90.000000
_cell_volume 1984.436680
_symmetry_space_group_name_H-M "P C C A"
_symmetry_group_IT_number 54
_symmetry_cell_setting 'orthorhombic'
loop_
_space_group_symop_operation_xyz
x,y,z
1/2-x,-y,z
1/2+x,-y,1/2-z
-x,y,1/2-z
-x,-y,-z
1/2+x,y,-z
1/2-x,y,1/2+z
x,-y,1/2+z
loop_
_atom_site_type_symbol
_atom_site_label
_atom_site_fract_x
_atom_site_fract_y
_atom_site_fract_z
Si Si1 0.279129 0.745056 0.411622
Si Si2 0.052853 0.838037 0.501711
Si Si3 0.940438 0.811643 0.776316
Si Si4 0.235097 0.249869 0.706972
Si Si5 0.616247 0.314355 0.285458
Si Si6 0.107579 0.325909 0.486705
O O1 0.250000 0.500000 0.443665
O O2 0.271715 0.752526 0.298515
O O3 0.336437 0.679565 0.442320
O O4 0.250000 0.000000 0.442160
O O5 0.062431 0.808065 0.611550
O O6 0.068215 0.558715 0.464037
O O7 0.088485 0.050179 0.458267
O O8 0.000000 0.000000 0.500000
O O9 0.905739 0.575801 0.746139
O O10 0.000000 0.781584 0.750000
O O11 0.918342 0.083485 0.750272
O O12 0.250000 0.500000 0.653660
O O13 0.175737 0.261487 0.735565
O O14 0.250000 0.000000 0.653469
O O15 0.612655 0.323716 0.399443
#
# Coordination Sequence:
#
# PCOD9422288 Si02
#       6
#     8   8   8   8   8   8
#     4  10  21  38  56  84 123 153 202 249 295 360
#     4  10  21  40  60  90 120 155 203 252 300 363
#     4  10  21  40  60  90 120 154 203 252 297 363
#     4  10  21  38  56  84 123 151 201 248 294 359
#     4  10  21  38  62  84 120 162 199 243 307 358
#     4  10  21  38  62  84 120 163 200 244 307 359
#
# _framework density 24.188224000000002
#
# number of rings (size 3 to 8) (size 9 to 14) (size 15 to 20)
#    0.000    2.000    0.000    3.000    0.000    1.333 
#   18.000    0.000    0.000    0.000    0.000    0.000 
#    0.000    0.000    0.000    0.000    0.000    0.000 
#
# Total GULP energy -267925.804987 kJ/mol
# GULP energy per Si atom -5581.787604 kJ/mol
# Density = 2.413317 g / cm^3
# Si number density = 24.188224 Si / 1000 Ang^3
#
#
#
# Elastic Constant Matrix: (Units=GPa)
#
#
# Indices 1 2 3 4 5 6 
#
# 1 107.7884 44.5607 5.0271 0.0000 0.0000 0.0000
# 2 44.5607 214.1115 30.5335 0.0000 0.0000 0.0000
# 3 5.0271 30.5335 86.9864 0.0000 0.0000 0.0000
# 4 0.0000 0.0000 0.0000 503.2010 0.0000 0.0000
# 5 0.0000 0.0000 0.0000 0.0000 33.6623 0.0000
# 6 0.0000 0.0000 0.0000 0.0000 0.0000 45.1442
#
#
#
# Elastic Compliance Matrix: (Units=1/GPa)
#
#
# Indices 1 2 3 4 5 6 
#
# 1 0.010153 -0.002136 0.000163 0.000000 0.000000 0.000000
# 2 -0.002136 0.005366 -0.001760 0.000000 0.000000 0.000000
# 3 0.000163 -0.001760 0.012104 0.000000 0.000000 0.000000
# 4 0.000000 0.000000 0.000000 0.001987 0.000000 0.000000
# 5 0.000000 0.000000 0.000000 0.000000 0.029707 0.000000
# 6 0.000000 0.000000 0.000000 0.000000 0.000000 0.022151
#
#
# Mechanical properties :
#
#
# Convention : Reuss Voigt Hill
#
# Bulk Modulus (GPa) = 49.61076 63.23656 56.42366
# Shear Modulus (GPa) = 52.27149 138.31916 95.29532
#
# Velocity S-wave (km/s) = 4.65373 7.57025 6.28354
# Velocity P-wave (km/s) = 7.03073 10.12975 8.71903
#
# Compressibility (1/GPa) = 0.02015692
#
# Stress axis : x y z
#
# Youngs Moduli (GPa) = 98.49313 186.35621 82.61429
#
# Poissons Ratio (x) = 0.39811 -0.01347
# Poissons Ratio (y) = 0.21041 0.14541
# Poissons Ratio (z) = -0.01606 0.32801
#
# Static dielectric constant tensor:
#      x y z
#    x 2.033310 0.000000 0.000000 
#    y 0.000000 3.019400 0.000000 
#    z 0.000000 0.000000 1.929440 
# 
# From -- ./inp_files/19041.got.cif
#   From: 2010.05.17/outbox.cif.g08.bks.cpg/sg54_10_cif.got.tgz:19041.got - 2010.06.03 13:09:01.
