data_PCOD9422465
_publ_section_title
;
Structure prediction by ZEFSAII (Michael W. Deem and Ramdas Pophale) SiO2 
 PCOD9422465
Probable space group: P C C A
;
_chemical_formula_sum "Si O2"
_cell_formula_units_Z 36
_cell_length_a 14.548332
_cell_length_b 5.732660
_cell_length_c 18.356478
_cell_angle_alpha 90.000000
_cell_angle_beta 90.000000
_cell_angle_gamma 90.000000
_cell_volume 1530.942030
_symmetry_space_group_name_H-M "P C C A"
_symmetry_group_IT_number 54
_symmetry_cell_setting 'orthorhombic'
loop_
_space_group_symop_operation_xyz
x,y,z
1/2-x,-y,z
1/2+x,-y,1/2-z
-x,y,1/2-z
-x,-y,-z
1/2+x,y,-z
1/2-x,y,1/2+z
x,-y,1/2+z
loop_
_atom_site_type_symbol
_atom_site_label
_atom_site_fract_x
_atom_site_fract_y
_atom_site_fract_z
Si Si1 0.108528 0.862054 0.154598
Si Si2 0.892416 0.773455 0.731327
Si Si3 0.440658 0.443921 0.392312
Si Si4 0.571124 0.804536 0.471875
Si Si5 0.250000 0.500000 0.670002
O O1 0.186135 0.682233 0.129632
O O2 0.006876 0.743133 0.150117
O O3 0.125445 0.964626 0.236372
O O4 0.118213 0.069394 0.096080
O O5 0.886601 0.640419 0.653754
O O6 0.823341 0.627100 0.779519
O O7 0.000000 0.738904 0.750000
O O8 0.515829 0.597030 0.434394
O O9 0.384762 0.301281 0.454371
O O10 0.500000 0.000000 0.500000
#
# Coordination Sequence:
#
# PCOD9422465 Si02
#       5
#     8   8   8   8   4
#     4  11  22  40  63 102 140 185 235 290 355 417
#     4  12  24  40  68 102 138 187 230 289 356 420
#     4  10  21  39  66 101 133 179 234 282 353 425
#     4   9  19  36  66  99 131 177 232 287 345 424
#     4  12  26  40  64 104 144 176 240 298 342 418
#
# _framework density 23.514932999999999
#
# number of rings (size 3 to 8) (size 9 to 14) (size 15 to 20)
#    0.000    1.333    4.444    0.667    3.111    0.000 
#    0.000    0.000    0.000   32.000    0.000    0.000 
#    0.000    0.000    0.000    0.000    0.000    0.111 
#
# Total GULP energy -200430.049799 kJ/mol
# GULP energy per Si atom -5567.501383 kJ/mol
# Density = 2.346141 g / cm^3
# Si number density = 23.514933 Si / 1000 Ang^3
#
#
#
# Elastic Constant Matrix: (Units=GPa)
#
#
# Indices 1 2 3 4 5 6 
#
# 1 50.6278 9.7190 1.9476 0.0000 0.0000 0.0000
# 2 9.7190 106.9897 59.7552 0.0000 0.0000 0.0000
# 3 1.9476 59.7552 116.0082 0.0000 0.0000 0.0000
# 4 0.0000 0.0000 0.0000 24.6702 0.0000 0.0000
# 5 0.0000 0.0000 0.0000 0.0000 10.1567 0.0000
# 6 0.0000 0.0000 0.0000 0.0000 0.0000 31.8563
#
#
#
# Elastic Compliance Matrix: (Units=1/GPa)
#
#
# Indices 1 2 3 4 5 6 
#
# 1 0.020162 -0.002306 0.000849 0.000000 0.000000 0.000000
# 2 -0.002306 0.013385 -0.006856 0.000000 0.000000 0.000000
# 3 0.000849 -0.006856 0.012137 0.000000 0.000000 0.000000
# 4 0.000000 0.000000 0.000000 0.040535 0.000000 0.000000
# 5 0.000000 0.000000 0.000000 0.000000 0.098457 0.000000
# 6 0.000000 0.000000 0.000000 0.000000 0.000000 0.031391
#
#
# Mechanical properties :
#
#
# Convention : Reuss Voigt Hill
#
# Bulk Modulus (GPa) = 34.41226 46.27437 40.34331
# Shear Modulus (GPa) = 20.62883 26.81690 23.72287
#
# Velocity S-wave (km/s) = 2.96508 3.38067 3.17967
# Velocity P-wave (km/s) = 5.13695 5.91270 5.53842
#
# Compressibility (1/GPa) = 0.02905941
#
# Stress axis : x y z
#
# Youngs Moduli (GPa) = 49.59835 74.70861 82.39048
#
# Poissons Ratio (x) = 0.17227 -0.06997
# Poissons Ratio (y) = 0.11437 0.56487
# Poissons Ratio (z) = -0.04212 0.51220
#
# Static dielectric constant tensor:
#      x y z
#    x 1.859540 0.000000 0.000000 
#    y 0.000000 2.000990 0.000000 
#    z 0.000000 0.000000 1.993500 
# 
# From -- ./inp_files/21316.got.cif
#   From: 2010.05.17/outbox.cif.g08.bks.cpg/sg54_11_cif.got.tgz:21316.got - 2010.06.03 13:09:01.
