data_PCOD9422550
_publ_section_title
;
Structure prediction by ZEFSAII (Michael W. Deem and Ramdas Pophale) SiO2 
 PCOD9422550
Probable space group: P C C A
;
_chemical_formula_sum "Si O2"
_cell_formula_units_Z 48
_cell_length_a 7.692106
_cell_length_b 8.773692
_cell_length_c 31.606384
_cell_angle_alpha 90.000000
_cell_angle_beta 90.000000
_cell_angle_gamma 90.000000
_cell_volume 2133.056981
_symmetry_space_group_name_H-M "P C C A"
_symmetry_group_IT_number 54
_symmetry_cell_setting 'orthorhombic'
loop_
_space_group_symop_operation_xyz
x,y,z
1/2-x,-y,z
1/2+x,-y,1/2-z
-x,y,1/2-z
-x,-y,-z
1/2+x,y,-z
1/2-x,y,1/2+z
x,-y,1/2+z
loop_
_atom_site_type_symbol
_atom_site_label
_atom_site_fract_x
_atom_site_fract_y
_atom_site_fract_z
Si Si1 0.195511 0.667113 0.147679
Si Si2 0.060930 0.926253 0.202053
Si Si3 0.545391 0.883763 0.463009
Si Si4 0.353378 0.339953 0.406018
Si Si5 0.264292 0.674490 0.495978
Si Si6 0.042865 0.864089 0.872375
O O1 0.250000 0.500000 0.161548
O O2 0.094755 0.758712 0.184155
O O3 0.373978 0.753938 0.134381
O O4 0.047098 0.653788 0.112036
O O5 0.000000 0.929551 0.250000
O O6 0.250000 0.000000 0.201168
O O7 0.953039 0.025559 0.167988
O O8 0.434766 0.727507 0.470283
O O9 0.731740 0.807641 0.470118
O O10 0.503078 0.946886 0.416863
O O11 0.500000 0.000000 0.500000
O O12 0.250000 0.500000 0.401959
O O13 0.368213 0.309780 0.456180
O O14 0.224013 0.222001 0.381951
O O15 0.250000 0.500000 0.510600
#
# Coordination Sequence:
#
# PCOD9422550 Si02
#       6
#     8   8   8   8   8   8
#     4  11  23  42  72  99 133 176 223 277 344 407
#     4  10  25  46  70 104 135 173 227 278 347 418
#     4  11  24  40  62  93 135 173 225 288 333 395
#     4  10  21  40  67  99 134 179 228 280 336 399
#     4  10  23  39  59  93 128 179 233 270 338 396
#     4  10  24  44  67 100 134 181 229 278 345 407
#
# _framework density 22.502915999999999
#
# number of rings (size 3 to 8) (size 9 to 14) (size 15 to 20)
#    0.000    1.667    1.667    1.000    7.000    3.333 
#    0.000    4.167    0.000    0.000    0.000    0.000 
#    0.000    0.000    0.000    0.000    0.000    0.000 
#
# Total GULP energy -268113.021135 kJ/mol
# GULP energy per Si atom -5585.687940 kJ/mol
# Density = 2.245170 g / cm^3
# Si number density = 22.502916 Si / 1000 Ang^3
#
#
#
# Elastic Constant Matrix: (Units=GPa)
#
#
# Indices 1 2 3 4 5 6 
#
# 1 70.4542 29.3247 4.8033 0.0000 0.0000 0.0000
# 2 29.3247 119.5111 62.7038 0.0000 0.0000 0.0000
# 3 4.8033 62.7038 137.8002 0.0000 0.0000 0.0000
# 4 0.0000 0.0000 0.0000 18.4817 0.0000 0.0000
# 5 0.0000 0.0000 0.0000 0.0000 37.2938 0.0000
# 6 0.0000 0.0000 0.0000 0.0000 0.0000 33.8227
#
#
#
# Elastic Compliance Matrix: (Units=1/GPa)
#
#
# Indices 1 2 3 4 5 6 
#
# 1 0.016079 -0.004797 0.001622 0.000000 0.000000 0.000000
# 2 -0.004797 0.012422 -0.005485 0.000000 0.000000 0.000000
# 3 0.001622 -0.005485 0.009696 0.000000 0.000000 0.000000
# 4 0.000000 0.000000 0.000000 0.054108 0.000000 0.000000
# 5 0.000000 0.000000 0.000000 0.000000 0.026814 0.000000
# 6 0.000000 0.000000 0.000000 0.000000 0.000000 0.029566
#
#
# Mechanical properties :
#
#
# Convention : Reuss Voigt Hill
#
# Bulk Modulus (GPa) = 47.89605 57.93659 52.91632
# Shear Modulus (GPa) = 28.90757 33.31521 31.11139
#
# Velocity S-wave (km/s) = 3.58804 3.85188 3.72230
# Velocity P-wave (km/s) = 6.20451 6.75165 6.48386
#
# Compressibility (1/GPa) = 0.02087855
#
# Stress axis : x y z
#
# Youngs Moduli (GPa) = 62.19121 80.49978 103.13108
#
# Poissons Ratio (x) = 0.38612 -0.16729
# Poissons Ratio (y) = 0.29830 0.56572
# Poissons Ratio (z) = -0.10088 0.44158
#
# Static dielectric constant tensor:
#      x y z
#    x 2.026770 0.000000 0.000000 
#    y 0.000000 1.857330 0.000000 
#    z 0.000000 0.000000 1.913030 
# 
# From -- ./inp_files/27759.got.cif
#   From: 2010.05.17/outbox.cif.g08.bks.cpg/sg54_14_cif.got.tgz:27759.got - 2010.06.03 13:09:01.
