data_PCOD9422894
_publ_section_title
;
Structure prediction by ZEFSAII (Michael W. Deem and Ramdas Pophale) SiO2 
 PCOD9422894
Probable space group: P C C A
;
_chemical_formula_sum "Si O2"
_cell_formula_units_Z 52
_cell_length_a 19.845061
_cell_length_b 6.583065
_cell_length_c 17.378231
_cell_angle_alpha 90.000000
_cell_angle_beta 90.000000
_cell_angle_gamma 90.000000
_cell_volume 2270.315150
_symmetry_space_group_name_H-M "P C C A"
_symmetry_group_IT_number 54
_symmetry_cell_setting 'orthorhombic'
loop_
_space_group_symop_operation_xyz
x,y,z
1/2-x,-y,z
1/2+x,-y,1/2-z
-x,y,1/2-z
-x,-y,-z
1/2+x,y,-z
1/2-x,y,1/2+z
x,-y,1/2+z
loop_
_atom_site_type_symbol
_atom_site_label
_atom_site_fract_x
_atom_site_fract_y
_atom_site_fract_z
Si Si1 0.871410 0.778115 0.213391
Si Si2 0.032967 0.207917 0.922004
Si Si3 0.905605 0.411971 0.866179
Si Si4 0.750000 0.500000 0.187928
Si Si5 0.681105 0.871403 0.120651
Si Si6 0.062253 0.151932 0.098074
Si Si7 0.320858 0.879142 0.556184
O O1 0.913547 0.711644 0.286857
O O2 0.800664 0.659520 0.227538
O O3 0.911850 0.710145 0.137207
O O4 0.857400 0.012219 0.189541
O O5 0.965610 0.339919 0.921331
O O6 0.005030 0.985457 0.893718
O O7 0.060449 0.208923 0.007780
O O8 0.921350 0.648165 0.853720
O O9 0.835240 0.344984 0.907682
O O10 0.700502 0.643142 0.139777
O O11 0.750000 0.000000 0.115854
O O12 0.655207 0.878129 0.033068
O O13 0.127071 0.009957 0.105757
O O14 0.250000 0.000000 0.560517
#
# Coordination Sequence:
#
# PCOD9422894 Si02
#       7
#     8   8   8   4   8   8   8
#     4  11  23  42  63  96 135 173 219 283 341 397
#     4  10  22  43  66  90 133 176 217 272 335 399
#     4  11  25  39  66 100 131 169 226 275 334 405
#     4  10  24  38  66  96 130 180 232 266 336 412
#     4   9  20  39  61  90 128 173 223 266 327 396
#     4  10  22  42  66  96 127 171 222 276 331 397
#     4  10  22  39  64  95 131 175 215 275 333 392
#
# _framework density 22.904309999999999
#
# number of rings (size 3 to 8) (size 9 to 14) (size 15 to 20)
#    0.000    1.846    1.538    0.923    2.154    7.385 
#    0.000    3.077    0.000    0.000    0.000    0.000 
#    0.000    0.000    0.000    0.000    0.000    0.000 
#
# Total GULP energy -289642.506243 kJ/mol
# GULP energy per Si atom -5570.048197 kJ/mol
# Density = 2.285218 g / cm^3
# Si number density = 22.904310 Si / 1000 Ang^3
#
#
#
# Elastic Constant Matrix: (Units=GPa)
#
#
# Indices 1 2 3 4 5 6 
#
# 1 65.6918 9.3167 5.0849 0.0000 0.0000 0.0000
# 2 9.3167 109.6985 22.6636 0.0000 0.0000 0.0000
# 3 5.0849 22.6636 71.5232 0.0000 0.0000 0.0000
# 4 0.0000 0.0000 0.0000 11.6559 0.0000 0.0000
# 5 0.0000 0.0000 0.0000 0.0000 -0.4989 0.0000
# 6 0.0000 0.0000 0.0000 0.0000 0.0000 32.2869
#
#
#
# Elastic Compliance Matrix: (Units=1/GPa)
#
#
# Indices 1 2 3 4 5 6 
#
# 1 0.015444 -0.001161 -0.000730 0.000000 0.000000 0.000000
# 2 -0.001161 0.009842 -0.003036 0.000000 0.000000 0.000000
# 3 -0.000730 -0.003036 0.014995 0.000000 0.000000 0.000000
# 4 0.000000 0.000000 0.000000 0.085794 0.000000 0.000000
# 5 0.000000 0.000000 0.000000 0.000000 -2.004225 0.000000
# 6 0.000000 0.000000 0.000000 0.000000 0.000000 0.030972
#
#
# Mechanical properties :
#
#
# Convention : Reuss Voigt Hill
#
# Bulk Modulus (GPa) = 32.86562 35.67157 34.26859
# Shear Modulus (GPa) = -2.73646 22.67865 9.97110
#
# Velocity S-wave (km/s) = -1.09422 3.15007 2.08874
# Velocity P-wave (km/s) = 3.57545 5.37016 4.56193
#
# Compressibility (1/GPa) = 0.03042693
#
# Stress axis : x y z
#
# Youngs Moduli (GPa) = 64.75117 101.60824 66.68704
#
# Poissons Ratio (x) = 0.11795 0.04869
# Poissons Ratio (y) = 0.07516 0.20246
# Poissons Ratio (z) = 0.04728 0.30849
#
# Static dielectric constant tensor:
#      x y z
#    x 1.892680 0.000000 0.000000 
#    y 0.000000 1.989360 0.000000 
#    z 0.000000 0.000000 1.832840 
# 
# From -- ./inp_files/22146.got.cif
#   From: 2010.05.17/outbox.cif.g08.bks.cpg/sg54_12_cif.got.tgz:22146.got - 2010.06.03 13:09:01.
