data_PCOD9422815
_publ_section_title
;
Structure prediction by ZEFSAII (Michael W. Deem and Ramdas Pophale) SiO2 
 PCOD9422815
Probable space group: P C C A
;
_chemical_formula_sum "Si O2"
_cell_formula_units_Z 56
_cell_length_a 5.300331
_cell_length_b 30.948792
_cell_length_c 16.054267
_cell_angle_alpha 90.000000
_cell_angle_beta 90.000000
_cell_angle_gamma 90.000000
_cell_volume 2633.523362
_symmetry_space_group_name_H-M "P C C A"
_symmetry_group_IT_number 54
_symmetry_cell_setting 'orthorhombic'
loop_
_space_group_symop_operation_xyz
x,y,z
1/2-x,-y,z
1/2+x,-y,1/2-z
-x,y,1/2-z
-x,-y,-z
1/2+x,y,-z
1/2-x,y,1/2+z
x,-y,1/2+z
loop_
_atom_site_type_symbol
_atom_site_label
_atom_site_fract_x
_atom_site_fract_y
_atom_site_fract_z
Si Si1 0.116923 0.888161 0.340697
Si Si2 0.000000 0.169695 0.250000
Si Si3 0.500894 0.191239 0.446927
Si Si4 0.611654 0.685661 0.442133
Si Si5 0.326296 0.750625 0.680873
Si Si6 0.006347 0.018943 0.904729
Si Si7 0.750000 0.500000 0.442095
Si Si8 0.739952 0.406684 0.944026
O O1 0.381059 0.863497 0.318129
O O2 0.981724 0.851193 0.391711
O O3 0.000000 0.897319 0.250000
O O4 0.066815 0.930524 0.396667
O O5 0.797354 0.204869 0.283711
O O6 0.755363 0.191879 0.497984
O O7 0.483352 0.232482 0.388806
O O8 0.346425 0.689262 0.491582
O O9 0.632974 0.720898 0.368923
O O10 0.669346 0.638503 0.401234
O O11 0.500000 0.728799 0.750000
O O12 0.750000 0.000000 0.867225
O O13 0.250000 0.000000 0.860132
O O14 0.000000 0.000000 0.000000
O O15 0.500000 0.500000 0.500000
O O16 0.769013 0.453165 0.398204
O O17 0.520314 0.405983 0.015647
#
# Coordination Sequence:
#
# PCOD9422815 Si02
#       8
#     8   4   8   8   8   8   4   8
#     4  12  27  47  77 103 139 176 210 262 312 380
#     4  12  24  48  70 100 140 174 230 262 328 370
#     4  12  26  42  69 100 130 169 213 263 319 371
#     4  10  22  38  60  87 127 170 221 274 334 393
#     4  12  25  43  63  94 132 177 221 275 321 395
#     4  10  26  48  74 105 135 166 204 248 301 362
#     4   8  12  20  40  68 108 148 196 256 330 392
#     4   8  14  26  44  74 111 155 201 263 328 391
#
# _framework density 21.264289000000002
#
# number of rings (size 3 to 8) (size 9 to 14) (size 15 to 20)
#    0.000    1.429    2.857    1.714    8.000    0.571 
#    0.000    0.000    0.000    0.000    0.000    0.000 
#    2.143    0.000    0.000    0.000    0.286    0.000 
#
# Total GULP energy -311755.679911 kJ/mol
# GULP energy per Si atom -5567.065713 kJ/mol
# Density = 2.121589 g / cm^3
# Si number density = 21.264289 Si / 1000 Ang^3
#
#
#
# Elastic Constant Matrix: (Units=GPa)
#
#
# Indices 1 2 3 4 5 6 
#
# 1 135.5755 8.0756 14.3418 0.0000 0.0000 0.0000
# 2 8.0756 123.0140 21.7562 0.0000 0.0000 0.0000
# 3 14.3418 21.7562 49.5890 0.0000 0.0000 0.0000
# 4 0.0000 0.0000 0.0000 -22.6962 0.0000 0.0000
# 5 0.0000 0.0000 0.0000 0.0000 3.2906 0.0000
# 6 0.0000 0.0000 0.0000 0.0000 0.0000 27.5281
#
#
#
# Elastic Compliance Matrix: (Units=1/GPa)
#
#
# Indices 1 2 3 4 5 6 
#
# 1 0.007610 -0.000120 -0.002149 0.000000 0.000000 0.000000
# 2 -0.000120 0.008815 -0.003833 0.000000 0.000000 0.000000
# 3 -0.002149 -0.003833 0.022469 0.000000 0.000000 0.000000
# 4 0.000000 0.000000 0.000000 -0.044060 0.000000 0.000000
# 5 0.000000 0.000000 0.000000 0.000000 0.303897 0.000000
# 6 0.000000 0.000000 0.000000 0.000000 0.000000 0.036327
#
#
# Mechanical properties :
#
#
# Convention : Reuss Voigt Hill
#
# Bulk Modulus (GPa) = 37.46426 44.05842 40.76134
# Shear Modulus (GPa) = 14.03876 19.22480 16.63178
#
# Velocity S-wave (km/s) = 2.57223 3.01007 2.79972
# Velocity P-wave (km/s) = 5.14572 5.73106 5.44626
#
# Compressibility (1/GPa) = 0.02669211
#
# Stress axis : x y z
#
# Youngs Moduli (GPa) = 131.39960 113.44465 44.50635
#
# Poissons Ratio (x) = 0.01357 0.09562
# Poissons Ratio (y) = 0.01572 0.17058
# Poissons Ratio (z) = 0.28232 0.43481
#
# Static dielectric constant tensor:
#      x y z
#    x 1.808810 0.000000 0.000000 
#    y 0.000000 1.846530 0.000000 
#    z 0.000000 0.000000 1.824150 
# 
# From -- ./inp_files/11023.got.cif
#   From: 2010.05.17/outbox.cif.g08.bks.cpg/sg54_6_cif.got.tgz:11023.got - 2010.06.03 13:09:01.
