data_PCOD9422107
_publ_section_title
;
Structure prediction by ZEFSAII (Michael W. Deem and Ramdas Pophale) SiO2 
 PCOD9422107
Probable space group: P C C A
;
_chemical_formula_sum "Si O2"
_cell_formula_units_Z 48
_cell_length_a 21.215155
_cell_length_b 9.407717
_cell_length_c 11.398387
_cell_angle_alpha 90.000000
_cell_angle_beta 90.000000
_cell_angle_gamma 90.000000
_cell_volume 2274.960455
_symmetry_space_group_name_H-M "P C C A"
_symmetry_group_IT_number 54
_symmetry_cell_setting 'orthorhombic'
loop_
_space_group_symop_operation_xyz
x,y,z
1/2-x,-y,z
1/2+x,-y,1/2-z
-x,y,1/2-z
-x,-y,-z
1/2+x,y,-z
1/2-x,y,1/2+z
x,-y,1/2+z
loop_
_atom_site_type_symbol
_atom_site_label
_atom_site_fract_x
_atom_site_fract_y
_atom_site_fract_z
Si Si1 0.175729 0.480547 0.954162
Si Si2 0.918171 0.445608 0.349700
Si Si3 0.100396 0.251099 0.371041
Si Si4 0.523976 0.781350 0.493397
Si Si5 0.573915 0.019879 0.795422
Si Si6 0.403794 0.722588 0.778993
O O1 0.250000 0.500000 0.949262
O O2 0.147730 0.638150 0.929375
O O3 0.149198 0.437302 0.082952
O O4 0.148345 0.365953 0.857689
O O5 0.926305 0.350329 0.234445
O O6 0.962975 0.376680 0.445075
O O7 0.929385 0.604114 0.308987
O O8 0.048301 0.197516 0.462367
O O9 0.116197 0.112081 0.295483
O O10 0.546902 0.779240 0.624828
O O11 0.565577 0.892712 0.417058
O O12 0.500000 0.021084 0.750000
O O13 0.606684 0.866099 0.794787
#
# Coordination Sequence:
#
# PCOD9422107 Si02
#       6
#     8   8   8   8   8   8
#     4  10  22  38  55  76 106 148 203 250 280 324
#     4   9  19  33  53  80 110 145 185 231 284 336
#     4   9  19  35  55  78 114 151 178 227 293 342
#     4   9  19  35  53  85 124 148 174 227 289 351
#     4   9  19  34  54  85 123 150 174 219 283 351
#     4  10  21  34  58  86 110 149 192 227 282 348
#
# _framework density 21.099267000000001
#
# number of rings (size 3 to 8) (size 9 to 14) (size 15 to 20)
#    0.000    2.667    0.000    1.500    0.000   18.000 
#    0.000    0.833    0.000    0.000    0.000    0.000 
#    0.000    0.000    0.000    0.000    0.000    0.000 
#
# Total GULP energy -267457.606935 kJ/mol
# GULP energy per Si atom -5572.033478 kJ/mol
# Density = 2.105124 g / cm^3
# Si number density = 21.099267 Si / 1000 Ang^3
#
#
#
# Elastic Constant Matrix: (Units=GPa)
#
#
# Indices 1 2 3 4 5 6 
#
# 1 76.6198 19.5505 29.5986 0.0000 0.0000 0.0000
# 2 19.5505 152.7648 35.8479 0.0000 0.0000 0.0000
# 3 29.5986 35.8479 90.4788 0.0000 0.0000 0.0000
# 4 0.0000 0.0000 0.0000 24.5248 0.0000 0.0000
# 5 0.0000 0.0000 0.0000 0.0000 14.7010 0.0000
# 6 0.0000 0.0000 0.0000 0.0000 0.0000 15.2886
#
#
#
# Elastic Compliance Matrix: (Units=1/GPa)
#
#
# Indices 1 2 3 4 5 6 
#
# 1 0.015039 -0.000849 -0.004583 0.000000 0.000000 0.000000
# 2 -0.000849 0.007265 -0.002601 0.000000 0.000000 0.000000
# 3 -0.004583 -0.002601 0.013582 0.000000 0.000000 0.000000
# 4 0.000000 0.000000 0.000000 0.040775 0.000000 0.000000
# 5 0.000000 0.000000 0.000000 0.000000 0.068023 0.000000
# 6 0.000000 0.000000 0.000000 0.000000 0.000000 0.065408
#
#
# Mechanical properties :
#
#
# Convention : Reuss Voigt Hill
#
# Bulk Modulus (GPa) = 50.45483 54.42858 52.44171
# Shear Modulus (GPa) = 21.48099 26.56064 24.02081
#
# Velocity S-wave (km/s) = 3.19422 3.55186 3.37778
# Velocity P-wave (km/s) = 6.12936 6.53249 6.33413
#
# Compressibility (1/GPa) = 0.01981971
#
# Stress axis : x y z
#
# Youngs Moduli (GPa) = 66.49543 137.64736 73.62688
#
# Poissons Ratio (x) = 0.11688 0.33745
# Poissons Ratio (y) = 0.05646 0.19147
# Poissons Ratio (z) = 0.30476 0.35797
#
# Static dielectric constant tensor:
#      x y z
#    x 1.751290 0.000000 0.000000 
#    y 0.000000 1.829830 0.000000 
#    z 0.000000 0.000000 1.830300 
# 
# From -- ./inp_files/9886.got.cif
#   From: 2010.05.17/outbox.cif.g08.bks.cpg/sg54_5_cif.got.tgz:9886.got - 2010.06.03 13:09:01.
