data_PCOD9422795
_publ_section_title
;
Structure prediction by ZEFSAII (Michael W. Deem and Ramdas Pophale) SiO2 
 PCOD9422795
Probable space group: P C C A
;
_chemical_formula_sum "Si O2"
_cell_formula_units_Z 40
_cell_length_a 8.444317
_cell_length_b 11.365701
_cell_length_c 21.161918
_cell_angle_alpha 90.000000
_cell_angle_beta 90.000000
_cell_angle_gamma 90.000000
_cell_volume 2031.027400
_symmetry_space_group_name_H-M "P C C A"
_symmetry_group_IT_number 54
_symmetry_cell_setting 'orthorhombic'
loop_
_space_group_symop_operation_xyz
x,y,z
1/2-x,-y,z
1/2+x,-y,1/2-z
-x,y,1/2-z
-x,-y,-z
1/2+x,y,-z
1/2-x,y,1/2+z
x,-y,1/2+z
loop_
_atom_site_type_symbol
_atom_site_label
_atom_site_fract_x
_atom_site_fract_y
_atom_site_fract_z
Si Si1 0.042450 0.077047 0.177822
Si Si2 0.397783 0.178077 0.184664
Si Si3 0.178112 0.870841 0.930475
Si Si4 0.563760 0.269357 0.005728
Si Si5 0.184167 0.373222 0.587644
O O1 0.211312 0.140867 0.184996
O O2 0.000000 0.060898 0.250000
O O3 0.911668 0.141573 0.136142
O O4 0.040443 0.942506 0.151574
O O5 0.500000 0.192961 0.250000
O O6 0.391129 0.296155 0.143734
O O7 0.048221 0.837659 0.983464
O O8 0.250000 0.000000 0.938439
O O9 0.315996 0.776677 0.941413
O O10 0.667890 0.307949 0.945896
O O11 0.451545 0.370572 0.033656
O O12 0.250000 0.500000 0.606424
#
# Coordination Sequence:
#
# PCOD9422795 Si02
#       5
#     8   8   8   8   8
#     4  10  22  37  61  90 126 162 200 255 318 391
#     4  10  22  40  62  89 121 161 208 257 319 378
#     4  11  21  36  60  92 133 167 202 257 320 383
#     4  10  23  38  59  93 125 167 213 258 312 377
#     4  11  22  42  64  86 123 166 217 265 306 367
#
# _framework density 19.694467
#
# number of rings (size 3 to 8) (size 9 to 14) (size 15 to 20)
#    0.000    1.600    2.000    2.400    8.400    1.600 
#    0.000    1.000    0.000    1.200    0.000    0.000 
#    0.000    0.000    0.000    0.000    0.000    0.000 
#
# Total GULP energy -222755.419300 kJ/mol
# GULP energy per Si atom -5568.885483 kJ/mol
# Density = 1.964964 g / cm^3
# Si number density = 19.694467 Si / 1000 Ang^3
#
#
#
# Elastic Constant Matrix: (Units=GPa)
#
#
# Indices 1 2 3 4 5 6 
#
# 1 110.3300 48.7626 49.2924 0.0000 0.0000 0.0000
# 2 48.7626 83.9357 50.2069 0.0000 0.0000 0.0000
# 3 49.2924 50.2069 87.7853 0.0000 0.0000 0.0000
# 4 0.0000 0.0000 0.0000 27.5868 0.0000 0.0000
# 5 0.0000 0.0000 0.0000 0.0000 33.3686 0.0000
# 6 0.0000 0.0000 0.0000 0.0000 0.0000 11.0824
#
#
#
# Elastic Compliance Matrix: (Units=1/GPa)
#
#
# Indices 1 2 3 4 5 6 
#
# 1 0.013335 -0.004968 -0.004647 0.000000 0.000000 0.000000
# 2 -0.004968 0.019960 -0.008626 0.000000 0.000000 0.000000
# 3 -0.004647 -0.008626 0.018934 0.000000 0.000000 0.000000
# 4 0.000000 0.000000 0.000000 0.036249 0.000000 0.000000
# 5 0.000000 0.000000 0.000000 0.000000 0.029968 0.000000
# 6 0.000000 0.000000 0.000000 0.000000 0.000000 0.090233
#
#
# Mechanical properties :
#
#
# Convention : Reuss Voigt Hill
#
# Bulk Modulus (GPa) = 63.49993 64.28608 63.89300
# Shear Modulus (GPa) = 19.96726 23.32683 21.64704
#
# Velocity S-wave (km/s) = 3.18756 3.44530 3.31893
# Velocity P-wave (km/s) = 6.77199 6.96702 6.87020
#
# Compressibility (1/GPa) = 0.01574805
#
# Stress axis : x y z
#
# Youngs Moduli (GPa) = 74.98872 50.10117 52.81458
#
# Poissons Ratio (x) = 0.24889 0.24542
# Poissons Ratio (y) = 0.37252 0.45558
# Poissons Ratio (z) = 0.34846 0.43218
#
# Static dielectric constant tensor:
#      x y z
#    x 1.894440 0.000000 0.000000 
#    y 0.000000 1.699820 0.000000 
#    z 0.000000 0.000000 1.733010 
# 
# From -- ./inp_files/20273.got.cif
#   From: 2010.05.17/outbox.cif.g08.bks.cpg/sg54_11_cif.got.tgz:20273.got - 2010.06.03 13:09:01.
