data_PCOD9422640
_publ_section_title
;
Structure prediction by ZEFSAII (Michael W. Deem and Ramdas Pophale) SiO2 
 PCOD9422640
Probable space group: P C C A
;
_chemical_formula_sum "Si O2"
_cell_formula_units_Z 40
_cell_length_a 30.305743
_cell_length_b 6.491304
_cell_length_c 9.981583
_cell_angle_alpha 90.000000
_cell_angle_beta 90.000000
_cell_angle_gamma 90.000000
_cell_volume 1963.614846
_symmetry_space_group_name_H-M "P C C A"
_symmetry_group_IT_number 54
_symmetry_cell_setting 'orthorhombic'
loop_
_space_group_symop_operation_xyz
x,y,z
1/2-x,-y,z
1/2+x,-y,1/2-z
-x,y,1/2-z
-x,-y,-z
1/2+x,y,-z
1/2-x,y,1/2+z
x,-y,1/2+z
loop_
_atom_site_type_symbol
_atom_site_label
_atom_site_fract_x
_atom_site_fract_y
_atom_site_fract_z
Si Si1 0.326361 0.703480 0.305194
Si Si2 0.924503 0.279673 0.196350
Si Si3 0.458379 0.597177 0.576340
Si Si4 0.000000 0.954329 0.250000
Si Si5 0.750000 0.000000 0.283589
Si Si6 0.205354 0.384627 0.583705
O O1 0.374724 0.789177 0.270356
O O2 0.325811 0.625583 0.456732
O O3 0.314937 0.517061 0.204541
O O4 0.286103 0.865319 0.295174
O O5 0.940260 0.449249 0.305861
O O6 0.924869 0.367049 0.045325
O O7 0.960995 0.100258 0.196734
O O8 0.500000 0.500000 0.500000
O O9 0.476633 0.806015 0.642470
O O10 0.778905 0.839018 0.368328
O O11 0.250000 0.500000 0.539404
#
# Coordination Sequence:
#
# PCOD9422640 Si02
#       6
#     8   8   8   4   4   8
#     4  11  24  42  65  99 131 169 220 271 328 395
#     4  12  26  41  69 100 130 178 223 271 335 404
#     4  12  23  47  66  93 136 172 219 276 336 389
#     4  12  24  44  70  94 130 176 222 274 330 402
#     4  10  22  42  66  96 130 174 216 274 328 388
#     4  10  21  42  67  91 130 173 214 270 331 387
#
# _framework density 20.370595000000002
#
# number of rings (size 3 to 8) (size 9 to 14) (size 15 to 20)
#    0.000    0.800    4.000    4.200    0.000    4.800 
#    0.000    0.000    0.000    0.000    0.000    0.000 
#    0.000    0.000    0.000    0.000    0.000    0.000 
#
# Total GULP energy -223449.673631 kJ/mol
# GULP energy per Si atom -5586.241841 kJ/mol
# Density = 2.032423 g / cm^3
# Si number density = 20.370595 Si / 1000 Ang^3
#
#
#
# Elastic Constant Matrix: (Units=GPa)
#
#
# Indices 1 2 3 4 5 6 
#
# 1 134.4474 32.9228 55.6491 0.0000 0.0000 0.0000
# 2 32.9228 93.3411 60.6077 0.0000 0.0000 0.0000
# 3 55.6491 60.6077 131.1927 0.0000 0.0000 0.0000
# 4 0.0000 0.0000 0.0000 13.3561 0.0000 0.0000
# 5 0.0000 0.0000 0.0000 0.0000 -6.5285 0.0000
# 6 0.0000 0.0000 0.0000 0.0000 0.0000 11.4276
#
#
#
# Elastic Compliance Matrix: (Units=1/GPa)
#
#
# Indices 1 2 3 4 5 6 
#
# 1 0.009087 -0.001003 -0.003391 0.000000 0.000000 0.000000
# 2 -0.001003 0.015415 -0.006696 0.000000 0.000000 0.000000
# 3 -0.003391 -0.006696 0.012154 0.000000 0.000000 0.000000
# 4 0.000000 0.000000 0.000000 0.074872 0.000000 0.000000
# 5 0.000000 0.000000 0.000000 0.000000 -0.153175 0.000000
# 6 0.000000 0.000000 0.000000 0.000000 0.000000 0.087508
#
#
# Mechanical properties :
#
#
# Convention : Reuss Voigt Hill
#
# Bulk Modulus (GPa) = 69.08029 73.03783 71.05906
# Shear Modulus (GPa) = 68.61893 17.63781 43.12837
#
# Velocity S-wave (km/s) = 5.81020 2.94572 4.60628
# Velocity P-wave (km/s) = 8.88800 6.89217 7.95295
#
# Compressibility (1/GPa) = 0.01447591
#
# Stress axis : x y z
#
# Youngs Moduli (GPa) = 110.04565 64.87239 82.27718
#
# Poissons Ratio (x) = 0.06509 0.27901
# Poissons Ratio (y) = 0.11041 0.55090
# Poissons Ratio (z) = 0.37317 0.43437
#
# Static dielectric constant tensor:
#      x y z
#    x 1.730020 0.000000 0.000000 
#    y 0.000000 1.734820 0.000000 
#    z 0.000000 0.000000 1.749420 
# 
# From -- ./inp_files/10188.got.cif
#   From: 2010.05.17/outbox.cif.g08.bks.cpg/sg54_6_cif.got.tgz:10188.got - 2010.06.03 13:09:01.
