data_PCOD9422568
_publ_section_title
;
Structure prediction by ZEFSAII (Michael W. Deem and Ramdas Pophale) SiO2 
 PCOD9422568
Probable space group: P C C A
;
_chemical_formula_sum "Si O2"
_cell_formula_units_Z 48
_cell_length_a 16.849188
_cell_length_b 12.718094
_cell_length_c 11.189664
_cell_angle_alpha 90.000000
_cell_angle_beta 90.000000
_cell_angle_gamma 90.000000
_cell_volume 2397.828139
_symmetry_space_group_name_H-M "P C C A"
_symmetry_group_IT_number 54
_symmetry_cell_setting 'orthorhombic'
loop_
_space_group_symop_operation_xyz
x,y,z
1/2-x,-y,z
1/2+x,-y,1/2-z
-x,y,1/2-z
-x,-y,-z
1/2+x,y,-z
1/2-x,y,1/2+z
x,-y,1/2+z
loop_
_atom_site_type_symbol
_atom_site_label
_atom_site_fract_x
_atom_site_fract_y
_atom_site_fract_z
Si Si1 0.417578 0.187734 0.263162
Si Si2 0.602639 0.425001 0.586431
Si Si3 0.063357 0.655590 0.477498
Si Si4 0.247751 0.124465 0.370108
Si Si5 0.342758 0.716701 0.206651
Si Si6 0.192820 0.723457 0.074310
O O1 0.500000 0.122673 0.250000
O O2 0.442930 0.275725 0.358707
O O3 0.335583 0.143770 0.317010
O O4 0.385511 0.232247 0.137717
O O5 0.519561 0.382863 0.533267
O O6 0.606127 0.548975 0.566962
O O7 0.613838 0.372812 0.716014
O O8 0.671709 0.370958 0.511400
O O9 0.109168 0.719520 0.582048
O O10 0.179066 0.176665 0.282718
O O11 0.232699 0.185098 0.494551
O O12 0.250000 0.000000 0.386274
O O13 0.253945 0.682795 0.172506
#
# Coordination Sequence:
#
# PCOD9422568 Si02
#       6
#     8   8   8   8   8   8
#     4  11  22  41  65  93 129 165 210 268 320 386
#     4  10  23  38  62  91 130 177 208 259 317 381
#     4  11  22  40  63  93 131 172 214 259 321 384
#     4  10  23  46  70  93 124 170 215 274 337 381
#     4  10  22  41  62  94 124 169 218 263 316 383
#     4  10  21  41  61  93 127 165 214 267 314 380
#
# _framework density 20.018115999999999
#
# number of rings (size 3 to 8) (size 9 to 14) (size 15 to 20)
#    0.000    1.667    3.333    0.500    2.333    3.333 
#    3.000    4.167    0.000    0.000    0.000    0.000 
#    0.000    0.000    0.000    0.000    0.000    0.000 
#
# Total GULP energy -267276.978656 kJ/mol
# GULP energy per Si atom -5568.270389 kJ/mol
# Density = 1.997255 g / cm^3
# Si number density = 20.018116 Si / 1000 Ang^3
#
#
#
# Elastic Constant Matrix: (Units=GPa)
#
#
# Indices 1 2 3 4 5 6 
#
# 1 70.9936 32.8252 14.6904 0.0000 0.0000 0.0000
# 2 32.8252 91.8719 29.0366 0.0000 0.0000 0.0000
# 3 14.6904 29.0366 79.5691 0.0000 0.0000 0.0000
# 4 0.0000 0.0000 0.0000 3.8674 0.0000 0.0000
# 5 0.0000 0.0000 0.0000 0.0000 31.8839 0.0000
# 6 0.0000 0.0000 0.0000 0.0000 0.0000 16.7562
#
#
#
# Elastic Compliance Matrix: (Units=1/GPa)
#
#
# Indices 1 2 3 4 5 6 
#
# 1 0.016949 -0.005727 -0.001039 0.000000 0.000000 0.000000
# 2 -0.005727 0.014239 -0.004139 0.000000 0.000000 0.000000
# 3 -0.001039 -0.004139 0.014270 0.000000 0.000000 0.000000
# 4 0.000000 0.000000 0.000000 0.258575 0.000000 0.000000
# 5 0.000000 0.000000 0.000000 0.000000 0.031364 0.000000
# 6 0.000000 0.000000 0.000000 0.000000 0.000000 0.059679
#
#
# Mechanical properties :
#
#
# Convention : Reuss Voigt Hill
#
# Bulk Modulus (GPa) = 42.28786 43.94878 43.11832
# Shear Modulus (GPa) = 11.77111 21.56031 16.66571
#
# Velocity S-wave (km/s) = 2.42755 3.28539 2.88849
# Velocity P-wave (km/s) = 5.38776 6.03273 5.71935
#
# Compressibility (1/GPa) = 0.02364745
#
# Stress axis : x y z
#
# Youngs Moduli (GPa) = 59.00071 70.22900 70.07770
#
# Poissons Ratio (x) = 0.40222 0.07282
# Poissons Ratio (y) = 0.33792 0.29004
# Poissons Ratio (z) = 0.06131 0.29066
#
# Static dielectric constant tensor:
#      x y z
#    x 1.743940 0.000000 0.000000 
#    y 0.000000 1.682010 0.000000 
#    z 0.000000 0.000000 1.814420 
# 
# From -- ./inp_files/8957.got.cif
#   From: 2010.05.17/outbox.cif.g08.bks.cpg/sg54_5_cif.got.tgz:8957.got - 2010.06.03 13:09:01.
