data_PCOD9422248
_publ_section_title
;
Structure prediction by ZEFSAII (Michael W. Deem and Ramdas Pophale) SiO2 
 PCOD9422248
Probable space group: P C C A
;
_chemical_formula_sum "Si O2"
_cell_formula_units_Z 24
_cell_length_a 8.913517
_cell_length_b 5.043205
_cell_length_c 23.946251
_cell_angle_alpha 90.000000
_cell_angle_beta 90.000000
_cell_angle_gamma 90.000000
_cell_volume 1076.448482
_symmetry_space_group_name_H-M "P C C A"
_symmetry_group_IT_number 54
_symmetry_cell_setting 'orthorhombic'
loop_
_space_group_symop_operation_xyz
x,y,z
1/2-x,-y,z
1/2+x,-y,1/2-z
-x,y,1/2-z
-x,-y,-z
1/2+x,y,-z
1/2-x,y,1/2+z
x,-y,1/2+z
loop_
_atom_site_type_symbol
_atom_site_label
_atom_site_fract_x
_atom_site_fract_y
_atom_site_fract_z
Si Si1 0.356824 0.242930 0.531854
Si Si2 0.861938 0.248424 0.706996
Si Si3 0.418644 0.601570 0.913294
O O1 0.250000 0.500000 0.527375
O O2 0.477947 0.345621 0.576029
O O3 0.428468 0.220334 0.469534
O O4 0.250000 0.000000 0.546213
O O5 0.750000 0.500000 0.714147
O O6 0.939202 0.257261 0.645503
O O7 0.000000 0.246385 0.750000
O O8 0.750000 0.000000 0.711387
O O9 0.250000 0.500000 0.910457
#
# Coordination Sequence:
#
# PCOD9422248 Si02
#       3
#     8   8   8
#     4  10  21  37  60  93 128 164 209 260 319 389
#     4  11  24  44  67  93 127 169 218 271 327 386
#     4   9  21  39  62  89 126 169 210 261 326 388
#
# _framework density 22.295539000000002
#
# number of rings (size 3 to 8) (size 9 to 14) (size 15 to 20)
#    0.000    2.000    0.000    2.000    0.000   18.667 
#    0.000    3.333    0.000    0.000    0.000    0.000 
#    0.000    0.000    0.000    0.000    0.000    0.000 
#
# Total GULP energy -134148.726928 kJ/mol
# GULP energy per Si atom -5589.530289 kJ/mol
# Density = 2.224479 g / cm^3
# Si number density = 22.295539 Si / 1000 Ang^3
#
#
#
# Elastic Constant Matrix: (Units=GPa)
#
#
# Indices 1 2 3 4 5 6 
#
# 1 152.2142 73.2084 94.3386 0.0000 0.0000 0.0000
# 2 73.2084 174.1673 57.7349 0.0000 0.0000 0.0000
# 3 94.3386 57.7349 151.6651 0.0000 0.0000 0.0000
# 4 0.0000 0.0000 0.0000 19.6150 0.0000 0.0000
# 5 0.0000 0.0000 0.0000 0.0000 358.2540 0.0000
# 6 0.0000 0.0000 0.0000 0.0000 0.0000 55.2652
#
#
#
# Elastic Compliance Matrix: (Units=1/GPa)
#
#
# Indices 1 2 3 4 5 6 
#
# 1 0.011849 -0.002904 -0.006265 0.000000 0.000000 0.000000
# 2 -0.002904 0.007282 -0.000966 0.000000 0.000000 0.000000
# 3 -0.006265 -0.000966 0.010858 0.000000 0.000000 0.000000
# 4 0.000000 0.000000 0.000000 0.050981 0.000000 0.000000
# 5 0.000000 0.000000 0.000000 0.000000 0.002791 0.000000
# 6 0.000000 0.000000 0.000000 0.000000 0.000000 0.018095
#
#
# Mechanical properties :
#
#
# Convention : Reuss Voigt Hill
#
# Bulk Modulus (GPa) = 102.87952 103.17893 103.02923
# Shear Modulus (GPa) = 39.88303 103.47783 71.68043
#
# Velocity S-wave (km/s) = 4.23405 6.82002 5.67626
# Velocity P-wave (km/s) = 8.37536 10.41130 9.44833
#
# Compressibility (1/GPa) = 0.00972011
#
# Stress axis : x y z
#
# Youngs Moduli (GPa) = 84.39382 137.31741 92.09665
#
# Poissons Ratio (x) = 0.39875 0.57699
# Poissons Ratio (y) = 0.24507 0.08896
# Poissons Ratio (z) = 0.52873 0.13265
#
# Static dielectric constant tensor:
#      x y z
#    x 1.832780 0.000000 0.000000 
#    y 0.000000 1.862090 0.000000 
#    z 0.000000 0.000000 1.888290 
# 
# From -- ./inp_files/23075.got.cif
#   From: 2010.05.17/outbox.cif.g08.bks.cpg/sg54_12_cif.got.tgz:23075.got - 2010.06.03 13:09:01.
