data_PCOD9422447
_publ_section_title
;
Structure prediction by ZEFSAII (Michael W. Deem and Ramdas Pophale) SiO2 
 PCOD9422447
Probable space group: P C C A
;
_chemical_formula_sum "Si O2"
_cell_formula_units_Z 64
_cell_length_a 10.731365
_cell_length_b 20.156074
_cell_length_c 15.089705
_cell_angle_alpha 90.000000
_cell_angle_beta 90.000000
_cell_angle_gamma 90.000000
_cell_volume 3263.936194
_symmetry_space_group_name_H-M "P C C A"
_symmetry_group_IT_number 54
_symmetry_cell_setting 'orthorhombic'
loop_
_space_group_symop_operation_xyz
x,y,z
1/2-x,-y,z
1/2+x,-y,1/2-z
-x,y,1/2-z
-x,-y,-z
1/2+x,y,-z
1/2-x,y,1/2+z
x,-y,1/2+z
loop_
_atom_site_type_symbol
_atom_site_label
_atom_site_fract_x
_atom_site_fract_y
_atom_site_fract_z
Si Si1 0.622226 0.458663 0.029143
Si Si2 0.763084 0.333695 0.434283
Si Si3 0.194560 0.753548 0.397310
Si Si4 0.717057 0.099715 0.842583
Si Si5 0.392264 0.119840 0.315434
Si Si6 0.504191 0.357973 0.145684
Si Si7 0.440411 0.018381 0.092766
Si Si8 0.641120 0.241614 0.782992
O O1 0.750000 0.500000 0.035524
O O2 0.584346 0.422158 0.119586
O O3 0.500000 0.500000 0.000000
O O4 0.654967 0.395890 0.966649
O O5 0.746196 0.279396 0.514382
O O6 0.629042 0.359488 0.401911
O O7 0.829883 0.300426 0.350550
O O8 0.149767 0.829872 0.392444
O O9 0.276445 0.749740 0.306686
O O10 0.073391 0.708177 0.385897
O O11 0.778988 0.096971 0.745670
O O12 0.826209 0.072146 0.907895
O O13 0.674701 0.175836 0.840850
O O14 0.608439 0.047576 0.859333
O O15 0.500000 0.151363 0.250000
O O16 0.454273 0.054932 0.352920
O O17 0.500000 0.353956 0.250000
O O18 0.500000 0.000000 0.000000
O O19 0.500000 0.237761 0.750000
#
# Coordination Sequence:
#
# PCOD9422447 Si02
#       8
#     8   8   8   8   8   8   8   8
#     4  11  24  47  71 100 143 185 231 280 344 405
#     4  11  25  42  73 100 141 178 222 291 334 414
#     4  10  23  40  68 100 131 181 221 281 351 405
#     4   9  22  43  59  87 128 168 217 279 344 400
#     4   9  19  39  66  87 123 175 218 274 342 414
#     4  11  22  43  71 101 138 181 229 280 345 410
#     4  10  21  39  64  90 122 168 223 280 339 413
#     4  11  25  44  66 101 138 175 233 286 344 419
#
# _framework density 19.608225000000001
#
# number of rings (size 3 to 8) (size 9 to 14) (size 15 to 20)
#    0.000    1.750    2.500    0.375    8.750    2.500 
#    4.500    8.750    0.000    0.000    0.000    0.000 
#    0.000    0.000    0.000    0.000    0.000    0.000 
#
# Total GULP energy -356815.300747 kJ/mol
# GULP energy per Si atom -5575.239074 kJ/mol
# Density = 1.956360 g / cm^3
# Si number density = 19.608225 Si / 1000 Ang^3
#
#
#
# Elastic Constant Matrix: (Units=GPa)
#
#
# Indices 1 2 3 4 5 6 
#
# 1 92.0698 53.3572 31.9993 0.0000 0.0000 0.0000
# 2 53.3572 90.4848 33.4467 0.0000 0.0000 0.0000
# 3 31.9993 33.4467 71.6258 0.0000 0.0000 0.0000
# 4 0.0000 0.0000 0.0000 21.5511 0.0000 0.0000
# 5 0.0000 0.0000 0.0000 0.0000 27.6545 0.0000
# 6 0.0000 0.0000 0.0000 0.0000 0.0000 19.0753
#
#
#
# Elastic Compliance Matrix: (Units=1/GPa)
#
#
# Indices 1 2 3 4 5 6 
#
# 1 0.017223 -0.008837 -0.003568 0.000000 0.000000 0.000000
# 2 -0.008837 0.017892 -0.004407 0.000000 0.000000 0.000000
# 3 -0.003568 -0.004407 0.017613 0.000000 0.000000 0.000000
# 4 0.000000 0.000000 0.000000 0.046401 0.000000 0.000000
# 5 0.000000 0.000000 0.000000 0.000000 0.036160 0.000000
# 6 0.000000 0.000000 0.000000 0.000000 0.000000 0.052424
#
#
# Mechanical properties :
#
#
# Convention : Reuss Voigt Hill
#
# Bulk Modulus (GPa) = 52.34425 54.64298 53.49361
# Shear Modulus (GPa) = 21.95834 22.68134 22.31984
#
# Velocity S-wave (km/s) = 3.35005 3.40476 3.37752
# Velocity P-wave (km/s) = 6.45885 6.58668 6.52308
#
# Compressibility (1/GPa) = 0.01910430
#
# Stress axis : x y z
#
# Youngs Moduli (GPa) = 58.06296 55.89242 56.77592
#
# Poissons Ratio (x) = 0.49393 0.20256
# Poissons Ratio (y) = 0.51311 0.25019
# Poissons Ratio (z) = 0.20715 0.24630
#
# Static dielectric constant tensor:
#      x y z
#    x 1.726510 0.000000 0.000000 
#    y 0.000000 1.708100 0.000000 
#    z 0.000000 0.000000 1.614650 
# 
# From -- ./inp_files/12819.got.cif
#   From: 2010.05.17/outbox.cif.g08.bks.cpg/sg54_7_cif.got.tgz:12819.got - 2010.06.03 13:09:01.
