data_PCOD9422394
_publ_section_title
;
Structure prediction by ZEFSAII (Michael W. Deem and Ramdas Pophale) SiO2 
 PCOD9422394
Probable space group: P C C A
;
_chemical_formula_sum "Si O2"
_cell_formula_units_Z 64
_cell_length_a 18.049455
_cell_length_b 12.050080
_cell_length_c 15.310799
_cell_angle_alpha 90.000000
_cell_angle_beta 90.000000
_cell_angle_gamma 90.000000
_cell_volume 3330.058618
_symmetry_space_group_name_H-M "P C C A"
_symmetry_group_IT_number 54
_symmetry_cell_setting 'orthorhombic'
loop_
_space_group_symop_operation_xyz
x,y,z
1/2-x,-y,z
1/2+x,-y,1/2-z
-x,y,1/2-z
-x,-y,-z
1/2+x,y,-z
1/2-x,y,1/2+z
x,-y,1/2+z
loop_
_atom_site_type_symbol
_atom_site_label
_atom_site_fract_x
_atom_site_fract_y
_atom_site_fract_z
Si Si1 0.250824 0.633972 0.931010
Si Si2 0.953348 0.871282 0.462139
Si Si3 0.659998 0.686493 0.896154
Si Si4 0.989469 0.077259 0.350413
Si Si5 0.575133 0.683680 0.352655
Si Si6 0.775871 0.371219 0.256615
Si Si7 0.980503 0.545723 0.347327
Si Si8 0.913686 0.294857 0.554127
O O1 0.250000 0.500000 0.934131
O O2 0.209176 0.664761 0.842443
O O3 0.330727 0.690075 0.912020
O O4 0.213526 0.667090 0.021544
O O5 0.891251 0.789022 0.425092
O O6 0.952625 0.888705 0.568609
O O7 0.033210 0.813448 0.436990
O O8 0.946561 0.984736 0.407451
O O9 0.712455 0.694055 0.810917
O O10 0.600638 0.587838 0.877225
O O11 0.000000 0.031618 0.250000
O O12 0.950080 0.193603 0.329443
O O13 0.645983 0.642696 0.301797
O O14 0.514328 0.586897 0.347300
O O15 0.597092 0.690735 0.452435
O O16 0.750000 0.500000 0.258027
O O17 0.000000 0.586347 0.250000
O O18 0.039028 0.602688 0.410099
#
# Coordination Sequence:
#
# PCOD9422394 Si02
#       8
#     8   8   8   8   8   8   8   8
#     4  11  23  35  60  91 136 172 202 244 315 387
#     4   9  23  42  65  90 115 158 217 260 314 371
#     4  11  21  41  63  90 127 168 206 257 309 373
#     4  10  22  41  64  89 119 158 202 270 320 363
#     4  11  21  37  58  88 126 160 207 258 310 374
#     4  11  22  37  57  90 133 172 207 246 310 383
#     4  11  22  35  59  92 127 159 209 252 304 372
#     4  10  21  39  60  88 122 165 203 254 309 374
#
# _framework density 19.218881
#
# number of rings (size 3 to 8) (size 9 to 14) (size 15 to 20)
#    0.000    1.500    2.500    2.625    3.500    5.000 
#    0.000    0.625    0.000    0.000    0.000    0.000 
#    0.000    0.000    0.000    0.000    0.000    0.000 
#
# Total GULP energy -356270.967539 kJ/mol
# GULP energy per Si atom -5566.733868 kJ/mol
# Density = 1.917514 g / cm^3
# Si number density = 19.218881 Si / 1000 Ang^3
#
#
#
# Elastic Constant Matrix: (Units=GPa)
#
#
# Indices 1 2 3 4 5 6 
#
# 1 55.7874 19.9860 15.8560 0.0000 0.0000 0.0000
# 2 19.9860 71.9738 16.9003 0.0000 0.0000 0.0000
# 3 15.8560 16.9003 67.6716 0.0000 0.0000 0.0000
# 4 0.0000 0.0000 0.0000 51.4954 0.0000 0.0000
# 5 0.0000 0.0000 0.0000 0.0000 11.4346 0.0000
# 6 0.0000 0.0000 0.0000 0.0000 0.0000 12.9524
#
#
#
# Elastic Compliance Matrix: (Units=1/GPa)
#
#
# Indices 1 2 3 4 5 6 
#
# 1 0.020712 -0.004899 -0.003629 0.000000 0.000000 0.000000
# 2 -0.004899 0.015918 -0.002828 0.000000 0.000000 0.000000
# 3 -0.003629 -0.002828 0.016334 0.000000 0.000000 0.000000
# 4 0.000000 0.000000 0.000000 0.019419 0.000000 0.000000
# 5 0.000000 0.000000 0.000000 0.000000 0.087454 0.000000
# 6 0.000000 0.000000 0.000000 0.000000 0.000000 0.077206
#
#
# Mechanical properties :
#
#
# Convention : Reuss Voigt Hill
#
# Bulk Modulus (GPa) = 33.05590 33.43525 33.24558
# Shear Modulus (GPa) = 18.52955 24.68918 21.60936
#
# Velocity S-wave (km/s) = 3.10842 3.58806 3.35682
# Velocity P-wave (km/s) = 5.48817 5.88222 5.68861
#
# Compressibility (1/GPa) = 0.03025178
#
# Stress axis : x y z
#
# Youngs Moduli (GPa) = 48.28141 62.82076 61.22271
#
# Poissons Ratio (x) = 0.30777 0.22220
# Poissons Ratio (y) = 0.23654 0.17311
# Poissons Ratio (z) = 0.17523 0.17763
#
# Static dielectric constant tensor:
#      x y z
#    x 1.946230 0.000000 0.000000 
#    y 0.000000 1.712970 0.000000 
#    z 0.000000 0.000000 1.703510 
# 
# From -- ./inp_files/14322.got.cif
#   From: 2010.05.17/outbox.cif.g08.bks.cpg/sg54_8_cif.got.tgz:14322.got - 2010.06.03 13:09:01.
