data_PCOD9422771
_publ_section_title
;
Structure prediction by ZEFSAII (Michael W. Deem and Ramdas Pophale) SiO2 
 PCOD9422771
Probable space group: P C C A
;
_chemical_formula_sum "Si O2"
_cell_formula_units_Z 48
_cell_length_a 8.891649
_cell_length_b 12.910845
_cell_length_c 21.540453
_cell_angle_alpha 90.000000
_cell_angle_beta 90.000000
_cell_angle_gamma 90.000000
_cell_volume 2472.816046
_symmetry_space_group_name_H-M "P C C A"
_symmetry_group_IT_number 54
_symmetry_cell_setting 'orthorhombic'
loop_
_space_group_symop_operation_xyz
x,y,z
1/2-x,-y,z
1/2+x,-y,1/2-z
-x,y,1/2-z
-x,-y,-z
1/2+x,y,-z
1/2-x,y,1/2+z
x,-y,1/2+z
loop_
_atom_site_type_symbol
_atom_site_label
_atom_site_fract_x
_atom_site_fract_y
_atom_site_fract_z
Si Si1 0.973998 0.262218 0.504788
Si Si2 0.155276 0.103676 0.787515
Si Si3 0.779857 0.621523 0.574027
Si Si4 0.871521 0.855848 0.888475
Si Si5 0.452511 0.090066 0.098726
Si Si6 0.900570 0.268584 0.195306
O O1 0.872673 0.319438 0.555468
O O2 0.878998 0.223509 0.445609
O O3 0.099396 0.337875 0.476513
O O4 0.036438 0.158677 0.537240
O O5 0.260412 0.203176 0.778701
O O6 0.000000 0.103344 0.750000
O O7 0.099610 0.102957 0.859197
O O8 0.250000 0.000000 0.774088
O O9 0.750000 0.500000 0.570968
O O10 0.841362 0.656186 0.641338
O O11 0.699729 0.869885 0.867291
O O12 0.987174 0.814281 0.837433
O O13 0.926288 0.968487 0.911136
O O14 0.000000 0.318291 0.250000
#
# Coordination Sequence:
#
# PCOD9422771 Si02
#       6
#     8   8   8   8   8   8
#     4  11  21  41  62  94 129 164 205 261 321 377
#     4  12  24  37  60  89 129 169 216 254 311 380
#     4  11  24  43  69  92 122 163 218 276 328 379
#     4  10  22  36  61  92 132 170 205 245 305 385
#     4  11  21  36  58  92 130 168 208 247 304 382
#     4  11  23  43  64  88 126 168 212 267 323 373
#
# _framework density 19.411068
#
# number of rings (size 3 to 8) (size 9 to 14) (size 15 to 20)
#    0.000    1.000    5.000    2.500    2.333    0.000 
#    3.000    0.833    0.000    0.000    0.000    0.000 
#    0.000    0.000    0.000    0.000    0.000    0.000 
#
# Total GULP energy -268132.487374 kJ/mol
# GULP energy per Si atom -5586.093487 kJ/mol
# Density = 1.936689 g / cm^3
# Si number density = 19.411068 Si / 1000 Ang^3
#
#
#
# Elastic Constant Matrix: (Units=GPa)
#
#
# Indices 1 2 3 4 5 6 
#
# 1 78.6639 16.9082 36.4535 0.0000 0.0000 0.0000
# 2 16.9082 79.1012 33.5793 0.0000 0.0000 0.0000
# 3 36.4535 33.5793 88.9842 0.0000 0.0000 0.0000
# 4 0.0000 0.0000 0.0000 15.4638 0.0000 0.0000
# 5 0.0000 0.0000 0.0000 0.0000 42.6049 0.0000
# 6 0.0000 0.0000 0.0000 0.0000 0.0000 22.4617
#
#
#
# Elastic Compliance Matrix: (Units=1/GPa)
#
#
# Indices 1 2 3 4 5 6 
#
# 1 0.015728 -0.000746 -0.006162 0.000000 0.000000 0.000000
# 2 -0.000746 0.015089 -0.005388 0.000000 0.000000 0.000000
# 3 -0.006162 -0.005388 0.015795 0.000000 0.000000 0.000000
# 4 0.000000 0.000000 0.000000 0.064667 0.000000 0.000000
# 5 0.000000 0.000000 0.000000 0.000000 0.023471 0.000000
# 6 0.000000 0.000000 0.000000 0.000000 0.000000 0.044520
#
#
# Mechanical properties :
#
#
# Convention : Reuss Voigt Hill
#
# Bulk Modulus (GPa) = 45.41293 46.73683 46.07488
# Shear Modulus (GPa) = 23.67383 26.75997 25.21690
#
# Velocity S-wave (km/s) = 3.49607 3.71697 3.60821
# Velocity P-wave (km/s) = 6.30419 6.52310 6.41458
#
# Compressibility (1/GPa) = 0.02202016
#
# Stress axis : x y z
#
# Youngs Moduli (GPa) = 63.58066 66.27376 63.30939
#
# Poissons Ratio (x) = 0.04946 0.39009
# Poissons Ratio (y) = 0.04745 0.34113
# Poissons Ratio (z) = 0.39176 0.35710
#
# Static dielectric constant tensor:
#      x y z
#    x 1.696020 0.000000 0.000000 
#    y 0.000000 1.621410 0.000000 
#    z 0.000000 0.000000 1.719900 
# 
# From -- ./inp_files/23512.got.cif
#   From: 2010.05.17/outbox.cif.g08.bks.cpg/sg54_12_cif.got.tgz:23512.got - 2010.06.03 13:09:01.
