data_PCOD9422379
_publ_section_title
;
Structure prediction by ZEFSAII (Michael W. Deem and Ramdas Pophale) SiO2 
 PCOD9422379
Probable space group: P C C A
;
_chemical_formula_sum "Si O2"
_cell_formula_units_Z 40
_cell_length_a 18.464880
_cell_length_b 8.337257
_cell_length_c 12.378916
_cell_angle_alpha 90.000000
_cell_angle_beta 90.000000
_cell_angle_gamma 90.000000
_cell_volume 1905.690173
_symmetry_space_group_name_H-M "P C C A"
_symmetry_group_IT_number 54
_symmetry_cell_setting 'orthorhombic'
loop_
_space_group_symop_operation_xyz
x,y,z
1/2-x,-y,z
1/2+x,-y,1/2-z
-x,y,1/2-z
-x,-y,-z
1/2+x,y,-z
1/2-x,y,1/2+z
x,-y,1/2+z
loop_
_atom_site_type_symbol
_atom_site_label
_atom_site_fract_x
_atom_site_fract_y
_atom_site_fract_z
Si Si1 0.165882 0.676841 0.376754
Si Si2 0.569679 0.354668 0.312294
Si Si3 0.833542 0.711407 0.657487
Si Si4 0.107463 0.311653 0.112125
Si Si5 0.465728 0.170501 0.973784
O O1 0.117234 0.736792 0.276830
O O2 0.155786 0.481414 0.365788
O O3 0.248335 0.729731 0.361276
O O4 0.140716 0.727493 0.495616
O O5 0.500000 0.423585 0.250000
O O6 0.613365 0.497851 0.368189
O O7 0.540631 0.251133 0.409716
O O8 0.854608 0.754616 0.780765
O O9 0.887399 0.812310 0.581755
O O10 0.023554 0.263109 0.101379
O O11 0.500000 0.000000 0.000000
#
# Coordination Sequence:
#
# PCOD9422379 Si02
#       5
#     8   8   8   8   8
#     4  10  21  38  68 102 129 164 214 290 341 391
#     4  11  21  38  68  97 125 167 224 279 330 392
#     4  10  23  38  66 101 131 164 218 279 348 390
#     4  11  21  41  66  94 127 169 223 280 330 389
#     4  12  25  42  65  90 136 178 225 270 323 405
#
# _framework density 20.989771000000001
#
# number of rings (size 3 to 8) (size 9 to 14) (size 15 to 20)
#    0.000    1.200    4.000    3.600    2.800    3.200 
#    0.000    1.000    0.000    0.000    0.000    0.000 
#    0.000    0.000    0.000    0.000    0.000    0.000 
#
# Total GULP energy -223336.972104 kJ/mol
# GULP energy per Si atom -5583.424303 kJ/mol
# Density = 2.094200 g / cm^3
# Si number density = 20.989771 Si / 1000 Ang^3
#
#
#
# Elastic Constant Matrix: (Units=GPa)
#
#
# Indices 1 2 3 4 5 6 
#
# 1 136.4135 11.4217 58.1664 0.0000 0.0000 0.0000
# 2 11.4217 38.8993 28.9195 0.0000 0.0000 0.0000
# 3 58.1664 28.9195 139.9749 0.0000 0.0000 0.0000
# 4 0.0000 0.0000 0.0000 0.3589 0.0000 0.0000
# 5 0.0000 0.0000 0.0000 0.0000 29.3334 0.0000
# 6 0.0000 0.0000 0.0000 0.0000 0.0000 17.3021
#
#
#
# Elastic Compliance Matrix: (Units=1/GPa)
#
#
# Indices 1 2 3 4 5 6 
#
# 1 0.008910 0.000161 -0.003736 0.000000 0.000000 0.000000
# 2 0.000161 0.030376 -0.006343 0.000000 0.000000 0.000000
# 3 -0.003736 -0.006343 0.010007 0.000000 0.000000 0.000000
# 4 0.000000 0.000000 0.000000 2.786162 0.000000 0.000000
# 5 0.000000 0.000000 0.000000 0.000000 0.034091 0.000000
# 6 0.000000 0.000000 0.000000 0.000000 0.000000 0.057796
#
#
# Mechanical properties :
#
#
# Convention : Reuss Voigt Hill
#
# Bulk Modulus (GPa) = 33.94678 56.92256 45.43467
# Shear Modulus (GPa) = 1.69091 23.85088 12.77090
#
# Velocity S-wave (km/s) = 0.89852 3.37458 2.46932
# Velocity P-wave (km/s) = 4.15747 6.50859 5.46106
#
# Compressibility (1/GPa) = 0.02945787
#
# Stress axis : x y z
#
# Youngs Moduli (GPa) = 112.23174 32.92124 99.92973
#
# Poissons Ratio (x) = -0.00531 0.37333
# Poissons Ratio (y) = -0.01810 0.63383
# Poissons Ratio (z) = 0.41929 0.20881
#
# Static dielectric constant tensor:
#      x y z
#    x 1.757020 0.000000 0.000000 
#    y 0.000000 1.781770 0.000000 
#    z 0.000000 0.000000 1.804090 
# 
# From -- ./inp_files/8727.got.cif
#   From: 2010.05.17/outbox.cif.g08.bks.cpg/sg54_5_cif.got.tgz:8727.got - 2010.06.03 13:09:01.
