data_PCOD9422763
_publ_section_title
;
Structure prediction by ZEFSAII (Michael W. Deem and Ramdas Pophale) SiO2 
 PCOD9422763
Probable space group: P C C A
;
_chemical_formula_sum "Si O2"
_cell_formula_units_Z 32
_cell_length_a 7.680170
_cell_length_b 11.533503
_cell_length_c 15.403473
_cell_angle_alpha 90.000000
_cell_angle_beta 90.000000
_cell_angle_gamma 90.000000
_cell_volume 1364.428297
_symmetry_space_group_name_H-M "P C C A"
_symmetry_group_IT_number 54
_symmetry_cell_setting 'orthorhombic'
loop_
_space_group_symop_operation_xyz
x,y,z
1/2-x,-y,z
1/2+x,-y,1/2-z
-x,y,1/2-z
-x,-y,-z
1/2+x,y,-z
1/2-x,y,1/2+z
x,-y,1/2+z
loop_
_atom_site_type_symbol
_atom_site_label
_atom_site_fract_x
_atom_site_fract_y
_atom_site_fract_z
Si Si1 0.295854 0.246569 0.440590
Si Si2 0.408653 0.691638 0.126926
Si Si3 0.500000 0.871346 0.250000
Si Si4 0.250000 0.000000 0.380017
Si Si5 0.548984 0.533285 0.599681
O O1 0.105742 0.273157 0.401950
O O2 0.299405 0.288043 0.540202
O O3 0.438914 0.327882 0.392486
O O4 0.321706 0.109346 0.433944
O O5 0.367222 0.782279 0.202254
O O6 0.426710 0.556170 0.151389
O O7 0.401419 0.950551 0.318629
O O8 0.750000 0.500000 0.614024
O O9 0.500000 0.500000 0.500000
#
# Coordination Sequence:
#
# PCOD9422763 Si02
#       5
#     8   8   4   4   8
#     4   9  18  32  53  76  99 134 176 212 250 313
#     4   9  18  33  54  76 100 132 172 216 262 306
#     4  10  22  36  50  74 108 138 168 218 272 312
#     4  10  22  36  50  74 106 142 178 212 262 316
#     4   8  14  28  50  73  96 123 163 213 251 293
#
# _framework density 23.453046000000001
#
# number of rings (size 3 to 8) (size 9 to 14) (size 15 to 20)
#    0.000    3.000    0.000    0.000    0.000    7.000 
#    0.000    1.250    0.000   60.000    0.000    0.000 
#    0.000    0.000    0.000    0.000    0.000    0.000 
#
# Total GULP energy -178413.601136 kJ/mol
# GULP energy per Si atom -5575.425035 kJ/mol
# Density = 2.339967 g / cm^3
# Si number density = 23.453046 Si / 1000 Ang^3
#
#
#
# Elastic Constant Matrix: (Units=GPa)
#
#
# Indices 1 2 3 4 5 6 
#
# 1 57.7420 47.6268 10.4760 0.0000 0.0000 0.0000
# 2 47.6268 188.7154 8.0081 0.0000 0.0000 0.0000
# 3 10.4760 8.0081 40.0907 0.0000 0.0000 0.0000
# 4 0.0000 0.0000 0.0000 -293.6290 0.0000 0.0000
# 5 0.0000 0.0000 0.0000 0.0000 22.7129 0.0000
# 6 0.0000 0.0000 0.0000 0.0000 0.0000 1.9055
#
#
#
# Elastic Compliance Matrix: (Units=1/GPa)
#
#
# Indices 1 2 3 4 5 6 
#
# 1 0.022767 -0.005540 -0.004842 0.000000 0.000000 0.000000
# 2 -0.005540 0.006692 0.000111 0.000000 0.000000 0.000000
# 3 -0.004842 0.000111 0.026187 0.000000 0.000000 0.000000
# 4 0.000000 0.000000 0.000000 -0.003406 0.000000 0.000000
# 5 0.000000 0.000000 0.000000 0.000000 0.044028 0.000000
# 6 0.000000 0.000000 0.000000 0.000000 0.000000 0.524792
#
#
# Mechanical properties :
#
#
# Convention : Reuss Voigt Hill
#
# Bulk Modulus (GPa) = 28.48825 46.53000 37.50912
# Shear Modulus (GPa) = 7.65340 -39.10629 -15.72644
#
# Velocity S-wave (km/s) = 1.80842 -4.08785 -2.59231
# Velocity P-wave (km/s) = 4.06618 1.54853 2.65856
#
# Compressibility (1/GPa) = 0.03510219
#
# Stress axis : x y z
#
# Youngs Moduli (GPa) = 43.92392 149.42144 38.18742
#
# Poissons Ratio (x) = 0.82783 0.18492
# Poissons Ratio (y) = 0.24335 -0.00423
# Poissons Ratio (z) = 0.21270 -0.01657
#
# Static dielectric constant tensor:
#      x y z
#    x 1.900860 0.000000 0.000000 
#    y 0.000000 1.997500 0.000000 
#    z 0.000000 0.000000 1.952010 
# 
# From -- ./inp_files/7330.got.cif
#   From: 2010.05.17/outbox.cif.g08.bks.cpg/sg54_4_cif.got.tgz:7330.got - 2010.06.03 13:09:01.
