data_PCOD9422286
_publ_section_title
;
Structure prediction by ZEFSAII (Michael W. Deem and Ramdas Pophale) SiO2 
 PCOD9422286
Probable space group: P C C A
;
_chemical_formula_sum "Si O2"
_cell_formula_units_Z 44
_cell_length_a 5.374054
_cell_length_b 21.670403
_cell_length_c 16.839017
_cell_angle_alpha 90.000000
_cell_angle_beta 90.000000
_cell_angle_gamma 90.000000
_cell_volume 1961.036826
_symmetry_space_group_name_H-M "P C C A"
_symmetry_group_IT_number 54
_symmetry_cell_setting 'orthorhombic'
loop_
_space_group_symop_operation_xyz
x,y,z
1/2-x,-y,z
1/2+x,-y,1/2-z
-x,y,1/2-z
-x,-y,-z
1/2+x,y,-z
1/2-x,y,1/2+z
x,-y,1/2+z
loop_
_atom_site_type_symbol
_atom_site_label
_atom_site_fract_x
_atom_site_fract_y
_atom_site_fract_z
Si Si1 0.250001 0.277605 0.977764
Si Si2 0.750000 0.500000 0.553477
Si Si3 0.250000 0.587022 0.297329
Si Si4 0.750001 0.856076 0.456923
Si Si5 0.750000 0.070040 0.300875
Si Si6 0.750000 0.263928 0.204174
O O1 0.250000 0.249385 0.889382
O O2 0.500001 0.313160 1.000000
O O3 0.250001 0.218140 0.035802
O O4 0.500000 0.500000 0.500000
O O5 0.750000 0.442387 0.615370
O O6 0.500000 0.568998 0.250000
O O7 0.250000 0.661349 0.299314
O O8 0.000000 0.568998 0.250000
O O9 0.500002 0.878172 0.500000
O O10 0.750000 0.879737 0.368712
O O11 0.500000 0.076367 0.250000
O O12 0.000000 0.076367 0.250000
O O13 0.750000 0.000000 0.334472
O O14 0.500000 0.243931 0.250000
O O15 0.000000 0.243931 0.250000
#
# Coordination Sequence:
#
# PCOD9422286 Si02
#       6
#     8   4   8   8   8   8
#     4  10  21  38  56  81 116 148 184 230 286 335
#     4  12  24  36  56  90 120 148 188 234 286 336
#     4  10  21  39  60  81 113 155 191 229 281 340
#     4  10  21  38  56  83 115 148 184 225 283 339
#     4  10  21  38  60  85 113 147 189 234 275 326
#     4  10  21  38  61  85 109 147 196 237 277 331
#
# _framework density 22.437109
#
# number of rings (size 3 to 8) (size 9 to 14) (size 15 to 20)
#    0.000    1.818    0.000    3.818    0.000    2.182 
#    0.000   21.818    0.000    0.000    0.000    0.000 
#    0.000    0.000    0.000    0.000    0.000    0.000 
#
# Total GULP energy -246090.439850 kJ/mol
# GULP energy per Si atom -5592.964542 kJ/mol
# Density = 2.238604 g / cm^3
# Si number density = 22.437109 Si / 1000 Ang^3
#
#
#
# Elastic Constant Matrix: (Units=GPa)
#
#
# Indices 1 2 3 4 5 6 
#
# 1 246.3128 12.1941 73.7654 0.0000 0.0000 0.0000
# 2 12.1941 59.9542 21.3859 0.0000 0.0000 0.0000
# 3 73.7654 21.3859 88.4890 0.0000 0.0000 0.0000
# 4 0.0000 0.0000 0.0000 43.9539 0.0000 0.0000
# 5 0.0000 0.0000 0.0000 0.0000 44.8006 0.0000
# 6 0.0000 0.0000 0.0000 0.0000 0.0000 -185.4280
#
#
#
# Elastic Compliance Matrix: (Units=1/GPa)
#
#
# Indices 1 2 3 4 5 6 
#
# 1 0.005428 0.000558 -0.004659 0.000000 0.000000 0.000000
# 2 0.000558 0.018310 -0.004890 0.000000 0.000000 0.000000
# 3 -0.004659 -0.004890 0.016367 0.000000 0.000000 0.000000
# 4 0.000000 0.000000 0.000000 0.022751 0.000000 0.000000
# 5 0.000000 0.000000 0.000000 0.000000 0.022321 0.000000
# 6 0.000000 0.000000 0.000000 0.000000 0.000000 -0.005393
#
#
# Mechanical properties :
#
#
# Convention : Reuss Voigt Hill
#
# Bulk Modulus (GPa) = 45.20526 67.71632 56.46079
# Shear Modulus (GPa) = 47.55492 -0.17400 23.69046
#
# Velocity S-wave (km/s) = 4.60877 -0.27878 3.25293
# Velocity P-wave (km/s) = 6.96508 5.49021 6.27115
#
# Compressibility (1/GPa) = 0.02212132
#
# Stress axis : x y z
#
# Youngs Moduli (GPa) = 184.24178 54.61396 61.09883
#
# Poissons Ratio (x) = -0.03048 0.28469
# Poissons Ratio (y) = -0.10283 0.29880
# Poissons Ratio (z) = 0.85846 0.26709
#
# Static dielectric constant tensor:
#      x y z
#    x 1.873490 0.000000 0.000000 
#    y 0.000000 1.830760 0.000000 
#    z 0.000000 0.000000 1.813270 
# 
# From -- ./inp_files/10890.got.cif
#   From: 2010.05.17/outbox.cif.g08.bks.cpg/sg54_6_cif.got.tgz:10890.got - 2010.06.03 13:09:01.
