data_PCOD9422583
_publ_section_title
;
Structure prediction by ZEFSAII (Michael W. Deem and Ramdas Pophale) SiO2 
 PCOD9422583
Probable space group: P C C A
;
_chemical_formula_sum "Si O2"
_cell_formula_units_Z 40
_cell_length_a 25.925740
_cell_length_b 5.333174
_cell_length_c 13.068367
_cell_angle_alpha 90.000000
_cell_angle_beta 90.000000
_cell_angle_gamma 90.000000
_cell_volume 1806.917137
_symmetry_space_group_name_H-M "P C C A"
_symmetry_group_IT_number 54
_symmetry_cell_setting 'orthorhombic'
loop_
_space_group_symop_operation_xyz
x,y,z
1/2-x,-y,z
1/2+x,-y,1/2-z
-x,y,1/2-z
-x,-y,-z
1/2+x,y,-z
1/2-x,y,1/2+z
x,-y,1/2+z
loop_
_atom_site_type_symbol
_atom_site_label
_atom_site_fract_x
_atom_site_fract_y
_atom_site_fract_z
Si Si1 0.750000 0.000000 0.247847
Si Si2 0.857036 0.004014 0.364648
Si Si3 0.750000 0.500000 0.616497
Si Si4 0.460607 0.303531 0.953617
Si Si5 0.467377 0.025609 0.168139
Si Si6 0.644618 0.495459 0.494003
O O1 0.697788 0.956097 0.311144
O O2 0.757565 0.750376 0.181868
O O3 0.909069 0.031025 0.296753
O O4 0.861244 0.225411 0.448985
O O5 0.855490 0.719292 0.406802
O O6 0.698661 0.469924 0.550124
O O7 0.489357 0.183233 0.857502
O O8 0.500000 0.500000 0.000000
O O9 0.404934 0.426602 0.936522
O O10 0.455826 0.119855 0.052137
O O11 0.500000 0.190390 0.250000
#
# Coordination Sequence:
#
# PCOD9422583 Si02
#       6
#     4   8   4   8   8   8
#     4  12  26  42  64 100 134 162 228 276 324 400
#     4  11  23  44  65  93 130 175 214 269 330 399
#     4  12  26  42  66 100 124 176 218 278 334 382
#     4  10  21  41  63  95 129 170 222 270 324 409
#     4  10  23  39  64  96 131 172 218 271 340 391
#     4  11  23  43  69  89 130 176 219 264 334 397
#
# _framework density 22.137149999999998
#
# number of rings (size 3 to 8) (size 9 to 14) (size 15 to 20)
#    0.000    1.200    2.000    3.600    2.800    2.400 
#    0.000    0.000    0.000    0.000    0.000    0.000 
#    0.000    0.000    0.000    0.000    0.000    0.000 
#
# Total GULP energy -223101.852318 kJ/mol
# GULP energy per Si atom -5577.546308 kJ/mol
# Density = 2.208676 g / cm^3
# Si number density = 22.137150 Si / 1000 Ang^3
#
#
#
# Elastic Constant Matrix: (Units=GPa)
#
#
# Indices 1 2 3 4 5 6 
#
# 1 243.1010 15.1307 43.8992 0.0000 0.0000 0.0000
# 2 15.1307 78.9366 7.2551 0.0000 0.0000 0.0000
# 3 43.8992 7.2551 38.2362 0.0000 0.0000 0.0000
# 4 0.0000 0.0000 0.0000 20.0685 0.0000 0.0000
# 5 0.0000 0.0000 0.0000 0.0000 41.7675 0.0000
# 6 0.0000 0.0000 0.0000 0.0000 0.0000 36.1266
#
#
#
# Elastic Compliance Matrix: (Units=1/GPa)
#
#
# Indices 1 2 3 4 5 6 
#
# 1 0.005206 -0.000456 -0.005890 0.000000 0.000000 0.000000
# 2 -0.000456 0.012933 -0.001930 0.000000 0.000000 0.000000
# 3 -0.005890 -0.001930 0.033282 0.000000 0.000000 0.000000
# 4 0.000000 0.000000 0.000000 0.049829 0.000000 0.000000
# 5 0.000000 0.000000 0.000000 0.000000 0.023942 0.000000
# 6 0.000000 0.000000 0.000000 0.000000 0.000000 0.027680
#
#
# Mechanical properties :
#
#
# Convention : Reuss Voigt Hill
#
# Bulk Modulus (GPa) = 28.67972 54.76043 41.72008
# Shear Modulus (GPa) = 27.61706 39.19177 33.40442
#
# Velocity S-wave (km/s) = 3.53589 4.21219 3.88877
# Velocity P-wave (km/s) = 5.44551 6.96041 6.24904
#
# Compressibility (1/GPa) = 0.03486784
#
# Stress axis : x y z
#
# Youngs Moduli (GPa) = 192.10363 77.31993 30.04658
#
# Poissons Ratio (x) = 0.03529 0.17697
# Poissons Ratio (y) = 0.08769 0.05799
# Poissons Ratio (z) = 1.13147 0.14922
#
# Static dielectric constant tensor:
#      x y z
#    x 1.821240 0.000000 0.000000 
#    y 0.000000 1.834690 0.000000 
#    z 0.000000 0.000000 1.744310 
# 
# From -- ./inp_files/10183.got.cif
#   From: 2010.05.17/outbox.cif.g08.bks.cpg/sg54_6_cif.got.tgz:10183.got - 2010.06.03 13:09:01.
