data_PCOD9422891
_publ_section_title
;
Structure prediction by ZEFSAII (Michael W. Deem and Ramdas Pophale) SiO2 
 PCOD9422891
Probable space group: P C C A
;
_chemical_formula_sum "Si O2"
_cell_formula_units_Z 64
_cell_length_a 23.774328
_cell_length_b 8.705622
_cell_length_c 13.085336
_cell_angle_alpha 90.000000
_cell_angle_beta 90.000000
_cell_angle_gamma 90.000000
_cell_volume 2708.276086
_symmetry_space_group_name_H-M "P C C A"
_symmetry_group_IT_number 54
_symmetry_cell_setting 'orthorhombic'
loop_
_space_group_symop_operation_xyz
x,y,z
1/2-x,-y,z
1/2+x,-y,1/2-z
-x,y,1/2-z
-x,-y,-z
1/2+x,y,-z
1/2-x,y,1/2+z
x,-y,1/2+z
loop_
_atom_site_type_symbol
_atom_site_label
_atom_site_fract_x
_atom_site_fract_y
_atom_site_fract_z
Si Si1 0.344152 0.755137 0.558215
Si Si2 0.368978 0.987159 0.394937
Si Si3 0.215307 0.209282 0.001069
Si Si4 0.992298 0.914759 0.128002
Si Si5 0.812104 0.017054 0.296684
Si Si6 0.971494 0.748072 0.863951
Si Si7 0.483525 0.580924 0.871639
Si Si8 0.618369 0.579660 0.479377
O O1 0.281549 0.757883 0.505929
O O2 0.336584 0.855164 0.661274
O O3 0.372023 0.589356 0.567356
O O4 0.378488 0.859369 0.479594
O O5 0.315510 0.093307 0.422782
O O6 0.425608 0.081221 0.388575
O O7 0.355160 0.916725 0.285004
O O8 0.180295 0.363507 0.992528
O O9 0.200418 0.124038 0.107027
O O10 0.010709 0.744305 0.094383
O O11 0.000000 0.915062 0.250000
O O12 0.017849 0.079356 0.093697
O O13 0.750000 0.000000 0.250799
O O14 0.997248 0.588179 0.906605
O O15 0.092073 0.300521 0.103968
O O16 0.000000 0.755821 0.750000
O O17 0.500000 0.578043 0.750000
O O18 0.420219 0.582146 0.918363
#
# Coordination Sequence:
#
# PCOD9422891 Si02
#       8
#     8   8   8   8   8   8   8   8
#     4  10  23  41  67  99 135 172 226 276 345 417
#     4  11  20  41  70  96 135 178 222 277 349 396
#     4  10  22  41  64 101 134 170 226 282 330 420
#     4  10  22  39  63  99 130 175 233 281 328 412
#     4   9  20  38  65  97 131 172 220 278 338 402
#     4  10  24  42  63  94 135 174 230 285 336 410
#     4  10  22  43  64  92 135 174 230 284 337 408
#     4  12  23  43  65  95 132 186 217 281 355 391
#
# _framework density 23.631267000000001
#
# number of rings (size 3 to 8) (size 9 to 14) (size 15 to 20)
#    0.000    1.750    1.250    3.375    3.500    3.500 
#    2.250    0.000    0.000    3.000    0.000    0.000 
#    0.000    0.000    0.000    0.000    0.000    0.000 
#
# Total GULP energy -356830.614828 kJ/mol
# GULP energy per Si atom -5575.478357 kJ/mol
# Density = 2.357748 g / cm^3
# Si number density = 23.631267 Si / 1000 Ang^3
#
#
#
# Elastic Constant Matrix: (Units=GPa)
#
#
# Indices 1 2 3 4 5 6 
#
# 1 95.3844 26.7477 33.0234 0.0000 0.0000 0.0000
# 2 26.7477 191.1537 27.9591 0.0000 0.0000 0.0000
# 3 33.0234 27.9591 91.7822 0.0000 0.0000 0.0000
# 4 0.0000 0.0000 0.0000 -65.6264 0.0000 0.0000
# 5 0.0000 0.0000 0.0000 0.0000 27.8874 0.0000
# 6 0.0000 0.0000 0.0000 0.0000 0.0000 29.5194
#
#
#
# Elastic Compliance Matrix: (Units=1/GPa)
#
#
# Indices 1 2 3 4 5 6 
#
# 1 0.012198 -0.001115 -0.004049 0.000000 0.000000 0.000000
# 2 -0.001115 0.005577 -0.001298 0.000000 0.000000 0.000000
# 3 -0.004049 -0.001298 0.012748 0.000000 0.000000 0.000000
# 4 0.000000 0.000000 0.000000 -0.015238 0.000000 0.000000
# 5 0.000000 0.000000 0.000000 0.000000 0.035858 0.000000
# 6 0.000000 0.000000 0.000000 0.000000 0.000000 0.033876
#
#
# Mechanical properties :
#
#
# Convention : Reuss Voigt Hill
#
# Bulk Modulus (GPa) = 56.82018 61.53118 59.17568
# Shear Modulus (GPa) = 48.16469 17.72878 32.94673
#
# Velocity S-wave (km/s) = 4.51951 2.74200 3.73795
# Velocity P-wave (km/s) = 7.16459 6.00993 6.61251
#
# Compressibility (1/GPa) = 0.01759938
#
# Stress axis : x y z
#
# Youngs Moduli (GPa) = 81.97776 179.30160 78.44530
#
# Poissons Ratio (x) = 0.19985 0.31766
# Poissons Ratio (y) = 0.09137 0.10182
# Poissons Ratio (z) = 0.33197 0.23272
#
# Static dielectric constant tensor:
#      x y z
#    x 2.231220 0.000000 0.000000 
#    y 0.000000 1.900320 0.000000 
#    z 0.000000 0.000000 2.174410 
# 
# From -- ./inp_files/15421.got.cif
#   From: 2010.05.17/outbox.cif.g08.bks.cpg/sg54_8_cif.got.tgz:15421.got - 2010.06.03 13:09:01.
