data_PCOD9422973
_publ_section_title
;
Structure prediction by ZEFSAII (Michael W. Deem and Ramdas Pophale) SiO2 
 PCOD9422973
Probable space group: P C C A
;
_chemical_formula_sum "Si O2"
_cell_formula_units_Z 28
_cell_length_a 14.249051
_cell_length_b 5.133828
_cell_length_c 17.888523
_cell_angle_alpha 90.000000
_cell_angle_beta 90.000000
_cell_angle_gamma 90.000000
_cell_volume 1308.584401
_symmetry_space_group_name_H-M "P C C A"
_symmetry_group_IT_number 54
_symmetry_cell_setting 'orthorhombic'
loop_
_space_group_symop_operation_xyz
x,y,z
1/2-x,-y,z
1/2+x,-y,1/2-z
-x,y,1/2-z
-x,-y,-z
1/2+x,y,-z
1/2-x,y,1/2+z
x,-y,1/2+z
loop_
_atom_site_type_symbol
_atom_site_label
_atom_site_fract_x
_atom_site_fract_y
_atom_site_fract_z
Si Si1 0.500000 0.526116 0.750000
Si Si2 0.520349 0.678027 0.408511
Si Si3 0.308011 0.248401 0.303054
Si Si4 0.902972 0.178111 0.549709
O O1 0.470548 0.344717 0.680167
O O2 0.587803 0.707387 0.728060
O O3 0.606541 0.769468 0.461141
O O4 0.484083 0.389039 0.429628
O O5 0.441047 0.891392 0.430205
O O6 0.250000 0.500000 0.282187
O O7 0.319806 0.236065 0.393340
O O8 0.250000 0.000000 0.277640
#
# Coordination Sequence:
#
# PCOD9422973 Si02
#       4
#     4   8   8   8
#     4  10  22  40  64  94 134 166 210 274 330 382
#     4   9  18  33  60  85 112 156 198 249 313 367
#     4  11  23  38  61  90 125 170 215 260 319 384
#     4   9  18  35  56  83 113 154 208 248 298 377
#
# _framework density 21.397169000000002
#
# number of rings (size 3 to 8) (size 9 to 14) (size 15 to 20)
#    0.000    2.286    0.000    3.429    0.000   10.286 
#    0.000    1.429    0.000    6.857    0.000    0.000 
#    0.000    0.000    0.000    0.000    0.000    0.000 
#
# Total GULP energy -156073.459285 kJ/mol
# GULP energy per Si atom -5574.052117 kJ/mol
# Density = 2.134847 g / cm^3
# Si number density = 21.397169 Si / 1000 Ang^3
#
#
#
# Elastic Constant Matrix: (Units=GPa)
#
#
# Indices 1 2 3 4 5 6 
#
# 1 102.5652 50.4037 27.4089 0.0000 0.0000 0.0000
# 2 50.4037 145.6771 36.0688 0.0000 0.0000 0.0000
# 3 27.4089 36.0688 146.6633 0.0000 0.0000 0.0000
# 4 0.0000 0.0000 0.0000 32.2263 0.0000 0.0000
# 5 0.0000 0.0000 0.0000 0.0000 63.5699 0.0000
# 6 0.0000 0.0000 0.0000 0.0000 0.0000 20.7932
#
#
#
# Elastic Compliance Matrix: (Units=1/GPa)
#
#
# Indices 1 2 3 4 5 6 
#
# 1 0.011975 -0.003822 -0.001298 0.000000 0.000000 0.000000
# 2 -0.003822 0.008529 -0.001383 0.000000 0.000000 0.000000
# 3 -0.001298 -0.001383 0.007401 0.000000 0.000000 0.000000
# 4 0.000000 0.000000 0.000000 0.031031 0.000000 0.000000
# 5 0.000000 0.000000 0.000000 0.000000 0.015731 0.000000
# 6 0.000000 0.000000 0.000000 0.000000 0.000000 0.048093
#
#
# Mechanical properties :
#
#
# Convention : Reuss Voigt Hill
#
# Bulk Modulus (GPa) = 67.11905 69.18538 68.15222
# Shear Modulus (GPa) = 35.52845 42.05282 38.79064
#
# Velocity S-wave (km/s) = 4.07926 4.43803 4.26242
# Velocity P-wave (km/s) = 7.32280 7.65935 7.49296
#
# Compressibility (1/GPa) = 0.01489890
#
# Stress axis : x y z
#
# Youngs Moduli (GPa) = 83.50754 117.24182 135.11464
#
# Poissons Ratio (x) = 0.44809 0.17538
# Poissons Ratio (y) = 0.31916 0.18691
# Poissons Ratio (z) = 0.10839 0.16219
#
# Static dielectric constant tensor:
#      x y z
#    x 1.768330 0.000000 0.000000 
#    y 0.000000 1.753240 0.000000 
#    z 0.000000 0.000000 1.925450 
# 
# From -- ./inp_files/17513.got.cif
#   From: 2010.05.17/outbox.cif.g08.bks.cpg/sg54_9_cif.got.tgz:17513.got - 2010.06.03 13:09:01.
