data_PCOD9422850
_publ_section_title
;
Structure prediction by ZEFSAII (Michael W. Deem and Ramdas Pophale) SiO2 
 PCOD9422850
Probable space group: P C C A
;
_chemical_formula_sum "Si O2"
_cell_formula_units_Z 36
_cell_length_a 4.897842
_cell_length_b 26.309149
_cell_length_c 11.134429
_cell_angle_alpha 90.000000
_cell_angle_beta 90.000000
_cell_angle_gamma 90.000000
_cell_volume 1434.760864
_symmetry_space_group_name_H-M "P C C A"
_symmetry_group_IT_number 54
_symmetry_cell_setting 'orthorhombic'
loop_
_space_group_symop_operation_xyz
x,y,z
1/2-x,-y,z
1/2+x,-y,1/2-z
-x,y,1/2-z
-x,-y,-z
1/2+x,y,-z
1/2-x,y,1/2+z
x,-y,1/2+z
loop_
_atom_site_type_symbol
_atom_site_label
_atom_site_fract_x
_atom_site_fract_y
_atom_site_fract_z
Si Si1 0.767054 0.884786 0.420559
Si Si2 0.699242 0.390304 0.085699
Si Si3 0.500000 0.033107 0.750000
Si Si4 0.500000 0.688897 0.250000
Si Si5 0.644970 0.225648 0.917297
Si Si6 0.250000 0.500000 0.909458
O O1 0.581862 0.886470 0.541523
O O2 0.659847 0.931001 0.342622
O O3 0.706915 0.829732 0.362773
O O4 0.742354 0.445005 0.151255
O O5 0.802476 0.346148 0.171101
O O6 0.395189 0.387735 0.032531
O O7 0.750000 0.000000 0.695344
O O8 0.321490 0.726889 0.168522
O O9 0.338788 0.228266 0.966977
O O10 0.500000 0.500000 0.000000
#
# Coordination Sequence:
#
# PCOD9422850 Si02
#       6
#     8   8   4   4   8   4
#     4  10  22  42  63  85 120 164 203 244 298 361
#     4  10  22  39  59  86 118 155 197 240 293 353
#     4  12  25  38  60  94 124 155 202 254 302 354
#     4  12  23  38  64  92 124 155 194 256 308 354
#     4  10  23  41  62  89 121 159 203 246 298 362
#     4   8  16  36  58  76 110 150 186 234 280 336
#
# _framework density 25.091287000000001
#
# number of rings (size 3 to 8) (size 9 to 14) (size 15 to 20)
#    0.000    1.778    0.000    3.333    0.000    6.222 
#    0.000   13.333    0.000    0.000    0.000    0.000 
#    0.000    0.000    0.000    0.000    0.000    0.000 
#
# Total GULP energy -201614.607287 kJ/mol
# GULP energy per Si atom -5600.405758 kJ/mol
# Density = 2.503418 g / cm^3
# Si number density = 25.091287 Si / 1000 Ang^3
#
#
#
# Elastic Constant Matrix: (Units=GPa)
#
#
# Indices 1 2 3 4 5 6 
#
# 1 96.9702 8.9050 -2.7705 0.0000 0.0000 0.0000
# 2 8.9050 188.7072 39.6111 0.0000 0.0000 0.0000
# 3 -2.7705 39.6111 38.6044 0.0000 0.0000 0.0000
# 4 0.0000 0.0000 0.0000 49.6863 0.0000 0.0000
# 5 0.0000 0.0000 0.0000 0.0000 25.9008 0.0000
# 6 0.0000 0.0000 0.0000 0.0000 0.0000 19.6223
#
#
#
# Elastic Compliance Matrix: (Units=1/GPa)
#
#
# Indices 1 2 3 4 5 6 
#
# 1 0.010434 -0.000828 0.001598 0.000000 0.000000 0.000000
# 2 -0.000828 0.006820 -0.007057 0.000000 0.000000 0.000000
# 3 0.001598 -0.007057 0.033259 0.000000 0.000000 0.000000
# 4 0.000000 0.000000 0.000000 0.020126 0.000000 0.000000
# 5 0.000000 0.000000 0.000000 0.000000 0.038609 0.000000
# 6 0.000000 0.000000 0.000000 0.000000 0.000000 0.050962
#
#
# Mechanical properties :
#
#
# Convention : Reuss Voigt Hill
#
# Bulk Modulus (GPa) = 26.35726 46.19701 36.27713
# Shear Modulus (GPa) = 26.96434 37.61096 32.28765
#
# Velocity S-wave (km/s) = 3.28174 3.87585 3.59110
# Velocity P-wave (km/s) = 4.98870 6.20332 5.62887
#
# Compressibility (1/GPa) = 0.03794021
#
# Stress axis : x y z
#
# Youngs Moduli (GPa) = 95.83922 146.63704 30.06680
#
# Poissons Ratio (x) = 0.12140 -0.04806
# Poissons Ratio (y) = 0.07934 0.21218
# Poissons Ratio (z) = -0.15318 1.03479
#
# Static dielectric constant tensor:
#      x y z
#    x 1.909500 0.000000 0.000000 
#    y 0.000000 2.028870 0.000000 
#    z 0.000000 0.000000 1.965860 
# 
# From -- ./inp_files/6388.got.cif
#   From: 2010.05.17/outbox.cif.g08.bks.cpg/sg54_4_cif.got.tgz:6388.got - 2010.06.03 13:09:01.
