data_PCOD9422024
_publ_section_title
;
Structure prediction by ZEFSAII (Michael W. Deem and Ramdas Pophale) SiO2 
 PCOD9422024
Probable space group: P C C A
;
_chemical_formula_sum "Si O2"
_cell_formula_units_Z 60
_cell_length_a 22.308022
_cell_length_b 11.514826
_cell_length_c 12.094261
_cell_angle_alpha 90.000000
_cell_angle_beta 90.000000
_cell_angle_gamma 90.000000
_cell_volume 3106.689006
_symmetry_space_group_name_H-M "P C C A"
_symmetry_group_IT_number 54
_symmetry_cell_setting 'orthorhombic'
loop_
_space_group_symop_operation_xyz
x,y,z
1/2-x,-y,z
1/2+x,-y,1/2-z
-x,y,1/2-z
-x,-y,-z
1/2+x,y,-z
1/2-x,y,1/2+z
x,-y,1/2+z
loop_
_atom_site_type_symbol
_atom_site_label
_atom_site_fract_x
_atom_site_fract_y
_atom_site_fract_z
Si Si1 0.655320 0.205740 0.110160
Si Si2 0.156121 0.950339 0.840395
Si Si3 0.459752 0.531304 0.647072
Si Si4 0.726260 0.217458 0.507676
Si Si5 0.375709 0.255944 0.139894
Si Si6 0.458172 0.110468 0.966423
Si Si7 0.250000 0.000000 0.651538
Si Si8 0.044320 0.682382 0.514261
O O1 0.648045 0.211769 0.242261
O O2 0.664808 0.068442 0.088972
O O3 0.712832 0.267870 0.057019
O O4 0.596015 0.253891 0.053389
O O5 0.086272 0.922203 0.864851
O O6 0.190648 0.974798 0.725913
O O7 0.192175 0.843495 0.891383
O O8 0.500000 0.497593 0.750000
O O9 0.411994 0.629755 0.672600
O O10 0.432121 0.413258 0.599553
O O11 0.503593 0.602290 0.564901
O O12 0.677981 0.292569 0.441829
O O13 0.739478 0.113650 0.421450
O O14 0.416699 0.162027 0.069559
O O15 0.501662 0.217542 0.937096
O O16 0.500000 0.000000 0.000000
#
# Coordination Sequence:
#
# PCOD9422024 Si02
#       8
#     8   8   8   8   8   8   4   8
#     4  12  19  36  61  90 115 162 208 246 306 368
#     4  11  20  33  55  84 127 162 195 235 298 372
#     4  10  20  42  65  85 116 156 209 248 311 365
#     4  11  21  35  56  88 124 161 206 252 295 365
#     4  10  22  37  65  88 115 168 207 248 308 366
#     4  10  21  37  56  92 130 150 196 249 300 364
#     4  12  18  34  52  80 124 172 196 232 298 370
#     4  10  22  38  63  89 117 158 198 256 298 369
#
# _framework density 19.313165999999999
#
# number of rings (size 3 to 8) (size 9 to 14) (size 15 to 20)
#    0.000    1.333    6.667    0.000    0.000    0.000 
#    2.400    0.667    2.933    1.600    0.000    0.000 
#    0.000    0.000    0.000    0.000    0.000    0.000 
#
# Total GULP energy -334164.717021 kJ/mol
# GULP energy per Si atom -5569.411950 kJ/mol
# Density = 1.926921 g / cm^3
# Si number density = 19.313166 Si / 1000 Ang^3
#
#
#
# Elastic Constant Matrix: (Units=GPa)
#
#
# Indices 1 2 3 4 5 6 
#
# 1 81.4463 -0.8924 12.7591 0.0000 0.0000 0.0000
# 2 -0.8924 23.6312 4.1762 0.0000 0.0000 0.0000
# 3 12.7591 4.1762 43.0934 0.0000 0.0000 0.0000
# 4 0.0000 0.0000 0.0000 20.1570 0.0000 0.0000
# 5 0.0000 0.0000 0.0000 0.0000 30.8739 0.0000
# 6 0.0000 0.0000 0.0000 0.0000 0.0000 4.6702
#
#
#
# Elastic Compliance Matrix: (Units=1/GPa)
#
#
# Indices 1 2 3 4 5 6 
#
# 1 0.012908 0.001183 -0.003936 0.000000 0.000000 0.000000
# 2 0.001183 0.043163 -0.004533 0.000000 0.000000 0.000000
# 3 -0.003936 -0.004533 0.024810 0.000000 0.000000 0.000000
# 4 0.000000 0.000000 0.000000 0.049611 0.000000 0.000000
# 5 0.000000 0.000000 0.000000 0.000000 0.032390 0.000000
# 6 0.000000 0.000000 0.000000 0.000000 0.000000 0.214122
#
#
# Mechanical properties :
#
#
# Convention : Reuss Voigt Hill
#
# Bulk Modulus (GPa) = 15.08122 20.02854 17.55488
# Shear Modulus (GPa) = 12.08669 19.94875 16.01772
#
# Velocity S-wave (km/s) = 2.50437 3.21738 2.88300
# Velocity P-wave (km/s) = 4.02346 4.91884 4.49350
#
# Compressibility (1/GPa) = 0.06630765
#
# Stress axis : x y z
#
# Youngs Moduli (GPa) = 77.47346 23.16809 40.30603
#
# Poissons Ratio (x) = -0.02741 0.15866
# Poissons Ratio (y) = -0.09166 0.18272
# Poissons Ratio (z) = 0.30496 0.10503
#
# Static dielectric constant tensor:
#      x y z
#    x 1.744860 0.000000 0.000000 
#    y 0.000000 1.682410 0.000000 
#    z 0.000000 0.000000 1.710340 
# 
# From -- ./inp_files/9601.got.cif
#   From: 2010.05.17/outbox.cif.g08.bks.cpg/sg54_5_cif.got.tgz:9601.got - 2010.06.03 13:09:01.
