data_PCOD9422456
_publ_section_title
;
Structure prediction by ZEFSAII (Michael W. Deem and Ramdas Pophale) SiO2 
 PCOD9422456
Probable space group: P C C A
;
_chemical_formula_sum "Si O2"
_cell_formula_units_Z 40
_cell_length_a 10.182939
_cell_length_b 10.524945
_cell_length_c 18.028762
_cell_angle_alpha 90.000000
_cell_angle_beta 90.000000
_cell_angle_gamma 90.000000
_cell_volume 1932.230276
_symmetry_space_group_name_H-M "P C C A"
_symmetry_group_IT_number 54
_symmetry_cell_setting 'orthorhombic'
loop_
_space_group_symop_operation_xyz
x,y,z
1/2-x,-y,z
1/2+x,-y,1/2-z
-x,y,1/2-z
-x,-y,-z
1/2+x,y,-z
1/2-x,y,1/2+z
x,-y,1/2+z
loop_
_atom_site_type_symbol
_atom_site_label
_atom_site_fract_x
_atom_site_fract_y
_atom_site_fract_z
Si Si1 0.004060 0.687816 0.931275
Si Si2 0.387478 0.174133 0.312948
Si Si3 0.504386 0.571689 0.837417
Si Si4 0.401830 0.896164 0.318120
Si Si5 0.211541 0.358904 0.555706
O O1 0.057566 0.794665 0.877863
O O2 0.016523 0.551359 0.888899
O O3 0.849664 0.711998 0.945484
O O4 0.094440 0.687696 0.003797
O O5 0.500000 0.180055 0.250000
O O6 0.403380 0.311405 0.351154
O O7 0.239375 0.149298 0.286705
O O8 0.407582 0.038416 0.353171
O O9 0.500000 0.538298 0.750000
O O10 0.647000 0.625568 0.862708
O O11 0.500000 0.896827 0.250000
O O12 0.250000 0.500000 0.529378
#
# Coordination Sequence:
#
# PCOD9422456 Si02
#       5
#     8   8   8   8   8
#     4  11  24  41  65  90 126 165 213 252 309 369
#     4   9  21  40  62  90 131 161 198 253 321 360
#     4  10  21  39  65  92 121 158 208 258 309 371
#     4  10  22  39  64  95 125 161 208 256 308 367
#     4  10  23  42  60  89 127 168 200 256 319 363
#
# _framework density 20.701466
#
# number of rings (size 3 to 8) (size 9 to 14) (size 15 to 20)
#    0.000    2.000    0.000    3.000   11.200    0.000 
#    7.200    1.000    0.000    0.000    0.000    0.000 
#    0.000    0.000    0.000    0.000    0.000    0.000 
#
# Total GULP energy -222957.336903 kJ/mol
# GULP energy per Si atom -5573.933423 kJ/mol
# Density = 2.065435 g / cm^3
# Si number density = 20.701466 Si / 1000 Ang^3
#
#
#
# Elastic Constant Matrix: (Units=GPa)
#
#
# Indices 1 2 3 4 5 6 
#
# 1 132.3316 17.4515 45.8245 0.0000 0.0000 0.0000
# 2 17.4515 91.9059 12.2482 0.0000 0.0000 0.0000
# 3 45.8245 12.2482 89.2332 0.0000 0.0000 0.0000
# 4 0.0000 0.0000 0.0000 3.5341 0.0000 0.0000
# 5 0.0000 0.0000 0.0000 0.0000 29.2397 0.0000
# 6 0.0000 0.0000 0.0000 0.0000 0.0000 24.8046
#
#
#
# Elastic Compliance Matrix: (Units=1/GPa)
#
#
# Indices 1 2 3 4 5 6 
#
# 1 0.009309 -0.001152 -0.004623 0.000000 0.000000 0.000000
# 2 -0.001152 0.011226 -0.000949 0.000000 0.000000 0.000000
# 3 -0.004623 -0.000949 0.013711 0.000000 0.000000 0.000000
# 4 0.000000 0.000000 0.000000 0.282955 0.000000 0.000000
# 5 0.000000 0.000000 0.000000 0.000000 0.034200 0.000000
# 6 0.000000 0.000000 0.000000 0.000000 0.000000 0.040315
#
#
# Mechanical properties :
#
#
# Convention : Reuss Voigt Hill
#
# Bulk Modulus (GPa) = 48.08012 51.61322 49.84667
# Shear Modulus (GPa) = 12.13308 27.37880 19.75594
#
# Velocity S-wave (km/s) = 2.42357 3.64064 3.09257
# Velocity P-wave (km/s) = 5.57741 6.53136 6.07314
#
# Compressibility (1/GPa) = 0.02079862
#
# Stress axis : x y z
#
# Youngs Moduli (GPa) = 107.41829 89.07966 72.93518
#
# Poissons Ratio (x) = 0.10259 0.33715
# Poissons Ratio (y) = 0.12371 0.06925
# Poissons Ratio (z) = 0.49656 0.08458
#
# Static dielectric constant tensor:
#      x y z
#    x 1.666420 0.000000 0.000000 
#    y 0.000000 1.789410 0.000000 
#    z 0.000000 0.000000 1.755190 
# 
# From -- ./inp_files/16279.got.cif
#   From: 2010.05.17/outbox.cif.g08.bks.cpg/sg54_9_cif.got.tgz:16279.got - 2010.06.03 13:09:01.
