data_PCOD9422728
_publ_section_title
;
Structure prediction by ZEFSAII (Michael W. Deem and Ramdas Pophale) SiO2 
 PCOD9422728
Probable space group: P C C A
;
_chemical_formula_sum "Si O2"
_cell_formula_units_Z 40
_cell_length_a 7.874385
_cell_length_b 9.404300
_cell_length_c 22.905347
_cell_angle_alpha 90.000000
_cell_angle_beta 90.000000
_cell_angle_gamma 90.000000
_cell_volume 1696.211468
_symmetry_space_group_name_H-M "P C C A"
_symmetry_group_IT_number 54
_symmetry_cell_setting 'orthorhombic'
loop_
_space_group_symop_operation_xyz
x,y,z
1/2-x,-y,z
1/2+x,-y,1/2-z
-x,y,1/2-z
-x,-y,-z
1/2+x,y,-z
1/2-x,y,1/2+z
x,-y,1/2+z
loop_
_atom_site_type_symbol
_atom_site_label
_atom_site_fract_x
_atom_site_fract_y
_atom_site_fract_z
Si Si1 0.443138 0.488685 0.406138
Si Si2 0.575815 0.050973 0.653147
Si Si3 0.000000 0.270884 0.250000
Si Si4 0.594201 0.182431 0.422205
Si Si5 0.250000 0.500000 0.789755
Si Si6 0.475982 0.793359 0.050606
O O1 0.250000 0.500000 0.430885
O O2 0.549352 0.347979 0.415500
O O3 0.405109 0.483936 0.336328
O O4 0.525974 0.625735 0.435640
O O5 0.488703 0.165388 0.694824
O O6 0.615495 0.139919 0.594027
O O7 0.750000 0.000000 0.681931
O O8 0.477844 0.912883 0.630139
O O9 0.828347 0.367836 0.245830
O O10 0.792901 0.155554 0.428772
O O11 0.509776 0.157415 0.485419
#
# Coordination Sequence:
#
# PCOD9422728 Si02
#       6
#     8   8   4   8   4   8
#     4  10  21  45  70 106 146 198 249 319 371 441
#     4  12  26  49  73 107 155 195 255 308 386 463
#     4  12  26  52  80 108 146 204 256 326 392 452
#     4  12  25  41  74 113 153 204 244 324 378 466
#     4  10  24  48  78 102 148 184 262 328 374 454
#     4  12  24  44  71 108 156 200 260 302 387 454
#
# _framework density 23.581966999999999
#
# number of rings (size 3 to 8) (size 9 to 14) (size 15 to 20)
#    0.600    0.000    2.000    7.200    0.000    3.200 
#    0.000    4.000    0.000    0.000    0.000    0.000 
#    0.000    0.000    0.000    0.000    0.000    0.000 
#
# Total GULP energy -223333.119348 kJ/mol
# GULP energy per Si atom -5583.327984 kJ/mol
# Density = 2.352829 g / cm^3
# Si number density = 23.581967 Si / 1000 Ang^3
#
#
#
# Elastic Constant Matrix: (Units=GPa)
#
#
# Indices 1 2 3 4 5 6 
#
# 1 92.8915 40.0016 27.0269 0.0000 0.0000 0.0000
# 2 40.0016 159.5969 30.0383 0.0000 0.0000 0.0000
# 3 27.0269 30.0383 82.0379 0.0000 0.0000 0.0000
# 4 0.0000 0.0000 0.0000 -2.9839 0.0000 0.0000
# 5 0.0000 0.0000 0.0000 0.0000 152.1629 0.0000
# 6 0.0000 0.0000 0.0000 0.0000 0.0000 44.1293
#
#
#
# Elastic Compliance Matrix: (Units=1/GPa)
#
#
# Indices 1 2 3 4 5 6 
#
# 1 0.012839 -0.002601 -0.003277 0.000000 0.000000 0.000000
# 2 -0.002601 0.007257 -0.001800 0.000000 0.000000 0.000000
# 3 -0.003277 -0.001800 0.013928 0.000000 0.000000 0.000000
# 4 0.000000 0.000000 0.000000 -0.335128 0.000000 0.000000
# 5 0.000000 0.000000 0.000000 0.000000 0.006572 0.000000
# 6 0.000000 0.000000 0.000000 0.000000 0.000000 0.022661
#
#
# Mechanical properties :
#
#
# Convention : Reuss Voigt Hill
#
# Bulk Modulus (GPa) = 53.57126 58.73999 56.15562
# Shear Modulus (GPa) = -19.97660 54.49229 17.25785
#
# Velocity S-wave (km/s) = -2.91368 4.81225 2.70816
# Velocity P-wave (km/s) = 3.38334 7.47261 5.80030
#
# Compressibility (1/GPa) = 0.01866673
#
# Stress axis : x y z
#
# Youngs Moduli (GPa) = 77.88834 137.80684 71.79646
#
# Poissons Ratio (x) = 0.35845 0.23530
# Poissons Ratio (y) = 0.20260 0.12924
# Poissons Ratio (z) = 0.25526 0.24806
#
# Static dielectric constant tensor:
#      x y z
#    x 1.883000 0.000000 0.000000 
#    y 0.000000 1.935320 0.000000 
#    z 0.000000 0.000000 1.992580 
# 
# From -- ./inp_files/23340.got.cif
#   From: 2010.05.17/outbox.cif.g08.bks.cpg/sg54_12_cif.got.tgz:23340.got - 2010.06.03 13:09:01.
