data_PCOD9422008
_publ_section_title
;
Structure prediction by ZEFSAII (Michael W. Deem and Ramdas Pophale) SiO2 
 PCOD9422008
Probable space group: P C C A
;
_chemical_formula_sum "Si O2"
_cell_formula_units_Z 32
_cell_length_a 13.153012
_cell_length_b 8.205820
_cell_length_c 11.616016
_cell_angle_alpha 90.000000
_cell_angle_beta 90.000000
_cell_angle_gamma 90.000000
_cell_volume 1253.731114
_symmetry_space_group_name_H-M "P C C A"
_symmetry_group_IT_number 54
_symmetry_cell_setting 'orthorhombic'
loop_
_space_group_symop_operation_xyz
x,y,z
1/2-x,-y,z
1/2+x,-y,1/2-z
-x,y,1/2-z
-x,-y,-z
1/2+x,y,-z
1/2-x,y,1/2+z
x,-y,1/2+z
loop_
_atom_site_type_symbol
_atom_site_label
_atom_site_fract_x
_atom_site_fract_y
_atom_site_fract_z
Si Si1 0.367721 0.941016 0.306283
Si Si2 0.547017 0.364357 0.363847
Si Si3 0.129391 0.963278 0.054506
Si Si4 0.140778 0.556660 0.830656
O O1 0.406761 0.020563 0.427485
O O2 0.369283 0.748267 0.326436
O O3 0.250000 0.000000 0.299144
O O4 0.407552 0.962146 0.175841
O O5 0.500000 0.273546 0.250000
O O6 0.605191 0.229363 0.434554
O O7 0.622246 0.490368 0.299915
O O8 0.447598 0.465428 0.401949
O O9 0.250000 0.000000 0.051829
O O10 0.250000 0.500000 0.871853
#
# Coordination Sequence:
#
# PCOD9422008 Si02
#       4
#     8   8   8   8
#     4  10  21  37  68  96 133 183 231 280 351 406
#     4   8  21  39  65  98 136 177 232 281 343 412
#     4  10  20  41  67  98 139 181 230 288 341 413
#     4   9  18  39  66  92 139 179 229 287 350 406
#
# _framework density 25.523814999999999
#
# number of rings (size 3 to 8) (size 9 to 14) (size 15 to 20)
#    1.500    1.000    0.000    3.000    0.000    1.000 
#    4.500   12.500    0.000    0.000    0.000    0.000 
#    0.000    0.000    0.000    0.000    0.000    0.000 
#
# Total GULP energy -178469.618312 kJ/mol
# GULP energy per Si atom -5577.175572 kJ/mol
# Density = 2.546572 g / cm^3
# Si number density = 25.523815 Si / 1000 Ang^3
#
#
#
# Elastic Constant Matrix: (Units=GPa)
#
#
# Indices 1 2 3 4 5 6 
#
# 1 131.4086 57.5637 67.0865 0.0000 0.0000 0.0000
# 2 57.5637 145.8471 41.5680 0.0000 0.0000 0.0000
# 3 67.0865 41.5680 232.4317 0.0000 0.0000 0.0000
# 4 0.0000 0.0000 0.0000 -33.1108 0.0000 0.0000
# 5 0.0000 0.0000 0.0000 0.0000 36.0761 0.0000
# 6 0.0000 0.0000 0.0000 0.0000 0.0000 46.5871
#
#
#
# Elastic Compliance Matrix: (Units=1/GPa)
#
#
# Indices 1 2 3 4 5 6 
#
# 1 0.010304 -0.003392 -0.002368 0.000000 0.000000 0.000000
# 2 -0.003392 0.008341 -0.000513 0.000000 0.000000 0.000000
# 3 -0.002368 -0.000513 0.005077 0.000000 0.000000 0.000000
# 4 0.000000 0.000000 0.000000 -0.030202 0.000000 0.000000
# 5 0.000000 0.000000 0.000000 0.000000 0.027719 0.000000
# 6 0.000000 0.000000 0.000000 0.000000 0.000000 0.021465
#
#
# Mechanical properties :
#
#
# Convention : Reuss Voigt Hill
#
# Bulk Modulus (GPa) = 89.45792 93.56929 91.51361
# Shear Modulus (GPa) = 84.77861 32.80843 58.79352
#
# Velocity S-wave (km/s) = 5.76954 3.58914 4.80466
# Velocity P-wave (km/s) = 8.91675 7.34269 8.16773
#
# Compressibility (1/GPa) = 0.01117844
#
# Stress axis : x y z
#
# Youngs Moduli (GPa) = 97.04505 119.88266 196.95294
#
# Poissons Ratio (x) = 0.40667 0.46629
# Poissons Ratio (y) = 0.32920 0.10097
# Poissons Ratio (z) = 0.22975 0.06146
#
# Static dielectric constant tensor:
#      x y z
#    x 2.005230 0.000000 0.000000 
#    y 0.000000 1.931470 0.000000 
#    z 0.000000 0.000000 2.097340 
# 
# From -- ./inp_files/8058.got.cif
#   From: 2010.05.17/outbox.cif.g08.bks.cpg/sg54_5_cif.got.tgz:8058.got - 2010.06.03 13:09:01.
