data_PCOD9422879
_publ_section_title
;
Structure prediction by ZEFSAII (Michael W. Deem and Ramdas Pophale) SiO2 
 PCOD9422879
Probable space group: P C C A
;
_chemical_formula_sum "Si O2"
_cell_formula_units_Z 40
_cell_length_a 13.779220
_cell_length_b 11.483558
_cell_length_c 11.859925
_cell_angle_alpha 90.000000
_cell_angle_beta 90.000000
_cell_angle_gamma 90.000000
_cell_volume 1876.648971
_symmetry_space_group_name_H-M "P C C A"
_symmetry_group_IT_number 54
_symmetry_cell_setting 'orthorhombic'
loop_
_space_group_symop_operation_xyz
x,y,z
1/2-x,-y,z
1/2+x,-y,1/2-z
-x,y,1/2-z
-x,-y,-z
1/2+x,y,-z
1/2-x,y,1/2+z
x,-y,1/2+z
loop_
_atom_site_type_symbol
_atom_site_label
_atom_site_fract_x
_atom_site_fract_y
_atom_site_fract_z
Si Si1 0.893285 0.269993 0.234358
Si Si2 0.776215 0.677103 0.383568
Si Si3 0.749156 0.863062 0.071208
Si Si4 0.091049 0.286153 0.828152
Si Si5 0.141148 0.479181 0.423264
O O1 0.836550 0.319630 0.344112
O O2 0.822755 0.177997 0.171740
O O3 0.906897 0.379330 0.150679
O O4 0.000000 0.218953 0.250000
O O5 0.785589 0.791379 0.461724
O O6 0.831889 0.680116 0.267308
O O7 0.828876 0.576475 0.456642
O O8 0.856712 0.815331 0.101971
O O9 0.750000 0.000000 0.055525
O O10 0.083006 0.400509 0.908150
O O11 0.000000 0.255471 0.750000
O O12 0.250000 0.500000 0.374865
#
# Coordination Sequence:
#
# PCOD9422879 Si02
#       5
#     8   8   8   8   8
#     4  10  22  40  63  91 124 162 201 250 305 364
#     4  10  22  39  63  83 126 162 200 244 314 354
#     4  10  23  42  61  87 119 159 212 254 305 362
#     4  11  24  40  63  93 123 157 203 252 303 362
#     4  11  20  38  59  92 122 162 195 240 297 371
#
# _framework density 21.314588000000001
#
# number of rings (size 3 to 8) (size 9 to 14) (size 15 to 20)
#    0.000    1.600    6.000    0.600    2.800    8.000 
#    0.000    2.000    0.000    0.000    0.000    0.000 
#    0.000    0.000    0.000    0.000    0.000    0.000 
#
# Total GULP energy -222954.675221 kJ/mol
# GULP energy per Si atom -5573.866881 kJ/mol
# Density = 2.126608 g / cm^3
# Si number density = 21.314588 Si / 1000 Ang^3
#
#
#
# Elastic Constant Matrix: (Units=GPa)
#
#
# Indices 1 2 3 4 5 6 
#
# 1 67.4125 -7.2571 0.8636 0.0000 0.0000 0.0000
# 2 -7.2571 113.7516 33.5362 0.0000 0.0000 0.0000
# 3 0.8636 33.5362 93.5283 0.0000 0.0000 0.0000
# 4 0.0000 0.0000 0.0000 2.8963 0.0000 0.0000
# 5 0.0000 0.0000 0.0000 0.0000 9.9870 0.0000
# 6 0.0000 0.0000 0.0000 0.0000 0.0000 14.0288
#
#
#
# Elastic Compliance Matrix: (Units=1/GPa)
#
#
# Indices 1 2 3 4 5 6 
#
# 1 0.014961 0.001113 -0.000537 0.000000 0.000000 0.000000
# 2 0.001113 0.009913 -0.003565 0.000000 0.000000 0.000000
# 3 -0.000537 -0.003565 0.011975 0.000000 0.000000 0.000000
# 4 0.000000 0.000000 0.000000 0.345270 0.000000 0.000000
# 5 0.000000 0.000000 0.000000 0.000000 0.100130 0.000000
# 6 0.000000 0.000000 0.000000 0.000000 0.000000 0.071282
#
#
# Mechanical properties :
#
#
# Convention : Reuss Voigt Hill
#
# Bulk Modulus (GPa) = 32.39319 36.55308 34.47313
# Shear Modulus (GPa) = 8.77503 21.88575 15.33039
#
# Velocity S-wave (km/s) = 2.03122 3.20784 2.68478
# Velocity P-wave (km/s) = 4.55322 5.55940 5.08127
#
# Compressibility (1/GPa) = 0.03087069
#
# Stress axis : x y z
#
# Youngs Moduli (GPa) = 66.84166 100.87722 83.50651
#
# Poissons Ratio (x) = -0.11226 0.04486
# Poissons Ratio (y) = -0.07438 0.29768
# Poissons Ratio (z) = 0.03590 0.35960
#
# Static dielectric constant tensor:
#      x y z
#    x 1.860680 0.000000 0.000000 
#    y 0.000000 1.774330 0.000000 
#    z 0.000000 0.000000 1.791450 
# 
# From -- ./inp_files/8190.got.cif
#   From: 2010.05.17/outbox.cif.g08.bks.cpg/sg54_5_cif.got.tgz:8190.got - 2010.06.03 13:09:01.
