data_PCOD9422758
_publ_section_title
;
Structure prediction by ZEFSAII (Michael W. Deem and Ramdas Pophale) SiO2 
 PCOD9422758
Probable space group: P C C A
;
_chemical_formula_sum "Si O2"
_cell_formula_units_Z 56
_cell_length_a 9.639359
_cell_length_b 15.227091
_cell_length_c 19.465989
_cell_angle_alpha 90.000000
_cell_angle_beta 90.000000
_cell_angle_gamma 90.000000
_cell_volume 2857.206121
_symmetry_space_group_name_H-M "P C C A"
_symmetry_group_IT_number 54
_symmetry_cell_setting 'orthorhombic'
loop_
_space_group_symop_operation_xyz
x,y,z
1/2-x,-y,z
1/2+x,-y,1/2-z
-x,y,1/2-z
-x,-y,-z
1/2+x,y,-z
1/2-x,y,1/2+z
x,-y,1/2+z
loop_
_atom_site_type_symbol
_atom_site_label
_atom_site_fract_x
_atom_site_fract_y
_atom_site_fract_z
Si Si1 0.979485 0.196575 0.920121
Si Si2 0.668809 0.408185 0.749638
Si Si3 0.913844 0.008382 0.570050
Si Si4 0.133274 0.561381 0.513049
Si Si5 0.780989 0.320520 0.611852
Si Si6 0.194142 0.290434 0.120114
Si Si7 0.957547 0.815660 0.583390
O O1 0.824172 0.233351 0.907251
O O2 0.030022 0.099010 0.896779
O O3 0.073885 0.269695 0.883815
O O4 0.004007 0.191358 0.002914
O O5 0.750000 0.500000 0.753540
O O6 0.500000 0.418344 0.750000
O O7 0.716908 0.360935 0.679969
O O8 0.719092 0.348770 0.813308
O O9 0.750000 0.000000 0.554241
O O10 0.938753 0.915655 0.606363
O O11 0.000000 0.000000 0.500000
O O12 0.250000 0.500000 0.545461
O O13 0.193440 0.601810 0.442787
O O14 0.125118 0.643934 0.563618
O O15 0.000000 0.500000 0.500000
O O16 0.677835 0.244734 0.585749
O O17 0.071500 0.223255 0.133587
#
# Coordination Sequence:
#
# PCOD9422758 Si02
#       7
#     8   8   8   8   8   8   8
#     4  11  22  39  67 101 135 169 216 274 335 396
#     4  12  30  48  67  93 133 181 229 274 337 403
#     4  10  22  35  61 102 140 171 210 271 338 407
#     4  12  24  39  64  95 127 167 221 284 335 380
#     4  12  23  43  69  92 133 177 219 273 335 397
#     4  12  25  43  65  96 132 172 228 274 329 404
#     4  11  20  41  66  99 137 168 219 268 334 397
#
# _framework density 19.599565999999999
#
# number of rings (size 3 to 8) (size 9 to 14) (size 15 to 20)
#    0.000    0.571    5.714    2.571   10.000    0.000 
#    0.000    0.000    0.000    5.143    0.000    0.000 
#    0.000    0.000    0.000    0.000    0.000    0.000 
#
# Total GULP energy -312290.238421 kJ/mol
# GULP energy per Si atom -5576.611400 kJ/mol
# Density = 1.955496 g / cm^3
# Si number density = 19.599566 Si / 1000 Ang^3
#
#
#
# Elastic Constant Matrix: (Units=GPa)
#
#
# Indices 1 2 3 4 5 6 
#
# 1 58.1599 17.6289 -14.8957 0.0000 0.0000 0.0000
# 2 17.6289 124.2530 18.0611 0.0000 0.0000 0.0000
# 3 -14.8957 18.0611 70.5924 0.0000 0.0000 0.0000
# 4 0.0000 0.0000 0.0000 17.1056 0.0000 0.0000
# 5 0.0000 0.0000 0.0000 0.0000 22.6860 0.0000
# 6 0.0000 0.0000 0.0000 0.0000 0.0000 41.5644
#
#
#
# Elastic Compliance Matrix: (Units=1/GPa)
#
#
# Indices 1 2 3 4 5 6 
#
# 1 0.019541 -0.003502 0.005019 0.000000 0.000000 0.000000
# 2 -0.003502 0.008987 -0.003038 0.000000 0.000000 0.000000
# 3 0.005019 -0.003038 0.016002 0.000000 0.000000 0.000000
# 4 0.000000 0.000000 0.000000 0.058460 0.000000 0.000000
# 5 0.000000 0.000000 0.000000 0.000000 0.044080 0.000000
# 6 0.000000 0.000000 0.000000 0.000000 0.000000 0.024059
#
#
# Mechanical properties :
#
#
# Convention : Reuss Voigt Hill
#
# Bulk Modulus (GPa) = 24.10331 32.73267 28.41799
# Shear Modulus (GPa) = 26.59566 31.75193 29.17379
#
# Velocity S-wave (km/s) = 3.68768 4.02933 3.86228
# Velocity P-wave (km/s) = 5.51874 6.19551 5.86689
#
# Compressibility (1/GPa) = 0.04148808
#
# Stress axis : x y z
#
# Youngs Moduli (GPa) = 51.17442 111.27691 62.49105
#
# Poissons Ratio (x) = 0.38970 -0.31366
# Poissons Ratio (y) = 0.17922 0.18986
# Poissons Ratio (z) = -0.25686 0.33808
#
# Static dielectric constant tensor:
#      x y z
#    x 1.722690 0.000000 0.000000 
#    y 0.000000 1.730800 0.000000 
#    z 0.000000 0.000000 1.705070 
# 
# From -- ./inp_files/20513.got.cif
#   From: 2010.05.17/outbox.cif.g08.bks.cpg/sg54_11_cif.got.tgz:20513.got - 2010.06.03 13:09:01.
