data_PCOD9422149
_publ_section_title
;
Structure prediction by ZEFSAII (Michael W. Deem and Ramdas Pophale) SiO2 
 PCOD9422149
Probable space group: P C C A
;
_chemical_formula_sum "Si O2"
_cell_formula_units_Z 40
_cell_length_a 15.715435
_cell_length_b 23.117036
_cell_length_c 5.204186
_cell_angle_alpha 90.000000
_cell_angle_beta 90.000000
_cell_angle_gamma 90.000000
_cell_volume 1890.650988
_symmetry_space_group_name_H-M "P C C A"
_symmetry_group_IT_number 54
_symmetry_cell_setting 'orthorhombic'
loop_
_space_group_symop_operation_xyz
x,y,z
1/2-x,-y,z
1/2+x,-y,1/2-z
-x,y,1/2-z
-x,-y,-z
1/2+x,y,-z
1/2-x,y,1/2+z
x,-y,1/2+z
loop_
_atom_site_type_symbol
_atom_site_label
_atom_site_fract_x
_atom_site_fract_y
_atom_site_fract_z
Si Si1 0.602339 0.532276 0.733587
Si Si2 0.305978 0.353373 0.431083
Si Si3 0.309267 0.222567 0.401222
Si Si4 0.055730 0.121798 0.997950
Si Si5 0.284812 0.064654 0.678297
O O1 0.500000 0.530589 0.750000
O O2 0.633149 0.487346 0.514566
O O3 0.631252 0.595108 0.641697
O O4 0.269345 0.358096 0.718957
O O5 0.342969 0.288680 0.403714
O O6 0.245701 0.216493 0.642870
O O7 0.384157 0.176179 0.429839
O O8 0.120579 0.070318 0.074625
O O9 0.000000 0.134250 0.250000
O O10 0.000000 0.107222 0.750000
O O11 0.225585 0.092202 0.458037
O O12 0.250000 0.000000 0.720163
#
# Coordination Sequence:
#
# PCOD9422149 Si02
#       5
#     8   8   8   8   8
#     4  10  21  36  53  77 112 152 187 229 293 354
#     4  10  21  36  57  84 109 143 195 243 281 336
#     4  10  21  40  62  84 117 159 196 237 300 368
#     4  12  24  39  62  95 123 150 198 253 294 340
#     4  10  21  41  64  86 118 165 200 227 287 356
#
# _framework density 21.156732000000002
#
# number of rings (size 3 to 8) (size 9 to 14) (size 15 to 20)
#    0.000    1.600    0.000    4.800    0.000    3.200 
#    0.000   15.000    0.000    0.000    0.000    0.000 
#    0.000    0.000    0.000    0.000    0.000    0.000 
#
# Total GULP energy -223496.998895 kJ/mol
# GULP energy per Si atom -5587.424972 kJ/mol
# Density = 2.110858 g / cm^3
# Si number density = 21.156732 Si / 1000 Ang^3
#
#
#
# Elastic Constant Matrix: (Units=GPa)
#
#
# Indices 1 2 3 4 5 6 
#
# 1 53.8457 32.2959 10.9769 0.0000 0.0000 0.0000
# 2 32.2959 121.5356 21.3599 0.0000 0.0000 0.0000
# 3 10.9769 21.3599 112.9013 0.0000 0.0000 0.0000
# 4 0.0000 0.0000 0.0000 25.2662 0.0000 0.0000
# 5 0.0000 0.0000 0.0000 0.0000 39.7756 0.0000
# 6 0.0000 0.0000 0.0000 0.0000 0.0000 16.5432
#
#
#
# Elastic Compliance Matrix: (Units=1/GPa)
#
#
# Indices 1 2 3 4 5 6 
#
# 1 0.022219 -0.005715 -0.001079 0.000000 0.000000 0.000000
# 2 -0.005715 0.009981 -0.001333 0.000000 0.000000 0.000000
# 3 -0.001079 -0.001333 0.009214 0.000000 0.000000 0.000000
# 4 0.000000 0.000000 0.000000 0.039579 0.000000 0.000000
# 5 0.000000 0.000000 0.000000 0.000000 0.025141 0.000000
# 6 0.000000 0.000000 0.000000 0.000000 0.000000 0.060448
#
#
# Mechanical properties :
#
#
# Convention : Reuss Voigt Hill
#
# Bulk Modulus (GPa) = 39.74337 46.39419 43.06878
# Shear Modulus (GPa) = 26.14765 31.22699 28.68732
#
# Velocity S-wave (km/s) = 3.51935 3.84602 3.68631
# Velocity P-wave (km/s) = 5.94478 6.45747 6.20642
#
# Compressibility (1/GPa) = 0.02516143
#
# Stress axis : x y z
#
# Youngs Moduli (GPa) = 45.00620 100.19202 108.52648
#
# Poissons Ratio (x) = 0.57257 0.11711
# Poissons Ratio (y) = 0.25720 0.14463
# Poissons Ratio (z) = 0.04857 0.13352
#
# Static dielectric constant tensor:
#      x y z
#    x 1.738480 0.000000 0.000000 
#    y 0.000000 1.902160 0.000000 
#    z 0.000000 0.000000 1.799340 
# 
# From -- ./inp_files/524.got.cif
#   From: 2010.05.17/outbox.cif.g08.bks.cpg/sg54_1_cif.got.tgz:524.got - 2010.06.03 13:09:01.
