data_PCOD9422929
_publ_section_title
;
Structure prediction by ZEFSAII (Michael W. Deem and Ramdas Pophale) SiO2 
 PCOD9422929
Probable space group: P C C A
;
_chemical_formula_sum "Si O2"
_cell_formula_units_Z 64
_cell_length_a 20.832802
_cell_length_b 8.670154
_cell_length_c 18.818332
_cell_angle_alpha 90.000000
_cell_angle_beta 90.000000
_cell_angle_gamma 90.000000
_cell_volume 3399.034902
_symmetry_space_group_name_H-M "P C C A"
_symmetry_group_IT_number 54
_symmetry_cell_setting 'orthorhombic'
loop_
_space_group_symop_operation_xyz
x,y,z
1/2-x,-y,z
1/2+x,-y,1/2-z
-x,y,1/2-z
-x,-y,-z
1/2+x,y,-z
1/2-x,y,1/2+z
x,-y,1/2+z
loop_
_atom_site_type_symbol
_atom_site_label
_atom_site_fract_x
_atom_site_fract_y
_atom_site_fract_z
Si Si1 0.561509 0.565021 0.958862
Si Si2 0.564451 0.435513 0.292486
Si Si3 0.680547 0.933799 0.203182
Si Si4 0.820056 0.934472 0.045904
Si Si5 0.679944 0.434472 0.045904
Si Si6 0.938491 0.065021 0.958862
Si Si7 0.564451 0.935513 0.792486
Si Si8 0.180547 0.566201 0.796818
O O1 0.557705 0.526381 0.875444
O O2 0.562832 0.750000 0.965642
O O3 0.500000 0.500000 0.000000
O O4 0.625294 0.495008 0.993622
O O5 0.500000 0.478245 0.250000
O O6 0.572508 0.250000 0.286159
O O7 0.625462 0.516326 0.257290
O O8 0.684487 0.750000 0.196891
O O9 0.750000 0.000000 0.224868
O O10 0.665840 0.004970 0.125573
O O11 0.625462 0.983673 0.257290
O O12 0.818380 0.750000 0.046599
O O13 0.750000 0.000000 0.026387
O O14 0.874706 0.995008 0.993622
O O15 0.750000 0.500000 0.026387
O O16 0.665840 0.495030 0.125573
O O17 0.942295 0.026381 0.875444
O O18 0.000000 0.000000 0.000000
O O19 0.500000 0.978245 0.750000
O O20 0.250000 0.500000 0.775132
#
# Coordination Sequence:
#
# PCOD9422929 Si02
#       8
#     8   8   8   8   8   8   8   8
#     4  11  23  39  61  89 121 156 196 243 295 351
#     4  10  22  40  61  86 118 155 194 240 293 346
#     4  11  22  38  62  89 119 154 195 241 291 350
#     4  11  22  39  62  87 119 156 197 243 293 350
#     4  11  22  39  62  87 119 156 197 243 293 350
#     4  11  23  39  61  89 121 156 196 243 295 351
#     4  10  22  40  61  86 118 155 194 240 293 346
#     4  11  22  38  62  89 119 154 195 241 291 350
#
# _framework density 18.828873999999999
#
# number of rings (size 3 to 8) (size 9 to 14) (size 15 to 20)
#    0.000    1.250    0.000    8.250    0.000    5.500 
#    0.000    0.000    0.000    0.000    0.000    0.000 
#    0.000    0.000    0.000    0.000    0.000    0.000 
#
# Total GULP energy -358041.298025 kJ/mol
# GULP energy per Si atom -5594.395282 kJ/mol
# Density = 1.878602 g / cm^3
# Si number density = 18.828874 Si / 1000 Ang^3
#
#
#
# Elastic Constant Matrix: (Units=GPa)
#
#
# Indices 1 2 3 4 5 6 
#
# 1 158.6700 88.6275 134.1612 0.0000 0.0000 0.0000
# 2 88.6275 136.2092 96.5152 0.0000 0.0000 0.0000
# 3 134.1612 96.5152 151.3930 0.0000 0.0000 0.0000
# 4 0.0000 0.0000 0.0000 6.2449 0.0000 0.0000
# 5 0.0000 0.0000 0.0000 0.0000 42.6952 0.0000
# 6 0.0000 0.0000 0.0000 0.0000 0.0000 37.2325
#
#
#
# Elastic Compliance Matrix: (Units=1/GPa)
#
#
# Indices 1 2 3 4 5 6 
#
# 1 0.025220 -0.001046 -0.021683 0.000000 0.000000 0.000000
# 2 -0.001046 0.013434 -0.007637 0.000000 0.000000 0.000000
# 3 -0.021683 -0.007637 0.030689 0.000000 0.000000 0.000000
# 4 0.000000 0.000000 0.000000 0.160130 0.000000 0.000000
# 5 0.000000 0.000000 0.000000 0.000000 0.023422 0.000000
# 6 0.000000 0.000000 0.000000 0.000000 0.000000 0.026858
#
#
# Mechanical properties :
#
#
# Convention : Reuss Voigt Hill
#
# Bulk Modulus (GPa) = 116.13185 120.54223 118.33704
# Shear Modulus (GPa) = 14.56215 25.69909 20.13062
#
# Velocity S-wave (km/s) = 2.78401 3.69843 3.27331
# Velocity P-wave (km/s) = 8.49386 9.07726 8.79041
#
# Compressibility (1/GPa) = 0.00861090
#
# Stress axis : x y z
#
# Youngs Moduli (GPa) = 39.65074 74.43818 32.58509
#
# Poissons Ratio (x) = 0.07788 0.70653
# Poissons Ratio (y) = 0.04148 0.24886
# Poissons Ratio (z) = 0.85973 0.56850
#
# Static dielectric constant tensor:
#      x y z
#    x 1.620880 0.000000 0.000000 
#    y 0.000000 1.627900 0.000000 
#    z 0.000000 0.000000 1.626230 
# 
# From -- ./inp_files/18975.got.cif
#   From: 2010.05.17/outbox.cif.g08.bks.cpg/sg54_10_cif.got.tgz:18975.got - 2010.06.03 13:09:01.
