data_PCOD9422496
_publ_section_title
;
Structure prediction by ZEFSAII (Michael W. Deem and Ramdas Pophale) SiO2 
 PCOD9422496
Probable space group: P C C A
;
_chemical_formula_sum "Si O2"
_cell_formula_units_Z 32
_cell_length_a 14.057930
_cell_length_b 16.723681
_cell_length_c 5.422353
_cell_angle_alpha 90.000000
_cell_angle_beta 90.000000
_cell_angle_gamma 90.000000
_cell_volume 1274.797017
_symmetry_space_group_name_H-M "P C C A"
_symmetry_group_IT_number 54
_symmetry_cell_setting 'orthorhombic'
loop_
_space_group_symop_operation_xyz
x,y,z
1/2-x,-y,z
1/2+x,-y,1/2-z
-x,y,1/2-z
-x,-y,-z
1/2+x,y,-z
1/2-x,y,1/2+z
x,-y,1/2+z
loop_
_atom_site_type_symbol
_atom_site_label
_atom_site_fract_x
_atom_site_fract_y
_atom_site_fract_z
Si Si1 0.363685 0.289990 0.792719
Si Si2 0.391446 0.470326 0.960717
Si Si3 0.885079 0.045986 0.739604
Si Si4 0.850456 0.225871 0.709406
O O1 0.383962 0.381262 0.857607
O O2 0.251325 0.269967 0.771488
O O3 0.400955 0.264798 0.525863
O O4 0.397465 0.238746 0.025542
O O5 0.350330 0.524498 0.738069
O O6 0.500000 0.500000 0.000000
O O7 0.839473 0.131459 0.678400
O O8 0.000000 0.056806 0.750000
O O9 0.860958 0.987723 0.510792
#
# Coordination Sequence:
#
# PCOD9422496 Si02
#       4
#     8   8   8   8
#     4  10  21  40  61  88 131 157 214 259 319 382
#     4  10  21  40  62  88 122 161 210 262 315 376
#     4  10  21  40  64  91 127 166 210 257 310 378
#     4  10  21  40  61  93 125 168 206 261 319 376
#
# _framework density 25.102038
#
# number of rings (size 3 to 8) (size 9 to 14) (size 15 to 20)
#    0.000    2.000    0.000    3.000    0.000    0.000 
#   13.500   30.000    0.000    0.000    0.000    0.000 
#    0.000    0.000    0.000    0.000    0.000    0.000 
#
# Total GULP energy -178977.757805 kJ/mol
# GULP energy per Si atom -5593.054931 kJ/mol
# Density = 2.504490 g / cm^3
# Si number density = 25.102038 Si / 1000 Ang^3
#
#
#
# Elastic Constant Matrix: (Units=GPa)
#
#
# Indices 1 2 3 4 5 6 
#
# 1 137.0783 7.5278 -15.5882 0.0000 0.0000 0.0000
# 2 7.5278 250.5671 151.7134 0.0000 0.0000 0.0000
# 3 -15.5882 151.7134 401.1704 0.0000 0.0000 0.0000
# 4 0.0000 0.0000 0.0000 57.8612 0.0000 0.0000
# 5 0.0000 0.0000 0.0000 0.0000 -25.4156 0.0000
# 6 0.0000 0.0000 0.0000 0.0000 0.0000 236.4243
#
#
#
# Elastic Compliance Matrix: (Units=1/GPa)
#
#
# Indices 1 2 3 4 5 6 
#
# 1 0.007378 -0.000513 0.000481 0.000000 0.000000 0.000000
# 2 -0.000513 0.005212 -0.001991 0.000000 0.000000 0.000000
# 3 0.000481 -0.001991 0.003264 0.000000 0.000000 0.000000
# 4 0.000000 0.000000 0.000000 0.017283 0.000000 0.000000
# 5 0.000000 0.000000 0.000000 0.000000 -0.039346 0.000000
# 6 0.000000 0.000000 0.000000 0.000000 0.000000 0.004230
#
#
# Mechanical properties :
#
#
# Convention : Reuss Voigt Hill
#
# Bulk Modulus (GPa) = 84.68803 119.56909 102.12856
# Shear Modulus (GPa) = 833.00057 96.78485 464.89271
#
# Velocity S-wave (km/s) = 18.23640 6.21613 13.62363
# Velocity P-wave (km/s) = 21.84565 9.96278 16.97777
#
# Compressibility (1/GPa) = 0.01180804
#
# Stress axis : x y z
#
# Youngs Moduli (GPa) = 135.53994 191.87240 306.34525
#
# Poissons Ratio (x) = 0.09836 -0.14721
# Poissons Ratio (y) = 0.06948 0.60990
# Poissons Ratio (z) = -0.06513 0.38200
#
# Static dielectric constant tensor:
#      x y z
#    x 2.363290 0.000000 0.000000 
#    y 0.000000 1.909780 0.000000 
#    z 0.000000 0.000000 2.094240 
# 
# From -- ./inp_files/1200.got.cif
#   From: 2010.05.17/outbox.cif.g08.bks.cpg/sg54_1_cif.got.tgz:1200.got - 2010.06.03 13:09:01.
