data_PCOD9422246
_publ_section_title
;
Structure prediction by ZEFSAII (Michael W. Deem and Ramdas Pophale) SiO2 
 PCOD9422246
Probable space group: P C C A
;
_chemical_formula_sum "Si O2"
_cell_formula_units_Z 40
_cell_length_a 11.363751
_cell_length_b 4.978131
_cell_length_c 33.834275
_cell_angle_alpha 90.000000
_cell_angle_beta 90.000000
_cell_angle_gamma 90.000000
_cell_volume 1914.013095
_symmetry_space_group_name_H-M "P C C A"
_symmetry_group_IT_number 54
_symmetry_cell_setting 'orthorhombic'
loop_
_space_group_symop_operation_xyz
x,y,z
1/2-x,-y,z
1/2+x,-y,1/2-z
-x,y,1/2-z
-x,-y,-z
1/2+x,y,-z
1/2-x,y,1/2+z
x,-y,1/2+z
loop_
_atom_site_type_symbol
_atom_site_label
_atom_site_fract_x
_atom_site_fract_y
_atom_site_fract_z
Si Si1 0.172522 0.258658 0.468568
Si Si2 0.018554 0.648426 0.590843
Si Si3 0.383350 0.463222 0.169423
Si Si4 0.385482 0.961666 0.222950
Si Si5 0.125275 0.849040 0.052393
O O1 0.250000 0.500000 0.485416
O O2 0.093576 0.177379 0.506162
O O3 0.104102 0.384685 0.431771
O O4 0.250000 0.000000 0.457580
O O5 0.027001 0.566489 0.636343
O O6 0.110255 0.445977 0.570061
O O7 0.048228 0.955463 0.579999
O O8 0.250000 0.500000 0.153458
O O9 0.394860 0.161740 0.185256
O O10 0.392226 0.658481 0.207095
O O11 0.500000 0.014399 0.250000
O O12 0.250000 0.000000 0.238873
O O13 0.250000 0.000000 0.052898
#
# Coordination Sequence:
#
# PCOD9422246 Si02
#       5
#     8   8   8   8   8
#     4  11  23  39  54  77 114 158 202 246 289 343
#     4  12  22  37  59  83 114 153 194 243 301 351
#     4  10  21  37  60  91 119 146 186 240 294 343
#     4  10  21  40  64  90 121 154 190 235 290 357
#     4  11  21  35  56  83 110 147 199 248 294 348
#
# _framework density 20.898498
#
# number of rings (size 3 to 8) (size 9 to 14) (size 15 to 20)
#    0.000    1.200    0.000    8.400    0.000    1.600 
#    0.000    3.000    0.000    0.000    0.000    0.000 
#    0.000    0.000    0.000    0.000    0.000    0.000 
#
# Total GULP energy -223159.854450 kJ/mol
# GULP energy per Si atom -5578.996361 kJ/mol
# Density = 2.085093 g / cm^3
# Si number density = 20.898498 Si / 1000 Ang^3
#
#
#
# Elastic Constant Matrix: (Units=GPa)
#
#
# Indices 1 2 3 4 5 6 
#
# 1 61.5047 12.7557 41.2285 0.0000 0.0000 0.0000
# 2 12.7557 92.6561 -1.9883 0.0000 0.0000 0.0000
# 3 41.2285 -1.9883 60.2638 0.0000 0.0000 0.0000
# 4 0.0000 0.0000 0.0000 14.4106 0.0000 0.0000
# 5 0.0000 0.0000 0.0000 0.0000 18.5616 0.0000
# 6 0.0000 0.0000 0.0000 0.0000 0.0000 30.9027
#
#
#
# Elastic Compliance Matrix: (Units=1/GPa)
#
#
# Indices 1 2 3 4 5 6 
#
# 1 0.032106 -0.004895 -0.022126 0.000000 0.000000 0.000000
# 2 -0.004895 0.011546 0.003730 0.000000 0.000000 0.000000
# 3 -0.022126 0.003730 0.031854 0.000000 0.000000 0.000000
# 4 0.000000 0.000000 0.000000 0.069393 0.000000 0.000000
# 5 0.000000 0.000000 0.000000 0.000000 0.053875 0.000000
# 6 0.000000 0.000000 0.000000 0.000000 0.000000 0.032360
#
#
# Mechanical properties :
#
#
# Convention : Reuss Voigt Hill
#
# Bulk Modulus (GPa) = 34.57366 35.37959 34.97663
# Shear Modulus (GPa) = 17.39984 23.60354 20.50169
#
# Velocity S-wave (km/s) = 2.88859 3.36436 3.13551
# Velocity P-wave (km/s) = 5.26354 5.66197 5.46638
#
# Compressibility (1/GPa) = 0.02892375
#
# Stress axis : x y z
#
# Youngs Moduli (GPa) = 31.14672 86.60642 31.39302
#
# Poissons Ratio (x) = 0.42392 0.69461
# Poissons Ratio (y) = 0.15246 -0.11709
# Poissons Ratio (z) = 0.68916 -0.32301
#
# Static dielectric constant tensor:
#      x y z
#    x 1.949960 0.000000 0.000000 
#    y 0.000000 1.736490 0.000000 
#    z 0.000000 0.000000 1.745010 
# 
# From -- ./inp_files/28007.got.cif
#   From: 2010.05.17/outbox.cif.g08.bks.cpg/sg54_15_cif.got.tgz:28007.got - 2010.06.03 13:09:01.
