data_PCOD9422833
_publ_section_title
;
Structure prediction by ZEFSAII (Michael W. Deem and Ramdas Pophale) SiO2 
 PCOD9422833
Probable space group: P C C A
;
_chemical_formula_sum "Si O2"
_cell_formula_units_Z 40
_cell_length_a 17.024948
_cell_length_b 7.274357
_cell_length_c 14.959490
_cell_angle_alpha 90.000000
_cell_angle_beta 90.000000
_cell_angle_gamma 90.000000
_cell_volume 1852.666262
_symmetry_space_group_name_H-M "P C C A"
_symmetry_group_IT_number 54
_symmetry_cell_setting 'orthorhombic'
loop_
_space_group_symop_operation_xyz
x,y,z
1/2-x,-y,z
1/2+x,-y,1/2-z
-x,y,1/2-z
-x,-y,-z
1/2+x,y,-z
1/2-x,y,1/2+z
x,-y,1/2+z
loop_
_atom_site_type_symbol
_atom_site_label
_atom_site_fract_x
_atom_site_fract_y
_atom_site_fract_z
Si Si1 0.459161 0.558821 0.380310
Si Si2 0.335059 0.576770 0.020812
Si Si3 0.837776 0.501226 0.766184
Si Si4 0.433762 0.110903 0.553268
Si Si5 0.439888 0.197556 0.181969
O O1 0.402174 0.532127 0.465794
O O2 0.402164 0.599105 0.296145
O O3 0.517961 0.724487 0.399536
O O4 0.508402 0.368652 0.360549
O O5 0.250000 0.500000 0.993183
O O6 0.335687 0.558708 0.129346
O O7 0.362313 0.787161 0.003324
O O8 0.750000 0.500000 0.730210
O O9 0.869699 0.294343 0.766743
O O10 0.500000 0.000000 0.500000
O O11 0.403896 0.952893 0.618065
O O12 0.500000 0.104229 0.250000
#
# Coordination Sequence:
#
# PCOD9422833 Si02
#       5
#     8   8   8   8   8
#     4  11  22  43  69  91 133 176 221 273 331 406
#     4  11  23  41  66  94 135 177 214 275 347 395
#     4  10  22  42  67  93 130 176 211 268 344 394
#     4  12  23  39  70  98 126 174 231 275 324 399
#     4  10  22  38  67  97 124 169 227 270 323 399
#
# _framework density 21.590505
#
# number of rings (size 3 to 8) (size 9 to 14) (size 15 to 20)
#    0.000    1.200    4.000    2.400    2.800    0.000 
#    0.000    9.000    0.000    0.000    0.000    0.000 
#    0.000    0.000    0.000    0.000    0.000    0.000 
#
# Total GULP energy -222983.019427 kJ/mol
# GULP energy per Si atom -5574.575486 kJ/mol
# Density = 2.154136 g / cm^3
# Si number density = 21.590505 Si / 1000 Ang^3
#
#
#
# Elastic Constant Matrix: (Units=GPa)
#
#
# Indices 1 2 3 4 5 6 
#
# 1 151.5567 49.0572 18.0804 0.0000 0.0000 0.0000
# 2 49.0572 82.4946 6.6636 0.0000 0.0000 0.0000
# 3 18.0804 6.6636 68.0554 0.0000 0.0000 0.0000
# 4 0.0000 0.0000 0.0000 27.8485 0.0000 0.0000
# 5 0.0000 0.0000 0.0000 0.0000 25.2427 0.0000
# 6 0.0000 0.0000 0.0000 0.0000 0.0000 25.2419
#
#
#
# Elastic Compliance Matrix: (Units=1/GPa)
#
#
# Indices 1 2 3 4 5 6 
#
# 1 0.008373 -0.004838 -0.001751 0.000000 0.000000 0.000000
# 2 -0.004838 0.015014 -0.000185 0.000000 0.000000 0.000000
# 3 -0.001751 -0.000185 0.015177 0.000000 0.000000 0.000000
# 4 0.000000 0.000000 0.000000 0.035909 0.000000 0.000000
# 5 0.000000 0.000000 0.000000 0.000000 0.039615 0.000000
# 6 0.000000 0.000000 0.000000 0.000000 0.000000 0.039617
#
#
# Mechanical properties :
#
#
# Convention : Reuss Voigt Hill
#
# Bulk Modulus (GPa) = 39.97243 49.96767 44.97005
# Shear Modulus (GPa) = 28.47534 30.88697 29.68116
#
# Velocity S-wave (km/s) = 3.63558 3.78641 3.71176
# Velocity P-wave (km/s) = 6.01476 6.50457 6.26445
#
# Compressibility (1/GPa) = 0.02501724
#
# Stress axis : x y z
#
# Youngs Moduli (GPa) = 119.43179 66.60532 65.88854
#
# Poissons Ratio (x) = 0.32222 0.11536
# Poissons Ratio (y) = 0.57778 0.01218
# Poissons Ratio (z) = 0.20910 0.01231
#
# Static dielectric constant tensor:
#      x y z
#    x 1.912820 0.000000 0.000000 
#    y 0.000000 1.775720 0.000000 
#    z 0.000000 0.000000 1.991150 
# 
# From -- ./inp_files/18348.got.cif
#   From: 2010.05.17/outbox.cif.g08.bks.cpg/sg54_10_cif.got.tgz:18348.got - 2010.06.03 13:09:01.
