data_PCOD9422056
_publ_section_title
;
Structure prediction by ZEFSAII (Michael W. Deem and Ramdas Pophale) SiO2 
 PCOD9422056
Probable space group: P C C A
;
_chemical_formula_sum "Si O2"
_cell_formula_units_Z 40
_cell_length_a 10.082571
_cell_length_b 8.055808
_cell_length_c 19.723663
_cell_angle_alpha 90.000000
_cell_angle_beta 90.000000
_cell_angle_gamma 90.000000
_cell_volume 1602.020132
_symmetry_space_group_name_H-M "P C C A"
_symmetry_group_IT_number 54
_symmetry_cell_setting 'orthorhombic'
loop_
_space_group_symop_operation_xyz
x,y,z
1/2-x,-y,z
1/2+x,-y,1/2-z
-x,y,1/2-z
-x,-y,-z
1/2+x,y,-z
1/2-x,y,1/2+z
x,-y,1/2+z
loop_
_atom_site_type_symbol
_atom_site_label
_atom_site_fract_x
_atom_site_fract_y
_atom_site_fract_z
Si Si1 0.315583 0.679474 0.109203
Si Si2 0.240070 0.200237 0.744134
Si Si3 0.555760 0.173907 0.371660
Si Si4 0.456341 0.123381 0.940043
Si Si5 0.786355 0.315479 0.603086
O O1 0.250000 0.500000 0.101009
O O2 0.340104 0.716703 0.189485
O O3 0.445027 0.720785 0.066803
O O4 0.193177 0.814002 0.936173
O O5 0.244104 0.280992 0.817346
O O6 0.103303 0.227881 0.702445
O O7 0.250000 0.000000 0.748371
O O8 0.697073 0.191173 0.408960
O O9 0.442771 0.287697 0.402808
O O10 0.492695 0.992195 0.375005
O O11 0.500000 0.000000 0.000000
O O12 0.750000 0.500000 0.583165
#
# Coordination Sequence:
#
# PCOD9422056 Si02
#       5
#     8   8   8   8   8
#     4  10  21  42  71 107 145 187 241 306 379 435
#     4  10  20  42  73 103 149 187 241 293 379 466
#     4  10  22  44  66 104 142 192 248 295 369 451
#     4  12  26  48  73 103 147 202 256 298 361 453
#     4  12  26  43  70 114 149 186 244 319 386 433
#
# _framework density 24.968474000000001
#
# number of rings (size 3 to 8) (size 9 to 14) (size 15 to 20)
#    1.200    0.000    2.000    4.800    0.000    4.000 
#    3.600    6.000    0.000    0.000    0.000    0.000 
#    0.000    0.000    0.000    0.000    0.000    0.000 
#
# Total GULP energy -223475.772635 kJ/mol
# GULP energy per Si atom -5586.894316 kJ/mol
# Density = 2.491164 g / cm^3
# Si number density = 24.968474 Si / 1000 Ang^3
#
#
#
# Elastic Constant Matrix: (Units=GPa)
#
#
# Indices 1 2 3 4 5 6 
#
# 1 85.0186 -6.1537 3.6698 0.0000 0.0000 0.0000
# 2 -6.1537 106.1878 -9.9652 0.0000 0.0000 0.0000
# 3 3.6698 -9.9652 118.7756 0.0000 0.0000 0.0000
# 4 0.0000 0.0000 0.0000 3.4319 0.0000 0.0000
# 5 0.0000 0.0000 0.0000 0.0000 -1.9069 0.0000
# 6 0.0000 0.0000 0.0000 0.0000 0.0000 50.3956
#
#
#
# Elastic Compliance Matrix: (Units=1/GPa)
#
#
# Indices 1 2 3 4 5 6 
#
# 1 0.011823 0.000656 -0.000310 0.000000 0.000000 0.000000
# 2 0.000656 0.009528 0.000779 0.000000 0.000000 0.000000
# 3 -0.000310 0.000779 0.008494 0.000000 0.000000 0.000000
# 4 0.000000 0.000000 0.000000 0.291380 0.000000 0.000000
# 5 0.000000 0.000000 0.000000 0.000000 -0.524418 0.000000
# 6 0.000000 0.000000 0.000000 0.000000 0.000000 0.019843
#
#
# Mechanical properties :
#
#
# Convention : Reuss Voigt Hill
#
# Bulk Modulus (GPa) = 31.15702 31.67599 31.41651
# Shear Modulus (GPa) = -28.58765 31.87954 1.64595
#
# Velocity S-wave (km/s) = -3.38738 3.57710 0.81280
# Velocity P-wave (km/s) = 1.67138 5.45663 3.67296
#
# Compressibility (1/GPa) = 0.03209550
#
# Stress axis : x y z
#
# Youngs Moduli (GPa) = 84.58087 104.94927 117.72745
#
# Poissons Ratio (x) = -0.06885 0.03653
# Poissons Ratio (y) = -0.05549 -0.09173
# Poissons Ratio (z) = 0.02624 -0.08177
#
# Static dielectric constant tensor:
#      x y z
#    x 2.005530 0.000000 0.000000 
#    y 0.000000 1.971970 0.000000 
#    z 0.000000 0.000000 2.114500 
# 
# From -- ./inp_files/17102.got.cif
#   From: 2010.05.17/outbox.cif.g08.bks.cpg/sg54_9_cif.got.tgz:17102.got - 2010.06.03 13:09:01.
