data_PCOD9422309
_publ_section_title
;
Structure prediction by ZEFSAII (Michael W. Deem and Ramdas Pophale) SiO2 
 PCOD9422309
Probable space group: P C C A
;
_chemical_formula_sum "Si O2"
_cell_formula_units_Z 36
_cell_length_a 5.380900
_cell_length_b 18.508055
_cell_length_c 16.056376
_cell_angle_alpha 90.000000
_cell_angle_beta 90.000000
_cell_angle_gamma 90.000000
_cell_volume 1599.054376
_symmetry_space_group_name_H-M "P C C A"
_symmetry_group_IT_number 54
_symmetry_cell_setting 'orthorhombic'
loop_
_space_group_symop_operation_xyz
x,y,z
1/2-x,-y,z
1/2+x,-y,1/2-z
-x,y,1/2-z
-x,-y,-z
1/2+x,y,-z
1/2-x,y,1/2+z
x,-y,1/2+z
loop_
_atom_site_type_symbol
_atom_site_label
_atom_site_fract_x
_atom_site_fract_y
_atom_site_fract_z
Si Si1 0.270314 0.914766 0.550210
Si Si2 0.250000 0.500000 0.806868
Si Si3 0.750097 0.626561 0.055247
Si Si4 0.250159 0.722658 0.296173
Si Si5 0.251043 0.117762 0.728487
O O1 0.537014 0.902540 0.509405
O O2 0.246492 0.866006 0.631291
O O3 0.250000 0.000000 0.574764
O O4 0.500000 0.500001 0.750000
O O5 0.249926 0.432228 0.870305
O O6 0.750044 0.700856 0.107723
O O7 0.500120 0.619480 0.999988
O O8 0.500000 0.695340 0.250000
O O9 0.250624 0.808871 0.282282
O O10 0.000000 0.695567 0.250000
O O11 0.500000 0.077498 0.750000
O O12 0.000000 0.078446 0.750000
#
# Coordination Sequence:
#
# PCOD9422309 Si02
#       5
#     8   4   8   8   8
#     4  10  21  38  60  88 120 154 195 248 307 359
#     4  12  24  42  68  94 126 164 198 246 304 362
#     4  12  24  41  64  94 126 158 202 252 301 354
#     4  10  21  41  60  84 121 161 203 244 293 357
#     4  10  21  38  59  85 118 156 201 245 292 360
#
# _framework density 22.513304000000002
#
# number of rings (size 3 to 8) (size 9 to 14) (size 15 to 20)
#    0.000    1.333    0.000    6.000    0.000    0.889 
#    0.000   26.667    0.000    0.000    0.000    0.000 
#    0.000    0.000    0.000    0.000    0.000    0.000 
#
# Total GULP energy -201212.654866 kJ/mol
# GULP energy per Si atom -5589.240413 kJ/mol
# Density = 2.246206 g / cm^3
# Si number density = 22.513304 Si / 1000 Ang^3
#
#
#
# Elastic Constant Matrix: (Units=GPa)
#
#
# Indices 1 2 3 4 5 6 
#
# 1 223.0971 21.6740 69.2163 0.0000 0.0000 0.0000
# 2 21.6740 100.9027 58.2310 0.0000 0.0000 0.0000
# 3 69.2163 58.2310 140.1133 0.0000 0.0000 0.0000
# 4 0.0000 0.0000 0.0000 60.5584 0.0000 0.0000
# 5 0.0000 0.0000 0.0000 0.0000 59.9815 0.0000
# 6 0.0000 0.0000 0.0000 0.0000 0.0000 15.2009
#
#
#
# Elastic Compliance Matrix: (Units=1/GPa)
#
#
# Indices 1 2 3 4 5 6 
#
# 1 0.005312 0.000491 -0.002828 0.000000 0.000000 0.000000
# 2 0.000491 0.013083 -0.005680 0.000000 0.000000 0.000000
# 3 -0.002828 -0.005680 0.010895 0.000000 0.000000 0.000000
# 4 0.000000 0.000000 0.000000 0.016513 0.000000 0.000000
# 5 0.000000 0.000000 0.000000 0.000000 0.016672 0.000000
# 6 0.000000 0.000000 0.000000 0.000000 0.000000 0.065785
#
#
# Mechanical properties :
#
#
# Convention : Reuss Voigt Hill
#
# Bulk Modulus (GPa) = 75.43877 84.70620 80.07249
# Shear Modulus (GPa) = 33.62184 48.14762 40.88473
#
# Velocity S-wave (km/s) = 3.86867 4.62955 4.26611
# Velocity P-wave (km/s) = 7.31688 8.14147 7.74017
#
# Compressibility (1/GPa) = 0.01325578
#
# Stress axis : x y z
#
# Youngs Moduli (GPa) = 188.24829 76.43562 91.78647
#
# Poissons Ratio (x) = -0.03754 0.25960
# Poissons Ratio (y) = -0.09246 0.52134
# Poissons Ratio (z) = 0.53243 0.43415
#
# Static dielectric constant tensor:
#      x y z
#    x 1.869650 0.000000 0.000000 
#    y 0.000000 1.919810 0.000000 
#    z 0.000000 0.000000 1.809340 
# 
# From -- ./inp_files/6354.got.cif
#   From: 2010.05.17/outbox.cif.g08.bks.cpg/sg54_4_cif.got.tgz:6354.got - 2010.06.03 13:09:01.
