data_PCOD9422917
_publ_section_title
;
Structure prediction by ZEFSAII (Michael W. Deem and Ramdas Pophale) SiO2 
 PCOD9422917
Probable space group: P C C A
;
_chemical_formula_sum "Si O2"
_cell_formula_units_Z 40
_cell_length_a 13.335669
_cell_length_b 15.539934
_cell_length_c 8.555699
_cell_angle_alpha 90.000000
_cell_angle_beta 90.000000
_cell_angle_gamma 90.000000
_cell_volume 1773.043842
_symmetry_space_group_name_H-M "P C C A"
_symmetry_group_IT_number 54
_symmetry_cell_setting 'orthorhombic'
loop_
_space_group_symop_operation_xyz
x,y,z
1/2-x,-y,z
1/2+x,-y,1/2-z
-x,y,1/2-z
-x,-y,-z
1/2+x,y,-z
1/2-x,y,1/2+z
x,-y,1/2+z
loop_
_atom_site_type_symbol
_atom_site_label
_atom_site_fract_x
_atom_site_fract_y
_atom_site_fract_z
Si Si1 0.195776 0.331474 0.008503
Si Si2 0.750000 0.000000 0.569551
Si Si3 0.105778 0.078485 0.687140
Si Si4 0.162561 0.442360 0.280289
Si Si5 0.000000 0.574727 0.250000
Si Si6 0.624346 0.730055 0.810797
O O1 0.129710 0.381501 0.137278
O O2 0.267065 0.272428 0.112053
O O3 0.274630 0.390860 0.910182
O O4 0.136242 0.281550 0.875696
O O5 0.692000 0.931514 0.679800
O O6 0.839074 0.963044 0.461494
O O7 0.081997 0.177745 0.647693
O O8 0.000000 0.040132 0.750000
O O9 0.250000 0.500000 0.203725
O O10 0.077935 0.509698 0.331687
O O11 0.935998 0.642558 0.353104
#
# Coordination Sequence:
#
# PCOD9422917 Si02
#       6
#     8   4   8   8   4   8
#     4  10  22  40  57  79 120 162 202 253 299 342
#     4  10  24  42  74  96 128 164 202 242 318 384
#     4  11  22  44  67 102 127 164 201 255 307 388
#     4  11  22  38  54  78 112 159 210 254 288 346
#     4  12  24  34  60  82 112 158 206 248 298 346
#     4  11  23  38  60  88 120 154 196 250 306 352
#
# _framework density 22.560074
#
# number of rings (size 3 to 8) (size 9 to 14) (size 15 to 20)
#    0.000    1.200    5.000    2.400    0.000    3.200 
#    0.000    0.000    0.000    0.000    0.000    0.000 
#    0.000    0.000    0.000    0.000    0.000    0.000 
#
# Total GULP energy -222923.632322 kJ/mol
# GULP energy per Si atom -5573.090808 kJ/mol
# Density = 2.250873 g / cm^3
# Si number density = 22.560074 Si / 1000 Ang^3
#
#
#
# Elastic Constant Matrix: (Units=GPa)
#
#
# Indices 1 2 3 4 5 6 
#
# 1 83.8331 2.7357 -2.5597 0.0000 0.0000 0.0000
# 2 2.7357 62.3313 5.2769 0.0000 0.0000 0.0000
# 3 -2.5597 5.2769 77.7311 0.0000 0.0000 0.0000
# 4 0.0000 0.0000 0.0000 16.3051 0.0000 0.0000
# 5 0.0000 0.0000 0.0000 0.0000 35.1295 0.0000
# 6 0.0000 0.0000 0.0000 0.0000 0.0000 27.4361
#
#
#
# Elastic Compliance Matrix: (Units=1/GPa)
#
#
# Indices 1 2 3 4 5 6 
#
# 1 0.011960 -0.000561 0.000432 0.000000 0.000000 0.000000
# 2 -0.000561 0.016162 -0.001116 0.000000 0.000000 0.000000
# 3 0.000432 -0.001116 0.012955 0.000000 0.000000 0.000000
# 4 0.000000 0.000000 0.000000 0.061331 0.000000 0.000000
# 5 0.000000 0.000000 0.000000 0.000000 0.028466 0.000000
# 6 0.000000 0.000000 0.000000 0.000000 0.000000 0.036448
#
#
# Mechanical properties :
#
#
# Convention : Reuss Voigt Hill
#
# Bulk Modulus (GPa) = 25.91564 26.08904 26.00234
# Shear Modulus (GPa) = 27.37101 30.33696 28.85398
#
# Velocity S-wave (km/s) = 3.48695 3.67102 3.58017
# Velocity P-wave (km/s) = 5.26537 5.43671 5.35173
#
# Compressibility (1/GPa) = 0.03858674
#
# Stress axis : x y z
#
# Youngs Moduli (GPa) = 83.61222 61.87197 77.19134
#
# Poissons Ratio (x) = 0.03474 -0.03334
# Poissons Ratio (y) = 0.04695 0.08612
# Poissons Ratio (z) = -0.03612 0.06903
#
# Static dielectric constant tensor:
#      x y z
#    x 1.904080 0.000000 0.000000 
#    y 0.000000 1.865820 0.000000 
#    z 0.000000 0.000000 1.817830 
# 
# From -- ./inp_files/3479.got.cif
#   From: 2010.05.17/outbox.cif.g08.bks.cpg/sg54_2_cif.got.tgz:3479.got - 2010.06.03 13:09:01.
