data_PCOD9422914
_publ_section_title
;
Structure prediction by ZEFSAII (Michael W. Deem and Ramdas Pophale) SiO2 
 PCOD9422914
Probable space group: P C C A
;
_chemical_formula_sum "Si O2"
_cell_formula_units_Z 48
_cell_length_a 8.633052
_cell_length_b 16.789013
_cell_length_c 15.753658
_cell_angle_alpha 90.000000
_cell_angle_beta 90.000000
_cell_angle_gamma 90.000000
_cell_volume 2283.341843
_symmetry_space_group_name_H-M "P C C A"
_symmetry_group_IT_number 54
_symmetry_cell_setting 'orthorhombic'
loop_
_space_group_symop_operation_xyz
x,y,z
1/2-x,-y,z
1/2+x,-y,1/2-z
-x,y,1/2-z
-x,-y,-z
1/2+x,y,-z
1/2-x,y,1/2+z
x,-y,1/2+z
loop_
_atom_site_type_symbol
_atom_site_label
_atom_site_fract_x
_atom_site_fract_y
_atom_site_fract_z
Si Si1 0.817626 0.577386 0.227180
Si Si2 0.275799 0.589663 0.085334
Si Si3 0.520398 0.301102 0.488453
Si Si4 0.371798 0.753342 0.823032
Si Si5 0.626815 0.057273 0.956164
Si Si6 0.154292 0.844055 0.912182
O O1 0.750000 0.500000 0.179370
O O2 0.715976 0.583272 0.313103
O O3 0.806632 0.663397 0.184572
O O4 0.000000 0.565584 0.250000
O O5 0.250000 0.500000 0.052221
O O6 0.122301 0.638196 0.065086
O O7 0.408692 0.643039 0.043737
O O8 0.446578 0.245110 0.416413
O O9 0.619263 0.241631 0.545465
O O10 0.500000 0.762993 0.750000
O O11 0.243279 0.821962 0.825733
O O12 0.514650 0.115753 0.904239
O O13 0.750000 0.000000 0.909303
O O14 0.732643 0.104375 0.025766
O O15 0.500000 0.000000 0.000000
#
# Coordination Sequence:
#
# PCOD9422914 Si02
#       6
#     8   8   8   8   8   8
#     4  10  22  40  56  79 120 170 219 269 320 375
#     4  11  23  38  58  86 119 167 224 275 320 362
#     4  12  21  39  62  87 122 159 219 270 314 362
#     4  11  22  37  59  85 130 169 208 260 327 369
#     4   9  19  36  66 105 126 149 197 250 304 374
#     4  11  20  38  64  99 126 163 204 257 307 379
#
# _framework density 21.021818
#
# number of rings (size 3 to 8) (size 9 to 14) (size 15 to 20)
#    0.000    1.333    6.667    0.500    0.000    3.333 
#    0.000    0.000    0.000    0.000   13.000    0.000 
#    0.000    0.000    0.000    0.000    0.000    0.167 
#
# Total GULP energy -267597.880124 kJ/mol
# GULP energy per Si atom -5574.955836 kJ/mol
# Density = 2.097397 g / cm^3
# Si number density = 21.021818 Si / 1000 Ang^3
#
#
#
# Elastic Constant Matrix: (Units=GPa)
#
#
# Indices 1 2 3 4 5 6 
#
# 1 107.2217 57.1351 20.7196 0.0000 0.0000 0.0000
# 2 57.1351 87.2672 20.6826 0.0000 0.0000 0.0000
# 3 20.7196 20.6826 45.7009 0.0000 0.0000 0.0000
# 4 0.0000 0.0000 0.0000 14.9030 0.0000 0.0000
# 5 0.0000 0.0000 0.0000 0.0000 50.3460 0.0000
# 6 0.0000 0.0000 0.0000 0.0000 0.0000 59.5388
#
#
#
# Elastic Compliance Matrix: (Units=1/GPa)
#
#
# Indices 1 2 3 4 5 6 
#
# 1 0.014588 -0.008942 -0.002567 0.000000 0.000000 0.000000
# 2 -0.008942 0.018318 -0.004236 0.000000 0.000000 0.000000
# 3 -0.002567 -0.004236 0.024962 0.000000 0.000000 0.000000
# 4 0.000000 0.000000 0.000000 0.067101 0.000000 0.000000
# 5 0.000000 0.000000 0.000000 0.000000 0.019863 0.000000
# 6 0.000000 0.000000 0.000000 0.000000 0.000000 0.016796
#
#
# Mechanical properties :
#
#
# Convention : Reuss Voigt Hill
#
# Bulk Modulus (GPa) = 37.91064 48.58493 43.24779
# Shear Modulus (GPa) = 24.76374 34.40106 29.58240
#
# Velocity S-wave (km/s) = 3.43593 4.04969 3.75537
# Velocity P-wave (km/s) = 5.81497 6.71033 6.27863
#
# Compressibility (1/GPa) = 0.02637782
#
# Stress axis : x y z
#
# Youngs Moduli (GPa) = 68.55158 54.59228 40.06094
#
# Poissons Ratio (x) = 0.48818 0.10282
# Poissons Ratio (y) = 0.61301 0.16968
# Poissons Ratio (z) = 0.17595 0.23123
#
# Static dielectric constant tensor:
#      x y z
#    x 1.811560 0.000000 0.000000 
#    y 0.000000 1.880400 0.000000 
#    z 0.000000 0.000000 1.790430 
# 
# From -- ./inp_files/11724.got.cif
#   From: 2010.05.17/outbox.cif.g08.bks.cpg/sg54_6_cif.got.tgz:11724.got - 2010.06.03 13:09:01.
