data_PCOD9422947
_publ_section_title
;
Structure prediction by ZEFSAII (Michael W. Deem and Ramdas Pophale) SiO2 
 PCOD9422947
Probable space group: P C C A
;
_chemical_formula_sum "Si O2"
_cell_formula_units_Z 52
_cell_length_a 20.170897
_cell_length_b 5.368343
_cell_length_c 20.215989
_cell_angle_alpha 90.000000
_cell_angle_beta 90.000000
_cell_angle_gamma 90.000000
_cell_volume 2189.074091
_symmetry_space_group_name_H-M "P C C A"
_symmetry_group_IT_number 54
_symmetry_cell_setting 'orthorhombic'
loop_
_space_group_symop_operation_xyz
x,y,z
1/2-x,-y,z
1/2+x,-y,1/2-z
-x,y,1/2-z
-x,-y,-z
1/2+x,y,-z
1/2-x,y,1/2+z
x,-y,1/2+z
loop_
_atom_site_type_symbol
_atom_site_label
_atom_site_fract_x
_atom_site_fract_y
_atom_site_fract_z
Si Si1 0.250000 0.000000 0.778852
Si Si2 0.160872 0.635590 0.861021
Si Si3 0.602735 0.958649 0.046400
Si Si4 0.174440 0.597586 0.230137
Si Si5 0.313972 0.645358 0.999135
Si Si6 0.028538 0.207896 0.578685
Si Si7 0.586571 0.312464 0.876792
O O1 0.221236 0.789821 0.827945
O O2 0.308950 0.892974 0.732322
O O3 0.144719 0.446729 0.803247
O O4 0.106145 0.832200 0.882444
O O5 0.174292 0.509298 0.931402
O O6 0.545486 0.163586 0.053092
O O7 0.674473 0.073121 0.028721
O O8 0.575856 0.793003 0.986228
O O9 0.250000 0.500000 0.219729
O O10 0.129026 0.434668 0.182458
O O11 0.250000 0.500000 0.026685
O O12 0.364781 0.666108 0.059947
O O13 0.031494 0.474928 0.612295
O O14 0.056285 0.968252 0.620725
#
# Coordination Sequence:
#
# PCOD9422947 Si02
#       7
#     4   8   8   8   8   8   8
#     4  10  22  40  62  92 132 180 222 266 354 416
#     4  11  20  38  63  93 124 176 215 276 324 415
#     4  10  22  40  67  96 130 176 220 286 334 414
#     4  10  23  40  65  92 134 179 219 274 349 413
#     4  11  22  38  64 102 134 164 223 283 346 406
#     4  10  24  42  70  95 132 176 232 271 349 397
#     4  11  24  44  66 100 131 177 220 287 332 414
#
# _framework density 23.754335999999999
#
# number of rings (size 3 to 8) (size 9 to 14) (size 15 to 20)
#    0.000    1.538    1.538    3.692    6.462    1.846 
#    0.000    0.769    0.000    0.000    0.000    0.000 
#    0.000    0.000    0.000    0.000    0.000    0.000 
#
# Total GULP energy -289605.830163 kJ/mol
# GULP energy per Si atom -5569.342888 kJ/mol
# Density = 2.370027 g / cm^3
# Si number density = 23.754336 Si / 1000 Ang^3
#
#
#
# Elastic Constant Matrix: (Units=GPa)
#
#
# Indices 1 2 3 4 5 6 
#
# 1 65.8744 9.8034 6.9012 0.0000 0.0000 0.0000
# 2 9.8034 74.4186 29.9340 0.0000 0.0000 0.0000
# 3 6.9012 29.9340 60.4474 0.0000 0.0000 0.0000
# 4 0.0000 0.0000 0.0000 22.0558 0.0000 0.0000
# 5 0.0000 0.0000 0.0000 0.0000 21.0204 0.0000
# 6 0.0000 0.0000 0.0000 0.0000 0.0000 24.3244
#
#
#
# Elastic Compliance Matrix: (Units=1/GPa)
#
#
# Indices 1 2 3 4 5 6 
#
# 1 0.015527 -0.001664 -0.000949 0.000000 0.000000 0.000000
# 2 -0.001664 0.016958 -0.008208 0.000000 0.000000 0.000000
# 3 -0.000949 -0.008208 0.020716 0.000000 0.000000 0.000000
# 4 0.000000 0.000000 0.000000 0.045340 0.000000 0.000000
# 5 0.000000 0.000000 0.000000 0.000000 0.047573 0.000000
# 6 0.000000 0.000000 0.000000 0.000000 0.000000 0.041111
#
#
# Mechanical properties :
#
#
# Convention : Reuss Voigt Hill
#
# Bulk Modulus (GPa) = 31.68483 32.66861 32.17672
# Shear Modulus (GPa) = 22.79083 23.75357 23.27220
#
# Velocity S-wave (km/s) = 3.10084 3.16566 3.13342
# Velocity P-wave (km/s) = 5.11740 5.21003 5.16392
#
# Compressibility (1/GPa) = 0.03156084
#
# Stress axis : x y z
#
# Youngs Moduli (GPa) = 64.40220 58.96854 48.27132
#
# Poissons Ratio (x) = 0.09811 0.04580
# Poissons Ratio (y) = 0.10715 0.39620
# Poissons Ratio (z) = 0.06111 0.48401
#
# Static dielectric constant tensor:
#      x y z
#    x 1.948220 0.000000 0.000000 
#    y 0.000000 2.120070 0.000000 
#    z 0.000000 0.000000 1.898820 
# 
# From -- ./inp_files/22162.got.cif
#   From: 2010.05.17/outbox.cif.g08.bks.cpg/sg54_12_cif.got.tgz:22162.got - 2010.06.03 13:09:01.
