data_PCOD9422266
_publ_section_title
;
Structure prediction by ZEFSAII (Michael W. Deem and Ramdas Pophale) SiO2 
 PCOD9422266
Probable space group: P C C A
;
_chemical_formula_sum "Si O2"
_cell_formula_units_Z 64
_cell_length_a 17.434081
_cell_length_b 9.313693
_cell_length_c 20.398222
_cell_angle_alpha 90.000000
_cell_angle_beta 90.000000
_cell_angle_gamma 90.000000
_cell_volume 3312.175131
_symmetry_space_group_name_H-M "P C C A"
_symmetry_group_IT_number 54
_symmetry_cell_setting 'orthorhombic'
loop_
_space_group_symop_operation_xyz
x,y,z
1/2-x,-y,z
1/2+x,-y,1/2-z
-x,y,1/2-z
-x,-y,-z
1/2+x,y,-z
1/2-x,y,1/2+z
x,-y,1/2+z
loop_
_atom_site_type_symbol
_atom_site_label
_atom_site_fract_x
_atom_site_fract_y
_atom_site_fract_z
Si Si1 0.112726 0.865498 0.856042
Si Si2 0.824123 0.101050 0.286792
Si Si3 0.474973 0.078908 0.179339
Si Si4 0.111117 0.653523 0.508365
Si Si5 0.234222 0.653829 0.619522
Si Si6 0.604945 0.780459 0.928690
Si Si7 0.443599 0.387556 0.942029
Si Si8 0.161986 0.975736 0.485062
O O1 0.158738 0.855958 0.788357
O O2 0.089193 0.710683 0.884433
O O3 0.156045 0.947790 0.914645
O O4 0.038201 0.963943 0.842950
O O5 0.810750 0.236605 0.333807
O O6 0.750000 0.000000 0.289372
O O7 0.895998 0.007780 0.311160
O O8 0.500000 0.136968 0.250000
O O9 0.458609 0.202530 0.126971
O O10 0.184163 0.620683 0.554393
O O11 0.091647 0.546830 0.448035
O O12 0.129665 0.814816 0.484565
O O13 0.035487 0.632191 0.553982
O O14 0.250000 0.500000 0.651975
O O15 0.314434 0.728076 0.600239
O O16 0.582783 0.678547 0.988233
O O17 0.612566 0.935828 0.962578
O O18 0.250000 0.000000 0.506675
#
# Coordination Sequence:
#
# PCOD9422266 Si02
#       8
#     8   8   8   8   8   8   8   8
#     4  10  22  40  58  89 124 157 201 249 316 370
#     4  11  22  39  63  86 115 160 206 256 305 363
#     4  10  21  37  64  90 117 156 211 262 303 362
#     4  11  22  37  61  94 121 160 202 249 309 367
#     4  12  23  38  61  90 123 159 212 249 301 371
#     4  11  20  37  62  88 119 158 200 255 303 356
#     4  10  22  39  61  88 129 162 198 251 313 376
#     4  11  21  34  60  93 121 154 198 255 305 368
#
# _framework density 19.322648999999998
#
# number of rings (size 3 to 8) (size 9 to 14) (size 15 to 20)
#    0.000    1.250    3.750    3.375    0.000    2.000 
#    0.000    2.500    5.500    0.000    0.000    0.000 
#    0.000    0.000    0.000    0.000    0.000    0.000 
#
# Total GULP energy -357366.744656 kJ/mol
# GULP energy per Si atom -5583.855385 kJ/mol
# Density = 1.927867 g / cm^3
# Si number density = 19.322649 Si / 1000 Ang^3
#
#
#
# Elastic Constant Matrix: (Units=GPa)
#
#
# Indices 1 2 3 4 5 6 
#
# 1 69.5137 15.6192 3.8099 0.0000 0.0000 0.0000
# 2 15.6192 84.3080 3.5756 0.0000 0.0000 0.0000
# 3 3.8099 3.5756 58.3088 0.0000 0.0000 0.0000
# 4 0.0000 0.0000 0.0000 20.3895 0.0000 0.0000
# 5 0.0000 0.0000 0.0000 0.0000 27.0967 0.0000
# 6 0.0000 0.0000 0.0000 0.0000 0.0000 26.2612
#
#
#
# Elastic Compliance Matrix: (Units=1/GPa)
#
#
# Indices 1 2 3 4 5 6 
#
# 1 0.015049 -0.002753 -0.000814 0.000000 0.000000 0.000000
# 2 -0.002753 0.012396 -0.000580 0.000000 0.000000 0.000000
# 3 -0.000814 -0.000580 0.017239 0.000000 0.000000 0.000000
# 4 0.000000 0.000000 0.000000 0.049045 0.000000 0.000000
# 5 0.000000 0.000000 0.000000 0.000000 0.036905 0.000000
# 6 0.000000 0.000000 0.000000 0.000000 0.000000 0.038079
#
#
# Mechanical properties :
#
#
# Convention : Reuss Voigt Hill
#
# Bulk Modulus (GPa) = 27.48196 28.68221 28.08209
# Shear Modulus (GPa) = 26.43572 27.35787 26.89679
#
# Velocity S-wave (km/s) = 3.70282 3.76685 3.73498
# Velocity P-wave (km/s) = 5.70392 5.81334 5.75889
#
# Compressibility (1/GPa) = 0.03638750
#
# Stress axis : x y z
#
# Youngs Moduli (GPa) = 66.44965 80.67113 58.00845
#
# Poissons Ratio (x) = 0.22213 0.04724
# Poissons Ratio (y) = 0.18297 0.03366
# Poissons Ratio (z) = 0.05412 0.04681
#
# Static dielectric constant tensor:
#      x y z
#    x 1.688240 0.000000 0.000000 
#    y 0.000000 1.710960 0.000000 
#    z 0.000000 0.000000 1.671190 
# 
# From -- ./inp_files/21953.got.cif
#   From: 2010.05.17/outbox.cif.g08.bks.cpg/sg54_11_cif.got.tgz:21953.got - 2010.06.03 13:09:01.
