data_PCOD9422673
_publ_section_title
;
Structure prediction by ZEFSAII (Michael W. Deem and Ramdas Pophale) SiO2 
 PCOD9422673
Probable space group: P C C A
;
_chemical_formula_sum "Si O2"
_cell_formula_units_Z 48
_cell_length_a 8.771796
_cell_length_b 8.372495
_cell_length_c 31.877714
_cell_angle_alpha 90.000000
_cell_angle_beta 90.000000
_cell_angle_gamma 90.000000
_cell_volume 2341.157275
_symmetry_space_group_name_H-M "P C C A"
_symmetry_group_IT_number 54
_symmetry_cell_setting 'orthorhombic'
loop_
_space_group_symop_operation_xyz
x,y,z
1/2-x,-y,z
1/2+x,-y,1/2-z
-x,y,1/2-z
-x,-y,-z
1/2+x,y,-z
1/2-x,y,1/2+z
x,-y,1/2+z
loop_
_atom_site_type_symbol
_atom_site_label
_atom_site_fract_x
_atom_site_fract_y
_atom_site_fract_z
Si Si1 0.750000 0.000000 0.824408
Si Si2 0.534417 0.160312 0.524888
Si Si3 0.477198 0.812477 0.118207
Si Si4 0.992264 0.228115 0.703743
Si Si5 0.158978 0.665181 0.460414
Si Si6 0.750000 0.000000 0.163886
Si Si7 0.924280 0.453055 0.629027
O O1 0.841661 0.877627 0.853609
O O2 0.628961 0.899078 0.798371
O O3 0.453401 0.148932 0.569644
O O4 0.465040 0.299526 0.495733
O O5 0.710196 0.200190 0.535189
O O6 0.500000 0.000000 0.500000
O O7 0.496756 0.622291 0.120868
O O8 0.628367 0.903473 0.135477
O O9 0.841052 0.126798 0.692280
O O10 0.001131 0.356216 0.666453
O O11 0.000000 0.301259 0.750000
O O12 0.250000 0.500000 0.466038
O O13 0.087353 0.651029 0.413793
O O14 0.750000 0.500000 0.640418
#
# Coordination Sequence:
#
# PCOD9422673 Si02
#       7
#     4   8   8   8   8   4   8
#     4  10  27  44  65 104 134 174 210 279 343 376
#     4  12  26  38  63  97 128 170 224 275 314 384
#     4  11  24  44  66  95 135 176 221 267 331 396
#     4  11  23  44  71 102 132 170 220 274 332 399
#     4  11  24  43  63  91 131 173 219 269 333 384
#     4  10  21  42  73  90 134 180 214 265 325 420
#     4  11  22  45  70  95 127 182 222 260 336 407
#
# _framework density 20.502682
#
# number of rings (size 3 to 8) (size 9 to 14) (size 15 to 20)
#    0.000    1.000    5.000    1.500    9.333    0.667 
#    3.000    0.833    0.000    0.000    0.000    0.000 
#    0.000    0.000    0.000    0.000    0.000    0.000 
#
# Total GULP energy -268374.933542 kJ/mol
# GULP energy per Si atom -5591.144449 kJ/mol
# Density = 2.045602 g / cm^3
# Si number density = 20.502682 Si / 1000 Ang^3
#
#
#
# Elastic Constant Matrix: (Units=GPa)
#
#
# Indices 1 2 3 4 5 6 
#
# 1 41.1447 7.8979 20.1331 0.0000 0.0000 0.0000
# 2 7.8979 85.8174 40.2482 0.0000 0.0000 0.0000
# 3 20.1331 40.2482 141.2456 0.0000 0.0000 0.0000
# 4 0.0000 0.0000 0.0000 14.4919 0.0000 0.0000
# 5 0.0000 0.0000 0.0000 0.0000 9.7367 0.0000
# 6 0.0000 0.0000 0.0000 0.0000 0.0000 36.8149
#
#
#
# Elastic Compliance Matrix: (Units=1/GPa)
#
#
# Indices 1 2 3 4 5 6 
#
# 1 0.026170 -0.000761 -0.003513 0.000000 0.000000 0.000000
# 2 -0.000761 0.013472 -0.003731 0.000000 0.000000 0.000000
# 3 -0.003513 -0.003731 0.008644 0.000000 0.000000 0.000000
# 4 0.000000 0.000000 0.000000 0.069004 0.000000 0.000000
# 5 0.000000 0.000000 0.000000 0.000000 0.102704 0.000000
# 6 0.000000 0.000000 0.000000 0.000000 0.000000 0.027163
#
#
# Mechanical properties :
#
#
# Convention : Reuss Voigt Hill
#
# Bulk Modulus (GPa) = 30.98237 44.97400 37.97818
# Shear Modulus (GPa) = 18.25321 25.53728 21.89525
#
# Velocity S-wave (km/s) = 2.98700 3.53307 3.27145
# Velocity P-wave (km/s) = 5.20004 6.21504 5.73006
#
# Compressibility (1/GPa) = 0.03227642
#
# Stress axis : x y z
#
# Youngs Moduli (GPa) = 38.21209 74.22659 115.69125
#
# Poissons Ratio (x) = 0.05646 0.40648
# Poissons Ratio (y) = 0.02907 0.43159
# Poissons Ratio (z) = 0.13426 0.27690
#
# Static dielectric constant tensor:
#      x y z
#    x 1.754390 0.000000 0.000000 
#    y 0.000000 1.740250 0.000000 
#    z 0.000000 0.000000 1.704760 
# 
# From -- ./inp_files/27816.got.cif
#   From: 2010.05.17/outbox.cif.g08.bks.cpg/sg54_14_cif.got.tgz:27816.got - 2010.06.03 13:09:01.
