data_PCOD9422253
_publ_section_title
;
Structure prediction by ZEFSAII (Michael W. Deem and Ramdas Pophale) SiO2 
 PCOD9422253
Probable space group: P C C A
;
_chemical_formula_sum "Si O2"
_cell_formula_units_Z 40
_cell_length_a 8.767480
_cell_length_b 9.883930
_cell_length_c 22.061723
_cell_angle_alpha 90.000000
_cell_angle_beta 90.000000
_cell_angle_gamma 90.000000
_cell_volume 1911.806229
_symmetry_space_group_name_H-M "P C C A"
_symmetry_group_IT_number 54
_symmetry_cell_setting 'orthorhombic'
loop_
_space_group_symop_operation_xyz
x,y,z
1/2-x,-y,z
1/2+x,-y,1/2-z
-x,y,1/2-z
-x,-y,-z
1/2+x,y,-z
1/2-x,y,1/2+z
x,-y,1/2+z
loop_
_atom_site_type_symbol
_atom_site_label
_atom_site_fract_x
_atom_site_fract_y
_atom_site_fract_z
Si Si1 0.605578 0.241563 0.102833
Si Si2 0.540373 0.749346 0.138230
Si Si3 0.928694 0.982084 0.192842
Si Si4 0.883078 0.108568 0.474689
Si Si5 0.069036 0.537472 0.183483
O O1 0.777836 0.256903 0.127354
O O2 0.547331 0.101466 0.132010
O O3 0.492501 0.354617 0.132232
O O4 0.633288 0.213576 0.031492
O O5 0.449317 0.799339 0.078934
O O6 0.498525 0.605103 0.162961
O O7 0.503137 0.869914 0.184498
O O8 0.000000 0.908823 0.250000
O O9 0.750000 0.000000 0.202749
O O10 0.750000 0.000000 0.457852
O O11 0.000000 0.000000 0.500000
O O12 0.250000 0.500000 0.186849
O O13 0.000000 0.574253 0.250000
#
# Coordination Sequence:
#
# PCOD9422253 Si02
#       5
#     8   8   8   8   8
#     4  11  23  44  67  96 135 179 223 281 340 405
#     4  11  24  43  68  95 136 180 224 279 340 402
#     4  10  21  37  61  93 124 166 220 273 332 397
#     4  12  23  43  71 104 141 178 223 283 341 402
#     4  12  28  47  69  98 136 180 229 282 343 412
#
# _framework density 20.922622
#
# number of rings (size 3 to 8) (size 9 to 14) (size 15 to 20)
#    0.000    0.800    4.000    3.600    2.800    6.400 
#    0.000    0.000    0.000    0.000    0.000    0.000 
#    0.000    0.000    0.000    0.000    0.000    0.000 
#
# Total GULP energy -222826.659396 kJ/mol
# GULP energy per Si atom -5570.666485 kJ/mol
# Density = 2.087500 g / cm^3
# Si number density = 20.922622 Si / 1000 Ang^3
#
#
#
# Elastic Constant Matrix: (Units=GPa)
#
#
# Indices 1 2 3 4 5 6 
#
# 1 79.7445 24.3865 20.0433 0.0000 0.0000 0.0000
# 2 24.3865 111.5469 30.1471 0.0000 0.0000 0.0000
# 3 20.0433 30.1471 121.5144 0.0000 0.0000 0.0000
# 4 0.0000 0.0000 0.0000 30.5505 0.0000 0.0000
# 5 0.0000 0.0000 0.0000 0.0000 28.1691 0.0000
# 6 0.0000 0.0000 0.0000 0.0000 0.0000 29.6818
#
#
#
# Elastic Compliance Matrix: (Units=1/GPa)
#
#
# Indices 1 2 3 4 5 6 
#
# 1 0.013733 -0.002562 -0.001630 0.000000 0.000000 0.000000
# 2 -0.002562 0.010087 -0.002080 0.000000 0.000000 0.000000
# 3 -0.001630 -0.002080 0.009014 0.000000 0.000000 0.000000
# 4 0.000000 0.000000 0.000000 0.032733 0.000000 0.000000
# 5 0.000000 0.000000 0.000000 0.000000 0.035500 0.000000
# 6 0.000000 0.000000 0.000000 0.000000 0.000000 0.033691
#
#
# Mechanical properties :
#
#
# Convention : Reuss Voigt Hill
#
# Bulk Modulus (GPa) = 49.28182 51.32885 50.30533
# Shear Modulus (GPa) = 32.45395 33.56223 33.00809
#
# Velocity S-wave (km/s) = 3.94273 4.00948 3.97624
# Velocity P-wave (km/s) = 6.65825 6.78384 6.72134
#
# Compressibility (1/GPa) = 0.02029146
#
# Stress axis : x y z
#
# Youngs Moduli (GPa) = 72.81675 99.13688 110.93481
#
# Poissons Ratio (x) = 0.25398 0.18078
# Poissons Ratio (y) = 0.18655 0.23074
# Poissons Ratio (z) = 0.11866 0.20620
#
# Static dielectric constant tensor:
#      x y z
#    x 2.471270 0.000000 0.000000 
#    y 0.000000 1.746840 0.000000 
#    z 0.000000 0.000000 1.788210 
# 
# From -- ./inp_files/23217.got.cif
#   From: 2010.05.17/outbox.cif.g08.bks.cpg/sg54_12_cif.got.tgz:23217.got - 2010.06.03 13:09:01.
