data_PCOD9422044
_publ_section_title
;
Structure prediction by ZEFSAII (Michael W. Deem and Ramdas Pophale) SiO2 
 PCOD9422044
Probable space group: P C C A
;
_chemical_formula_sum "Si O2"
_cell_formula_units_Z 60
_cell_length_a 17.144696
_cell_length_b 8.933294
_cell_length_c 17.791056
_cell_angle_alpha 90.000000
_cell_angle_beta 90.000000
_cell_angle_gamma 90.000000
_cell_volume 2724.853406
_symmetry_space_group_name_H-M "P C C A"
_symmetry_group_IT_number 54
_symmetry_cell_setting 'orthorhombic'
loop_
_space_group_symop_operation_xyz
x,y,z
1/2-x,-y,z
1/2+x,-y,1/2-z
-x,y,1/2-z
-x,-y,-z
1/2+x,y,-z
1/2-x,y,1/2+z
x,-y,1/2+z
loop_
_atom_site_type_symbol
_atom_site_label
_atom_site_fract_x
_atom_site_fract_y
_atom_site_fract_z
Si Si1 0.656226 0.021471 0.847041
Si Si2 0.104232 0.457519 0.781854
Si Si3 0.278791 0.168073 0.433935
Si Si4 0.582233 0.765352 0.453493
Si Si5 0.045912 0.488601 0.629455
Si Si6 0.473500 0.850106 0.575562
Si Si7 0.750000 0.500000 0.610078
Si Si8 0.605023 0.885269 0.693286
O O1 0.611843 0.915296 0.907805
O O2 0.621579 0.987253 0.764876
O O3 0.750000 0.000000 0.847918
O O4 0.620898 0.176606 0.876653
O O5 0.110836 0.500859 0.694902
O O6 0.177002 0.478792 0.835160
O O7 0.085860 0.280472 0.777314
O O8 0.032535 0.533258 0.825727
O O9 0.352080 0.208795 0.485179
O O10 0.237209 0.334524 0.430185
O O11 0.314601 0.132656 0.352232
O O12 0.250000 0.000000 0.459123
O O13 0.562586 0.594785 0.439573
O O14 0.507243 0.846407 0.490657
O O15 0.032474 0.322496 0.599943
O O16 0.535891 0.924039 0.634508
#
# Coordination Sequence:
#
# PCOD9422044 Si02
#       8
#     8   8   8   8   8   8   4   8
#     4  12  24  41  62  99 138 171 220 287 348 399
#     4   9  19  39  69 102 128 165 229 284 336 412
#     4  10  22  45  66  97 139 182 229 283 341 425
#     4  11  25  43  61 100 136 172 235 273 341 425
#     4  10  20  42  69  95 127 173 227 284 333 407
#     4  10  21  44  71  87 129 186 223 272 345 421
#     4  10  22  42  70 102 132 178 228 282 362 404
#     4   9  19  40  73  94 122 180 227 273 345 411
#
# _framework density 22.019532000000002
#
# number of rings (size 3 to 8) (size 9 to 14) (size 15 to 20)
#    0.000    1.867    1.333    2.800    0.000    3.200 
#   19.200    0.000    0.000    0.000    0.000    0.000 
#    0.000    0.000    0.000    0.000    0.000    0.000 
#
# Total GULP energy -334198.997629 kJ/mol
# GULP energy per Si atom -5569.983294 kJ/mol
# Density = 2.196941 g / cm^3
# Si number density = 22.019532 Si / 1000 Ang^3
#
#
#
# Elastic Constant Matrix: (Units=GPa)
#
#
# Indices 1 2 3 4 5 6 
#
# 1 79.2710 43.5324 22.0027 0.0000 0.0000 0.0000
# 2 43.5324 66.3077 25.9639 0.0000 0.0000 0.0000
# 3 22.0027 25.9639 78.7465 0.0000 0.0000 0.0000
# 4 0.0000 0.0000 0.0000 14.1738 0.0000 0.0000
# 5 0.0000 0.0000 0.0000 0.0000 15.2431 0.0000
# 6 0.0000 0.0000 0.0000 0.0000 0.0000 26.7604
#
#
#
# Elastic Compliance Matrix: (Units=1/GPa)
#
#
# Indices 1 2 3 4 5 6 
#
# 1 0.019868 -0.012481 -0.001436 0.000000 0.000000 0.000000
# 2 -0.012481 0.025158 -0.004807 0.000000 0.000000 0.000000
# 3 -0.001436 -0.004807 0.014685 0.000000 0.000000 0.000000
# 4 0.000000 0.000000 0.000000 0.070553 0.000000 0.000000
# 5 0.000000 0.000000 0.000000 0.000000 0.065604 0.000000
# 6 0.000000 0.000000 0.000000 0.000000 0.000000 0.037369
#
#
# Mechanical properties :
#
#
# Convention : Reuss Voigt Hill
#
# Bulk Modulus (GPa) = 44.92095 45.25813 45.08954
# Shear Modulus (GPa) = 17.97873 20.09052 19.03462
#
# Velocity S-wave (km/s) = 2.86053 3.02387 2.94333
# Velocity P-wave (km/s) = 5.59955 5.72625 5.66325
#
# Compressibility (1/GPa) = 0.02226133
#
# Stress axis : x y z
#
# Youngs Moduli (GPa) = 50.33272 39.74892 68.09522
#
# Poissons Ratio (x) = 0.49612 0.09779
# Poissons Ratio (y) = 0.62822 0.32737
# Poissons Ratio (z) = 0.07228 0.19109
#
# Static dielectric constant tensor:
#      x y z
#    x 1.814040 0.000000 0.000000 
#    y 0.000000 1.918740 0.000000 
#    z 0.000000 0.000000 1.869350 
# 
# From -- ./inp_files/18662.got.cif
#   From: 2010.05.17/outbox.cif.g08.bks.cpg/sg54_10_cif.got.tgz:18662.got - 2010.06.03 13:09:01.
