data_PCOD9422936
_publ_section_title
;
Structure prediction by ZEFSAII (Michael W. Deem and Ramdas Pophale) SiO2 
 PCOD9422936
Probable space group: P C C A
;
_chemical_formula_sum "Si O2"
_cell_formula_units_Z 40
_cell_length_a 24.235388
_cell_length_b 4.925229
_cell_length_c 15.706852
_cell_angle_alpha 90.000000
_cell_angle_beta 90.000000
_cell_angle_gamma 90.000000
_cell_volume 1874.845810
_symmetry_space_group_name_H-M "P C C A"
_symmetry_group_IT_number 54
_symmetry_cell_setting 'orthorhombic'
loop_
_space_group_symop_operation_xyz
x,y,z
1/2-x,-y,z
1/2+x,-y,1/2-z
-x,y,1/2-z
-x,-y,-z
1/2+x,y,-z
1/2-x,y,1/2+z
x,-y,1/2+z
loop_
_atom_site_type_symbol
_atom_site_label
_atom_site_fract_x
_atom_site_fract_y
_atom_site_fract_z
Si Si1 0.473430 0.724244 0.163711
Si Si2 0.920693 0.544624 0.081505
Si Si3 0.905044 0.043201 0.970050
Si Si4 0.686172 0.067359 0.840854
Si Si5 0.632893 0.440623 0.258710
O O1 0.500000 0.844065 0.250000
O O2 0.520133 0.553618 0.115442
O O3 0.448573 0.951175 0.101775
O O4 0.423920 0.528847 0.194741
O O5 0.878239 0.512764 0.159348
O O6 0.919093 0.852789 0.050248
O O7 0.906794 0.350725 0.001783
O O8 0.845892 0.966063 0.930194
O O9 0.652537 0.861339 0.779379
O O10 0.750000 0.000000 0.847396
O O11 0.677610 0.362108 0.800795
#
# Coordination Sequence:
#
# PCOD9422936 Si02
#       5
#     8   8   8   8   8
#     4   9  20  37  60  89 125 164 196 232 287 359
#     4  11  22  38  60  91 126 152 188 245 300 352
#     4  11  22  38  60  90 122 156 197 242 295 350
#     4  11  23  43  63  82 113 158 203 247 293 348
#     4  10  22  40  62  88 115 154 202 240 289 359
#
# _framework density 21.335087999999999
#
# number of rings (size 3 to 8) (size 9 to 14) (size 15 to 20)
#    0.000    1.600    0.000    5.400    0.000    3.200 
#    0.000   22.000    0.000    0.000    0.000    0.000 
#    0.000    0.000    0.000    0.000    0.000    0.000 
#
# Total GULP energy -223927.110901 kJ/mol
# GULP energy per Si atom -5598.177773 kJ/mol
# Density = 2.128653 g / cm^3
# Si number density = 21.335088 Si / 1000 Ang^3
#
#
#
# Elastic Constant Matrix: (Units=GPa)
#
#
# Indices 1 2 3 4 5 6 
#
# 1 97.2586 -19.2656 28.9087 0.0000 0.0000 0.0000
# 2 -19.2656 43.9410 -6.0628 0.0000 0.0000 0.0000
# 3 28.9087 -6.0628 93.1640 0.0000 0.0000 0.0000
# 4 0.0000 0.0000 0.0000 27.3911 0.0000 0.0000
# 5 0.0000 0.0000 0.0000 0.0000 12.1534 0.0000
# 6 0.0000 0.0000 0.0000 0.0000 0.0000 17.7709
#
#
#
# Elastic Compliance Matrix: (Units=1/GPa)
#
#
# Indices 1 2 3 4 5 6 
#
# 1 0.012293 0.004907 -0.003495 0.000000 0.000000 0.000000
# 2 0.004907 0.024923 0.000099 0.000000 0.000000 0.000000
# 3 -0.003495 0.000099 0.011825 0.000000 0.000000 0.000000
# 4 0.000000 0.000000 0.000000 0.036508 0.000000 0.000000
# 5 0.000000 0.000000 0.000000 0.000000 0.082281 0.000000
# 6 0.000000 0.000000 0.000000 0.000000 0.000000 0.056272
#
#
# Mechanical properties :
#
#
# Convention : Reuss Voigt Hill
#
# Bulk Modulus (GPa) = 19.20725 26.83601 23.02163
# Shear Modulus (GPa) = 20.97021 26.84864 23.90943
#
# Velocity S-wave (km/s) = 3.13852 3.55128 3.35126
# Velocity P-wave (km/s) = 4.70701 5.42412 5.07824
#
# Compressibility (1/GPa) = 0.05206368
#
# Stress axis : x y z
#
# Youngs Moduli (GPa) = 81.34826 40.12342 84.56850
#
# Poissons Ratio (x) = -0.19690 0.29557
# Poissons Ratio (y) = -0.39921 -0.00838
# Poissons Ratio (z) = 0.28432 -0.00398
#
# Static dielectric constant tensor:
#      x y z
#    x 1.740340 0.000000 0.000000 
#    y 0.000000 1.743450 0.000000 
#    z 0.000000 0.000000 1.780480 
# 
# From -- ./inp_files/14816.got.cif
#   From: 2010.05.17/outbox.cif.g08.bks.cpg/sg54_8_cif.got.tgz:14816.got - 2010.06.03 13:09:01.
