data_PCOD9422293
_publ_section_title
;
Structure prediction by ZEFSAII (Michael W. Deem and Ramdas Pophale) SiO2 
 PCOD9422293
Probable space group: P C C A
;
_chemical_formula_sum "Si O2"
_cell_formula_units_Z 40
_cell_length_a 10.265077
_cell_length_b 11.803566
_cell_length_c 14.497380
_cell_angle_alpha 90.000000
_cell_angle_beta 90.000000
_cell_angle_gamma 90.000000
_cell_volume 1756.568000
_symmetry_space_group_name_H-M "P C C A"
_symmetry_group_IT_number 54
_symmetry_cell_setting 'orthorhombic'
loop_
_space_group_symop_operation_xyz
x,y,z
1/2-x,-y,z
1/2+x,-y,1/2-z
-x,y,1/2-z
-x,-y,-z
1/2+x,y,-z
1/2-x,y,1/2+z
x,-y,1/2+z
loop_
_atom_site_type_symbol
_atom_site_label
_atom_site_fract_x
_atom_site_fract_y
_atom_site_fract_z
Si Si1 0.750000 0.000000 0.339862
Si Si2 0.355530 0.843430 0.406680
Si Si3 0.860363 0.410606 0.381559
Si Si4 0.000000 0.011303 0.250000
Si Si5 0.381643 0.169723 0.519616
Si Si6 0.857944 0.589897 0.661810
O O1 0.624673 0.055171 0.289161
O O2 0.679957 0.904053 0.398697
O O3 0.421511 0.908518 0.322126
O O4 0.207868 0.869629 0.434697
O O5 0.464635 0.856667 0.487397
O O6 0.350617 0.711155 0.384659
O O7 0.750000 0.500000 0.408280
O O8 0.862350 0.299710 0.446635
O O9 0.843352 0.383498 0.271720
O O10 0.005430 0.461295 0.373856
O O11 0.750000 0.500000 0.637604
#
# Coordination Sequence:
#
# PCOD9422293 Si02
#       6
#     4   8   8   4   8   8
#     4  10  22  40  60  86 112 146 190 232 284 336
#     4  10  21  38  57  82 115 150 185 230 285 335
#     4   9  18  35  55  79 113 147 186 234 279 330
#     4  10  22  40  62  82 112 154 192 232 282 344
#     4  10  22  37  56  82 114 146 184 235 285 332
#     4   9  17  32  55  79 107 150 193 227 275 335
#
# _framework density 22.771678999999999
#
# number of rings (size 3 to 8) (size 9 to 14) (size 15 to 20)
#    0.000    2.400    0.000    3.600    0.000    8.000 
#    0.000    8.000    0.000    0.000    0.000    0.000 
#    0.000    0.000    0.000    0.000    0.000    0.000 
#
# Total GULP energy -223082.156747 kJ/mol
# GULP energy per Si atom -5577.053919 kJ/mol
# Density = 2.271985 g / cm^3
# Si number density = 22.771679 Si / 1000 Ang^3
#
#
#
# Elastic Constant Matrix: (Units=GPa)
#
#
# Indices 1 2 3 4 5 6 
#
# 1 92.3977 10.5534 30.0469 0.0000 0.0000 0.0000
# 2 10.5534 50.0515 0.5148 0.0000 0.0000 0.0000
# 3 30.0469 0.5148 55.3030 0.0000 0.0000 0.0000
# 4 0.0000 0.0000 0.0000 22.9837 0.0000 0.0000
# 5 0.0000 0.0000 0.0000 0.0000 30.6983 0.0000
# 6 0.0000 0.0000 0.0000 0.0000 0.0000 24.7473
#
#
#
# Elastic Compliance Matrix: (Units=1/GPa)
#
#
# Indices 1 2 3 4 5 6 
#
# 1 0.013520 -0.002775 -0.007320 0.000000 0.000000 0.000000
# 2 -0.002775 0.020551 0.001317 0.000000 0.000000 0.000000
# 3 -0.007320 0.001317 0.022047 0.000000 0.000000 0.000000
# 4 0.000000 0.000000 0.000000 0.043509 0.000000 0.000000
# 5 0.000000 0.000000 0.000000 0.000000 0.032575 0.000000
# 6 0.000000 0.000000 0.000000 0.000000 0.000000 0.040408
#
#
# Mechanical properties :
#
#
# Convention : Reuss Voigt Hill
#
# Bulk Modulus (GPa) = 25.93306 31.10916 28.52111
# Shear Modulus (GPa) = 24.62792 26.12834 25.37813
#
# Velocity S-wave (km/s) = 3.29221 3.39101 3.34197
# Velocity P-wave (km/s) = 5.08572 5.38729 5.23868
#
# Compressibility (1/GPa) = 0.03856081
#
# Stress axis : x y z
#
# Youngs Moduli (GPa) = 73.96379 48.65929 45.35783
#
# Poissons Ratio (x) = 0.13505 0.33201
# Poissons Ratio (y) = 0.20528 -0.05972
# Poissons Ratio (z) = 0.54140 -0.06407
#
# Static dielectric constant tensor:
#      x y z
#    x 2.088270 0.000000 0.000000 
#    y 0.000000 1.774810 0.000000 
#    z 0.000000 0.000000 2.004890 
# 
# From -- ./inp_files/16377.got.cif
#   From: 2010.05.17/outbox.cif.g08.bks.cpg/sg54_9_cif.got.tgz:16377.got - 2010.06.03 13:09:01.
