data_PCOD9422930
_publ_section_title
;
Structure prediction by ZEFSAII (Michael W. Deem and Ramdas Pophale) SiO2 
 PCOD9422930
Probable space group: P C C A
;
_chemical_formula_sum "Si O2"
_cell_formula_units_Z 20
_cell_length_a 22.276892
_cell_length_b 2.907867
_cell_length_c 9.730180
_cell_angle_alpha 90.000000
_cell_angle_beta 90.000000
_cell_angle_gamma 90.000000
_cell_volume 630.303927
_symmetry_space_group_name_H-M "P C C A"
_symmetry_group_IT_number 54
_symmetry_cell_setting 'orthorhombic'
loop_
_space_group_symop_operation_xyz
x,y,z
1/2-x,-y,z
1/2+x,-y,1/2-z
-x,y,1/2-z
-x,-y,-z
1/2+x,y,-z
1/2-x,y,1/2+z
x,-y,1/2+z
loop_
_atom_site_type_symbol
_atom_site_label
_atom_site_fract_x
_atom_site_fract_y
_atom_site_fract_z
Si Si1 0.661605 0.194458 0.384307
Si Si2 0.750000 0.000000 0.634028
Si Si3 0.954065 0.469953 0.624835
O O1 0.629839 0.692985 0.383662
O O2 0.703871 0.214727 0.519940
O O3 0.703617 0.213305 0.247901
O O4 0.578195 0.970021 0.125741
O O5 0.000000 0.450583 0.750000
O O6 0.000000 0.500000 0.500000
#
# Coordination Sequence:
#
# PCOD9422930 Si02
#       3
#     8   4   8
#     4  10  22  40  61  89 124 157 203 248 304 365
#     4  10  24  40  58  94 128 158 190 252 324 362
#     4   9  20  40  63  86 113 161 210 245 285 355
#
# _framework density 31.730723999999999
#
# number of rings (size 3 to 8) (size 9 to 14) (size 15 to 20)
#    0.000    2.400    0.000    0.000    0.000   17.600 
#    0.000   26.000    0.000    0.000    0.000    0.000 
#    0.000    0.000    0.000    0.000    0.000    0.000 
#
# Total GULP energy -111733.820594 kJ/mol
# GULP energy per Si atom -5586.691030 kJ/mol
# Density = 3.165850 g / cm^3
# Si number density = 31.730724 Si / 1000 Ang^3
#
#
#
# Elastic Constant Matrix: (Units=GPa)
#
#
# Indices 1 2 3 4 5 6 
#
# 1 125.6573 49.4549 46.2634 0.0000 0.0000 0.0000
# 2 49.4549 436.2892 -3.2585 0.0000 0.0000 0.0000
# 3 46.2634 -3.2585 329.0952 0.0000 0.0000 0.0000
# 4 0.0000 0.0000 0.0000 35.7424 0.0000 0.0000
# 5 0.0000 0.0000 0.0000 0.0000 -19.1309 0.0000
# 6 0.0000 0.0000 0.0000 0.0000 0.0000 -82.3967
#
#
#
# Elastic Compliance Matrix: (Units=1/GPa)
#
#
# Indices 1 2 3 4 5 6 
#
# 1 0.008815 -0.001009 -0.001249 0.000000 0.000000 0.000000
# 2 -0.001009 0.002408 0.000166 0.000000 0.000000 0.000000
# 3 -0.001249 0.000166 0.003216 0.000000 0.000000 0.000000
# 4 0.000000 0.000000 0.000000 0.027978 0.000000 0.000000
# 5 0.000000 0.000000 0.000000 0.000000 -0.052272 0.000000
# 6 0.000000 0.000000 0.000000 0.000000 0.000000 -0.012136
#
#
# Mechanical properties :
#
#
# Convention : Reuss Voigt Hill
#
# Bulk Modulus (GPa) = 97.52010 119.55123 108.53567
# Shear Modulus (GPa) = -347.48240 40.08178 -153.70031
#
# Velocity S-wave (km/s) = -10.47604 3.55799 -6.96736
# Velocity P-wave (km/s) = 10.74847 7.39173 5.51779
#
# Compressibility (1/GPa) = 0.01025430
#
# Stress axis : x y z
#
# Youngs Moduli (GPa) = 113.44303 415.34862 310.95682
#
# Poissons Ratio (x) = 0.41890 0.38844
# Poissons Ratio (y) = 0.11441 -0.05150
# Poissons Ratio (z) = 0.14171 -0.06879
#
# Static dielectric constant tensor:
#      x y z
#    x 2.201690 0.000000 0.000000 
#    y 0.000000 4.916540 0.000000 
#    z 0.000000 0.000000 2.384300 
# 
# From -- ./inp_files/3760.got.cif
#   From: 2010.05.17/outbox.cif.g08.bks.cpg/sg54_2_cif.got.tgz:3760.got - 2010.06.03 13:09:01.
