data_PCOD9422302
_publ_section_title
;
Structure prediction by ZEFSAII (Michael W. Deem and Ramdas Pophale) SiO2 
 PCOD9422302
Probable space group: P C C A
;
_chemical_formula_sum "Si O2"
_cell_formula_units_Z 56
_cell_length_a 12.957993
_cell_length_b 14.996145
_cell_length_c 14.620636
_cell_angle_alpha 90.000000
_cell_angle_beta 90.000000
_cell_angle_gamma 90.000000
_cell_volume 2841.081139
_symmetry_space_group_name_H-M "P C C A"
_symmetry_group_IT_number 54
_symmetry_cell_setting 'orthorhombic'
loop_
_space_group_symop_operation_xyz
x,y,z
1/2-x,-y,z
1/2+x,-y,1/2-z
-x,y,1/2-z
-x,-y,-z
1/2+x,y,-z
1/2-x,y,1/2+z
x,-y,1/2+z
loop_
_atom_site_type_symbol
_atom_site_label
_atom_site_fract_x
_atom_site_fract_y
_atom_site_fract_z
Si Si1 0.205075 0.184247 0.894659
Si Si2 0.337051 0.439910 0.653355
Si Si3 0.073997 0.871299 0.963195
Si Si4 0.022759 0.050965 0.858535
Si Si5 0.436716 0.703009 0.031371
Si Si6 0.022342 0.395848 0.628814
Si Si7 0.321090 0.337566 0.261205
O O1 0.308205 0.147874 0.939466
O O2 0.130195 0.102964 0.870896
O O3 0.218335 0.246679 0.805414
O O4 0.144430 0.247992 0.965050
O O5 0.250000 0.500000 0.601623
O O6 0.374270 0.350413 0.606399
O O7 0.432735 0.507752 0.654877
O O8 0.272677 0.404869 0.741036
O O9 0.011539 0.781965 0.938703
O O10 0.033238 0.952405 0.900659
O O11 0.053776 0.897591 0.069991
O O12 0.000000 0.051550 0.750000
O O13 0.502995 0.629463 0.975509
O O14 0.110154 0.328465 0.668678
O O15 0.911329 0.379364 0.675288
#
# Coordination Sequence:
#
# PCOD9422302 Si02
#       7
#     8   8   8   8   8   8   8
#     4  10  22  39  65  94 126 167 218 264 333 400
#     4  10  21  38  58  88 127 164 222 273 326 400
#     4  10  23  43  63 103 134 159 229 281 324 407
#     4  10  23  43  72  94 134 181 211 272 345 411
#     4  10  22  38  62  89 122 172 209 273 327 390
#     4   9  19  39  59  83 123 167 216 258 331 386
#     4   9  20  37  59  88 118 162 214 263 309 402
#
# _framework density 19.710806000000002
#
# number of rings (size 3 to 8) (size 9 to 14) (size 15 to 20)
#    0.000    2.286    0.000    0.857   10.000    1.143 
#   12.857   12.857    0.000    0.000    0.000    0.000 
#    0.000    0.000    0.000    0.000    0.000    0.000 
#
# Total GULP energy -311947.398203 kJ/mol
# GULP energy per Si atom -5570.489254 kJ/mol
# Density = 1.966594 g / cm^3
# Si number density = 19.710806 Si / 1000 Ang^3
#
#
#
# Elastic Constant Matrix: (Units=GPa)
#
#
# Indices 1 2 3 4 5 6 
#
# 1 106.2751 47.6299 50.4020 0.0000 0.0000 0.0000
# 2 47.6299 90.9667 42.0212 0.0000 0.0000 0.0000
# 3 50.4020 42.0212 80.8397 0.0000 0.0000 0.0000
# 4 0.0000 0.0000 0.0000 22.8169 0.0000 0.0000
# 5 0.0000 0.0000 0.0000 0.0000 8.0843 0.0000
# 6 0.0000 0.0000 0.0000 0.0000 0.0000 22.9392
#
#
#
# Elastic Compliance Matrix: (Units=1/GPa)
#
#
# Indices 1 2 3 4 5 6 
#
# 1 0.014661 -0.004545 -0.006778 0.000000 0.000000 0.000000
# 2 -0.004545 0.015876 -0.005419 0.000000 0.000000 0.000000
# 3 -0.006778 -0.005419 0.019413 0.000000 0.000000 0.000000
# 4 0.000000 0.000000 0.000000 0.043827 0.000000 0.000000
# 5 0.000000 0.000000 0.000000 0.000000 0.123696 0.000000
# 6 0.000000 0.000000 0.000000 0.000000 0.000000 0.043593
#
#
# Mechanical properties :
#
#
# Convention : Reuss Voigt Hill
#
# Bulk Modulus (GPa) = 60.73211 62.02086 61.37649
# Shear Modulus (GPa) = 16.66443 19.96999 18.31721
#
# Velocity S-wave (km/s) = 2.91081 3.18645 3.05175
# Velocity P-wave (km/s) = 6.49427 6.71355 6.60482
#
# Compressibility (1/GPa) = 0.01646575
#
# Stress axis : x y z
#
# Youngs Moduli (GPa) = 68.20626 62.98783 51.51217
#
# Poissons Ratio (x) = 0.28631 0.34917
# Poissons Ratio (y) = 0.31003 0.27912
# Poissons Ratio (z) = 0.46232 0.34130
#
# Static dielectric constant tensor:
#      x y z
#    x 1.689520 0.000000 0.000000 
#    y 0.000000 1.711850 0.000000 
#    z 0.000000 0.000000 1.743870 
# 
# From -- ./inp_files/12730.got.cif
#   From: 2010.05.17/outbox.cif.g08.bks.cpg/sg54_7_cif.got.tgz:12730.got - 2010.06.03 13:09:01.
