data_PCOD9422585
_publ_section_title
;
Structure prediction by ZEFSAII (Michael W. Deem and Ramdas Pophale) SiO2 
 PCOD9422585
Probable space group: P C C A
;
_chemical_formula_sum "Si O2"
_cell_formula_units_Z 28
_cell_length_a 10.521126
_cell_length_b 5.904477
_cell_length_c 20.022145
_cell_angle_alpha 90.000000
_cell_angle_beta 90.000000
_cell_angle_gamma 90.000000
_cell_volume 1243.810616
_symmetry_space_group_name_H-M "P C C A"
_symmetry_group_IT_number 54
_symmetry_cell_setting 'orthorhombic'
loop_
_space_group_symop_operation_xyz
x,y,z
1/2-x,-y,z
1/2+x,-y,1/2-z
-x,y,1/2-z
-x,-y,-z
1/2+x,y,-z
1/2-x,y,1/2+z
x,-y,1/2+z
loop_
_atom_site_type_symbol
_atom_site_label
_atom_site_fract_x
_atom_site_fract_y
_atom_site_fract_z
Si Si1 0.250000 0.500000 0.083871
Si Si2 0.139493 0.181060 0.693035
Si Si3 0.369157 0.832680 0.836945
Si Si4 0.375642 0.157464 0.486054
O O1 0.333486 0.348006 0.133009
O O2 0.154150 0.352373 0.039084
O O3 0.250000 0.000000 0.694048
O O4 0.140431 0.299857 0.766382
O O5 0.007004 0.056162 0.676171
O O6 0.250000 0.000000 0.838453
O O7 0.378053 0.735542 0.911359
O O8 0.250000 0.000000 0.489348
O O9 0.500000 0.000000 0.500000
#
# Coordination Sequence:
#
# PCOD9422585 Si02
#       4
#     4   8   8   8
#     4  12  24  38  66  94 128 172 212 264 324 386
#     4  10  21  41  64  90 123 163 210 259 318 382
#     4   9  20  40  64  89 123 163 206 261 315 374
#     4  11  24  42  64  94 130 168 214 267 325 386
#
# _framework density 22.511462999999999
#
# number of rings (size 3 to 8) (size 9 to 14) (size 15 to 20)
#    0.000    1.714    0.000    4.286    0.000    5.714 
#    0.000   25.714    0.000    0.000    0.000    0.000 
#    0.000    0.000    0.000    0.000    0.000    0.000 
#
# Total GULP energy -156050.920701 kJ/mol
# GULP energy per Si atom -5573.247168 kJ/mol
# Density = 2.246023 g / cm^3
# Si number density = 22.511463 Si / 1000 Ang^3
#
#
#
# Elastic Constant Matrix: (Units=GPa)
#
#
# Indices 1 2 3 4 5 6 
#
# 1 183.4411 36.8973 46.0797 0.0000 0.0000 0.0000
# 2 36.8973 50.7075 67.6857 0.0000 0.0000 0.0000
# 3 46.0797 67.6857 263.6638 0.0000 0.0000 0.0000
# 4 0.0000 0.0000 0.0000 72.9483 0.0000 0.0000
# 5 0.0000 0.0000 0.0000 0.0000 31.2570 0.0000
# 6 0.0000 0.0000 0.0000 0.0000 0.0000 24.6748
#
#
#
# Elastic Compliance Matrix: (Units=1/GPa)
#
#
# Indices 1 2 3 4 5 6 
#
# 1 0.006388 -0.004805 0.000117 0.000000 0.000000 0.000000
# 2 -0.004805 0.033615 -0.007790 0.000000 0.000000 0.000000
# 3 0.000117 -0.007790 0.005772 0.000000 0.000000 0.000000
# 4 0.000000 0.000000 0.000000 0.013708 0.000000 0.000000
# 5 0.000000 0.000000 0.000000 0.000000 0.031993 0.000000
# 6 0.000000 0.000000 0.000000 0.000000 0.000000 0.040527
#
#
# Mechanical properties :
#
#
# Convention : Reuss Voigt Hill
#
# Bulk Modulus (GPa) = 48.02943 88.79307 68.41125
# Shear Modulus (GPa) = 30.50674 48.91934 39.71304
#
# Velocity S-wave (km/s) = 3.68525 4.66669 4.20471
# Velocity P-wave (km/s) = 6.28410 8.28049 7.35039
#
# Compressibility (1/GPa) = 0.02082057
#
# Stress axis : x y z
#
# Youngs Moduli (GPa) = 156.53480 29.74881 173.25099
#
# Poissons Ratio (x) = 0.14293 -0.02025
# Poissons Ratio (y) = 0.75208 1.34956
# Poissons Ratio (z) = -0.01830 0.23173
#
# Static dielectric constant tensor:
#      x y z
#    x 1.860360 0.000000 0.000000 
#    y 0.000000 1.831160 0.000000 
#    z 0.000000 0.000000 1.929860 
# 
# From -- ./inp_files/20745.got.cif
#   From: 2010.05.17/outbox.cif.g08.bks.cpg/sg54_11_cif.got.tgz:20745.got - 2010.06.03 13:09:01.
