data_PCOD9422064
_publ_section_title
;
Structure prediction by ZEFSAII (Michael W. Deem and Ramdas Pophale) SiO2 
 PCOD9422064
Probable space group: P C C A
;
_chemical_formula_sum "Si O2"
_cell_formula_units_Z 48
_cell_length_a 17.072706
_cell_length_b 14.606133
_cell_length_c 10.034214
_cell_angle_alpha 90.000000
_cell_angle_beta 90.000000
_cell_angle_gamma 90.000000
_cell_volume 2502.193961
_symmetry_space_group_name_H-M "P C C A"
_symmetry_group_IT_number 54
_symmetry_cell_setting 'orthorhombic'
loop_
_space_group_symop_operation_xyz
x,y,z
1/2-x,-y,z
1/2+x,-y,1/2-z
-x,y,1/2-z
-x,-y,-z
1/2+x,y,-z
1/2-x,y,1/2+z
x,-y,1/2+z
loop_
_atom_site_type_symbol
_atom_site_label
_atom_site_fract_x
_atom_site_fract_y
_atom_site_fract_z
Si Si1 0.034174 0.129882 0.393301
Si Si2 0.313228 0.226685 0.272603
Si Si3 0.840878 0.472852 0.972966
Si Si4 0.172184 0.261696 0.470977
Si Si5 0.431847 0.922477 0.860351
Si Si6 0.410294 0.587773 0.796613
O O1 0.094366 0.204299 0.445037
O O2 0.000000 0.155057 0.250000
O O3 0.965282 0.115396 0.500418
O O4 0.077313 0.031463 0.377700
O O5 0.236250 0.241927 0.359196
O O6 0.356757 0.133228 0.312377
O O7 0.372768 0.311082 0.300062
O O8 0.295537 0.232494 0.115799
O O9 0.750000 0.500000 0.985913
O O10 0.847805 0.368827 0.023667
O O11 0.894121 0.538847 0.062898
O O12 0.865509 0.469715 0.818397
O O13 0.500000 0.909655 0.750000
O O14 0.500000 0.593009 0.750000
#
# Coordination Sequence:
#
# PCOD9422064 Si02
#       6
#     8   8   8   8   8   8
#     4  10  23  41  66  97 125 162 211 261 318 371
#     4  11  24  41  64  90 128 167 213 259 318 380
#     4  11  23  43  64  90 131 168 207 263 321 377
#     4  11  25  41  63  95 124 170 213 257 319 381
#     4  10  20  43  67  88 128 167 203 261 316 377
#     4  11  24  41  65  94 123 167 216 261 317 375
#
# _framework density 19.183164000000001
#
# number of rings (size 3 to 8) (size 9 to 14) (size 15 to 20)
#    0.000    1.333    3.333    1.500    7.000    1.333 
#    0.000    1.667    0.000    0.000    0.000    0.000 
#    0.000    0.000    0.000    0.000    0.000    0.000 
#
# Total GULP energy -268338.056398 kJ/mol
# GULP energy per Si atom -5590.376175 kJ/mol
# Density = 1.913950 g / cm^3
# Si number density = 19.183164 Si / 1000 Ang^3
#
#
#
# Elastic Constant Matrix: (Units=GPa)
#
#
# Indices 1 2 3 4 5 6 
#
# 1 29.4249 2.8262 -9.1491 0.0000 0.0000 0.0000
# 2 2.8262 41.7843 12.7153 0.0000 0.0000 0.0000
# 3 -9.1491 12.7153 83.7658 0.0000 0.0000 0.0000
# 4 0.0000 0.0000 0.0000 18.4431 0.0000 0.0000
# 5 0.0000 0.0000 0.0000 0.0000 26.4563 0.0000
# 6 0.0000 0.0000 0.0000 0.0000 0.0000 16.5356
#
#
#
# Elastic Compliance Matrix: (Units=1/GPa)
#
#
# Indices 1 2 3 4 5 6 
#
# 1 0.035740 -0.003780 0.004477 0.000000 0.000000 0.000000
# 2 -0.003780 0.025491 -0.004282 0.000000 0.000000 0.000000
# 3 0.004477 -0.004282 0.013077 0.000000 0.000000 0.000000
# 4 0.000000 0.000000 0.000000 0.054221 0.000000 0.000000
# 5 0.000000 0.000000 0.000000 0.000000 0.037798 0.000000
# 6 0.000000 0.000000 0.000000 0.000000 0.000000 0.060476
#
#
# Mechanical properties :
#
#
# Convention : Reuss Voigt Hill
#
# Bulk Modulus (GPa) = 14.89455 18.64000 16.76727
# Shear Modulus (GPa) = 19.50441 22.19250 20.84845
#
# Velocity S-wave (km/s) = 3.19210 3.40497 3.30026
# Velocity P-wave (km/s) = 4.62248 5.01960 4.82513
#
# Compressibility (1/GPa) = 0.06713867
#
# Stress axis : x y z
#
# Youngs Moduli (GPa) = 27.97982 39.22914 76.46944
#
# Poissons Ratio (x) = 0.14828 -0.34238
# Poissons Ratio (y) = 0.10576 0.32747
# Poissons Ratio (z) = -0.12528 0.16799
#
# Static dielectric constant tensor:
#      x y z
#    x 1.629670 0.000000 0.000000 
#    y 0.000000 1.654670 0.000000 
#    z 0.000000 0.000000 1.666640 
# 
# From -- ./inp_files/4188.got.cif
#   From: 2010.05.17/outbox.cif.g08.bks.cpg/sg54_3_cif.got.tgz:4188.got - 2010.06.03 13:09:01.
