data_PCOD9422031
_publ_section_title
;
Structure prediction by ZEFSAII (Michael W. Deem and Ramdas Pophale) SiO2 
 PCOD9422031
Probable space group: P C C A
;
_chemical_formula_sum "Si O2"
_cell_formula_units_Z 56
_cell_length_a 12.694875
_cell_length_b 14.009369
_cell_length_c 13.444518
_cell_angle_alpha 90.000000
_cell_angle_beta 90.000000
_cell_angle_gamma 90.000000
_cell_volume 2391.069724
_symmetry_space_group_name_H-M "P C C A"
_symmetry_group_IT_number 54
_symmetry_cell_setting 'orthorhombic'
loop_
_space_group_symop_operation_xyz
x,y,z
1/2-x,-y,z
1/2+x,-y,1/2-z
-x,y,1/2-z
-x,-y,-z
1/2+x,y,-z
1/2-x,y,1/2+z
x,-y,1/2+z
loop_
_atom_site_type_symbol
_atom_site_label
_atom_site_fract_x
_atom_site_fract_y
_atom_site_fract_z
Si Si1 0.887696 0.783978 0.590074
Si Si2 0.687557 0.915221 0.373958
Si Si3 0.824483 0.816912 0.201352
Si Si4 0.250000 0.500000 0.944309
Si Si5 0.580191 0.620800 0.676232
Si Si6 0.969841 0.892662 0.035798
Si Si7 0.560465 0.601346 0.997954
Si Si8 0.500000 0.917368 0.250000
O O1 0.766361 0.792050 0.619681
O O2 0.930631 0.675729 0.588476
O O3 0.944862 0.848355 0.671167
O O4 0.924571 0.832371 0.486583
O O5 0.762875 0.860820 0.296073
O O6 0.620802 0.859053 0.456324
O O7 0.596926 0.965575 0.305675
O O8 0.750000 0.000000 0.426712
O O9 0.874417 0.714784 0.227704
O O10 0.913293 0.879476 0.142553
O O11 0.171329 0.442639 0.872087
O O12 0.318271 0.429738 0.013408
O O13 0.500000 0.566983 0.750000
O O14 0.505216 0.653687 0.586463
O O15 0.000000 0.000000 0.000000
O O16 0.500000 0.500000 0.000000
#
# Coordination Sequence:
#
# PCOD9422031 Si02
#       8
#     8   8   8   4   8   8   8   4
#     4  10  20  42  66  91 129 171 219 268 336 397
#     4  10  24  40  62  98 128 172 226 273 338 393
#     4  11  24  42  67  93 136 175 217 291 332 398
#     4  10  22  46  66  92 138 176 220 282 334 404
#     4  11  24  43  66 102 132 170 225 276 342 406
#     4  11  26  42  68  95 132 181 229 271 333 408
#     4  10  21  41  68  96 130 177 219 269 335 400
#     4   8  20  40  60  94 126 172 216 266 328 400
#
# _framework density 23.420479
#
# number of rings (size 3 to 8) (size 9 to 14) (size 15 to 20)
#    0.000    1.714    2.857    0.000    8.000    2.857 
#    5.143    1.429    0.000    0.000    0.000    0.000 
#    0.000    0.000    0.000    0.000    0.000    0.000 
#
# Total GULP energy -312071.655827 kJ/mol
# GULP energy per Si atom -5572.708140 kJ/mol
# Density = 2.336717 g / cm^3
# Si number density = 23.420479 Si / 1000 Ang^3
#
#
#
# Elastic Constant Matrix: (Units=GPa)
#
#
# Indices 1 2 3 4 5 6 
#
# 1 120.5717 26.6458 33.0356 0.0000 0.0000 0.0000
# 2 26.6458 68.2777 0.3220 0.0000 0.0000 0.0000
# 3 33.0356 0.3220 58.8466 0.0000 0.0000 0.0000
# 4 0.0000 0.0000 0.0000 13.0221 0.0000 0.0000
# 5 0.0000 0.0000 0.0000 0.0000 45.3732 0.0000
# 6 0.0000 0.0000 0.0000 0.0000 0.0000 33.3075
#
#
#
# Elastic Compliance Matrix: (Units=1/GPa)
#
#
# Indices 1 2 3 4 5 6 
#
# 1 0.010897 -0.004224 -0.006094 0.000000 0.000000 0.000000
# 2 -0.004224 0.016284 0.002282 0.000000 0.000000 0.000000
# 3 -0.006094 0.002282 0.020402 0.000000 0.000000 0.000000
# 4 0.000000 0.000000 0.000000 0.076793 0.000000 0.000000
# 5 0.000000 0.000000 0.000000 0.000000 0.022039 0.000000
# 6 0.000000 0.000000 0.000000 0.000000 0.000000 0.030023
#
#
# Mechanical properties :
#
#
# Convention : Reuss Voigt Hill
#
# Bulk Modulus (GPa) = 31.73526 40.85586 36.29556
# Shear Modulus (GPa) = 24.62881 30.85340 27.74111
#
# Velocity S-wave (km/s) = 3.24635 3.63349 3.44536
# Velocity P-wave (km/s) = 5.25655 5.92329 5.59985
#
# Compressibility (1/GPa) = 0.03151070
#
# Stress axis : x y z
#
# Youngs Moduli (GPa) = 91.76758 61.41104 49.01446
#
# Poissons Ratio (x) = 0.25940 0.29871
# Poissons Ratio (y) = 0.38762 -0.11186
# Poissons Ratio (z) = 0.55927 -0.14015
#
# Static dielectric constant tensor:
#      x y z
#    x 1.920830 0.000000 0.000000 
#    y 0.000000 1.912020 0.000000 
#    z 0.000000 0.000000 1.970210 
# 
# From -- ./inp_files/12778.got.cif
#   From: 2010.05.17/outbox.cif.g08.bks.cpg/sg54_7_cif.got.tgz:12778.got - 2010.06.03 13:09:01.
