data_PCOD9422903
_publ_section_title
;
Structure prediction by ZEFSAII (Michael W. Deem and Ramdas Pophale) SiO2 
 PCOD9422903
Probable space group: P C C A
;
_chemical_formula_sum "Si O2"
_cell_formula_units_Z 44
_cell_length_a 24.265274
_cell_length_b 5.627761
_cell_length_c 16.087976
_cell_angle_alpha 90.000000
_cell_angle_beta 90.000000
_cell_angle_gamma 90.000000
_cell_volume 2196.960532
_symmetry_space_group_name_H-M "P C C A"
_symmetry_group_IT_number 54
_symmetry_cell_setting 'orthorhombic'
loop_
_space_group_symop_operation_xyz
x,y,z
1/2-x,-y,z
1/2+x,-y,1/2-z
-x,y,1/2-z
-x,-y,-z
1/2+x,y,-z
1/2-x,y,1/2+z
x,-y,1/2+z
loop_
_atom_site_type_symbol
_atom_site_label
_atom_site_fract_x
_atom_site_fract_y
_atom_site_fract_z
Si Si1 0.879476 0.886274 0.748346
Si Si2 0.250000 0.500000 0.998439
Si Si3 0.658999 0.173995 0.569206
Si Si4 0.061236 0.626823 0.282878
Si Si5 0.063005 0.463109 0.973239
Si Si6 0.154759 0.210500 0.072463
O O1 0.846236 0.918392 0.662673
O O2 0.906897 0.620851 0.738942
O O3 0.846962 0.880433 0.834430
O O4 0.917172 0.123118 0.753843
O O5 0.204282 0.390418 0.058656
O O6 0.212402 0.661567 0.939243
O O7 0.601747 0.308479 0.545269
O O8 0.666063 0.981561 0.498194
O O9 0.062553 0.660968 0.382900
O O10 0.000000 0.589423 0.250000
O O11 0.096178 0.323969 0.044874
O O12 0.000000 0.500000 0.000000
#
# Coordination Sequence:
#
# PCOD9422903 Si02
#       6
#     8   4   8   8   8   8
#     4  11  25  42  68  97 139 179 224 281 339 406
#     4  10  24  44  70  94 130 174 230 288 342 402
#     4  10  23  45  64  98 132 175 226 280 340 404
#     4  11  23  42  62 101 141 183 229 273 332 406
#     4  10  22  39  66  97 137 181 223 278 337 405
#     4  11  23  43  68  96 134 174 232 278 343 406
#
# _framework density 20.027671000000002
#
# number of rings (size 3 to 8) (size 9 to 14) (size 15 to 20)
#    0.000    1.455    1.818    2.182    7.636    2.909 
#    0.000    3.636    0.000    0.000    0.000    0.000 
#    0.000    0.000    0.000    0.000    0.000    0.000 
#
# Total GULP energy -245364.168973 kJ/mol
# GULP energy per Si atom -5576.458386 kJ/mol
# Density = 1.998209 g / cm^3
# Si number density = 20.027671 Si / 1000 Ang^3
#
#
#
# Elastic Constant Matrix: (Units=GPa)
#
#
# Indices 1 2 3 4 5 6 
#
# 1 111.6436 25.6194 20.2577 0.0000 0.0000 0.0000
# 2 25.6194 68.9529 21.6041 0.0000 0.0000 0.0000
# 3 20.2577 21.6041 132.0401 0.0000 0.0000 0.0000
# 4 0.0000 0.0000 0.0000 18.0337 0.0000 0.0000
# 5 0.0000 0.0000 0.0000 0.0000 -13.7124 0.0000
# 6 0.0000 0.0000 0.0000 0.0000 0.0000 -22.4417
#
#
#
# Elastic Compliance Matrix: (Units=1/GPa)
#
#
# Indices 1 2 3 4 5 6 
#
# 1 0.009908 -0.003378 -0.000967 0.000000 0.000000 0.000000
# 2 -0.003378 0.016438 -0.002171 0.000000 0.000000 0.000000
# 3 -0.000967 -0.002171 0.008077 0.000000 0.000000 0.000000
# 4 0.000000 0.000000 0.000000 0.055452 0.000000 0.000000
# 5 0.000000 0.000000 0.000000 0.000000 -0.072927 0.000000
# 6 0.000000 0.000000 0.000000 0.000000 0.000000 -0.044560
#
#
# Mechanical properties :
#
#
# Convention : Reuss Voigt Hill
#
# Bulk Modulus (GPa) = 46.75196 49.73321 48.24258
# Shear Modulus (GPa) = -671.27961 12.71962 -329.27999
#
# Velocity S-wave (km/s) = -18.32768 2.52286 -12.83626
# Velocity P-wave (km/s) = 20.60285 5.77690 13.98400
#
# Compressibility (1/GPa) = 0.02138948
#
# Stress axis : x y z
#
# Youngs Moduli (GPa) = 100.93063 60.83430 123.80638
#
# Poissons Ratio (x) = 0.20551 0.11976
# Poissons Ratio (y) = 0.34096 0.26882
# Poissons Ratio (z) = 0.09763 0.13209
#
# Static dielectric constant tensor:
#      x y z
#    x 1.689960 0.000000 0.000000 
#    y 0.000000 1.816120 0.000000 
#    z 0.000000 0.000000 1.711960 
# 
# From -- ./inp_files/15072.got.cif
#   From: 2010.05.17/outbox.cif.g08.bks.cpg/sg54_8_cif.got.tgz:15072.got - 2010.06.03 13:09:01.
