data_PCOD9422511
_publ_section_title
;
Structure prediction by ZEFSAII (Michael W. Deem and Ramdas Pophale) SiO2 
 PCOD9422511
Probable space group: P C C A
;
_chemical_formula_sum "Si O2"
_cell_formula_units_Z 40
_cell_length_a 4.934391
_cell_length_b 28.507549
_cell_length_c 12.501711
_cell_angle_alpha 90.000000
_cell_angle_beta 90.000000
_cell_angle_gamma 90.000000
_cell_volume 1758.583097
_symmetry_space_group_name_H-M "P C C A"
_symmetry_group_IT_number 54
_symmetry_cell_setting 'orthorhombic'
loop_
_space_group_symop_operation_xyz
x,y,z
1/2-x,-y,z
1/2+x,-y,1/2-z
-x,y,1/2-z
-x,-y,-z
1/2+x,y,-z
1/2-x,y,1/2+z
x,-y,1/2+z
loop_
_atom_site_type_symbol
_atom_site_label
_atom_site_fract_x
_atom_site_fract_y
_atom_site_fract_z
Si Si1 0.000000 0.827412 0.750000
Si Si2 0.044350 0.592330 0.067437
Si Si3 0.250000 0.500000 0.682512
Si Si4 0.250000 0.000000 0.580316
Si Si5 0.756437 0.897754 0.922752
Si Si6 0.805386 0.307645 0.925328
Si Si7 0.500000 0.234984 0.250000
O O1 0.855687 0.859135 0.839792
O O2 0.751462 0.795892 0.707089
O O3 0.123903 0.543458 0.119406
O O4 0.134543 0.640608 0.123181
O O5 0.228098 0.593525 0.959746
O O6 0.500000 0.480482 0.750000
O O7 0.264815 0.050803 0.634516
O O8 0.500000 0.000000 0.500000
O O9 0.460309 0.894397 0.975612
O O10 0.877455 0.267514 0.842540
O O11 0.504527 0.304361 0.971956
#
# Coordination Sequence:
#
# PCOD9422511 Si02
#       7
#     4   8   4   4   8   8   4
#     4  12  26  40  61  98 125 168 214 252 332 368
#     4  10  21  41  63  85 120 161 202 248 306 375
#     4  12  24  36  58  98 126 158 196 244 312 378
#     4   8  16  34  60  86 116 158 202 240 300 356
#     4  10  21  40  63  90 127 165 204 258 304 369
#     4  10  23  43  66  91 119 164 212 259 319 371
#     4  12  26  42  63  92 127 162 214 272 306 380
#
# _framework density 22.745584000000001
#
# number of rings (size 3 to 8) (size 9 to 14) (size 15 to 20)
#    0.000    1.600    0.000    4.200    1.400    4.800 
#    1.800    7.000    0.000    0.000    0.000    0.000 
#    0.000    0.000    0.000    0.000    0.000    0.000 
#
# Total GULP energy -223504.509185 kJ/mol
# GULP energy per Si atom -5587.612730 kJ/mol
# Density = 2.269381 g / cm^3
# Si number density = 22.745584 Si / 1000 Ang^3
#
#
#
# Elastic Constant Matrix: (Units=GPa)
#
#
# Indices 1 2 3 4 5 6 
#
# 1 102.2686 12.8695 -5.3806 0.0000 0.0000 0.0000
# 2 12.8695 148.0443 30.5652 0.0000 0.0000 0.0000
# 3 -5.3806 30.5652 25.8335 0.0000 0.0000 0.0000
# 4 0.0000 0.0000 0.0000 28.6595 0.0000 0.0000
# 5 0.0000 0.0000 0.0000 0.0000 18.2623 0.0000
# 6 0.0000 0.0000 0.0000 0.0000 0.0000 39.1946
#
#
#
# Elastic Compliance Matrix: (Units=1/GPa)
#
#
# Indices 1 2 3 4 5 6 
#
# 1 0.010221 -0.001757 0.004208 0.000000 0.000000 0.000000
# 2 -0.001757 0.009240 -0.011299 0.000000 0.000000 0.000000
# 3 0.004208 -0.011299 0.052954 0.000000 0.000000 0.000000
# 4 0.000000 0.000000 0.000000 0.034892 0.000000 0.000000
# 5 0.000000 0.000000 0.000000 0.000000 0.054758 0.000000
# 6 0.000000 0.000000 0.000000 0.000000 0.000000 0.025514
#
#
# Mechanical properties :
#
#
# Convention : Reuss Voigt Hill
#
# Bulk Modulus (GPa) = 18.27521 39.13939 28.70730
# Shear Modulus (GPa) = 22.36990 33.09609 27.73299
#
# Velocity S-wave (km/s) = 3.13946 3.81866 3.49559
# Velocity P-wave (km/s) = 4.60365 6.05704 5.37965
#
# Compressibility (1/GPa) = 0.05471893
#
# Stress axis : x y z
#
# Youngs Moduli (GPa) = 97.84068 108.22254 18.88428
#
# Poissons Ratio (x) = 0.19017 -0.07946
# Poissons Ratio (y) = 0.17193 0.21337
# Poissons Ratio (z) = -0.41170 1.22277
#
# Static dielectric constant tensor:
#      x y z
#    x 1.791450 0.000000 0.000000 
#    y 0.000000 1.924250 0.000000 
#    z 0.000000 0.000000 1.826930 
# 
# From -- ./inp_files/6491.got.cif
#   From: 2010.05.17/outbox.cif.g08.bks.cpg/sg54_4_cif.got.tgz:6491.got - 2010.06.03 13:09:01.
