data_PCOD9422092
_publ_section_title
;
Structure prediction by ZEFSAII (Michael W. Deem and Ramdas Pophale) SiO2 
 PCOD9422092
Probable space group: P C C A
;
_chemical_formula_sum "Si O2"
_cell_formula_units_Z 48
_cell_length_a 19.362250
_cell_length_b 13.747441
_cell_length_c 8.002171
_cell_angle_alpha 90.000000
_cell_angle_beta 90.000000
_cell_angle_gamma 90.000000
_cell_volume 2130.028996
_symmetry_space_group_name_H-M "P C C A"
_symmetry_group_IT_number 54
_symmetry_cell_setting 'orthorhombic'
loop_
_space_group_symop_operation_xyz
x,y,z
1/2-x,-y,z
1/2+x,-y,1/2-z
-x,y,1/2-z
-x,-y,-z
1/2+x,y,-z
1/2-x,y,1/2+z
x,-y,1/2+z
loop_
_atom_site_type_symbol
_atom_site_label
_atom_site_fract_x
_atom_site_fract_y
_atom_site_fract_z
Si Si1 0.170689 0.317349 0.246545
Si Si2 0.177945 0.721370 0.364456
Si Si3 0.129700 0.887821 0.894444
Si Si4 0.316144 0.067684 0.256690
Si Si5 0.037427 0.594167 0.921153
Si Si6 0.449252 0.229490 0.125979
O O1 0.251773 0.328148 0.294960
O O2 0.156874 0.203012 0.286984
O O3 0.118505 0.383721 0.362084
O O4 0.161163 0.325019 0.045416
O O5 0.189385 0.838797 0.375372
O O6 0.117243 0.726797 0.225279
O O7 0.124779 0.991011 0.806325
O O8 0.174402 0.900492 0.065434
O O9 0.061888 0.842723 0.973848
O O10 0.250000 0.000000 0.271560
O O11 0.000000 0.612875 0.750000
O O12 0.016827 0.675956 0.051491
O O13 0.000000 0.500000 0.000000
O O14 0.500000 0.177740 0.250000
#
# Coordination Sequence:
#
# PCOD9422092 Si02
#       6
#     8   8   8   8   8   8
#     4  11  22  39  62 100 134 176 228 283 353 411
#     4  11  22  38  66  98 141 185 231 292 342 408
#     4  10  21  32  53  90 128 179 234 279 327 396
#     4  11  19  30  54  90 134 180 231 283 331 390
#     4  11  24  44  75 103 129 169 222 282 356 450
#     4  10  22  42  65  94 132 182 227 278 350 422
#
# _framework density 22.534904999999998
#
# number of rings (size 3 to 8) (size 9 to 14) (size 15 to 20)
#    0.000    1.333    1.667    6.000    0.000    0.000 
#    0.000    3.333    0.000   31.000    0.000    0.000 
#    0.000    0.000    0.000    0.000    0.000    0.000 
#
# Total GULP energy -267237.792204 kJ/mol
# GULP energy per Si atom -5567.454004 kJ/mol
# Density = 2.248361 g / cm^3
# Si number density = 22.534905 Si / 1000 Ang^3
#
#
#
# Elastic Constant Matrix: (Units=GPa)
#
#
# Indices 1 2 3 4 5 6 
#
# 1 59.0271 25.7028 8.3118 0.0000 0.0000 0.0000
# 2 25.7028 77.8252 14.3104 0.0000 0.0000 0.0000
# 3 8.3118 14.3104 98.1905 0.0000 0.0000 0.0000
# 4 0.0000 0.0000 0.0000 -82.0165 0.0000 0.0000
# 5 0.0000 0.0000 0.0000 0.0000 39.0668 0.0000
# 6 0.0000 0.0000 0.0000 0.0000 0.0000 13.4025
#
#
#
# Elastic Compliance Matrix: (Units=1/GPa)
#
#
# Indices 1 2 3 4 5 6 
#
# 1 0.019840 -0.006415 -0.000744 0.000000 0.000000 0.000000
# 2 -0.006415 0.015278 -0.001684 0.000000 0.000000 0.000000
# 3 -0.000744 -0.001684 0.010493 0.000000 0.000000 0.000000
# 4 0.000000 0.000000 0.000000 -0.012193 0.000000 0.000000
# 5 0.000000 0.000000 0.000000 0.000000 0.025597 0.000000
# 6 0.000000 0.000000 0.000000 0.000000 0.000000 0.074613
#
#
# Mechanical properties :
#
#
# Convention : Reuss Voigt Hill
#
# Bulk Modulus (GPa) = 35.81244 36.85475 36.33360
# Shear Modulus (GPa) = 31.12896 6.53840 18.83368
#
# Velocity S-wave (km/s) = 3.72071 1.70521 2.89408
# Velocity P-wave (km/s) = 5.86385 4.50189 5.22741
#
# Compressibility (1/GPa) = 0.02792326
#
# Stress axis : x y z
#
# Youngs Moduli (GPa) = 50.40388 65.45503 95.30469
#
# Poissons Ratio (x) = 0.41992 0.07095
# Poissons Ratio (y) = 0.32336 0.16045
# Poissons Ratio (z) = 0.03752 0.11020
#
# Static dielectric constant tensor:
#      x y z
#    x 2.050170 0.000000 0.000000 
#    y 0.000000 1.874580 0.000000 
#    z 0.000000 0.000000 1.981600 
# 
# From -- ./inp_files/4184.got.cif
#   From: 2010.05.17/outbox.cif.g08.bks.cpg/sg54_3_cif.got.tgz:4184.got - 2010.06.03 13:09:01.
