data_PCOD9422874
_publ_section_title
;
Structure prediction by ZEFSAII (Michael W. Deem and Ramdas Pophale) SiO2 
 PCOD9422874
Probable space group: P C C A
;
_chemical_formula_sum "Si O2"
_cell_formula_units_Z 56
_cell_length_a 8.392079
_cell_length_b 20.144782
_cell_length_c 15.274108
_cell_angle_alpha 90.000000
_cell_angle_beta 90.000000
_cell_angle_gamma 90.000000
_cell_volume 2582.188797
_symmetry_space_group_name_H-M "P C C A"
_symmetry_group_IT_number 54
_symmetry_cell_setting 'orthorhombic'
loop_
_space_group_symop_operation_xyz
x,y,z
1/2-x,-y,z
1/2+x,-y,1/2-z
-x,y,1/2-z
-x,-y,-z
1/2+x,y,-z
1/2-x,y,1/2+z
x,-y,1/2+z
loop_
_atom_site_type_symbol
_atom_site_label
_atom_site_fract_x
_atom_site_fract_y
_atom_site_fract_z
Si Si1 0.760553 0.662609 0.873028
Si Si2 0.503579 0.877419 0.501323
Si Si3 0.257237 0.210050 0.913478
Si Si4 0.409610 0.650638 0.953417
Si Si5 0.185013 0.791822 0.223870
Si Si6 0.680630 0.573284 0.713580
Si Si7 0.255316 0.072372 0.128938
O O1 0.591521 0.650512 0.921619
O O2 0.751842 0.740169 0.846995
O O3 0.767844 0.622296 0.782208
O O4 0.891056 0.639187 0.943047
O O5 0.633084 0.849743 0.569162
O O6 0.407344 0.812387 0.469601
O O7 0.589988 0.909020 0.418221
O O8 0.384850 0.926670 0.550466
O O9 0.174459 0.278100 0.940470
O O10 0.288538 0.214461 0.811084
O O11 0.322837 0.601524 0.885078
O O12 0.195159 0.866450 0.189495
O O13 0.000000 0.774510 0.250000
O O14 0.750000 0.500000 0.716656
O O15 0.500000 0.572214 0.750000
O O16 0.250000 0.000000 0.170765
#
# Coordination Sequence:
#
# PCOD9422874 Si02
#       7
#     8   8   8   8   8   8   8
#     4  11  22  41  67  94 125 166 215 258 318 377
#     4  10  22  39  62  89 120 159 209 261 316 380
#     4  11  20  39  64  92 122 160 204 267 314 373
#     4  11  21  38  66  93 124 165 210 258 314 376
#     4  12  21  40  64  88 125 164 206 263 323 371
#     4  10  23  43  64  91 132 170 208 255 313 377
#     4  11  23  41  60  87 121 164 210 259 321 382
#
# _framework density 21.687027
#
# number of rings (size 3 to 8) (size 9 to 14) (size 15 to 20)
#    0.000    1.143    4.286    3.429    0.000    2.286 
#    2.571    3.571    0.000    0.000    0.000    0.000 
#    0.000    0.000    0.000    0.000    0.000    0.000 
#
# Total GULP energy -313103.344307 kJ/mol
# GULP energy per Si atom -5591.131148 kJ/mol
# Density = 2.163767 g / cm^3
# Si number density = 21.687027 Si / 1000 Ang^3
#
#
#
# Elastic Constant Matrix: (Units=GPa)
#
#
# Indices 1 2 3 4 5 6 
#
# 1 29.6844 3.4431 5.7289 0.0000 0.0000 0.0000
# 2 3.4431 102.4938 10.9875 0.0000 0.0000 0.0000
# 3 5.7289 10.9875 86.3498 0.0000 0.0000 0.0000
# 4 0.0000 0.0000 0.0000 29.5803 0.0000 0.0000
# 5 0.0000 0.0000 0.0000 0.0000 17.7049 0.0000
# 6 0.0000 0.0000 0.0000 0.0000 0.0000 21.3258
#
#
#
# Elastic Compliance Matrix: (Units=1/GPa)
#
#
# Indices 1 2 3 4 5 6 
#
# 1 0.034210 -0.000918 -0.002153 0.000000 0.000000 0.000000
# 2 -0.000918 0.009916 -0.001201 0.000000 0.000000 0.000000
# 3 -0.002153 -0.001201 0.011876 0.000000 0.000000 0.000000
# 4 0.000000 0.000000 0.000000 0.033806 0.000000 0.000000
# 5 0.000000 0.000000 0.000000 0.000000 0.056481 0.000000
# 6 0.000000 0.000000 0.000000 0.000000 0.000000 0.046892
#
#
# Mechanical properties :
#
#
# Convention : Reuss Voigt Hill
#
# Bulk Modulus (GPa) = 21.07115 28.76078 24.91597
# Shear Modulus (GPa) = 22.98372 26.94677 24.96525
#
# Velocity S-wave (km/s) = 3.25898 3.52878 3.39656
# Velocity P-wave (km/s) = 4.88859 5.46750 5.18613
#
# Compressibility (1/GPa) = 0.04745826
#
# Stress axis : x y z
#
# Youngs Moduli (GPa) = 29.23147 100.84427 84.20038
#
# Poissons Ratio (x) = 0.09262 0.18127
# Poissons Ratio (y) = 0.02685 0.10111
# Poissons Ratio (z) = 0.06293 0.12110
#
# Static dielectric constant tensor:
#      x y z
#    x 1.838590 0.000000 0.000000 
#    y 0.000000 1.767440 0.000000 
#    z 0.000000 0.000000 1.819610 
# 
# From -- ./inp_files/11866.got.cif
#   From: 2010.05.17/outbox.cif.g08.bks.cpg/sg54_6_cif.got.tgz:11866.got - 2010.06.03 13:09:01.
