data_PCOD9422938
_publ_section_title
;
Structure prediction by ZEFSAII (Michael W. Deem and Ramdas Pophale) SiO2 
 PCOD9422938
Probable space group: P C C A
;
_chemical_formula_sum "Si O2"
_cell_formula_units_Z 40
_cell_length_a 8.612312
_cell_length_b 13.140215
_cell_length_c 15.261810
_cell_angle_alpha 90.000000
_cell_angle_beta 90.000000
_cell_angle_gamma 90.000000
_cell_volume 1727.142887
_symmetry_space_group_name_H-M "P C C A"
_symmetry_group_IT_number 54
_symmetry_cell_setting 'orthorhombic'
loop_
_space_group_symop_operation_xyz
x,y,z
1/2-x,-y,z
1/2+x,-y,1/2-z
-x,y,1/2-z
-x,-y,-z
1/2+x,y,-z
1/2-x,y,1/2+z
x,-y,1/2+z
loop_
_atom_site_type_symbol
_atom_site_label
_atom_site_fract_x
_atom_site_fract_y
_atom_site_fract_z
Si Si1 0.000000 0.409118 0.750000
Si Si2 0.583070 0.236843 0.374453
Si Si3 0.000000 0.056189 0.750000
Si Si4 0.250000 0.000000 0.043658
Si Si5 0.750000 0.500000 0.625198
Si Si6 0.766467 0.276844 0.057049
Si Si7 0.449767 0.902327 0.390495
O O1 0.898449 0.331019 0.808117
O O2 0.104080 0.475436 0.813493
O O3 0.585850 0.133494 0.317057
O O4 0.406291 0.242160 0.413781
O O5 0.694941 0.254508 0.456144
O O6 0.908119 0.977373 0.688542
O O7 0.130690 0.072608 0.094810
O O8 0.360799 0.061828 0.977897
O O9 0.721097 0.397285 0.571397
O O10 0.889474 0.212791 0.116411
#
# Coordination Sequence:
#
# PCOD9422938 Si02
#       7
#     4   8   4   4   4   8   8
#     4   9  22  43  64  94 134 169 218 293 356 408
#     4  10  23  43  65  93 132 175 225 280 341 413
#     4  11  24  39  62  94 132 171 214 279 336 390
#     4  10  22  40  62  88 124 172 218 266 324 408
#     4  10  24  42  68 102 134 176 232 292 354 410
#     4  11  23  42  67  96 131 179 233 281 341 422
#     4  11  22  39  62  90 127 169 217 268 331 401
#
# _framework density 23.159635000000002
#
# number of rings (size 3 to 8) (size 9 to 14) (size 15 to 20)
#    0.000    1.600    0.000    4.800    0.000    8.800 
#    0.000    6.000    0.000    0.000    0.000    0.000 
#    0.000    0.000    0.000    0.000    0.000    0.000 
#
# Total GULP energy -223600.434929 kJ/mol
# GULP energy per Si atom -5590.010873 kJ/mol
# Density = 2.310692 g / cm^3
# Si number density = 23.159635 Si / 1000 Ang^3
#
#
#
# Elastic Constant Matrix: (Units=GPa)
#
#
# Indices 1 2 3 4 5 6 
#
# 1 105.0532 48.0814 35.9808 0.0000 0.0000 0.0000
# 2 48.0814 187.0633 67.3880 0.0000 0.0000 0.0000
# 3 35.9808 67.3880 127.4955 0.0000 0.0000 0.0000
# 4 0.0000 0.0000 0.0000 110.6744 0.0000 0.0000
# 5 0.0000 0.0000 0.0000 0.0000 9.0218 0.0000
# 6 0.0000 0.0000 0.0000 0.0000 0.0000 29.2922
#
#
#
# Elastic Compliance Matrix: (Units=1/GPa)
#
#
# Indices 1 2 3 4 5 6 
#
# 1 0.011196 -0.002149 -0.002024 0.000000 0.000000 0.000000
# 2 -0.002149 0.007015 -0.003102 0.000000 0.000000 0.000000
# 3 -0.002024 -0.003102 0.010054 0.000000 0.000000 0.000000
# 4 0.000000 0.000000 0.000000 0.009036 0.000000 0.000000
# 5 0.000000 0.000000 0.000000 0.000000 0.110843 0.000000
# 6 0.000000 0.000000 0.000000 0.000000 0.000000 0.034139
#
#
# Mechanical properties :
#
#
# Convention : Reuss Voigt Hill
#
# Bulk Modulus (GPa) = 72.90379 80.27914 76.59147
# Shear Modulus (GPa) = 24.82591 47.67514 36.25053
#
# Velocity S-wave (km/s) = 3.27761 4.54204 3.96061
# Velocity P-wave (km/s) = 6.77280 7.88958 7.35242
#
# Compressibility (1/GPa) = 0.01371671
#
# Stress axis : x y z
#
# Youngs Moduli (GPa) = 89.32137 142.54428 99.46326
#
# Poissons Ratio (x) = 0.30626 0.20130
# Poissons Ratio (y) = 0.19191 0.30850
# Poissons Ratio (z) = 0.18078 0.44212
#
# Static dielectric constant tensor:
#      x y z
#    x 1.926780 0.000000 0.000000 
#    y 0.000000 1.900450 0.000000 
#    z 0.000000 0.000000 1.889350 
# 
# From -- ./inp_files/16499.got.cif
#   From: 2010.05.17/outbox.cif.g08.bks.cpg/sg54_9_cif.got.tgz:16499.got - 2010.06.03 13:09:01.
