data_PCOD9422483
_publ_section_title
;
Structure prediction by ZEFSAII (Michael W. Deem and Ramdas Pophale) SiO2 
 PCOD9422483
Probable space group: P C C A
;
_chemical_formula_sum "Si O2"
_cell_formula_units_Z 48
_cell_length_a 13.382865
_cell_length_b 12.492719
_cell_length_c 14.387114
_cell_angle_alpha 90.000000
_cell_angle_beta 90.000000
_cell_angle_gamma 90.000000
_cell_volume 2405.358165
_symmetry_space_group_name_H-M "P C C A"
_symmetry_group_IT_number 54
_symmetry_cell_setting 'orthorhombic'
loop_
_space_group_symop_operation_xyz
x,y,z
1/2-x,-y,z
1/2+x,-y,1/2-z
-x,y,1/2-z
-x,-y,-z
1/2+x,y,-z
1/2-x,y,1/2+z
x,-y,1/2+z
loop_
_atom_site_type_symbol
_atom_site_label
_atom_site_fract_x
_atom_site_fract_y
_atom_site_fract_z
Si Si1 0.339286 0.421805 0.998271
Si Si2 0.617839 0.007751 0.007094
Si Si3 0.750000 0.000000 0.673608
Si Si4 0.178779 0.146150 0.662314
Si Si5 0.500000 0.734251 0.750000
Si Si6 0.549802 0.397698 0.086002
Si Si7 0.309906 0.750911 0.021274
O O1 0.250000 0.500000 0.033239
O O2 0.431199 0.407487 0.069126
O O3 0.284092 0.310962 0.973186
O O4 0.393723 0.489106 0.917299
O O5 0.661650 0.964426 0.104077
O O6 0.653365 0.131466 0.007881
O O7 0.500000 0.000000 0.000000
O O8 0.659808 0.940512 0.919714
O O9 0.785149 0.092246 0.742984
O O10 0.072240 0.197420 0.685028
O O11 0.262009 0.228095 0.622934
O O12 0.433418 0.662731 0.818190
O O13 0.597738 0.327095 0.002352
#
# Coordination Sequence:
#
# PCOD9422483 Si02
#       7
#     8   8   4   8   4   8   8
#     4   9  20  40  69  94 127 176 223 281 350 425
#     4  12  25  41  66  94 138 190 229 281 353 411
#     4  12  22  42  64  90 144 176 234 290 328 406
#     4  12  23  41  63 104 137 184 238 280 341 426
#     4  12  24  40  70 104 136 180 234 292 354 424
#     4  10  21  39  69 100 130 178 230 284 356 425
#     4  11  20  41  65  96 131 185 222 284 351 420
#
# _framework density 19.955446999999999
#
# number of rings (size 3 to 8) (size 9 to 14) (size 15 to 20)
#    0.000    1.000    5.000    3.000    0.000    0.000 
#    0.000    2.500    7.333    0.000    0.000    0.000 
#    0.000    0.000    0.000    0.000    0.000    0.000 
#
# Total GULP energy -267428.095020 kJ/mol
# GULP energy per Si atom -5571.418646 kJ/mol
# Density = 1.991003 g / cm^3
# Si number density = 19.955447 Si / 1000 Ang^3
#
#
#
# Elastic Constant Matrix: (Units=GPa)
#
#
# Indices 1 2 3 4 5 6 
#
# 1 138.9139 40.8201 40.9315 0.0000 0.0000 0.0000
# 2 40.8201 108.5005 41.5842 0.0000 0.0000 0.0000
# 3 40.9315 41.5842 109.1271 0.0000 0.0000 0.0000
# 4 0.0000 0.0000 0.0000 16.5602 0.0000 0.0000
# 5 0.0000 0.0000 0.0000 0.0000 27.9875 0.0000
# 6 0.0000 0.0000 0.0000 0.0000 0.0000 40.6029
#
#
#
# Elastic Compliance Matrix: (Units=1/GPa)
#
#
# Indices 1 2 3 4 5 6 
#
# 1 0.008569 -0.002333 -0.002325 0.000000 0.000000 0.000000
# 2 -0.002333 0.011428 -0.003480 0.000000 0.000000 0.000000
# 3 -0.002325 -0.003480 0.011362 0.000000 0.000000 0.000000
# 4 0.000000 0.000000 0.000000 0.060386 0.000000 0.000000
# 5 0.000000 0.000000 0.000000 0.000000 0.035730 0.000000
# 6 0.000000 0.000000 0.000000 0.000000 0.000000 0.024629
#
#
# Mechanical properties :
#
#
# Convention : Reuss Voigt Hill
#
# Bulk Modulus (GPa) = 66.29799 67.02368 66.66083
# Shear Modulus (GPa) = 28.83390 32.57716 30.70553
#
# Velocity S-wave (km/s) = 3.80533 4.04480 3.92689
# Velocity P-wave (km/s) = 7.25276 7.44805 7.35105
#
# Compressibility (1/GPa) = 0.01508341
#
# Stress axis : x y z
#
# Youngs Moduli (GPa) = 116.69514 87.50559 88.01429
#
# Poissons Ratio (x) = 0.20413 0.20466
# Poissons Ratio (y) = 0.27222 0.30627
# Poissons Ratio (z) = 0.27135 0.30450
#
# Static dielectric constant tensor:
#      x y z
#    x 1.731820 0.000000 0.000000 
#    y 0.000000 1.789960 0.000000 
#    z 0.000000 0.000000 1.681590 
# 
# From -- ./inp_files/13446.got.cif
#   From: 2010.05.17/outbox.cif.g08.bks.cpg/sg54_7_cif.got.tgz:13446.got - 2010.06.03 13:09:01.
