data_PCOD9422595
_publ_section_title
;
Structure prediction by ZEFSAII (Michael W. Deem and Ramdas Pophale) SiO2 
 PCOD9422595
Probable space group: P C C A
;
_chemical_formula_sum "Si O2"
_cell_formula_units_Z 40
_cell_length_a 8.666514
_cell_length_b 7.842091
_cell_length_c 27.960761
_cell_angle_alpha 90.000000
_cell_angle_beta 90.000000
_cell_angle_gamma 90.000000
_cell_volume 1900.313737
_symmetry_space_group_name_H-M "P C C A"
_symmetry_group_IT_number 54
_symmetry_cell_setting 'orthorhombic'
loop_
_space_group_symop_operation_xyz
x,y,z
1/2-x,-y,z
1/2+x,-y,1/2-z
-x,y,1/2-z
-x,-y,-z
1/2+x,y,-z
1/2-x,y,1/2+z
x,-y,1/2+z
loop_
_atom_site_type_symbol
_atom_site_label
_atom_site_fract_x
_atom_site_fract_y
_atom_site_fract_z
Si Si1 0.452791 0.856455 0.356865
Si Si2 0.556962 0.183267 0.301915
Si Si3 0.572138 0.948439 0.550156
Si Si4 0.646464 0.329826 0.119107
Si Si5 0.867130 0.341522 0.291045
O O1 0.274951 0.804513 0.361540
O O2 0.541517 0.687300 0.340490
O O3 0.488166 0.001487 0.317841
O O4 0.501740 0.938083 0.407286
O O5 0.500000 0.232769 0.250000
O O6 0.487422 0.315695 0.340981
O O7 0.740173 0.191609 0.295877
O O8 0.576354 0.754384 0.570663
O O9 0.750000 0.000000 0.546437
O O10 0.500000 0.000000 0.500000
O O11 0.750000 0.500000 0.112601
O O12 0.750000 0.500000 0.284799
O O13 0.000000 0.335610 0.250000
#
# Coordination Sequence:
#
# PCOD9422595 Si02
#       5
#     8   8   8   8   8
#     4  10  22  40  60  87 122 163 214 264 317 388
#     4  11  22  37  60  86 118 167 215 262 315 385
#     4   9  20  39  64  91 123 163 210 266 325 389
#     4  10  21  41  65  91 127 168 210 270 335 387
#     4  12  25  39  57  87 126 169 214 266 325 383
#
# _framework density 21.049154000000001
#
# number of rings (size 3 to 8) (size 9 to 14) (size 15 to 20)
#    0.000    1.600    0.000    6.000    0.000    6.400 
#    0.000    7.000    0.000    0.000    0.000    0.000 
#    0.000    0.000    0.000    0.000    0.000    1.600 
#
# Total GULP energy -222835.298524 kJ/mol
# GULP energy per Si atom -5570.882463 kJ/mol
# Density = 2.100125 g / cm^3
# Si number density = 21.049154 Si / 1000 Ang^3
#
#
#
# Elastic Constant Matrix: (Units=GPa)
#
#
# Indices 1 2 3 4 5 6 
#
# 1 108.4275 36.8881 50.8373 0.0000 0.0000 0.0000
# 2 36.8881 142.9529 45.5774 0.0000 0.0000 0.0000
# 3 50.8373 45.5774 145.1016 0.0000 0.0000 0.0000
# 4 0.0000 0.0000 0.0000 8.1825 0.0000 0.0000
# 5 0.0000 0.0000 0.0000 0.0000 32.9703 0.0000
# 6 0.0000 0.0000 0.0000 0.0000 0.0000 39.2174
#
#
#
# Elastic Compliance Matrix: (Units=1/GPa)
#
#
# Indices 1 2 3 4 5 6 
#
# 1 0.011466 -0.001865 -0.003431 0.000000 0.000000 0.000000
# 2 -0.001865 0.008077 -0.001884 0.000000 0.000000 0.000000
# 3 -0.003431 -0.001884 0.008686 0.000000 0.000000 0.000000
# 4 0.000000 0.000000 0.000000 0.122213 0.000000 0.000000
# 5 0.000000 0.000000 0.000000 0.000000 0.030330 0.000000
# 6 0.000000 0.000000 0.000000 0.000000 0.000000 0.025499
#
#
# Mechanical properties :
#
#
# Convention : Reuss Voigt Hill
#
# Bulk Modulus (GPa) = 72.10372 73.67639 72.89006
# Shear Modulus (GPa) = 22.19723 33.61934 27.90828
#
# Velocity S-wave (km/s) = 3.25090 4.00081 3.64519
# Velocity P-wave (km/s) = 6.95848 7.51133 7.24018
#
# Compressibility (1/GPa) = 0.01386891
#
# Stress axis : x y z
#
# Youngs Moduli (GPa) = 87.21426 123.80725 115.13223
#
# Poissons Ratio (x) = 0.23086 0.39507
# Poissons Ratio (y) = 0.16263 0.21688
# Poissons Ratio (z) = 0.29927 0.23322
#
# Static dielectric constant tensor:
#      x y z
#    x 2.062480 0.000000 0.000000 
#    y 0.000000 1.936400 0.000000 
#    z 0.000000 0.000000 1.766040 
# 
# From -- ./inp_files/25744.got.cif
#   From: 2010.05.17/outbox.cif.g08.bks.cpg/sg54_13_cif.got.tgz:25744.got - 2010.06.03 13:09:01.
