data_PCOD9422615
_publ_section_title
;
Structure prediction by ZEFSAII (Michael W. Deem and Ramdas Pophale) SiO2 
 PCOD9422615
Probable space group: P C C A
;
_chemical_formula_sum "Si O2"
_cell_formula_units_Z 60
_cell_length_a 11.317636
_cell_length_b 12.224197
_cell_length_c 18.784613
_cell_angle_alpha 90.000000
_cell_angle_beta 90.000000
_cell_angle_gamma 90.000000
_cell_volume 2598.832650
_symmetry_space_group_name_H-M "P C C A"
_symmetry_group_IT_number 54
_symmetry_cell_setting 'orthorhombic'
loop_
_space_group_symop_operation_xyz
x,y,z
1/2-x,-y,z
1/2+x,-y,1/2-z
-x,y,1/2-z
-x,-y,-z
1/2+x,y,-z
1/2-x,y,1/2+z
x,-y,1/2+z
loop_
_atom_site_type_symbol
_atom_site_label
_atom_site_fract_x
_atom_site_fract_y
_atom_site_fract_z
Si Si1 0.250000 0.500000 0.086033
Si Si2 0.570648 0.712845 0.618545
Si Si3 0.290175 0.880719 0.079121
Si Si4 0.376909 0.296742 0.025455
Si Si5 0.912643 0.948320 0.061405
Si Si6 0.024729 0.875598 0.828444
Si Si7 0.657090 0.680199 0.130733
Si Si8 0.016330 0.497997 0.169259
O O1 0.300676 0.404213 0.037810
O O2 0.140397 0.463457 0.135238
O O3 0.514316 0.681023 0.541978
O O4 0.557924 0.843404 0.611597
O O5 0.702851 0.679507 0.636961
O O6 0.490999 0.630300 0.664901
O O7 0.184517 0.793280 0.076344
O O8 0.403774 0.851085 0.126975
O O9 0.250000 0.000000 0.105409
O O10 0.319416 0.898431 0.994844
O O11 0.369405 0.264003 0.944764
O O12 0.900781 0.043322 0.119918
O O13 0.000000 0.000000 0.000000
O O14 0.096648 0.763970 0.815173
O O15 0.000000 0.923955 0.750000
O O16 0.591510 0.563861 0.130497
O O17 0.000000 0.465402 0.250000
#
# Coordination Sequence:
#
# PCOD9422615 Si02
#       8
#     4   8   8   8   8   8   8   8
#     4  10  26  42  70 102 138 180 228 296 358 414
#     4  11  25  43  68 108 135 185 237 290 355 431
#     4  11  21  42  70  99 138 185 232 292 360 429
#     4  11  23  41  68 103 140 170 230 295 354 417
#     4  10  21  41  72 101 140 183 237 296 359 426
#     4  11  25  45  67 102 140 187 239 294 366 436
#     4  12  25  42  74 102 140 186 234 299 356 432
#     4  11  27  48  71  99 144 191 241 288 360 437
#
# _framework density 23.087288999999998
#
# number of rings (size 3 to 8) (size 9 to 14) (size 15 to 20)
#    0.000    1.067    1.333    5.600    5.600    1.600 
#    4.800    0.000    0.000    0.000    0.000    0.000 
#    0.000    0.000    0.000    0.000    0.000    0.000 
#
# Total GULP energy -334491.436766 kJ/mol
# GULP energy per Si atom -5574.857279 kJ/mol
# Density = 2.303474 g / cm^3
# Si number density = 23.087289 Si / 1000 Ang^3
#
#
#
# Elastic Constant Matrix: (Units=GPa)
#
#
# Indices 1 2 3 4 5 6 
#
# 1 96.4734 31.6849 14.1379 0.0000 0.0000 0.0000
# 2 31.6849 135.9954 6.6350 0.0000 0.0000 0.0000
# 3 14.1379 6.6350 83.7159 0.0000 0.0000 0.0000
# 4 0.0000 0.0000 0.0000 11.9039 0.0000 0.0000
# 5 0.0000 0.0000 0.0000 0.0000 3.4966 0.0000
# 6 0.0000 0.0000 0.0000 0.0000 0.0000 33.5608
#
#
#
# Elastic Compliance Matrix: (Units=1/GPa)
#
#
# Indices 1 2 3 4 5 6 
#
# 1 0.011469 -0.002588 -0.001732 0.000000 0.000000 0.000000
# 2 -0.002588 0.007966 -0.000194 0.000000 0.000000 0.000000
# 3 -0.001732 -0.000194 0.012253 0.000000 0.000000 0.000000
# 4 0.000000 0.000000 0.000000 0.084006 0.000000 0.000000
# 5 0.000000 0.000000 0.000000 0.000000 0.285994 0.000000
# 6 0.000000 0.000000 0.000000 0.000000 0.000000 0.029797
#
#
# Mechanical properties :
#
#
# Convention : Reuss Voigt Hill
#
# Bulk Modulus (GPa) = 44.13026 46.78893 45.45959
# Shear Modulus (GPa) = 11.15906 27.37404 19.26655
#
# Velocity S-wave (km/s) = 2.20089 3.44710 2.89192
# Velocity P-wave (km/s) = 5.06108 6.01277 5.55734
#
# Compressibility (1/GPa) = 0.02266019
#
# Stress axis : x y z
#
# Youngs Moduli (GPa) = 87.18986 125.54044 81.61241
#
# Poissons Ratio (x) = 0.32486 0.14134
# Poissons Ratio (y) = 0.22562 0.01586
# Poissons Ratio (z) = 0.15100 0.02439
#
# Static dielectric constant tensor:
#      x y z
#    x 1.963210 0.000000 0.000000 
#    y 0.000000 1.019360 0.000000 
#    z 0.000000 0.000000 2.020050 
# 
# From -- ./inp_files/21239.got.cif
#   From: 2010.05.17/outbox.cif.g08.bks.cpg/sg54_11_cif.got.tgz:21239.got - 2010.06.03 13:09:01.
