data_PCOD9422176
_publ_section_title
;
Structure prediction by ZEFSAII (Michael W. Deem and Ramdas Pophale) SiO2 
 PCOD9422176
Probable space group: P C C A
;
_chemical_formula_sum "Si O2"
_cell_formula_units_Z 60
_cell_length_a 14.527772
_cell_length_b 9.969430
_cell_length_c 18.689390
_cell_angle_alpha 90.000000
_cell_angle_beta 90.000000
_cell_angle_gamma 90.000000
_cell_volume 2706.851748
_symmetry_space_group_name_H-M "P C C A"
_symmetry_group_IT_number 54
_symmetry_cell_setting 'orthorhombic'
loop_
_space_group_symop_operation_xyz
x,y,z
1/2-x,-y,z
1/2+x,-y,1/2-z
-x,y,1/2-z
-x,-y,-z
1/2+x,y,-z
1/2-x,y,1/2+z
x,-y,1/2+z
loop_
_atom_site_type_symbol
_atom_site_label
_atom_site_fract_x
_atom_site_fract_y
_atom_site_fract_z
Si Si1 0.750000 0.000000 0.550170
Si Si2 0.515846 0.867853 0.451699
Si Si3 0.901630 0.137750 0.660984
Si Si4 0.258287 0.162016 0.228012
Si Si5 0.284339 0.198115 0.569178
Si Si6 0.071779 0.839141 0.805465
Si Si7 0.650896 0.524760 0.499482
Si Si8 0.508517 0.652300 0.926716
O O1 0.828361 0.073790 0.600263
O O2 0.727983 0.120885 0.493527
O O3 0.619106 0.883028 0.420626
O O4 0.449659 0.818522 0.388224
O O5 0.506963 0.749006 0.506598
O O6 0.500000 0.000000 0.500000
O O7 0.843210 0.203758 0.723689
O O8 0.977803 0.243634 0.634916
O O9 0.940056 0.000654 0.692763
O O10 0.262106 0.206155 0.146122
O O11 0.169346 0.202302 0.274243
O O12 0.250000 0.000000 0.226105
O O13 0.321158 0.340942 0.543463
O O14 0.000000 0.778896 0.750000
O O15 0.750000 0.500000 0.534720
O O16 0.573394 0.544990 0.560130
O O17 0.605587 0.421053 0.442007
#
# Coordination Sequence:
#
# PCOD9422176 Si02
#       8
#     4   8   8   8   8   8   8   8
#     4  12  18  34  64  94 128 162 220 274 348 412
#     4  11  20  33  59  96 128 160 210 276 335 402
#     4  11  21  38  58  93 132 171 210 279 338 419
#     4  10  21  36  56  86 134 168 203 261 344 425
#     4  11  22  37  60  93 130 175 218 273 337 410
#     4  11  20  33  54  90 135 167 197 246 351 411
#     4  10  23  42  65  91 125 174 222 279 332 385
#     4  10  22  42  64  96 129 164 231 279 328 402
#
# _framework density 22.165973000000001
#
# number of rings (size 3 to 8) (size 9 to 14) (size 15 to 20)
#    0.000    1.333    8.000    0.000    0.000    3.200 
#    4.800    0.000    0.000    8.800    0.000    0.000 
#    0.000    0.000    0.000    0.000    0.000    0.000 
#
# Total GULP energy -334037.908975 kJ/mol
# GULP energy per Si atom -5567.298483 kJ/mol
# Density = 2.211552 g / cm^3
# Si number density = 22.165973 Si / 1000 Ang^3
#
#
#
# Elastic Constant Matrix: (Units=GPa)
#
#
# Indices 1 2 3 4 5 6 
#
# 1 45.5542 11.1966 6.5384 0.0000 0.0000 0.0000
# 2 11.1966 39.3153 -2.3711 0.0000 0.0000 0.0000
# 3 6.5384 -2.3711 110.0913 0.0000 0.0000 0.0000
# 4 0.0000 0.0000 0.0000 8.6020 0.0000 0.0000
# 5 0.0000 0.0000 0.0000 0.0000 29.0107 0.0000
# 6 0.0000 0.0000 0.0000 0.0000 0.0000 30.0869
#
#
#
# Elastic Compliance Matrix: (Units=1/GPa)
#
#
# Indices 1 2 3 4 5 6 
#
# 1 0.023871 -0.006893 -0.001566 0.000000 0.000000 0.000000
# 2 -0.006893 0.027459 0.001001 0.000000 0.000000 0.000000
# 3 -0.001566 0.001001 0.009198 0.000000 0.000000 0.000000
# 4 0.000000 0.000000 0.000000 0.116252 0.000000 0.000000
# 5 0.000000 0.000000 0.000000 0.000000 0.034470 0.000000
# 6 0.000000 0.000000 0.000000 0.000000 0.000000 0.033237
#
#
# Mechanical properties :
#
#
# Convention : Reuss Voigt Hill
#
# Bulk Modulus (GPa) = 21.92436 25.07653 23.50044
# Shear Modulus (GPa) = 18.20788 25.51304 21.86046
#
# Velocity S-wave (km/s) = 2.86918 3.39632 3.14382
# Velocity P-wave (km/s) = 4.57042 5.16891 4.87885
#
# Compressibility (1/GPa) = 0.04561136
#
# Stress axis : x y z
#
# Youngs Moduli (GPa) = 41.89220 36.41835 108.72004
#
# Poissons Ratio (x) = 0.25102 0.17027
# Poissons Ratio (y) = 0.28875 -0.10880
# Poissons Ratio (z) = 0.06561 -0.03645
#
# Static dielectric constant tensor:
#      x y z
#    x 2.023720 0.000000 0.000000 
#    y 0.000000 1.980930 0.000000 
#    z 0.000000 0.000000 1.936210 
# 
# From -- ./inp_files/21708.got.cif
#   From: 2010.05.17/outbox.cif.g08.bks.cpg/sg54_11_cif.got.tgz:21708.got - 2010.06.03 13:09:01.
