data_PCOD9422372
_publ_section_title
;
Structure prediction by ZEFSAII (Michael W. Deem and Ramdas Pophale) SiO2 
 PCOD9422372
Probable space group: P C C A
;
_chemical_formula_sum "Si O2"
_cell_formula_units_Z 36
_cell_length_a 5.610382
_cell_length_b 13.732590
_cell_length_c 19.225771
_cell_angle_alpha 90.000000
_cell_angle_beta 90.000000
_cell_angle_gamma 90.000000
_cell_volume 1481.250983
_symmetry_space_group_name_H-M "P C C A"
_symmetry_group_IT_number 54
_symmetry_cell_setting 'orthorhombic'
loop_
_space_group_symop_operation_xyz
x,y,z
1/2-x,-y,z
1/2+x,-y,1/2-z
-x,y,1/2-z
-x,-y,-z
1/2+x,y,-z
1/2-x,y,1/2+z
x,-y,1/2+z
loop_
_atom_site_type_symbol
_atom_site_label
_atom_site_fract_x
_atom_site_fract_y
_atom_site_fract_z
Si Si1 0.861360 0.094891 0.181002
Si Si2 0.500000 0.241342 0.250000
Si Si3 0.656668 0.905132 0.959337
Si Si4 0.999838 0.461584 0.419946
Si Si5 0.688662 0.738271 0.376921
O O1 0.656611 0.168301 0.204769
O O2 0.000000 0.059984 0.250000
O O3 0.029575 0.168395 0.141220
O O4 0.750000 0.000000 0.146966
O O5 0.671781 0.293742 0.306319
O O6 0.643607 0.794071 0.930725
O O7 0.750000 0.000000 0.913017
O O8 0.387215 0.912292 0.989069
O O9 0.250000 0.500000 0.389551
O O10 0.750000 0.500000 0.389082
O O11 0.000000 0.500000 0.500000
O O12 0.968123 0.346533 0.410307
#
# Coordination Sequence:
#
# PCOD9422372 Si02
#       5
#     8   4   8   8   8
#     4  10  21  38  65 102 148 203 250 297 367 460
#     4  10  24  42  68 106 154 196 252 300 388 460
#     4  10  25  42  64 102 149 201 248 300 376 455
#     4  10  25  47  77 109 137 187 262 329 399 458
#     4  11  26  41  77 104 153 196 256 326 387 466
#
# _framework density 24.303778999999999
#
# number of rings (size 3 to 8) (size 9 to 14) (size 15 to 20)
#    0.000    1.778    1.111    0.000   15.556    0.889 
#    0.000    0.000    7.333    0.000    0.000    0.000 
#    0.000    0.000    0.000    0.000    0.000    0.000 
#
# Total GULP energy -200622.339995 kJ/mol
# GULP energy per Si atom -5572.842778 kJ/mol
# Density = 2.424846 g / cm^3
# Si number density = 24.303779 Si / 1000 Ang^3
#
#
#
# Elastic Constant Matrix: (Units=GPa)
#
#
# Indices 1 2 3 4 5 6 
#
# 1 162.0742 46.1557 35.9742 0.0000 0.0000 0.0000
# 2 46.1557 153.4270 63.2177 0.0000 0.0000 0.0000
# 3 35.9742 63.2177 68.3320 0.0000 0.0000 0.0000
# 4 0.0000 0.0000 0.0000 24.7695 0.0000 0.0000
# 5 0.0000 0.0000 0.0000 0.0000 25.2936 0.0000
# 6 0.0000 0.0000 0.0000 0.0000 0.0000 25.2207
#
#
#
# Elastic Compliance Matrix: (Units=1/GPa)
#
#
# Indices 1 2 3 4 5 6 
#
# 1 0.007073 -0.000959 -0.002836 0.000000 0.000000 0.000000
# 2 -0.000959 0.010663 -0.009360 0.000000 0.000000 0.000000
# 3 -0.002836 -0.009360 0.024787 0.000000 0.000000 0.000000
# 4 0.000000 0.000000 0.000000 0.040372 0.000000 0.000000
# 5 0.000000 0.000000 0.000000 0.000000 0.039536 0.000000
# 6 0.000000 0.000000 0.000000 0.000000 0.000000 0.039650
#
#
# Mechanical properties :
#
#
# Convention : Reuss Voigt Hill
#
# Bulk Modulus (GPa) = 61.68214 74.94758 68.31486
# Shear Modulus (GPa) = 25.80046 30.95579 28.37812
#
# Velocity S-wave (km/s) = 3.26173 3.57277 3.42079
# Velocity P-wave (km/s) = 6.29443 6.92274 6.61605
#
# Compressibility (1/GPa) = 0.01621215
#
# Stress axis : x y z
#
# Youngs Moduli (GPa) = 141.38940 93.78292 40.34374
#
# Poissons Ratio (x) = 0.08994 0.11442
# Poissons Ratio (y) = 0.13560 0.37762
# Poissons Ratio (z) = 0.40101 0.87780
#
# Static dielectric constant tensor:
#      x y z
#    x -3.629410 0.000000 0.000000 
#    y 0.000000 2.050530 0.000000 
#    z 0.000000 0.000000 2.346600 
# 
# From -- ./inp_files/22686.got.cif
#   From: 2010.05.17/outbox.cif.g08.bks.cpg/sg54_12_cif.got.tgz:22686.got - 2010.06.03 13:09:01.
