data_PCOD9422106
_publ_section_title
;
Structure prediction by ZEFSAII (Michael W. Deem and Ramdas Pophale) SiO2 
 PCOD9422106
Probable space group: P C C A
;
_chemical_formula_sum "Si O2"
_cell_formula_units_Z 56
_cell_length_a 20.829677
_cell_length_b 5.558503
_cell_length_c 24.185545
_cell_angle_alpha 90.000000
_cell_angle_beta 90.000000
_cell_angle_gamma 90.000000
_cell_volume 2800.246468
_symmetry_space_group_name_H-M "P C C A"
_symmetry_group_IT_number 54
_symmetry_cell_setting 'orthorhombic'
loop_
_space_group_symop_operation_xyz
x,y,z
1/2-x,-y,z
1/2+x,-y,1/2-z
-x,y,1/2-z
-x,-y,-z
1/2+x,y,-z
1/2-x,y,1/2+z
x,-y,1/2+z
loop_
_atom_site_type_symbol
_atom_site_label
_atom_site_fract_x
_atom_site_fract_y
_atom_site_fract_z
Si Si1 0.899046 0.353580 0.646336
Si Si2 0.955972 0.560342 0.340578
Si Si3 0.405168 0.000275 0.954842
Si Si4 0.032019 0.679920 0.542216
Si Si5 0.815638 0.989848 0.202997
Si Si6 0.432514 0.059422 0.718497
Si Si7 0.192497 0.305427 0.407191
O O1 0.872949 0.559406 0.607617
O O2 0.967427 0.412850 0.671508
O O3 0.905197 0.137123 0.603505
O O4 0.841345 0.274660 0.686284
O O5 0.926669 0.816631 0.319879
O O6 0.949145 0.483438 0.405103
O O7 0.933040 0.316391 0.311506
O O8 0.472520 0.140901 0.947821
O O9 0.335374 0.133730 0.955513
O O10 0.414110 0.829692 0.008545
O O11 0.000000 0.500000 0.500000
O O12 0.798373 0.151188 0.148935
O O13 0.750000 0.000000 0.236867
O O14 0.876190 0.081147 0.236753
O O15 0.500000 0.032215 0.750000
O O16 0.250000 0.500000 0.416873
#
# Coordination Sequence:
#
# PCOD9422106 Si02
#       7
#     8   8   8   8   8   8   8
#     4  11  20  38  57  95 129 165 206 270 330 409
#     4  12  24  40  62  95 133 170 221 272 338 395
#     4  10  21  34  57  93 129 166 208 267 332 409
#     4  11  21  36  61  90 129 168 211 268 335 405
#     4  11  24  40  61  92 131 177 224 268 337 410
#     4  12  26  40  63  94 134 174 219 280 334 400
#     4  11  21  35  62  91 131 170 214 275 341 410
#
# _framework density 19.998239000000002
#
# number of rings (size 3 to 8) (size 9 to 14) (size 15 to 20)
#    0.000    0.857    5.714    2.143    4.000    0.000 
#    0.000    0.000    0.000    0.000    7.429    0.000 
#    0.000    0.000    0.000    0.000    0.000    0.000 
#
# Total GULP energy -311815.895845 kJ/mol
# GULP energy per Si atom -5568.140997 kJ/mol
# Density = 1.995272 g / cm^3
# Si number density = 19.998239 Si / 1000 Ang^3
#
#
#
# Elastic Constant Matrix: (Units=GPa)
#
#
# Indices 1 2 3 4 5 6 
#
# 1 116.8619 31.9093 31.9675 0.0000 0.0000 0.0000
# 2 31.9093 101.8569 29.6413 0.0000 0.0000 0.0000
# 3 31.9675 29.6413 63.9322 0.0000 0.0000 0.0000
# 4 0.0000 0.0000 0.0000 -1.1083 0.0000 0.0000
# 5 0.0000 0.0000 0.0000 0.0000 120.4866 0.0000
# 6 0.0000 0.0000 0.0000 0.0000 0.0000 23.3233
#
#
#
# Elastic Compliance Matrix: (Units=1/GPa)
#
#
# Indices 1 2 3 4 5 6 
#
# 1 0.010250 -0.001988 -0.004203 0.000000 0.000000 0.000000
# 2 -0.001988 0.011734 -0.004447 0.000000 0.000000 0.000000
# 3 -0.004203 -0.004447 0.019805 0.000000 0.000000 0.000000
# 4 0.000000 0.000000 0.000000 -0.902255 0.000000 0.000000
# 5 0.000000 0.000000 0.000000 0.000000 0.008300 0.000000
# 6 0.000000 0.000000 0.000000 0.000000 0.000000 0.042876
#
#
# Mechanical properties :
#
#
# Convention : Reuss Voigt Hill
#
# Bulk Modulus (GPa) = 48.74839 52.18746 50.46792
# Shear Modulus (GPa) = -6.40060 41.14918 17.37429
#
# Velocity S-wave (km/s) = -1.79096 4.54104 2.95072
# Velocity P-wave (km/s) = 4.48916 7.32444 6.07454
#
# Compressibility (1/GPa) = 0.02051350
#
# Stress axis : x y z
#
# Youngs Moduli (GPa) = 97.56361 85.21951 50.49233
#
# Poissons Ratio (x) = 0.16939 0.21224
# Poissons Ratio (y) = 0.19393 0.22452
# Poissons Ratio (z) = 0.41011 0.37894
#
# Static dielectric constant tensor:
#      x y z
#    x 1.736370 0.000000 0.000000 
#    y 0.000000 -1.626690 0.000000 
#    z 0.000000 0.000000 1.778730 
# 
# From -- ./inp_files/24731.got.cif
#   From: 2010.05.17/outbox.cif.g08.bks.cpg/sg54_13_cif.got.tgz:24731.got - 2010.06.03 13:09:01.
