data_PCOD9422413
_publ_section_title
;
Structure prediction by ZEFSAII (Michael W. Deem and Ramdas Pophale) SiO2 
 PCOD9422413
Probable space group: P C C A
;
_chemical_formula_sum "Si O2"
_cell_formula_units_Z 36
_cell_length_a 8.398534
_cell_length_b 9.731746
_cell_length_c 19.108412
_cell_angle_alpha 90.000000
_cell_angle_beta 90.000000
_cell_angle_gamma 90.000000
_cell_volume 1561.776366
_symmetry_space_group_name_H-M "P C C A"
_symmetry_group_IT_number 54
_symmetry_cell_setting 'orthorhombic'
loop_
_space_group_symop_operation_xyz
x,y,z
1/2-x,-y,z
1/2+x,-y,1/2-z
-x,y,1/2-z
-x,-y,-z
1/2+x,y,-z
1/2-x,y,1/2+z
x,-y,1/2+z
loop_
_atom_site_type_symbol
_atom_site_label
_atom_site_fract_x
_atom_site_fract_y
_atom_site_fract_z
Si Si1 0.574297 0.956011 0.133724
Si Si2 0.620707 0.273241 0.540669
Si Si3 0.500000 0.746606 0.250000
Si Si4 0.926167 0.530115 0.864723
Si Si5 0.476466 0.251820 0.394263
O O1 0.520099 0.857415 0.071125
O O2 0.589765 0.854048 0.199676
O O3 0.750000 0.000000 0.113770
O O4 0.491263 0.103395 0.141044
O O5 0.537907 0.404740 0.575804
O O6 0.599680 0.267982 0.458272
O O7 0.801024 0.264731 0.569762
O O8 0.413168 0.642052 0.197338
O O9 0.750000 0.500000 0.890466
O O10 0.001984 0.383307 0.844512
#
# Coordination Sequence:
#
# PCOD9422413 Si02
#       5
#     8   8   4   8   8
#     4   9  21  39  61  87 118 158 199 250 305 356
#     4  10  21  39  61  93 128 154 196 250 304 366
#     4  10  24  42  58  86 122 156 208 258 292 352
#     4  11  24  40  61  89 123 164 204 248 300 356
#     4  11  21  38  65  92 123 161 199 245 307 367
#
# _framework density 23.050675999999999
#
# number of rings (size 3 to 8) (size 9 to 14) (size 15 to 20)
#    0.000    1.778    0.000    3.333    0.000    8.000 
#    0.000    7.778    0.000    0.000    0.000    0.000 
#    0.000    0.000    0.000    0.000    0.000    0.000 
#
# Total GULP energy -200697.560027 kJ/mol
# GULP energy per Si atom -5574.932223 kJ/mol
# Density = 2.299821 g / cm^3
# Si number density = 23.050676 Si / 1000 Ang^3
#
#
#
# Elastic Constant Matrix: (Units=GPa)
#
#
# Indices 1 2 3 4 5 6 
#
# 1 59.9325 22.3817 -3.0254 0.0000 0.0000 0.0000
# 2 22.3817 219.2628 40.8627 0.0000 0.0000 0.0000
# 3 -3.0254 40.8627 52.3183 0.0000 0.0000 0.0000
# 4 0.0000 0.0000 0.0000 25.1656 0.0000 0.0000
# 5 0.0000 0.0000 0.0000 0.0000 9.1620 0.0000
# 6 0.0000 0.0000 0.0000 0.0000 0.0000 23.9072
#
#
#
# Elastic Compliance Matrix: (Units=1/GPa)
#
#
# Indices 1 2 3 4 5 6 
#
# 1 0.017702 -0.002338 0.002850 0.000000 0.000000 0.000000
# 2 -0.002338 0.005646 -0.004545 0.000000 0.000000 0.000000
# 3 0.002850 -0.004545 0.022829 0.000000 0.000000 0.000000
# 4 0.000000 0.000000 0.000000 0.039737 0.000000 0.000000
# 5 0.000000 0.000000 0.000000 0.000000 0.109147 0.000000
# 6 0.000000 0.000000 0.000000 0.000000 0.000000 0.041828
#
#
# Mechanical properties :
#
#
# Convention : Reuss Voigt Hill
#
# Bulk Modulus (GPa) = 26.23959 50.21686 38.22822
# Shear Modulus (GPa) = 19.40540 29.73326 24.56933
#
# Velocity S-wave (km/s) = 2.90463 3.59543 3.26833
# Velocity P-wave (km/s) = 4.75997 6.25051 5.55545
#
# Compressibility (1/GPa) = 0.03811036
#
# Stress axis : x y z
#
# Youngs Moduli (GPa) = 56.48931 177.10103 43.80456
#
# Poissons Ratio (x) = 0.41408 -0.12484
# Poissons Ratio (y) = 0.13208 0.19911
# Poissons Ratio (z) = -0.16098 0.80499
#
# Static dielectric constant tensor:
#      x y z
#    x 1.870200 0.000000 0.000000 
#    y 0.000000 1.983610 0.000000 
#    z 0.000000 0.000000 1.920970 
# 
# From -- ./inp_files/20121.got.cif
#   From: 2010.05.17/outbox.cif.g08.bks.cpg/sg54_11_cif.got.tgz:20121.got - 2010.06.03 13:09:01.
