data_PCOD9422888
_publ_section_title
;
Structure prediction by ZEFSAII (Michael W. Deem and Ramdas Pophale) SiO2 
 PCOD9422888
Probable space group: P C C A
;
_chemical_formula_sum "Si O2"
_cell_formula_units_Z 52
_cell_length_a 19.748903
_cell_length_b 8.872208
_cell_length_c 13.536754
_cell_angle_alpha 90.000000
_cell_angle_beta 90.000000
_cell_angle_gamma 90.000000
_cell_volume 2371.860968
_symmetry_space_group_name_H-M "P C C A"
_symmetry_group_IT_number 54
_symmetry_cell_setting 'orthorhombic'
loop_
_space_group_symop_operation_xyz
x,y,z
1/2-x,-y,z
1/2+x,-y,1/2-z
-x,y,1/2-z
-x,-y,-z
1/2+x,y,-z
1/2-x,y,1/2+z
x,-y,1/2+z
loop_
_atom_site_type_symbol
_atom_site_label
_atom_site_fract_x
_atom_site_fract_y
_atom_site_fract_z
Si Si1 0.851017 0.394483 0.881435
Si Si2 0.929831 0.533945 0.055622
Si Si3 0.427676 0.220700 0.275115
Si Si4 0.854972 0.282683 0.160530
Si Si5 0.183839 0.904209 0.011567
Si Si6 0.668626 0.970351 0.294492
Si Si7 0.250000 0.500000 0.784981
O O1 0.914972 0.326444 0.821883
O O2 0.808430 0.255845 0.929671
O O3 0.808939 0.456736 0.790074
O O4 0.873807 0.506927 0.968489
O O5 0.926427 0.684068 0.122900
O O6 0.912336 0.401076 0.134084
O O7 0.000000 0.500000 0.000000
O O8 0.500000 0.148295 0.250000
O O9 0.368400 0.098254 0.269211
O O10 0.782374 0.367413 0.150999
O O11 0.851833 0.196227 0.262898
O O12 0.857502 0.148400 0.081879
O O13 0.146955 0.004703 0.092684
O O14 0.250000 0.000000 0.983316
O O15 0.750000 0.000000 0.289500
#
# Coordination Sequence:
#
# PCOD9422888 Si02
#       7
#     8   8   8   8   8   8   4
#     4  10  22  39  63  98 134 178 227 291 352 422
#     4  11  23  42  67  97 136 182 239 297 350 430
#     4  11  21  43  72  91 135 193 231 289 363 429
#     4  11  23  39  67  99 136 177 234 287 353 434
#     4   9  19  37  61  90 132 174 217 273 348 417
#     4  10  22  43  65  97 139 177 230 293 358 423
#     4  12  22  40  64 102 142 174 228 286 372 420
#
# _framework density 21.923712999999999
#
# number of rings (size 3 to 8) (size 9 to 14) (size 15 to 20)
#    0.000    1.538    3.077    3.231    0.000    2.462 
#    5.538    3.077    0.000    0.000    0.000    0.000 
#    0.000    0.000    0.000    0.000    0.000    0.000 
#
# Total GULP energy -289831.841945 kJ/mol
# GULP energy per Si atom -5573.689268 kJ/mol
# Density = 2.187381 g / cm^3
# Si number density = 21.923713 Si / 1000 Ang^3
#
#
#
# Elastic Constant Matrix: (Units=GPa)
#
#
# Indices 1 2 3 4 5 6 
#
# 1 78.4094 19.9085 10.9518 0.0000 0.0000 0.0000
# 2 19.9085 50.9409 29.2010 0.0000 0.0000 0.0000
# 3 10.9518 29.2010 68.3333 0.0000 0.0000 0.0000
# 4 0.0000 0.0000 0.0000 58.7875 0.0000 0.0000
# 5 0.0000 0.0000 0.0000 0.0000 29.4295 0.0000
# 6 0.0000 0.0000 0.0000 0.0000 0.0000 27.2115
#
#
#
# Elastic Compliance Matrix: (Units=1/GPa)
#
#
# Indices 1 2 3 4 5 6 
#
# 1 0.014159 -0.005606 0.000126 0.000000 0.000000 0.000000
# 2 -0.005606 0.028219 -0.011160 0.000000 0.000000 0.000000
# 3 0.000126 -0.011160 0.019383 0.000000 0.000000 0.000000
# 4 0.000000 0.000000 0.000000 0.017010 0.000000 0.000000
# 5 0.000000 0.000000 0.000000 0.000000 0.033980 0.000000
# 6 0.000000 0.000000 0.000000 0.000000 0.000000 0.036749
#
#
# Mechanical properties :
#
#
# Convention : Reuss Voigt Hill
#
# Bulk Modulus (GPa) = 35.11094 35.31180 35.21137
# Shear Modulus (GPa) = 26.00448 32.26051 29.13250
#
# Velocity S-wave (km/s) = 3.44777 3.84016 3.64924
# Velocity P-wave (km/s) = 5.64794 5.98365 5.81822
#
# Compressibility (1/GPa) = 0.02848115
#
# Stress axis : x y z
#
# Youngs Moduli (GPa) = 70.62478 35.43709 51.59139
#
# Poissons Ratio (x) = 0.19866 -0.00652
# Poissons Ratio (y) = 0.39593 0.57578
# Poissons Ratio (z) = -0.00892 0.39549
#
# Static dielectric constant tensor:
#      x y z
#    x 1.872720 0.000000 0.000000 
#    y 0.000000 1.842810 0.000000 
#    z 0.000000 0.000000 1.893450 
# 
# From -- ./inp_files/14623.got.cif
#   From: 2010.05.17/outbox.cif.g08.bks.cpg/sg54_8_cif.got.tgz:14623.got - 2010.06.03 13:09:01.
