data_PCOD9422940
_publ_section_title
;
Structure prediction by ZEFSAII (Michael W. Deem and Ramdas Pophale) SiO2 
 PCOD9422940
Probable space group: P C C A
;
_chemical_formula_sum "Si O2"
_cell_formula_units_Z 40
_cell_length_a 8.229703
_cell_length_b 8.548429
_cell_length_c 27.437992
_cell_angle_alpha 90.000000
_cell_angle_beta 90.000000
_cell_angle_gamma 90.000000
_cell_volume 1930.291047
_symmetry_space_group_name_H-M "P C C A"
_symmetry_group_IT_number 54
_symmetry_cell_setting 'orthorhombic'
loop_
_space_group_symop_operation_xyz
x,y,z
1/2-x,-y,z
1/2+x,-y,1/2-z
-x,y,1/2-z
-x,-y,-z
1/2+x,y,-z
1/2-x,y,1/2+z
x,-y,1/2+z
loop_
_atom_site_type_symbol
_atom_site_label
_atom_site_fract_x
_atom_site_fract_y
_atom_site_fract_z
Si Si1 0.179278 0.819513 0.046481
Si Si2 0.811945 0.320718 0.552674
Si Si3 0.191700 0.820853 0.648695
Si Si4 0.196416 0.323727 0.249604
Si Si5 0.195468 0.825769 0.849060
O O1 0.257987 0.751880 0.096310
O O2 0.994135 0.754872 0.050706
O O3 0.250000 0.000000 0.048082
O O4 0.229570 0.764655 0.993058
O O5 0.750000 0.500000 0.545200
O O6 0.754836 0.280989 0.607054
O O7 0.255755 0.733693 0.696781
O O8 0.998306 0.819699 0.651144
O O9 0.250000 0.000000 0.651625
O O10 0.250000 0.500000 0.257654
O O11 0.256621 0.223007 0.295547
O O12 0.000000 0.315540 0.250000
O O13 0.250000 0.000000 0.860503
#
# Coordination Sequence:
#
# PCOD9422940 Si02
#       5
#     8   8   8   8   8
#     4  11  23  42  65  91 125 169 213 258 313 382
#     4  12  25  41  64  96 129 164 207 262 321 377
#     4  10  22  40  62  90 119 160 209 256 306 369
#     4  10  23  39  60  89 124 161 202 253 313 372
#     4  11  22  40  63  90 124 164 210 257 308 376
#
# _framework density 20.722263000000002
#
# number of rings (size 3 to 8) (size 9 to 14) (size 15 to 20)
#    0.000    1.200    0.000    6.600    0.000    7.200 
#    0.000    0.000    0.000    0.000    0.000    0.000 
#    0.000    0.000    0.000    0.000    0.000    0.000 
#
# Total GULP energy -222863.703312 kJ/mol
# GULP energy per Si atom -5571.592583 kJ/mol
# Density = 2.067510 g / cm^3
# Si number density = 20.722263 Si / 1000 Ang^3
#
#
#
# Elastic Constant Matrix: (Units=GPa)
#
#
# Indices 1 2 3 4 5 6 
#
# 1 84.0064 10.3041 12.9236 0.0000 0.0000 0.0000
# 2 10.3041 74.8726 -2.7857 0.0000 0.0000 0.0000
# 3 12.9236 -2.7857 99.7492 0.0000 0.0000 0.0000
# 4 0.0000 0.0000 0.0000 867.2202 0.0000 0.0000
# 5 0.0000 0.0000 0.0000 0.0000 40.2915 0.0000
# 6 0.0000 0.0000 0.0000 0.0000 0.0000 26.6168
#
#
#
# Elastic Compliance Matrix: (Units=1/GPa)
#
#
# Indices 1 2 3 4 5 6 
#
# 1 0.012375 -0.001764 -0.001653 0.000000 0.000000 0.000000
# 2 -0.001764 0.013622 0.000609 0.000000 0.000000 0.000000
# 3 -0.001653 0.000609 0.010256 0.000000 0.000000 0.000000
# 4 0.000000 0.000000 0.000000 0.001153 0.000000 0.000000
# 5 0.000000 0.000000 0.000000 0.000000 0.024819 0.000000
# 6 0.000000 0.000000 0.000000 0.000000 0.000000 0.037570
#
#
# Mechanical properties :
#
#
# Convention : Reuss Voigt Hill
#
# Bulk Modulus (GPa) = 32.64106 33.27915 32.96010
# Shear Modulus (GPa) = 43.24405 202.70478 122.97441
#
# Velocity S-wave (km/s) = 4.57315 9.90112 7.71187
# Velocity P-wave (km/s) = 6.60839 12.11627 9.75897
#
# Compressibility (1/GPa) = 0.03063626
#
# Stress axis : x y z
#
# Youngs Moduli (GPa) = 80.81130 73.41328 97.50149
#
# Poissons Ratio (x) = 0.12954 0.16112
# Poissons Ratio (y) = 0.14259 -0.05938
# Poissons Ratio (z) = 0.13354 -0.04471
#
# Static dielectric constant tensor:
#      x y z
#    x 1.770150 0.000000 0.000000 
#    y 0.000000 1.776860 0.000000 
#    z 0.000000 0.000000 1.733860 
# 
# From -- ./inp_files/23253.got.cif
#   From: 2010.05.17/outbox.cif.g08.bks.cpg/sg54_12_cif.got.tgz:23253.got - 2010.06.03 13:09:01.
