data_PCOD9422923
_publ_section_title
;
Structure prediction by ZEFSAII (Michael W. Deem and Ramdas Pophale) SiO2 
 PCOD9422923
Probable space group: P C C A
;
_chemical_formula_sum "Si O2"
_cell_formula_units_Z 28
_cell_length_a 12.525632
_cell_length_b 9.176912
_cell_length_c 10.921078
_cell_angle_alpha 90.000000
_cell_angle_beta 90.000000
_cell_angle_gamma 90.000000
_cell_volume 1255.341031
_symmetry_space_group_name_H-M "P C C A"
_symmetry_group_IT_number 54
_symmetry_cell_setting 'orthorhombic'
loop_
_space_group_symop_operation_xyz
x,y,z
1/2-x,-y,z
1/2+x,-y,1/2-z
-x,y,1/2-z
-x,-y,-z
1/2+x,y,-z
1/2-x,y,1/2+z
x,-y,1/2+z
loop_
_atom_site_type_symbol
_atom_site_label
_atom_site_fract_x
_atom_site_fract_y
_atom_site_fract_z
Si Si1 0.186002 0.863949 0.613380
Si Si2 0.838151 0.620400 0.323001
Si Si3 0.500000 0.024649 0.250000
Si Si4 0.948960 0.703558 0.084052
O O1 0.277883 0.774130 0.679957
O O2 0.098518 0.927645 0.705870
O O3 0.124680 0.746727 0.528683
O O4 0.250000 0.000000 0.551654
O O5 0.750000 0.500000 0.346129
O O6 0.890079 0.608907 0.188383
O O7 0.933302 0.631296 0.423212
O O8 0.528514 0.135767 0.141207
#
# Coordination Sequence:
#
# PCOD9422923 Si02
#       4
#     8   8   4   8
#     4  12  23  38  71  97 130 175 214 278 342 383
#     4  10  24  44  62  91 134 175 214 273 329 391
#     4  10  22  40  60 102 126 162 218 276 316 404
#     4  10  23  41  64  96 134 162 231 272 319 407
#
# _framework density 22.304696
#
# number of rings (size 3 to 8) (size 9 to 14) (size 15 to 20)
#    0.000    1.714    5.714    0.857    4.000    4.571 
#    0.000    0.000    0.000    0.000    0.000    0.000 
#    0.000    0.000    0.000    0.000    0.000    0.000 
#
# Total GULP energy -156232.841082 kJ/mol
# GULP energy per Si atom -5579.744324 kJ/mol
# Density = 2.225393 g / cm^3
# Si number density = 22.304696 Si / 1000 Ang^3
#
#
#
# Elastic Constant Matrix: (Units=GPa)
#
#
# Indices 1 2 3 4 5 6 
#
# 1 171.9910 53.2716 39.0448 0.0000 0.0000 0.0000
# 2 53.2716 78.0999 13.1703 0.0000 0.0000 0.0000
# 3 39.0448 13.1703 21.2826 0.0000 0.0000 0.0000
# 4 0.0000 0.0000 0.0000 -26.3475 0.0000 0.0000
# 5 0.0000 0.0000 0.0000 0.0000 32.7777 0.0000
# 6 0.0000 0.0000 0.0000 0.0000 0.0000 89.0471
#
#
#
# Elastic Compliance Matrix: (Units=1/GPa)
#
#
# Indices 1 2 3 4 5 6 
#
# 1 0.011332 -0.004716 -0.017871 0.000000 0.000000 0.000000
# 2 -0.004716 0.016258 -0.001410 0.000000 0.000000 0.000000
# 3 -0.017871 -0.001410 0.080645 0.000000 0.000000 0.000000
# 4 0.000000 0.000000 0.000000 -0.037954 0.000000 0.000000
# 5 0.000000 0.000000 0.000000 0.000000 0.030509 0.000000
# 6 0.000000 0.000000 0.000000 0.000000 0.000000 0.011230
#
#
# Mechanical properties :
#
#
# Convention : Reuss Voigt Hill
#
# Bulk Modulus (GPa) = 16.59960 53.59409 35.09684
# Shear Modulus (GPa) = 27.76325 30.15459 28.95892
#
# Velocity S-wave (km/s) = 3.53190 3.68086 3.60715
# Velocity P-wave (km/s) = 4.90823 6.49194 5.75483
#
# Compressibility (1/GPa) = 0.06024242
#
# Stress axis : x y z
#
# Youngs Moduli (GPa) = 88.24609 61.50645 12.39997
#
# Poissons Ratio (x) = 0.29005 0.22160
# Poissons Ratio (y) = 0.41615 0.01748
# Poissons Ratio (z) = 1.57706 0.08671
#
# Static dielectric constant tensor:
#      x y z
#    x 1.861420 0.000000 0.000000 
#    y 0.000000 1.828750 0.000000 
#    z 0.000000 0.000000 1.878590 
# 
# From -- ./inp_files/12114.got.cif
#   From: 2010.05.17/outbox.cif.g08.bks.cpg/sg54_7_cif.got.tgz:12114.got - 2010.06.03 13:09:01.
