data_PCOD9422738
_publ_section_title
;
Structure prediction by ZEFSAII (Michael W. Deem and Ramdas Pophale) SiO2 
 PCOD9422738
Probable space group: P C C A
;
_chemical_formula_sum "Si O2"
_cell_formula_units_Z 44
_cell_length_a 5.682987
_cell_length_b 12.771021
_cell_length_c 27.449298
_cell_angle_alpha 90.000000
_cell_angle_beta 90.000000
_cell_angle_gamma 90.000000
_cell_volume 1992.202697
_symmetry_space_group_name_H-M "P C C A"
_symmetry_group_IT_number 54
_symmetry_cell_setting 'orthorhombic'
loop_
_space_group_symop_operation_xyz
x,y,z
1/2-x,-y,z
1/2+x,-y,1/2-z
-x,y,1/2-z
-x,-y,-z
1/2+x,y,-z
1/2-x,y,1/2+z
x,-y,1/2+z
loop_
_atom_site_type_symbol
_atom_site_label
_atom_site_fract_x
_atom_site_fract_y
_atom_site_fract_z
Si Si1 0.496357 0.119134 0.481458
Si Si2 0.901314 0.758200 0.703049
Si Si3 0.500000 0.617926 0.750000
Si Si4 0.784618 0.606659 0.346149
Si Si5 0.357301 0.226691 0.389801
Si Si6 0.773156 0.378664 0.028685
O O1 0.754891 0.162949 0.494385
O O2 0.455666 0.135811 0.424298
O O3 0.500000 0.000000 0.500000
O O4 0.709273 0.690065 0.731510
O O5 0.778213 0.814421 0.657635
O O6 0.000000 0.821250 0.750000
O O7 0.072295 0.674188 0.676466
O O8 0.433034 0.561545 0.700377
O O9 0.750000 0.500000 0.376647
O O10 0.939461 0.694103 0.372558
O O11 0.204374 0.301963 0.424926
O O12 0.750000 0.500000 0.044540
O O13 0.514027 0.363949 0.002848
#
# Coordination Sequence:
#
# PCOD9422738 Si02
#       6
#     8   8   4   8   8   8
#     4  10  23  44  71 101 133 160 212 281 348 422
#     4   9  20  37  53  82 126 168 229 275 326 390
#     4   8  18  34  48  74 112 170 222 288 316 366
#     4  10  22  31  52  80 121 172 231 273 321 389
#     4  11  23  35  61  88 126 174 220 271 346 392
#     4  10  23  38  54  79 117 165 219 267 316 380
#
# _framework density 22.086106999999998
#
# number of rings (size 3 to 8) (size 9 to 14) (size 15 to 20)
#    0.000    2.182    0.000    1.091   11.455    2.182 
#    0.000    0.000    0.000    0.000    0.000    0.000 
#   65.455    0.000    0.000    0.000    0.000    0.000 
#
# Total GULP energy -244948.569612 kJ/mol
# GULP energy per Si atom -5567.012946 kJ/mol
# Density = 2.203584 g / cm^3
# Si number density = 22.086107 Si / 1000 Ang^3
#
#
#
# Elastic Constant Matrix: (Units=GPa)
#
#
# Indices 1 2 3 4 5 6 
#
# 1 104.7770 13.0430 43.3326 0.0000 0.0000 0.0000
# 2 13.0430 60.5058 39.5018 0.0000 0.0000 0.0000
# 3 43.3326 39.5018 148.0219 0.0000 0.0000 0.0000
# 4 0.0000 0.0000 0.0000 -2.9312 0.0000 0.0000
# 5 0.0000 0.0000 0.0000 0.0000 48.4189 0.0000
# 6 0.0000 0.0000 0.0000 0.0000 0.0000 17.1927
#
#
#
# Elastic Compliance Matrix: (Units=1/GPa)
#
#
# Indices 1 2 3 4 5 6 
#
# 1 0.010864 -0.000322 -0.003095 0.000000 0.000000 0.000000
# 2 -0.000322 0.020024 -0.005250 0.000000 0.000000 0.000000
# 3 -0.003095 -0.005250 0.009063 0.000000 0.000000 0.000000
# 4 0.000000 0.000000 0.000000 -0.341155 0.000000 0.000000
# 5 0.000000 0.000000 0.000000 0.000000 0.020653 0.000000
# 6 0.000000 0.000000 0.000000 0.000000 0.000000 0.058164
#
#
# Mechanical properties :
#
#
# Convention : Reuss Voigt Hill
#
# Bulk Modulus (GPa) = 44.21049 56.11772 50.16411
# Shear Modulus (GPa) = -25.31433 27.03125 0.85846
#
# Velocity S-wave (km/s) = -3.38918 3.50223 0.62412
# Velocity P-wave (km/s) = 2.17840 6.46668 4.82511
#
# Compressibility (1/GPa) = 0.02261906
#
# Stress axis : x y z
#
# Youngs Moduli (GPa) = 92.04790 49.94042 110.34396
#
# Poissons Ratio (x) = 0.01606 0.34146
# Poissons Ratio (y) = 0.02960 0.57925
# Poissons Ratio (z) = 0.28484 0.26216
#
# Static dielectric constant tensor:
#      x y z
#    x 1.949690 0.000000 0.000000 
#    y 0.000000 1.607070 0.000000 
#    z 0.000000 0.000000 1.906030 
# 
# From -- ./inp_files/25308.got.cif
#   From: 2010.05.17/outbox.cif.g08.bks.cpg/sg54_13_cif.got.tgz:25308.got - 2010.06.03 13:09:01.
