data_PCOD9422158
_publ_section_title
;
Structure prediction by ZEFSAII (Michael W. Deem and Ramdas Pophale) SiO2 
 PCOD9422158
Probable space group: P C C A
;
_chemical_formula_sum "Si O2"
_cell_formula_units_Z 36
_cell_length_a 5.114315
_cell_length_b 24.582451
_cell_length_c 13.343453
_cell_angle_alpha 90.000000
_cell_angle_beta 90.000000
_cell_angle_gamma 90.000000
_cell_volume 1677.570907
_symmetry_space_group_name_H-M "P C C A"
_symmetry_group_IT_number 54
_symmetry_cell_setting 'orthorhombic'
loop_
_space_group_symop_operation_xyz
x,y,z
1/2-x,-y,z
1/2+x,-y,1/2-z
-x,y,1/2-z
-x,-y,-z
1/2+x,y,-z
1/2-x,y,1/2+z
x,-y,1/2+z
loop_
_atom_site_type_symbol
_atom_site_label
_atom_site_fract_x
_atom_site_fract_y
_atom_site_fract_z
Si Si1 0.780094 0.602629 0.436849
Si Si2 0.749995 0.287191 0.322987
Si Si3 0.000000 0.534764 0.250000
Si Si4 0.176634 0.055920 0.563631
Si Si5 0.251055 0.166830 0.679470
O O1 0.490458 0.590345 0.476433
O O2 0.776541 0.665862 0.404659
O O3 0.876628 0.570268 0.339371
O O4 0.500000 0.289546 0.250000
O O5 0.766423 0.226643 0.369988
O O6 0.000000 0.295872 0.250000
O O7 0.250000 0.500000 0.287062
O O8 0.376291 0.053923 0.469598
O O9 0.233515 0.113442 0.613091
O O10 0.250000 0.000000 0.621632
O O11 0.500000 0.162224 0.750000
O O12 0.000000 0.167412 0.750000
#
# Coordination Sequence:
#
# PCOD9422158 Si02
#       5
#     8   8   4   8   8
#     4  12  26  43  72 104 130 174 226 261 321 395
#     4  10  21  40  64  89 130 168 202 263 331 377
#     4  12  28  48  72  98 140 182 210 276 330 364
#     4  10  21  36  54  78 115 159 201 254 315 370
#     4  10  21  36  58  88 117 157 203 254 310 370
#
# _framework density 21.459599999999998
#
# number of rings (size 3 to 8) (size 9 to 14) (size 15 to 20)
#    0.000    1.333    1.111    4.000    1.556    5.333 
#    0.000    0.000    0.000    0.000    0.000    0.000 
#    0.000    0.000    0.000    0.000    0.000    0.000 
#
# Total GULP energy -201139.078062 kJ/mol
# GULP energy per Si atom -5587.196613 kJ/mol
# Density = 2.141076 g / cm^3
# Si number density = 21.459600 Si / 1000 Ang^3
#
#
#
# Elastic Constant Matrix: (Units=GPa)
#
#
# Indices 1 2 3 4 5 6 
#
# 1 139.7635 27.3142 10.7855 0.0000 0.0000 0.0000
# 2 27.3142 138.0569 42.5916 0.0000 0.0000 0.0000
# 3 10.7855 42.5916 38.6958 0.0000 0.0000 0.0000
# 4 0.0000 0.0000 0.0000 33.7918 0.0000 0.0000
# 5 0.0000 0.0000 0.0000 0.0000 27.2902 0.0000
# 6 0.0000 0.0000 0.0000 0.0000 0.0000 32.3239
#
#
#
# Elastic Compliance Matrix: (Units=1/GPa)
#
#
# Indices 1 2 3 4 5 6 
#
# 1 0.007455 -0.001263 -0.000688 0.000000 0.000000 0.000000
# 2 -0.001263 0.011181 -0.011955 0.000000 0.000000 0.000000
# 3 -0.000688 -0.011955 0.039193 0.000000 0.000000 0.000000
# 4 0.000000 0.000000 0.000000 0.029593 0.000000 0.000000
# 5 0.000000 0.000000 0.000000 0.000000 0.036643 0.000000
# 6 0.000000 0.000000 0.000000 0.000000 0.000000 0.030937
#
#
# Mechanical properties :
#
#
# Convention : Reuss Voigt Hill
#
# Bulk Modulus (GPa) = 33.31383 53.09987 43.20685
# Shear Modulus (GPa) = 25.93085 34.40284 30.16685
#
# Velocity S-wave (km/s) = 3.47991 4.00827 3.75340
# Velocity P-wave (km/s) = 5.63064 6.79849 6.24194
#
# Compressibility (1/GPa) = 0.03001757
#
# Stress axis : x y z
#
# Youngs Moduli (GPa) = 134.14168 89.43346 25.51457
#
# Poissons Ratio (x) = 0.11292 0.01756
# Poissons Ratio (y) = 0.16937 0.30503
# Poissons Ratio (z) = 0.09230 1.06920
#
# Static dielectric constant tensor:
#      x y z
#    x 1.753050 0.000000 0.000000 
#    y 0.000000 1.848870 0.000000 
#    z 0.000000 0.000000 1.758170 
# 
# From -- ./inp_files/6357.got.cif
#   From: 2010.05.17/outbox.cif.g08.bks.cpg/sg54_4_cif.got.tgz:6357.got - 2010.06.03 13:09:01.
