data_PCOD9422023
_publ_section_title
;
Structure prediction by ZEFSAII (Michael W. Deem and Ramdas Pophale) SiO2 
 PCOD9422023
Probable space group: P C C A
;
_chemical_formula_sum "Si O2"
_cell_formula_units_Z 48
_cell_length_a 22.868333
_cell_length_b 7.849652
_cell_length_c 12.662650
_cell_angle_alpha 90.000000
_cell_angle_beta 90.000000
_cell_angle_gamma 90.000000
_cell_volume 2273.052749
_symmetry_space_group_name_H-M "P C C A"
_symmetry_group_IT_number 54
_symmetry_cell_setting 'orthorhombic'
loop_
_space_group_symop_operation_xyz
x,y,z
1/2-x,-y,z
1/2+x,-y,1/2-z
-x,y,1/2-z
-x,-y,-z
1/2+x,y,-z
1/2-x,y,1/2+z
x,-y,1/2+z
loop_
_atom_site_type_symbol
_atom_site_label
_atom_site_fract_x
_atom_site_fract_y
_atom_site_fract_z
Si Si1 0.114775 0.900629 0.852373
Si Si2 0.856715 0.286989 0.931527
Si Si3 0.500000 0.199535 0.750000
Si Si4 0.250000 0.500000 0.478955
Si Si5 0.840805 0.241174 0.546740
Si Si6 0.313538 0.054815 0.666314
Si Si7 0.054619 0.433884 0.068279
O O1 0.048527 0.907260 0.812647
O O2 0.140908 0.084753 0.880861
O O3 0.153276 0.837901 0.754244
O O4 0.122273 0.780716 0.953501
O O5 0.847205 0.119584 0.862120
O O6 0.907004 0.409334 0.888210
O O7 0.796863 0.392400 0.951597
O O8 0.531894 0.315663 0.837470
O O9 0.208116 0.627107 0.413135
O O10 0.899492 0.334827 0.507270
O O11 0.811592 0.158508 0.442287
O O12 0.250000 0.000000 0.703110
O O13 0.000000 0.500000 0.000000
#
# Coordination Sequence:
#
# PCOD9422023 Si02
#       7
#     8   8   4   4   8   8   8
#     4  11  25  41  66  97 126 177 224 264 322 397
#     4  10  23  42  65  93 132 172 212 269 335 389
#     4  12  24  44  66  94 134 172 234 276 318 398
#     4  10  20  42  64  92 132 168 208 270 332 396
#     4  10  23  42  67  94 130 172 215 264 338 385
#     4  11  22  40  64  97 130 168 213 270 325 396
#     4  11  23  43  66  93 131 171 216 275 328 380
#
# _framework density 21.116976000000001
#
# number of rings (size 3 to 8) (size 9 to 14) (size 15 to 20)
#    0.000    1.333    5.000    0.000    2.333    3.333 
#    0.000    1.667    0.000    0.000    0.000    0.000 
#    0.000    0.000    0.000    0.000    0.000    0.000 
#
# Total GULP energy -268223.735787 kJ/mol
# GULP energy per Si atom -5587.994496 kJ/mol
# Density = 2.106891 g / cm^3
# Si number density = 21.116976 Si / 1000 Ang^3
#
#
#
# Elastic Constant Matrix: (Units=GPa)
#
#
# Indices 1 2 3 4 5 6 
#
# 1 137.3863 31.5904 22.6815 0.0000 0.0000 0.0000
# 2 31.5904 69.6167 6.6993 0.0000 0.0000 0.0000
# 3 22.6815 6.6993 63.4291 0.0000 0.0000 0.0000
# 4 0.0000 0.0000 0.0000 441.8821 0.0000 0.0000
# 5 0.0000 0.0000 0.0000 0.0000 18.3256 0.0000
# 6 0.0000 0.0000 0.0000 0.0000 0.0000 46.7990
#
#
#
# Elastic Compliance Matrix: (Units=1/GPa)
#
#
# Indices 1 2 3 4 5 6 
#
# 1 0.008554 -0.003624 -0.002676 0.000000 0.000000 0.000000
# 2 -0.003624 0.016047 -0.000399 0.000000 0.000000 0.000000
# 3 -0.002676 -0.000399 0.016765 0.000000 0.000000 0.000000
# 4 0.000000 0.000000 0.000000 0.002263 0.000000 0.000000
# 5 0.000000 0.000000 0.000000 0.000000 0.054569 0.000000
# 6 0.000000 0.000000 0.000000 0.000000 0.000000 0.021368
#
#
# Mechanical properties :
#
#
# Convention : Reuss Voigt Hill
#
# Bulk Modulus (GPa) = 35.75540 43.59717 39.67628
# Shear Modulus (GPa) = 35.14051 115.36541 75.25296
#
# Velocity S-wave (km/s) = 4.08375 7.39934 5.97609
# Velocity P-wave (km/s) = 6.26138 9.67939 8.15155
#
# Compressibility (1/GPa) = 0.02796781
#
# Stress axis : x y z
#
# Youngs Moduli (GPa) = 116.90666 62.31595 59.64922
#
# Poissons Ratio (x) = 0.22583 0.15962
# Poissons Ratio (y) = 0.42367 0.02380
# Poissons Ratio (z) = 0.31284 0.02486
#
# Static dielectric constant tensor:
#      x y z
#    x 1.746480 0.000000 0.000000 
#    y 0.000000 1.787420 0.000000 
#    z 0.000000 0.000000 1.729830 
# 
# From -- ./inp_files/9937.got.cif
#   From: 2010.05.17/outbox.cif.g08.bks.cpg/sg54_5_cif.got.tgz:9937.got - 2010.06.03 13:09:01.
