data_PCOD9422529
_publ_section_title
;
Structure prediction by ZEFSAII (Michael W. Deem and Ramdas Pophale) SiO2 
 PCOD9422529
Probable space group: P C C A
;
_chemical_formula_sum "Si O2"
_cell_formula_units_Z 44
_cell_length_a 8.322301
_cell_length_b 8.539361
_cell_length_c 30.474143
_cell_angle_alpha 90.000000
_cell_angle_beta 90.000000
_cell_angle_gamma 90.000000
_cell_volume 2165.709961
_symmetry_space_group_name_H-M "P C C A"
_symmetry_group_IT_number 54
_symmetry_cell_setting 'orthorhombic'
loop_
_space_group_symop_operation_xyz
x,y,z
1/2-x,-y,z
1/2+x,-y,1/2-z
-x,y,1/2-z
-x,-y,-z
1/2+x,y,-z
1/2-x,y,1/2+z
x,-y,1/2+z
loop_
_atom_site_type_symbol
_atom_site_label
_atom_site_fract_x
_atom_site_fract_y
_atom_site_fract_z
Si Si1 0.250000 0.500000 0.591284
Si Si2 0.831345 0.736869 0.650458
Si Si3 0.285512 0.816942 0.444531
Si Si4 0.250000 0.000000 0.791557
Si Si5 0.506073 0.569492 0.666422
Si Si6 0.956257 0.665017 0.476393
Si Si7 0.000000 0.763885 0.250000
O O1 0.393215 0.519661 0.626450
O O2 0.192184 0.365598 0.556991
O O3 0.871520 0.751938 0.599287
O O4 0.643096 0.689936 0.650246
O O5 0.911676 0.596040 0.676860
O O6 0.859775 0.896693 0.676052
O O7 0.396924 0.782902 0.486200
O O8 0.117052 0.727446 0.453140
O O9 0.250000 0.000000 0.438521
O O10 0.355180 0.877453 0.764437
O O11 0.441546 0.653798 0.709874
O O12 0.000000 0.500000 0.500000
#
# Coordination Sequence:
#
# PCOD9422529 Si02
#       7
#     4   8   8   4   8   8   4
#     4  12  22  38  64  96 126 162 228 276 316 366
#     4  10  21  40  65  91 124 177 211 257 328 402
#     4  12  24  41  65  95 134 171 221 273 327 391
#     4  10  22  44  68  92 130 168 208 266 344 396
#     4  10  23  39  66  93 125 165 222 270 322 400
#     4  12  24  41  64  94 129 180 224 271 319 384
#     4  10  24  44  66  98 128 168 218 276 336 402
#
# _framework density 20.316662000000001
#
# number of rings (size 3 to 8) (size 9 to 14) (size 15 to 20)
#    0.000    1.091    4.545    1.636    2.545    5.091 
#    0.000    0.000    2.000    0.000    0.000    0.000 
#    0.000    0.000    0.000    0.000    0.000    0.000 
#
# Total GULP energy -245194.845478 kJ/mol
# GULP energy per Si atom -5572.610125 kJ/mol
# Density = 2.027042 g / cm^3
# Si number density = 20.316662 Si / 1000 Ang^3
#
#
#
# Elastic Constant Matrix: (Units=GPa)
#
#
# Indices 1 2 3 4 5 6 
#
# 1 39.1084 20.6032 28.6164 0.0000 0.0000 0.0000
# 2 20.6032 113.6097 53.4932 0.0000 0.0000 0.0000
# 3 28.6164 53.4932 128.3428 0.0000 0.0000 0.0000
# 4 0.0000 0.0000 0.0000 18.5354 0.0000 0.0000
# 5 0.0000 0.0000 0.0000 0.0000 27.2940 0.0000
# 6 0.0000 0.0000 0.0000 0.0000 0.0000 24.3926
#
#
#
# Elastic Compliance Matrix: (Units=1/GPa)
#
#
# Indices 1 2 3 4 5 6 
#
# 1 0.031344 -0.002978 -0.005748 0.000000 0.000000 0.000000
# 2 -0.002978 0.011234 -0.004018 0.000000 0.000000 0.000000
# 3 -0.005748 -0.004018 0.010748 0.000000 0.000000 0.000000
# 4 0.000000 0.000000 0.000000 0.053951 0.000000 0.000000
# 5 0.000000 0.000000 0.000000 0.000000 0.036638 0.000000
# 6 0.000000 0.000000 0.000000 0.000000 0.000000 0.040996
#
#
# Mechanical properties :
#
#
# Convention : Reuss Voigt Hill
#
# Bulk Modulus (GPa) = 35.92133 54.05405 44.98769
# Shear Modulus (GPa) = 22.76043 25.93426 24.34735
#
# Velocity S-wave (km/s) = 3.35070 3.57669 3.46554
# Velocity P-wave (km/s) = 5.71740 6.61215 6.18099
#
# Compressibility (1/GPa) = 0.02783861
#
# Stress axis : x y z
#
# Youngs Moduli (GPa) = 31.90353 89.01387 93.04039
#
# Poissons Ratio (x) = 0.26509 0.53476
# Poissons Ratio (y) = 0.09501 0.37387
# Poissons Ratio (z) = 0.18337 0.35769
#
# Static dielectric constant tensor:
#      x y z
#    x 1.768690 0.000000 0.000000 
#    y 0.000000 1.706850 0.000000 
#    z 0.000000 0.000000 1.742470 
# 
# From -- ./inp_files/27650.got.cif
#   From: 2010.05.17/outbox.cif.g08.bks.cpg/sg54_14_cif.got.tgz:27650.got - 2010.06.03 13:09:01.
