data_PCOD9422124
_publ_section_title
;
Structure prediction by ZEFSAII (Michael W. Deem and Ramdas Pophale) SiO2 
 PCOD9422124
Probable space group: P C C A
;
_chemical_formula_sum "Si O2"
_cell_formula_units_Z 48
_cell_length_a 14.770600
_cell_length_b 9.651751
_cell_length_c 12.849760
_cell_angle_alpha 90.000000
_cell_angle_beta 90.000000
_cell_angle_gamma 90.000000
_cell_volume 1831.889455
_symmetry_space_group_name_H-M "P C C A"
_symmetry_group_IT_number 54
_symmetry_cell_setting 'orthorhombic'
loop_
_space_group_symop_operation_xyz
x,y,z
1/2-x,-y,z
1/2+x,-y,1/2-z
-x,y,1/2-z
-x,-y,-z
1/2+x,y,-z
1/2-x,y,1/2+z
x,-y,1/2+z
loop_
_atom_site_type_symbol
_atom_site_label
_atom_site_fract_x
_atom_site_fract_y
_atom_site_fract_z
Si Si1 0.846358 0.575374 0.960070
Si Si2 0.851414 0.946313 0.205048
Si Si3 0.409293 0.153800 0.515108
Si Si4 0.410299 0.226589 0.876481
Si Si5 0.031186 0.522498 0.351576
Si Si6 0.170150 0.113613 0.570419
O O1 0.750000 0.500000 0.949985
O O2 0.838070 0.738446 0.931398
O O3 0.889846 0.581106 0.075844
O O4 0.932479 0.501511 0.905021
O O5 0.902674 0.096519 0.201350
O O6 0.750000 0.000000 0.185066
O O7 0.889302 0.866582 0.106018
O O8 0.842891 0.852244 0.308433
O O9 0.501721 0.221870 0.550550
O O10 0.411128 0.998370 0.557458
O O11 0.422101 0.373775 0.821153
O O12 0.335248 0.211508 0.968978
O O13 0.000000 0.603685 0.250000
O O14 0.250000 0.000000 0.559992
#
# Coordination Sequence:
#
# PCOD9422124 Si02
#       6
#     8   8   8   8   8   8
#     4  10  24  44  69  94 128 173 218 274 325 383
#     4  10  21  35  57  93 123 160 204 253 316 388
#     4  10  21  38  58  91 120 162 211 247 321 379
#     4  10  21  36  62  84 120 163 199 259 314 380
#     4  10  24  46  65  97 128 168 225 271 325 393
#     4  10  21  36  58  91 127 160 201 256 317 384
#
# _framework density 26.202455
#
# number of rings (size 3 to 8) (size 9 to 14) (size 15 to 20)
#    0.000    2.000    0.000    4.000    9.333    2.667 
#    9.000    0.000    0.000    0.000    0.000    0.000 
#    0.000    0.000    0.000    0.000    0.000    0.000 
#
# Total GULP energy -267570.902098 kJ/mol
# GULP energy per Si atom -5574.393794 kJ/mol
# Density = 2.614282 g / cm^3
# Si number density = 26.202455 Si / 1000 Ang^3
#
#
#
# Elastic Constant Matrix: (Units=GPa)
#
#
# Indices 1 2 3 4 5 6 
#
# 1 112.2252 0.9666 -6.2685 0.0000 0.0000 0.0000
# 2 0.9666 77.3338 -23.4625 0.0000 0.0000 0.0000
# 3 -6.2685 -23.4625 104.1757 0.0000 0.0000 0.0000
# 4 0.0000 0.0000 0.0000 17.5427 0.0000 0.0000
# 5 0.0000 0.0000 0.0000 0.0000 21.4897 0.0000
# 6 0.0000 0.0000 0.0000 0.0000 0.0000 29.9626
#
#
#
# Elastic Compliance Matrix: (Units=1/GPa)
#
#
# Indices 1 2 3 4 5 6 
#
# 1 0.008941 0.000055 0.000550 0.000000 0.000000 0.000000
# 2 0.000055 0.013880 0.003129 0.000000 0.000000 0.000000
# 3 0.000550 0.003129 0.010337 0.000000 0.000000 0.000000
# 4 0.000000 0.000000 0.000000 0.057004 0.000000 0.000000
# 5 0.000000 0.000000 0.000000 0.000000 0.046534 0.000000
# 6 0.000000 0.000000 0.000000 0.000000 0.000000 0.033375
#
#
# Mechanical properties :
#
#
# Convention : Reuss Voigt Hill
#
# Bulk Modulus (GPa) = 24.61375 26.24509 25.42942
# Shear Modulus (GPa) = 28.38603 35.29893 31.84248
#
# Velocity S-wave (km/s) = 3.29498 3.67435 3.48982
# Velocity P-wave (km/s) = 4.88773 5.29520 5.09554
#
# Compressibility (1/GPa) = 0.04062770
#
# Stress axis : x y z
#
# Youngs Moduli (GPa) = 111.84528 72.04775 96.73913
#
# Poissons Ratio (x) = -0.00398 -0.05325
# Poissons Ratio (y) = -0.00618 -0.30273
# Poissons Ratio (z) = -0.06156 -0.22546
#
# Static dielectric constant tensor:
#      x y z
#    x 2.290510 0.000000 0.000000 
#    y 0.000000 2.238590 0.000000 
#    z 0.000000 0.000000 2.127530 
# 
# From -- ./inp_files/13409.got.cif
#   From: 2010.05.17/outbox.cif.g08.bks.cpg/sg54_7_cif.got.tgz:13409.got - 2010.06.03 13:09:01.
