data_PCOD9422528
_publ_section_title
;
Structure prediction by ZEFSAII (Michael W. Deem and Ramdas Pophale) SiO2 
 PCOD9422528
Probable space group: P C C A
;
_chemical_formula_sum "Si O2"
_cell_formula_units_Z 56
_cell_length_a 14.421276
_cell_length_b 11.242916
_cell_length_c 15.438480
_cell_angle_alpha 90.000000
_cell_angle_beta 90.000000
_cell_angle_gamma 90.000000
_cell_volume 2503.151837
_symmetry_space_group_name_H-M "P C C A"
_symmetry_group_IT_number 54
_symmetry_cell_setting 'orthorhombic'
loop_
_space_group_symop_operation_xyz
x,y,z
1/2-x,-y,z
1/2+x,-y,1/2-z
-x,y,1/2-z
-x,-y,-z
1/2+x,y,-z
1/2-x,y,1/2+z
x,-y,1/2+z
loop_
_atom_site_type_symbol
_atom_site_label
_atom_site_fract_x
_atom_site_fract_y
_atom_site_fract_z
Si Si1 0.500000 0.444343 0.250000
Si Si2 0.250000 0.500000 0.956015
Si Si3 0.119869 0.436789 0.603070
Si Si4 0.852784 0.707406 0.134988
Si Si5 0.154405 0.955338 0.065644
Si Si6 0.936786 0.824667 0.831906
Si Si7 0.234625 0.239066 0.697887
Si Si8 0.506777 0.229925 0.493036
O O1 0.560575 0.505083 0.324509
O O2 0.571527 0.364638 0.193443
O O3 0.225918 0.384124 0.899574
O O4 0.335692 0.502665 0.022664
O O5 0.196759 0.362089 0.656760
O O6 0.057300 0.338289 0.554826
O O7 0.803940 0.787052 0.206853
O O8 0.908888 0.776036 0.059651
O O9 0.195332 0.862704 0.135507
O O10 0.076187 0.882154 0.014492
O O11 0.250000 0.000000 0.019815
O O12 0.101230 0.059832 0.116116
O O13 0.844274 0.760069 0.800961
O O14 0.000000 0.853933 0.750000
O O15 0.988843 0.751151 0.906285
#
# Coordination Sequence:
#
# PCOD9422528 Si02
#       8
#     4   4   8   8   8   8   8   8
#     4   8  18  38  58  88 108 154 210 244 314 380
#     4  12  24  36  60  94 126 158 220 270 326 376
#     4   9  20  39  65  83 120 164 205 259 310 387
#     4  10  22  39  65  87 118 172 217 258 318 397
#     4   9  20  40  63  93 126 162 214 255 302 387
#     4  11  23  36  58  96 129 154 204 263 310 366
#     4   9  20  41  62  85 125 167 206 252 319 376
#     4  10  21  40  65  89 124 171 207 254 329 385
#
# _framework density 22.371796
#
# number of rings (size 3 to 8) (size 9 to 14) (size 15 to 20)
#    0.000    2.286    0.000    2.143    4.000    4.571 
#    0.000    2.143    6.286    0.000    0.000    0.000 
#    0.000    0.000    0.000    0.000    0.000    0.000 
#
# Total GULP energy -312423.590474 kJ/mol
# GULP energy per Si atom -5578.992687 kJ/mol
# Density = 2.232088 g / cm^3
# Si number density = 22.371796 Si / 1000 Ang^3
#
#
#
# Elastic Constant Matrix: (Units=GPa)
#
#
# Indices 1 2 3 4 5 6 
#
# 1 106.6656 19.5547 39.4040 0.0000 0.0000 0.0000
# 2 19.5547 38.1192 4.8045 0.0000 0.0000 0.0000
# 3 39.4040 4.8045 74.8010 0.0000 0.0000 0.0000
# 4 0.0000 0.0000 0.0000 7.8390 0.0000 0.0000
# 5 0.0000 0.0000 0.0000 0.0000 30.7585 0.0000
# 6 0.0000 0.0000 0.0000 0.0000 0.0000 11.2081
#
#
#
# Elastic Compliance Matrix: (Units=1/GPa)
#
#
# Indices 1 2 3 4 5 6 
#
# 1 0.012781 -0.005754 -0.006363 0.000000 0.000000 0.000000
# 2 -0.005754 0.029038 0.001166 0.000000 0.000000 0.000000
# 3 -0.006363 0.001166 0.016646 0.000000 0.000000 0.000000
# 4 0.000000 0.000000 0.000000 0.127567 0.000000 0.000000
# 5 0.000000 0.000000 0.000000 0.000000 0.032511 0.000000
# 6 0.000000 0.000000 0.000000 0.000000 0.000000 0.089221
#
#
# Mechanical properties :
#
#
# Convention : Reuss Voigt Hill
#
# Bulk Modulus (GPa) = 27.35045 38.56803 32.95924
# Shear Modulus (GPa) = 14.62609 20.34929 17.48769
#
# Velocity S-wave (km/s) = 2.55967 3.01922 2.79890
# Velocity P-wave (km/s) = 4.58125 5.42506 5.02091
#
# Compressibility (1/GPa) = 0.03656247
#
# Stress axis : x y z
#
# Youngs Moduli (GPa) = 78.24341 34.43712 60.07503
#
# Poissons Ratio (x) = 0.19816 0.38226
# Poissons Ratio (y) = 0.45024 -0.07006
# Poissons Ratio (z) = 0.49787 -0.04016
#
# Static dielectric constant tensor:
#      x y z
#    x 1.876360 0.000000 0.000000 
#    y 0.000000 1.856890 0.000000 
#    z 0.000000 0.000000 1.711540 
# 
# From -- ./inp_files/12773.got.cif
#   From: 2010.05.17/outbox.cif.g08.bks.cpg/sg54_7_cif.got.tgz:12773.got - 2010.06.03 13:09:01.
