data_PCOD9422239
_publ_section_title
;
Structure prediction by ZEFSAII (Michael W. Deem and Ramdas Pophale) SiO2 
 PCOD9422239
Probable space group: P C C A
;
_chemical_formula_sum "Si O2"
_cell_formula_units_Z 48
_cell_length_a 7.702993
_cell_length_b 18.403014
_cell_length_c 14.954617
_cell_angle_alpha 90.000000
_cell_angle_beta 90.000000
_cell_angle_gamma 90.000000
_cell_volume 2119.940904
_symmetry_space_group_name_H-M "P C C A"
_symmetry_group_IT_number 54
_symmetry_cell_setting 'orthorhombic'
loop_
_space_group_symop_operation_xyz
x,y,z
1/2-x,-y,z
1/2+x,-y,1/2-z
-x,y,1/2-z
-x,-y,-z
1/2+x,y,-z
1/2-x,y,1/2+z
x,-y,1/2+z
loop_
_atom_site_type_symbol
_atom_site_label
_atom_site_fract_x
_atom_site_fract_y
_atom_site_fract_z
Si Si1 0.883786 0.693148 0.568896
Si Si2 0.217724 0.675660 0.130522
Si Si3 0.500000 0.949337 0.750000
Si Si4 0.750000 0.000000 0.107868
Si Si5 0.192561 0.844282 0.463701
Si Si6 0.666503 0.167740 0.355638
Si Si7 0.300643 0.419177 0.784716
O O1 0.878595 0.670690 0.464372
O O2 0.801706 0.774179 0.569807
O O3 0.782798 0.637943 0.634190
O O4 0.080592 0.686428 0.602874
O O5 0.170517 0.750835 0.180342
O O6 0.196053 0.609733 0.198263
O O7 0.579650 0.994069 0.669749
O O8 0.347556 0.895187 0.716578
O O9 0.736727 0.924863 0.054967
O O10 0.183450 0.839365 0.571024
O O11 0.008570 0.839579 0.414597
O O12 0.250000 0.500000 0.811519
O O13 0.500000 0.419605 0.750000
#
# Coordination Sequence:
#
# PCOD9422239 Si02
#       7
#     8   8   4   4   8   8   8
#     4  10  21  40  62  90 120 159 203 244 297 359
#     4  10  21  39  63  91 118 159 202 246 297 358
#     4  10  24  38  54  88 120 148 206 246 304 352
#     4  10  24  38  54  86 118 156 204 246 302 350
#     4  10  21  38  58  84 115 156 202 244 298 356
#     4  10  21  37  60  86 114 154 202 246 296 353
#     4  10  24  41  61  92 124 158 198 241 303 359
#
# _framework density 22.642140999999999
#
# number of rings (size 3 to 8) (size 9 to 14) (size 15 to 20)
#    0.000    2.000    0.000    4.000    4.667    9.333 
#    1.500    3.333    0.000    0.000    0.000    0.000 
#    0.000    0.000    0.000    0.000    0.000    0.000 
#
# Total GULP energy -268269.273996 kJ/mol
# GULP energy per Si atom -5588.943208 kJ/mol
# Density = 2.259061 g / cm^3
# Si number density = 22.642141 Si / 1000 Ang^3
#
#
#
# Elastic Constant Matrix: (Units=GPa)
#
#
# Indices 1 2 3 4 5 6 
#
# 1 36.6353 9.9497 3.2070 0.0000 0.0000 0.0000
# 2 9.9497 160.0972 56.2252 0.0000 0.0000 0.0000
# 3 3.2070 56.2252 60.6106 0.0000 0.0000 0.0000
# 4 0.0000 0.0000 0.0000 29.0282 0.0000 0.0000
# 5 0.0000 0.0000 0.0000 0.0000 27.2499 0.0000
# 6 0.0000 0.0000 0.0000 0.0000 0.0000 29.6594
#
#
#
# Elastic Compliance Matrix: (Units=1/GPa)
#
#
# Indices 1 2 3 4 5 6 
#
# 1 0.027766 -0.001794 0.000195 0.000000 0.000000 0.000000
# 2 -0.001794 0.009380 -0.008607 0.000000 0.000000 0.000000
# 3 0.000195 -0.008607 0.024472 0.000000 0.000000 0.000000
# 4 0.000000 0.000000 0.000000 0.034449 0.000000 0.000000
# 5 0.000000 0.000000 0.000000 0.000000 0.036697 0.000000
# 6 0.000000 0.000000 0.000000 0.000000 0.000000 0.033716
#
#
# Mechanical properties :
#
#
# Convention : Reuss Voigt Hill
#
# Bulk Modulus (GPa) = 24.26733 44.01187 34.13960
# Shear Modulus (GPa) = 24.92162 29.71824 27.31993
#
# Velocity S-wave (km/s) = 3.32124 3.62680 3.47738
# Velocity P-wave (km/s) = 5.04466 6.08428 5.58870
#
# Compressibility (1/GPa) = 0.04120766
#
# Stress axis : x y z
#
# Youngs Moduli (GPa) = 36.01498 106.60599 40.86233
#
# Poissons Ratio (x) = 0.19127 -0.00798
# Poissons Ratio (y) = 0.06462 0.35169
# Poissons Ratio (z) = -0.00703 0.91753
#
# Static dielectric constant tensor:
#      x y z
#    x 1.917200 0.000000 0.000000 
#    y 0.000000 1.815040 0.000000 
#    z 0.000000 0.000000 1.833200 
# 
# From -- ./inp_files/11778.got.cif
#   From: 2010.05.17/outbox.cif.g08.bks.cpg/sg54_6_cif.got.tgz:11778.got - 2010.06.03 13:09:01.
