data_PCOD9422423
_publ_section_title
;
Structure prediction by ZEFSAII (Michael W. Deem and Ramdas Pophale) SiO2 
 PCOD9422423
Probable space group: P C C A
;
_chemical_formula_sum "Si O2"
_cell_formula_units_Z 56
_cell_length_a 14.600942
_cell_length_b 14.406531
_cell_length_c 12.618914
_cell_angle_alpha 90.000000
_cell_angle_beta 90.000000
_cell_angle_gamma 90.000000
_cell_volume 2654.374976
_symmetry_space_group_name_H-M "P C C A"
_symmetry_group_IT_number 54
_symmetry_cell_setting 'orthorhombic'
loop_
_space_group_symop_operation_xyz
x,y,z
1/2-x,-y,z
1/2+x,-y,1/2-z
-x,y,1/2-z
-x,-y,-z
1/2+x,y,-z
1/2-x,y,1/2+z
x,-y,1/2+z
loop_
_atom_site_type_symbol
_atom_site_label
_atom_site_fract_x
_atom_site_fract_y
_atom_site_fract_z
Si Si1 0.058901 0.526907 0.155726
Si Si2 0.583449 0.177969 0.965255
Si Si3 0.903546 0.383132 0.509907
Si Si4 0.781687 0.800358 0.773237
Si Si5 0.401837 0.116753 0.298778
Si Si6 0.213279 0.394073 0.788510
Si Si7 0.070609 0.899898 0.840716
O O1 0.114907 0.455512 0.083850
O O2 0.124490 0.599795 0.212950
O O3 0.000000 0.479428 0.250000
O O4 0.985883 0.575929 0.080137
O O5 0.562831 0.287044 0.961364
O O6 0.663313 0.166556 0.877821
O O7 0.492524 0.117026 0.942569
O O8 0.612812 0.157341 0.084430
O O9 0.819663 0.371508 0.591707
O O10 0.681291 0.845646 0.771502
O O11 0.774061 0.689511 0.757063
O O12 0.838706 0.840131 0.673256
O O13 0.500000 0.144470 0.250000
O O14 0.404500 0.005664 0.314368
O O15 0.250000 0.500000 0.789428
O O16 0.000000 0.866252 0.750000
#
# Coordination Sequence:
#
# PCOD9422423 Si02
#       7
#     8   8   8   8   8   8   8
#     4   9  21  39  62  87 124 173 217 275 327 393
#     4  11  23  41  69  98 131 175 228 273 345 404
#     4  10  21  39  62  93 126 168 229 269 335 403
#     4  11  24  42  67  97 136 175 222 275 335 409
#     4  11  24  44  69  98 134 173 223 285 340 403
#     4  11  23  39  61  91 137 173 219 275 335 393
#     4   9  22  44  67  96 131 170 220 278 336 401
#
# _framework density 21.097244
#
# number of rings (size 3 to 8) (size 9 to 14) (size 15 to 20)
#    0.000    1.714    1.429    1.714    2.000    8.000 
#    0.000    4.286    0.000    0.000    0.000    0.000 
#    0.000    0.000    0.000    0.000    0.000    0.000 
#
# Total GULP energy -312536.231699 kJ/mol
# GULP energy per Si atom -5581.004137 kJ/mol
# Density = 2.104923 g / cm^3
# Si number density = 21.097244 Si / 1000 Ang^3
#
#
#
# Elastic Constant Matrix: (Units=GPa)
#
#
# Indices 1 2 3 4 5 6 
#
# 1 99.0907 48.8485 39.5367 0.0000 0.0000 0.0000
# 2 48.8485 84.8923 14.5668 0.0000 0.0000 0.0000
# 3 39.5367 14.5668 86.6907 0.0000 0.0000 0.0000
# 4 0.0000 0.0000 0.0000 16.0228 0.0000 0.0000
# 5 0.0000 0.0000 0.0000 0.0000 24.1470 0.0000
# 6 0.0000 0.0000 0.0000 0.0000 0.0000 24.3694
#
#
#
# Elastic Compliance Matrix: (Units=1/GPa)
#
#
# Indices 1 2 3 4 5 6 
#
# 1 0.016820 -0.008610 -0.006224 0.000000 0.000000 0.000000
# 2 -0.008610 0.016537 0.001148 0.000000 0.000000 0.000000
# 3 -0.006224 0.001148 0.014181 0.000000 0.000000 0.000000
# 4 0.000000 0.000000 0.000000 0.062411 0.000000 0.000000
# 5 0.000000 0.000000 0.000000 0.000000 0.041413 0.000000
# 6 0.000000 0.000000 0.000000 0.000000 0.000000 0.041035
#
#
# Mechanical properties :
#
#
# Convention : Reuss Voigt Hill
#
# Bulk Modulus (GPa) = 49.59043 52.95307 51.27175
# Shear Modulus (GPa) = 22.07586 24.08927 23.08256
#
# Velocity S-wave (km/s) = 3.23830 3.38275 3.31131
# Velocity P-wave (km/s) = 6.12689 6.35699 6.24300
#
# Compressibility (1/GPa) = 0.02016518
#
# Stress axis : x y z
#
# Youngs Moduli (GPa) = 59.45367 60.46972 70.51708
#
# Poissons Ratio (x) = 0.52067 0.43891
# Poissons Ratio (y) = 0.51192 -0.08096
# Poissons Ratio (z) = 0.37005 -0.06943
#
# Static dielectric constant tensor:
#      x y z
#    x 1.795390 0.000000 0.000000 
#    y 0.000000 1.762370 0.000000 
#    z 0.000000 0.000000 1.795770 
# 
# From -- ./inp_files/8454.got.cif
#   From: 2010.05.17/outbox.cif.g08.bks.cpg/sg54_5_cif.got.tgz:8454.got - 2010.06.03 13:09:01.
