data_PCOD9422586
_publ_section_title
;
Structure prediction by ZEFSAII (Michael W. Deem and Ramdas Pophale) SiO2 
 PCOD9422586
Probable space group: P C C A
;
_chemical_formula_sum "Si O2"
_cell_formula_units_Z 40
_cell_length_a 14.148478
_cell_length_b 13.624093
_cell_length_c 8.017162
_cell_angle_alpha 90.000000
_cell_angle_beta 90.000000
_cell_angle_gamma 90.000000
_cell_volume 1545.389591
_symmetry_space_group_name_H-M "P C C A"
_symmetry_group_IT_number 54
_symmetry_cell_setting 'orthorhombic'
loop_
_space_group_symop_operation_xyz
x,y,z
1/2-x,-y,z
1/2+x,-y,1/2-z
-x,y,1/2-z
-x,-y,-z
1/2+x,y,-z
1/2-x,y,1/2+z
x,-y,1/2+z
loop_
_atom_site_type_symbol
_atom_site_label
_atom_site_fract_x
_atom_site_fract_y
_atom_site_fract_z
Si Si1 0.863887 0.400225 0.027530
Si Si2 0.895126 0.191925 0.110374
Si Si3 0.566365 0.175395 0.085377
Si Si4 0.727899 0.111112 0.306778
Si Si5 0.856135 0.612803 0.131617
O O1 0.867773 0.385340 0.830047
O O2 0.912667 0.308175 0.114615
O O3 0.897167 0.509480 0.069919
O O4 0.754491 0.391106 0.085093
O O5 0.827444 0.160389 0.260125
O O6 0.827740 0.168218 0.950669
O O7 0.995441 0.143193 0.062550
O O8 0.500000 0.175554 0.250000
O O9 0.657335 0.114195 0.145828
O O10 0.600552 0.287401 0.061882
O O11 0.750000 0.000000 0.350536
#
# Coordination Sequence:
#
# PCOD9422586 Si02
#       5
#     8   8   8   8   8
#     4  11  20  36  64  91 130 176 210 258 312 386
#     4  11  22  43  67  90 132 168 207 269 324 377
#     4  10  21  41  64  92 132 169 204 268 325 369
#     4  11  23  42  70  93 122 168 217 262 327 386
#     4  11  21  37  63  94 129 172 222 249 319 381
#
# _framework density 25.883441999999999
#
# number of rings (size 3 to 8) (size 9 to 14) (size 15 to 20)
#    0.000    1.200    6.000    3.000    0.000    1.600 
#    0.000    3.000    0.000    0.000    0.000    0.000 
#    0.000    0.000    0.000    0.000    0.000    0.000 
#
# Total GULP energy -224181.429421 kJ/mol
# GULP energy per Si atom -5604.535736 kJ/mol
# Density = 2.582453 g / cm^3
# Si number density = 25.883442 Si / 1000 Ang^3
#
#
#
# Elastic Constant Matrix: (Units=GPa)
#
#
# Indices 1 2 3 4 5 6 
#
# 1 147.1108 11.7746 32.0712 0.0000 0.0000 0.0000
# 2 11.7746 119.9842 30.5081 0.0000 0.0000 0.0000
# 3 32.0712 30.5081 94.8220 0.0000 0.0000 0.0000
# 4 0.0000 0.0000 0.0000 28.3659 0.0000 0.0000
# 5 0.0000 0.0000 0.0000 0.0000 34.6247 0.0000
# 6 0.0000 0.0000 0.0000 0.0000 0.0000 234.4758
#
#
#
# Elastic Compliance Matrix: (Units=1/GPa)
#
#
# Indices 1 2 3 4 5 6 
#
# 1 0.007340 -0.000097 -0.002451 0.000000 0.000000 0.000000
# 2 -0.000097 0.009078 -0.002888 0.000000 0.000000 0.000000
# 3 -0.002451 -0.002888 0.012304 0.000000 0.000000 0.000000
# 4 0.000000 0.000000 0.000000 0.035254 0.000000 0.000000
# 5 0.000000 0.000000 0.000000 0.000000 0.028881 0.000000
# 6 0.000000 0.000000 0.000000 0.000000 0.000000 0.004265
#
#
# Mechanical properties :
#
#
# Convention : Reuss Voigt Hill
#
# Bulk Modulus (GPa) = 56.02322 56.73610 56.37966
# Shear Modulus (GPa) = 43.88097 78.66415 61.27256
#
# Velocity S-wave (km/s) = 4.12191 5.51885 4.87072
# Velocity P-wave (km/s) = 6.65920 7.91060 7.31172
#
# Compressibility (1/GPa) = 0.01784974
#
# Stress axis : x y z
#
# Youngs Moduli (GPa) = 136.24429 110.15288 81.27199
#
# Poissons Ratio (x) = 0.01068 0.19922
# Poissons Ratio (y) = 0.01322 0.23472
# Poissons Ratio (z) = 0.33397 0.31813
#
# Static dielectric constant tensor:
#      x y z
#    x 2.036870 0.000000 0.000000 
#    y 0.000000 1.962600 0.000000 
#    z 0.000000 0.000000 2.092460 
# 
# From -- ./inp_files/3425.got.cif
#   From: 2010.05.17/outbox.cif.g08.bks.cpg/sg54_2_cif.got.tgz:3425.got - 2010.06.03 13:09:01.
