data_PCOD9422946
_publ_section_title
;
Structure prediction by ZEFSAII (Michael W. Deem and Ramdas Pophale) SiO2 
 PCOD9422946
Probable space group: P C C A
;
_chemical_formula_sum "Si O2"
_cell_formula_units_Z 56
_cell_length_a 32.124331
_cell_length_b 6.190191
_cell_length_c 14.317429
_cell_angle_alpha 90.000000
_cell_angle_beta 90.000000
_cell_angle_gamma 90.000000
_cell_volume 2847.103005
_symmetry_space_group_name_H-M "P C C A"
_symmetry_group_IT_number 54
_symmetry_cell_setting 'orthorhombic'
loop_
_space_group_symop_operation_xyz
x,y,z
1/2-x,-y,z
1/2+x,-y,1/2-z
-x,y,1/2-z
-x,-y,-z
1/2+x,y,-z
1/2-x,y,1/2+z
x,-y,1/2+z
loop_
_atom_site_type_symbol
_atom_site_label
_atom_site_fract_x
_atom_site_fract_y
_atom_site_fract_z
Si Si1 0.562269 0.999088 0.173844
Si Si2 0.471578 0.393778 0.420738
Si Si3 0.113761 0.611995 0.912219
Si Si4 0.323914 0.226425 0.068184
Si Si5 0.859430 0.261510 0.724996
Si Si6 0.250000 0.500000 0.017155
Si Si7 0.500000 0.689021 0.250000
Si Si8 0.793629 0.117188 0.575894
O O1 0.530675 0.141266 0.109614
O O2 0.594364 0.163555 0.219986
O O3 0.590116 0.832944 0.114077
O O4 0.538681 0.854725 0.250581
O O5 0.500000 0.500000 0.500000
O O6 0.423546 0.452671 0.442559
O O7 0.487870 0.529714 0.332694
O O8 0.135741 0.499417 0.822343
O O9 0.145865 0.653093 0.994982
O O10 0.343883 0.234540 0.169854
O O11 0.279685 0.346286 0.075711
O O12 0.313220 0.002672 0.014595
O O13 0.827574 0.132099 0.657384
O O14 0.279441 0.645592 0.953305
O O15 0.750000 0.000000 0.602075
#
# Coordination Sequence:
#
# PCOD9422946 Si02
#       8
#     8   8   8   8   8   4   4   8
#     4  10  22  41  63  92 136 166 220 271 326 395
#     4  10  23  40  65  94 129 173 217 269 330 388
#     4  10  22  41  61  94 131 170 219 273 324 391
#     4  11  23  40  65  93 127 174 218 265 335 390
#     4  11  23  41  66  94 129 175 219 275 334 393
#     4  10  22  42  62  92 134 166 216 278 318 406
#     4  10  22  40  62  92 132 170 218 268 324 394
#     4  10  22  41  64  91 133 169 218 278 325 392
#
# _framework density 19.669115000000001
#
# number of rings (size 3 to 8) (size 9 to 14) (size 15 to 20)
#    0.000    1.714    2.857    0.429    0.000   11.429 
#    0.000    0.000    0.000    0.000    0.000    0.000 
#    0.000    0.000    0.000    0.000    0.000    0.000 
#
# Total GULP energy -312022.081323 kJ/mol
# GULP energy per Si atom -5571.822881 kJ/mol
# Density = 1.962435 g / cm^3
# Si number density = 19.669115 Si / 1000 Ang^3
#
#
#
# Elastic Constant Matrix: (Units=GPa)
#
#
# Indices 1 2 3 4 5 6 
#
# 1 84.7873 24.5124 51.7293 0.0000 0.0000 0.0000
# 2 24.5124 92.4341 45.6317 0.0000 0.0000 0.0000
# 3 51.7293 45.6317 109.6904 0.0000 0.0000 0.0000
# 4 0.0000 0.0000 0.0000 12.6999 0.0000 0.0000
# 5 0.0000 0.0000 0.0000 0.0000 32.7409 0.0000
# 6 0.0000 0.0000 0.0000 0.0000 0.0000 35.8142
#
#
#
# Elastic Compliance Matrix: (Units=1/GPa)
#
#
# Indices 1 2 3 4 5 6 
#
# 1 0.016592 -0.000676 -0.007543 0.000000 0.000000 0.000000
# 2 -0.000676 0.013642 -0.005356 0.000000 0.000000 0.000000
# 3 -0.007543 -0.005356 0.014902 0.000000 0.000000 0.000000
# 4 0.000000 0.000000 0.000000 0.078741 0.000000 0.000000
# 5 0.000000 0.000000 0.000000 0.000000 0.030543 0.000000
# 6 0.000000 0.000000 0.000000 0.000000 0.000000 0.027922
#
#
# Mechanical properties :
#
#
# Convention : Reuss Voigt Hill
#
# Bulk Modulus (GPa) = 55.60295 58.96207 57.28251
# Shear Modulus (GPa) = 23.20309 27.25355 25.22832
#
# Velocity S-wave (km/s) = 3.43836 3.72640 3.58528
# Velocity P-wave (km/s) = 6.64030 6.96827 6.80626
#
# Compressibility (1/GPa) = 0.01798466
#
# Stress axis : x y z
#
# Youngs Moduli (GPa) = 60.27008 73.30278 67.10390
#
# Poissons Ratio (x) = 0.04956 0.50619
# Poissons Ratio (y) = 0.04075 0.35943
# Poissons Ratio (z) = 0.45464 0.39263
#
# Static dielectric constant tensor:
#      x y z
#    x 1.702580 0.000000 0.000000 
#    y 0.000000 1.758910 0.000000 
#    z 0.000000 0.000000 1.475280 
# 
# From -- ./inp_files/15380.got.cif
#   From: 2010.05.17/outbox.cif.g08.bks.cpg/sg54_8_cif.got.tgz:15380.got - 2010.06.03 13:09:01.
