data_PCOD9422857
_publ_section_title
;
Structure prediction by ZEFSAII (Michael W. Deem and Ramdas Pophale) SiO2 
 PCOD9422857
Probable space group: P C C A
;
_chemical_formula_sum "Si O2"
_cell_formula_units_Z 40
_cell_length_a 9.203514
_cell_length_b 7.687829
_cell_length_c 23.462166
_cell_angle_alpha 90.000000
_cell_angle_beta 90.000000
_cell_angle_gamma 90.000000
_cell_volume 1660.066537
_symmetry_space_group_name_H-M "P C C A"
_symmetry_group_IT_number 54
_symmetry_cell_setting 'orthorhombic'
loop_
_space_group_symop_operation_xyz
x,y,z
1/2-x,-y,z
1/2+x,-y,1/2-z
-x,y,1/2-z
-x,-y,-z
1/2+x,y,-z
1/2-x,y,1/2+z
x,-y,1/2+z
loop_
_atom_site_type_symbol
_atom_site_label
_atom_site_fract_x
_atom_site_fract_y
_atom_site_fract_z
Si Si1 0.087403 0.778620 0.306690
Si Si2 0.420875 0.795540 0.306740
Si Si3 0.203523 0.305842 0.499496
Si Si4 0.448852 0.804788 0.932702
Si Si5 0.870795 0.872783 0.898336
O O1 0.256967 0.729649 0.306720
O O2 0.028725 0.726873 0.369284
O O3 0.000000 0.723123 0.250000
O O4 0.083705 0.991460 0.306868
O O5 0.500000 0.737095 0.250000
O O6 0.529465 0.756226 0.358372
O O7 0.250000 0.500000 0.486902
O O8 0.279228 0.197656 0.448792
O O9 0.279254 0.235132 0.556869
O O10 0.036008 0.290821 0.516745
O O11 0.520558 0.994681 0.929911
O O12 0.750000 0.000000 0.867673
#
# Coordination Sequence:
#
# PCOD9422857 Si02
#       5
#     8   8   8   8   8
#     4   9  19  34  55  86 121 150 191 245 309 351
#     4   9  18  29  57  87 118 149 192 245 302 355
#     4  11  23  39  60  84 119 160 203 245 304 359
#     4  10  22  39  60  86 119 157 197 254 299 364
#     4   9  20  36  59  89 120 154 199 253 303 359
#
# _framework density 24.095420000000001
#
# number of rings (size 3 to 8) (size 9 to 14) (size 15 to 20)
#    0.000    2.400    0.000    1.200   14.000    0.000 
#    7.200    0.000    0.000    2.400    0.000    0.000 
#    0.000    0.000    0.000    0.000    0.000    0.000 
#
# Total GULP energy -223466.706035 kJ/mol
# GULP energy per Si atom -5586.667651 kJ/mol
# Density = 2.404058 g / cm^3
# Si number density = 24.095420 Si / 1000 Ang^3
#
#
#
# Elastic Constant Matrix: (Units=GPa)
#
#
# Indices 1 2 3 4 5 6 
#
# 1 148.1277 11.4290 53.9724 0.0000 0.0000 0.0000
# 2 11.4290 49.0246 -4.8514 0.0000 0.0000 0.0000
# 3 53.9724 -4.8514 99.4391 0.0000 0.0000 0.0000
# 4 0.0000 0.0000 0.0000 -17.6812 0.0000 0.0000
# 5 0.0000 0.0000 0.0000 0.0000 46.2364 0.0000
# 6 0.0000 0.0000 0.0000 0.0000 0.0000 14.5622
#
#
#
# Elastic Compliance Matrix: (Units=1/GPa)
#
#
# Indices 1 2 3 4 5 6 
#
# 1 0.008712 -0.002511 -0.004851 0.000000 0.000000 0.000000
# 2 -0.002511 0.021221 0.002398 0.000000 0.000000 0.000000
# 3 -0.004851 0.002398 0.012807 0.000000 0.000000 0.000000
# 4 0.000000 0.000000 0.000000 -0.056557 0.000000 0.000000
# 5 0.000000 0.000000 0.000000 0.000000 0.021628 0.000000
# 6 0.000000 0.000000 0.000000 0.000000 0.000000 0.068671
#
#
# Mechanical properties :
#
#
# Convention : Reuss Voigt Hill
#
# Bulk Modulus (GPa) = 30.47741 46.41017 38.44379
# Shear Modulus (GPa) = 51.36274 24.35955 37.86114
#
# Velocity S-wave (km/s) = 4.62198 3.18301 3.96826
# Velocity P-wave (km/s) = 6.41558 5.72814 6.08158
#
# Compressibility (1/GPa) = 0.03281119
#
# Stress axis : x y z
#
# Youngs Moduli (GPa) = 114.77998 47.12388 78.08510
#
# Poissons Ratio (x) = 0.11834 0.37881
# Poissons Ratio (y) = 0.28823 -0.18727
# Poissons Ratio (z) = 0.55683 -0.11302
#
# Static dielectric constant tensor:
#      x y z
#    x 1.833410 0.000000 0.000000 
#    y 0.000000 1.964650 0.000000 
#    z 0.000000 0.000000 1.943370 
# 
# From -- ./inp_files/23231.got.cif
#   From: 2010.05.17/outbox.cif.g08.bks.cpg/sg54_12_cif.got.tgz:23231.got - 2010.06.03 13:09:01.
