data_PCOD9422444
_publ_section_title
;
Structure prediction by ZEFSAII (Michael W. Deem and Ramdas Pophale) SiO2 
 PCOD9422444
Probable space group: P C C A
;
_chemical_formula_sum "Si O2"
_cell_formula_units_Z 36
_cell_length_a 7.735509
_cell_length_b 14.805249
_cell_length_c 15.797514
_cell_angle_alpha 90.000000
_cell_angle_beta 90.000000
_cell_angle_gamma 90.000000
_cell_volume 1809.228251
_symmetry_space_group_name_H-M "P C C A"
_symmetry_group_IT_number 54
_symmetry_cell_setting 'orthorhombic'
loop_
_space_group_symop_operation_xyz
x,y,z
1/2-x,-y,z
1/2+x,-y,1/2-z
-x,y,1/2-z
-x,-y,-z
1/2+x,y,-z
1/2-x,y,1/2+z
x,-y,1/2+z
loop_
_atom_site_type_symbol
_atom_site_label
_atom_site_fract_x
_atom_site_fract_y
_atom_site_fract_z
Si Si1 0.500000 0.123969 0.250000
Si Si2 0.673566 0.597772 0.693038
Si Si3 0.634324 0.813552 0.411875
Si Si4 0.525966 0.246393 0.097286
Si Si5 0.750000 0.000000 0.857963
Si Si6 0.500000 0.715349 0.250000
O O1 0.586925 0.186371 0.178037
O O2 0.629119 0.059526 0.298812
O O3 0.750000 0.500000 0.672163
O O4 0.500000 0.590207 0.750000
O O5 0.607411 0.655991 0.613347
O O6 0.829966 0.652801 0.737826
O O7 0.573131 0.787953 0.504931
O O8 0.520602 0.776921 0.333922
O O9 0.819603 0.765286 0.397551
O O10 0.651698 0.922333 0.409596
#
# Coordination Sequence:
#
# PCOD9422444 Si02
#       6
#     4   8   8   8   4   4
#     4  10  21  39  64  88 138 174 230 287 333 400
#     4  12  23  44  72 103 134 176 230 277 345 423
#     4  11  24  41  67  97 141 187 229 285 340 400
#     4  11  23  42  63  97 139 180 225 286 344 402
#     4  10  22  38  62  98 130 186 244 272 330 400
#     4  12  23  43  72  98 140 186 222 283 357 400
#
# _framework density 19.897987000000001
#
# number of rings (size 3 to 8) (size 9 to 14) (size 15 to 20)
#    0.000    0.889    4.444    3.333    0.000    6.222 
#    0.000    5.556    0.000    0.000    0.000    0.000 
#    0.000    0.000    0.000    0.000    0.000    0.000 
#
# Total GULP energy -201004.454197 kJ/mol
# GULP energy per Si atom -5583.457061 kJ/mol
# Density = 1.985270 g / cm^3
# Si number density = 19.897987 Si / 1000 Ang^3
#
#
#
# Elastic Constant Matrix: (Units=GPa)
#
#
# Indices 1 2 3 4 5 6 
#
# 1 102.2587 52.6616 35.1160 0.0000 0.0000 0.0000
# 2 52.6616 161.1023 92.0884 0.0000 0.0000 0.0000
# 3 35.1160 92.0884 164.9383 0.0000 0.0000 0.0000
# 4 0.0000 0.0000 0.0000 20.4052 0.0000 0.0000
# 5 0.0000 0.0000 0.0000 0.0000 13.8080 0.0000
# 6 0.0000 0.0000 0.0000 0.0000 0.0000 26.5883
#
#
#
# Elastic Compliance Matrix: (Units=1/GPa)
#
#
# Indices 1 2 3 4 5 6 
#
# 1 0.011790 -0.003553 -0.000526 0.000000 0.000000 0.000000
# 2 -0.003553 0.010188 -0.004931 0.000000 0.000000 0.000000
# 3 -0.000526 -0.004931 0.008928 0.000000 0.000000 0.000000
# 4 0.000000 0.000000 0.000000 0.049007 0.000000 0.000000
# 5 0.000000 0.000000 0.000000 0.000000 0.072422 0.000000
# 6 0.000000 0.000000 0.000000 0.000000 0.000000 0.037610
#
#
# Mechanical properties :
#
#
# Convention : Reuss Voigt Hill
#
# Bulk Modulus (GPa) = 77.61663 87.55903 82.58783
# Shear Modulus (GPa) = 23.55589 28.72252 26.13921
#
# Velocity S-wave (km/s) = 3.44442 3.80345 3.62838
# Velocity P-wave (km/s) = 7.41017 7.96164 7.69085
#
# Compressibility (1/GPa) = 0.01288384
#
# Stress axis : x y z
#
# Youngs Moduli (GPa) = 84.82068 98.15927 112.00367
#
# Poissons Ratio (x) = 0.34875 0.05896
# Poissons Ratio (y) = 0.30136 0.55234
# Poissons Ratio (z) = 0.04465 0.48407
#
# Static dielectric constant tensor:
#      x y z
#    x 1.781120 0.000000 0.000000 
#    y 0.000000 1.723530 0.000000 
#    z 0.000000 0.000000 1.743240 
# 
# From -- ./inp_files/11427.got.cif
#   From: 2010.05.17/outbox.cif.g08.bks.cpg/sg54_6_cif.got.tgz:11427.got - 2010.06.03 13:09:01.
