data_PCOD9422694
_publ_section_title
;
Structure prediction by ZEFSAII (Michael W. Deem and Ramdas Pophale) SiO2 
 PCOD9422694
Probable space group: P C C A
;
_chemical_formula_sum "Si O2"
_cell_formula_units_Z 40
_cell_length_a 8.998331
_cell_length_b 8.115983
_cell_length_c 25.820534
_cell_angle_alpha 90.000000
_cell_angle_beta 90.000000
_cell_angle_gamma 90.000000
_cell_volume 1885.681381
_symmetry_space_group_name_H-M "P C C A"
_symmetry_group_IT_number 54
_symmetry_cell_setting 'orthorhombic'
loop_
_space_group_symop_operation_xyz
x,y,z
1/2-x,-y,z
1/2+x,-y,1/2-z
-x,y,1/2-z
-x,-y,-z
1/2+x,y,-z
1/2-x,y,1/2+z
x,-y,1/2+z
loop_
_atom_site_type_symbol
_atom_site_label
_atom_site_fract_x
_atom_site_fract_y
_atom_site_fract_z
Si Si1 0.000000 0.820393 0.750000
Si Si2 0.282541 0.692480 0.160532
Si Si3 0.614460 0.873669 0.438618
Si Si4 0.019034 0.835090 0.378699
Si Si5 0.892436 0.383169 0.530697
Si Si6 0.750000 0.000000 0.185272
O O1 0.105932 0.729816 0.708015
O O2 0.884050 0.928184 0.718084
O O3 0.250000 0.500000 0.161778
O O4 0.359885 0.741127 0.106508
O O5 0.128134 0.801334 0.156764
O O6 0.616527 0.776252 0.492624
O O7 0.750000 0.000000 0.442185
O O8 0.492857 0.998413 0.414095
O O9 0.035457 0.681685 0.416773
O O10 0.170796 0.857639 0.347656
O O11 0.750000 0.500000 0.539775
O O12 0.000000 0.500000 0.500000
#
# Coordination Sequence:
#
# PCOD9422694 Si02
#       6
#     4   8   8   8   8   4
#     4  12  26  46  74  98 140 178 240 296 364 412
#     4  11  24  46  71 101 139 182 228 294 358 413
#     4  10  21  43  69 100 135 188 231 281 334 412
#     4  11  25  42  71 103 140 185 240 285 349 427
#     4  12  26  42  67 105 147 189 226 287 354 424
#     4  12  26  44  72 104 136 180 242 300 344 424
#
# _framework density 21.212489999999999
#
# number of rings (size 3 to 8) (size 9 to 14) (size 15 to 20)
#    0.000    0.800    2.000    6.000    5.600    3.200 
#    0.000    0.000    0.000    0.000    0.000    0.000 
#    0.000    0.000    0.000    0.000    0.000    0.000 
#
# Total GULP energy -223173.021621 kJ/mol
# GULP energy per Si atom -5579.325541 kJ/mol
# Density = 2.116421 g / cm^3
# Si number density = 21.212490 Si / 1000 Ang^3
#
#
#
# Elastic Constant Matrix: (Units=GPa)
#
#
# Indices 1 2 3 4 5 6 
#
# 1 115.3010 42.9674 52.4823 0.0000 0.0000 0.0000
# 2 42.9674 111.2221 44.8368 0.0000 0.0000 0.0000
# 3 52.4823 44.8368 102.3122 0.0000 0.0000 0.0000
# 4 0.0000 0.0000 0.0000 15.6997 0.0000 0.0000
# 5 0.0000 0.0000 0.0000 0.0000 28.6018 0.0000
# 6 0.0000 0.0000 0.0000 0.0000 0.0000 31.4223
#
#
#
# Elastic Compliance Matrix: (Units=1/GPa)
#
#
# Indices 1 2 3 4 5 6 
#
# 1 0.011901 -0.002595 -0.004968 0.000000 0.000000 0.000000
# 2 -0.002595 0.011486 -0.003702 0.000000 0.000000 0.000000
# 3 -0.004968 -0.003702 0.013945 0.000000 0.000000 0.000000
# 4 0.000000 0.000000 0.000000 0.063695 0.000000 0.000000
# 5 0.000000 0.000000 0.000000 0.000000 0.034963 0.000000
# 6 0.000000 0.000000 0.000000 0.000000 0.000000 0.031825
#
#
# Mechanical properties :
#
#
# Convention : Reuss Voigt Hill
#
# Bulk Modulus (GPa) = 67.55947 67.71204 67.63575
# Shear Modulus (GPa) = 25.60440 27.71467 26.65954
#
# Velocity S-wave (km/s) = 3.47802 3.61851 3.54896
# Velocity P-wave (km/s) = 6.93159 7.03195 6.98195
#
# Compressibility (1/GPa) = 0.01480177
#
# Stress axis : x y z
#
# Youngs Moduli (GPa) = 84.02549 87.06169 71.71175
#
# Poissons Ratio (x) = 0.22593 0.35623
# Poissons Ratio (y) = 0.21805 0.26551
# Poissons Ratio (z) = 0.41740 0.32234
#
# Static dielectric constant tensor:
#      x y z
#    x 1.750750 0.000000 0.000000 
#    y 0.000000 1.853700 0.000000 
#    z 0.000000 0.000000 1.865080 
# 
# From -- ./inp_files/23325.got.cif
#   From: 2010.05.17/outbox.cif.g08.bks.cpg/sg54_12_cif.got.tgz:23325.got - 2010.06.03 13:09:01.
