data_PCOD9422962
_publ_section_title
;
Structure prediction by ZEFSAII (Michael W. Deem and Ramdas Pophale) SiO2 
 PCOD9422962
Probable space group: P C C A
;
_chemical_formula_sum "Si O2"
_cell_formula_units_Z 64
_cell_length_a 25.152219
_cell_length_b 10.710708
_cell_length_c 11.160766
_cell_angle_alpha 90.000000
_cell_angle_beta 90.000000
_cell_angle_gamma 90.000000
_cell_volume 3006.688857
_symmetry_space_group_name_H-M "P C C A"
_symmetry_group_IT_number 54
_symmetry_cell_setting 'orthorhombic'
loop_
_space_group_symop_operation_xyz
x,y,z
1/2-x,-y,z
1/2+x,-y,1/2-z
-x,y,1/2-z
-x,-y,-z
1/2+x,y,-z
1/2-x,y,1/2+z
x,-y,1/2+z
loop_
_atom_site_type_symbol
_atom_site_label
_atom_site_fract_x
_atom_site_fract_y
_atom_site_fract_z
Si Si1 0.315983 0.745990 0.971794
Si Si2 0.379456 0.967004 0.105472
Si Si3 0.036239 0.377238 0.980919
Si Si4 0.126542 0.203432 0.324864
Si Si5 0.631757 0.419123 0.854549
Si Si6 0.212292 0.115884 0.503102
Si Si7 0.614476 0.675186 0.736943
Si Si8 0.945082 0.813023 0.450328
O O1 0.256109 0.776359 0.012456
O O2 0.335847 0.734869 0.835016
O O3 0.354841 0.854572 0.025841
O O4 0.330422 0.617212 0.036576
O O5 0.392361 0.901728 0.230988
O O6 0.430753 0.039643 0.054485
O O7 0.330729 0.069252 0.102153
O O8 0.074248 0.380044 0.864147
O O9 0.002142 0.251042 0.964191
O O10 0.073599 0.379656 0.097110
O O11 0.000000 0.500000 0.000000
O O12 0.142700 0.327533 0.255325
O O13 0.177229 0.145412 0.388869
O O14 0.085941 0.233167 0.431147
O O15 0.633904 0.560957 0.817440
O O16 0.250000 0.000000 0.479395
O O17 0.580863 0.762286 0.826608
#
# Coordination Sequence:
#
# PCOD9422962 Si02
#       8
#     8   8   8   8   8   8   8   8
#     4   9  21  42  64  96 129 166 218 267 329 388
#     4   9  21  41  65  96 125 167 212 273 322 388
#     4  11  22  41  66  93 119 172 234 258 312 393
#     4  10  22  40  63  96 129 164 214 266 328 386
#     4  10  22  40  66  89 128 168 216 272 316 383
#     4   9  19  38  67  95 119 167 216 258 309 394
#     4  11  23  39  66  93 133 169 214 277 325 387
#     4  11  23  36  66  95 127 165 215 273 330 378
#
# _framework density 21.285874
#
# number of rings (size 3 to 8) (size 9 to 14) (size 15 to 20)
#    0.000    2.000    1.250    1.125    7.000    4.000 
#    6.750    6.250    8.250    0.000    0.000    0.000 
#    0.000    0.000    0.000    0.000    0.000    0.000 
#
# Total GULP energy -356752.595265 kJ/mol
# GULP energy per Si atom -5574.259301 kJ/mol
# Density = 2.123743 g / cm^3
# Si number density = 21.285874 Si / 1000 Ang^3
#
#
#
# Elastic Constant Matrix: (Units=GPa)
#
#
# Indices 1 2 3 4 5 6 
#
# 1 49.9725 15.4422 -3.8111 0.0000 0.0000 0.0000
# 2 15.4422 41.9214 5.5875 0.0000 0.0000 0.0000
# 3 -3.8111 5.5875 73.3018 0.0000 0.0000 0.0000
# 4 0.0000 0.0000 0.0000 36.3191 0.0000 0.0000
# 5 0.0000 0.0000 0.0000 0.0000 15.1780 0.0000
# 6 0.0000 0.0000 0.0000 0.0000 0.0000 33.9732
#
#
#
# Elastic Compliance Matrix: (Units=1/GPa)
#
#
# Indices 1 2 3 4 5 6 
#
# 1 0.022826 -0.008654 0.001846 0.000000 0.000000 0.000000
# 2 -0.008654 0.027380 -0.002537 0.000000 0.000000 0.000000
# 3 0.001846 -0.002537 0.013932 0.000000 0.000000 0.000000
# 4 0.000000 0.000000 0.000000 0.027534 0.000000 0.000000
# 5 0.000000 0.000000 0.000000 0.000000 0.065885 0.000000
# 6 0.000000 0.000000 0.000000 0.000000 0.000000 0.029435
#
#
# Mechanical properties :
#
#
# Convention : Reuss Voigt Hill
#
# Bulk Modulus (GPa) = 22.00310 22.18142 22.09226
# Shear Modulus (GPa) = 22.64177 26.95919 24.80048
#
# Velocity S-wave (km/s) = 3.26498 3.56269 3.41708
# Velocity P-wave (km/s) = 4.95710 5.23135 5.09607
#
# Compressibility (1/GPa) = 0.04544815
#
# Stress axis : x y z
#
# Youngs Moduli (GPa) = 43.80947 36.52268 71.77915
#
# Poissons Ratio (x) = 0.31608 -0.13254
# Poissons Ratio (y) = 0.37914 0.18211
# Poissons Ratio (z) = -0.08089 0.09266
#
# Static dielectric constant tensor:
#      x y z
#    x 1.830500 0.000000 0.000000 
#    y 0.000000 1.825530 0.000000 
#    z 0.000000 0.000000 1.771920 
# 
# From -- ./inp_files/10081.got.cif
#   From: 2010.05.17/outbox.cif.g08.bks.cpg/sg54_6_cif.got.tgz:10081.got - 2010.06.03 13:09:01.
