data_PCOD9422700
_publ_section_title
;
Structure prediction by ZEFSAII (Michael W. Deem and Ramdas Pophale) SiO2 
 PCOD9422700
Probable space group: P C C A
;
_chemical_formula_sum "Si O2"
_cell_formula_units_Z 32
_cell_length_a 13.153127
_cell_length_b 7.830584
_cell_length_c 12.002978
_cell_angle_alpha 90.000000
_cell_angle_beta 90.000000
_cell_angle_gamma 90.000000
_cell_volume 1236.266714
_symmetry_space_group_name_H-M "P C C A"
_symmetry_group_IT_number 54
_symmetry_cell_setting 'orthorhombic'
loop_
_space_group_symop_operation_xyz
x,y,z
1/2-x,-y,z
1/2+x,-y,1/2-z
-x,y,1/2-z
-x,-y,-z
1/2+x,y,-z
1/2-x,y,1/2+z
x,-y,1/2+z
loop_
_atom_site_type_symbol
_atom_site_label
_atom_site_fract_x
_atom_site_fract_y
_atom_site_fract_z
Si Si1 0.454516 0.907441 0.604886
Si Si2 0.360560 0.048821 0.797135
Si Si3 0.130415 0.556901 0.820708
Si Si4 0.129005 0.536614 0.068932
O O1 0.395574 0.736469 0.580997
O O2 0.500000 0.000000 0.500000
O O3 0.377932 0.039527 0.664831
O O4 0.562296 0.897405 0.670493
O O5 0.382643 0.239128 0.834951
O O6 0.250000 0.000000 0.833706
O O7 0.250000 0.500000 0.815601
O O8 0.092865 0.528094 0.692150
O O9 0.093793 0.481838 0.942156
O O10 0.250000 0.500000 0.066959
#
# Coordination Sequence:
#
# PCOD9422700 Si02
#       4
#     8   8   8   8
#     4  11  24  48  75 114 158 212 283 342 412 509
#     4  11  24  46  76 108 159 213 275 345 425 494
#     4  10  21  43  71 110 154 210 267 333 416 498
#     4  10  21  44  77 112 162 210 272 342 425 500
#
# _framework density 25.88438
#
# number of rings (size 3 to 8) (size 9 to 14) (size 15 to 20)
#    0.000    1.500    2.500    3.000    0.000    1.000 
#   22.500   11.250    0.000    0.000    0.000    0.000 
#    0.000    0.000    0.000    0.000    0.000    0.000 
#
# Total GULP energy -178359.755253 kJ/mol
# GULP energy per Si atom -5573.742352 kJ/mol
# Density = 2.582547 g / cm^3
# Si number density = 25.884380 Si / 1000 Ang^3
#
#
#
# Elastic Constant Matrix: (Units=GPa)
#
#
# Indices 1 2 3 4 5 6 
#
# 1 102.6628 46.4884 43.2295 0.0000 0.0000 0.0000
# 2 46.4884 130.3985 40.7449 0.0000 0.0000 0.0000
# 3 43.2295 40.7449 216.5862 0.0000 0.0000 0.0000
# 4 0.0000 0.0000 0.0000 44.0034 0.0000 0.0000
# 5 0.0000 0.0000 0.0000 0.0000 38.7845 0.0000
# 6 0.0000 0.0000 0.0000 0.0000 0.0000 51.8821
#
#
#
# Elastic Compliance Matrix: (Units=1/GPa)
#
#
# Indices 1 2 3 4 5 6 
#
# 1 0.012188 -0.003809 -0.001716 0.000000 0.000000 0.000000
# 2 -0.003809 0.009338 -0.000996 0.000000 0.000000 0.000000
# 3 -0.001716 -0.000996 0.005147 0.000000 0.000000 0.000000
# 4 0.000000 0.000000 0.000000 0.022726 0.000000 0.000000
# 5 0.000000 0.000000 0.000000 0.000000 0.025783 0.000000
# 6 0.000000 0.000000 0.000000 0.000000 0.000000 0.019274
#
#
# Mechanical properties :
#
#
# Convention : Reuss Voigt Hill
#
# Bulk Modulus (GPa) = 73.36669 78.95257 76.15963
# Shear Modulus (GPa) = 44.62567 48.21298 46.41933
#
# Velocity S-wave (km/s) = 4.15666 4.32050 4.23937
# Velocity P-wave (km/s) = 7.17235 7.44696 7.31094
#
# Compressibility (1/GPa) = 0.01363016
#
# Stress axis : x y z
#
# Youngs Moduli (GPa) = 82.04764 107.08829 194.28463
#
# Poissons Ratio (x) = 0.40789 0.33342
# Poissons Ratio (y) = 0.31251 0.19360
# Poissons Ratio (z) = 0.14080 0.10671
#
# Static dielectric constant tensor:
#      x y z
#    x 1.470990 0.000000 0.000000 
#    y 0.000000 1.988280 0.000000 
#    z 0.000000 0.000000 0.388660 
# 
# From -- ./inp_files/7923.got.cif
#   From: 2010.05.17/outbox.cif.g08.bks.cpg/sg54_4_cif.got.tgz:7923.got - 2010.06.03 13:09:01.
