data_PCOD9422035
_publ_section_title
;
Structure prediction by ZEFSAII (Michael W. Deem and Ramdas Pophale) SiO2 
 PCOD9422035
Probable space group: P C C A
;
_chemical_formula_sum "Si O2"
_cell_formula_units_Z 32
_cell_length_a 9.383049
_cell_length_b 9.627865
_cell_length_c 13.211269
_cell_angle_alpha 90.000000
_cell_angle_beta 90.000000
_cell_angle_gamma 90.000000
_cell_volume 1193.489251
_symmetry_space_group_name_H-M "P C C A"
_symmetry_group_IT_number 54
_symmetry_cell_setting 'orthorhombic'
loop_
_space_group_symop_operation_xyz
x,y,z
1/2-x,-y,z
1/2+x,-y,1/2-z
-x,y,1/2-z
-x,-y,-z
1/2+x,y,-z
1/2-x,y,1/2+z
x,-y,1/2+z
loop_
_atom_site_type_symbol
_atom_site_label
_atom_site_fract_x
_atom_site_fract_y
_atom_site_fract_z
Si Si1 0.973156 0.784799 0.395141
Si Si2 0.250000 0.500000 0.734997
Si Si3 0.703259 0.153128 0.589057
Si Si4 0.500000 0.965416 0.250000
Si Si5 0.017115 0.489586 0.118799
O O1 0.145416 0.772521 0.399585
O O2 0.926935 0.642555 0.341894
O O3 0.903803 0.789401 0.505519
O O4 0.940294 0.925123 0.333698
O O5 0.127323 0.534329 0.822397
O O6 0.345111 0.405769 0.651782
O O7 0.618665 0.124269 0.692957
O O8 0.750000 0.000000 0.552211
O O9 0.000000 0.500000 0.000000
#
# Coordination Sequence:
#
# PCOD9422035 Si02
#       5
#     8   4   8   4   8
#     4  11  25  43  68 105 135 183 235 281 367 419
#     4  10  24  46  68 100 136 182 240 288 360 416
#     4  10  23  42  68 100 140 179 229 284 354 417
#     4  10  20  42  66  98 144 176 222 288 334 432
#     4  11  25  47  74 102 146 185 243 305 353 426
#
# _framework density 26.812137
#
# number of rings (size 3 to 8) (size 9 to 14) (size 15 to 20)
#    0.000    1.500    0.000    5.250    7.000    9.000 
#    4.500    0.000    0.000    0.000    0.000    0.000 
#    0.000    0.000    0.000    0.000    0.000    0.000 
#
# Total GULP energy -178339.464408 kJ/mol
# GULP energy per Si atom -5573.108263 kJ/mol
# Density = 2.675111 g / cm^3
# Si number density = 26.812137 Si / 1000 Ang^3
#
#
#
# Elastic Constant Matrix: (Units=GPa)
#
#
# Indices 1 2 3 4 5 6 
#
# 1 145.3336 -35.3294 44.5170 0.0000 0.0000 0.0000
# 2 -35.3294 52.3761 -34.2499 0.0000 0.0000 0.0000
# 3 44.5170 -34.2499 198.1013 0.0000 0.0000 0.0000
# 4 0.0000 0.0000 0.0000 29.6889 0.0000 0.0000
# 5 0.0000 0.0000 0.0000 0.0000 113.1923 0.0000
# 6 0.0000 0.0000 0.0000 0.0000 0.0000 18.9635
#
#
#
# Elastic Compliance Matrix: (Units=1/GPa)
#
#
# Indices 1 2 3 4 5 6 
#
# 1 0.008411 0.005003 -0.001025 0.000000 0.000000 0.000000
# 2 0.005003 0.024502 0.003112 0.000000 0.000000 0.000000
# 3 -0.001025 0.003112 0.005816 0.000000 0.000000 0.000000
# 4 0.000000 0.000000 0.000000 0.033683 0.000000 0.000000
# 5 0.000000 0.000000 0.000000 0.000000 0.008835 0.000000
# 6 0.000000 0.000000 0.000000 0.000000 0.000000 0.052733
#
#
# Mechanical properties :
#
#
# Convention : Reuss Voigt Hill
#
# Bulk Modulus (GPa) = 18.90017 38.40961 28.65489
# Shear Modulus (GPa) = 36.38049 60.42716 48.40383
#
# Velocity S-wave (km/s) = 3.68756 4.75249 4.25349
# Velocity P-wave (km/s) = 5.01949 6.66869 5.90198
#
# Compressibility (1/GPa) = 0.05290958
#
# Stress axis : x y z
#
# Youngs Moduli (GPa) = 118.89294 40.81230 171.93032
#
# Poissons Ratio (x) = -0.20419 0.17625
# Poissons Ratio (y) = -0.59483 -0.53504
# Poissons Ratio (z) = 0.12188 -0.12701
#
# Static dielectric constant tensor:
#      x y z
#    x 1.708820 0.000000 0.000000 
#    y 0.000000 2.001010 0.000000 
#    z 0.000000 0.000000 2.110890 
# 
# From -- ./inp_files/11350.got.cif
#   From: 2010.05.17/outbox.cif.g08.bks.cpg/sg54_6_cif.got.tgz:11350.got - 2010.06.03 13:09:01.
