data_PCOD9422698
_publ_section_title
;
Structure prediction by ZEFSAII (Michael W. Deem and Ramdas Pophale) SiO2 
 PCOD9422698
Probable space group: P C C A
;
_chemical_formula_sum "Si O2"
_cell_formula_units_Z 40
_cell_length_a 11.531615
_cell_length_b 9.306897
_cell_length_c 17.602943
_cell_angle_alpha 90.000000
_cell_angle_beta 90.000000
_cell_angle_gamma 90.000000
_cell_volume 1889.210387
_symmetry_space_group_name_H-M "P C C A"
_symmetry_group_IT_number 54
_symmetry_cell_setting 'orthorhombic'
loop_
_space_group_symop_operation_xyz
x,y,z
1/2-x,-y,z
1/2+x,-y,1/2-z
-x,y,1/2-z
-x,-y,-z
1/2+x,y,-z
1/2-x,y,1/2+z
x,-y,1/2+z
loop_
_atom_site_type_symbol
_atom_site_label
_atom_site_fract_x
_atom_site_fract_y
_atom_site_fract_z
Si Si1 0.040247 0.208146 0.868221
Si Si2 0.669181 0.855260 0.474039
Si Si3 0.487943 0.117711 0.838381
Si Si4 0.705279 0.339547 0.370292
Si Si5 0.758249 0.172224 0.220792
O O1 0.145006 0.246975 0.813308
O O2 0.933087 0.315889 0.867409
O O3 0.997770 0.054278 0.837083
O O4 0.099714 0.170379 0.948574
O O5 0.569981 0.847184 0.408575
O O6 0.755040 0.728296 0.450055
O O7 0.750000 0.000000 0.473799
O O8 0.500000 0.165935 0.750000
O O9 0.355546 0.171876 0.845873
O O10 0.750000 0.500000 0.363190
O O11 0.765919 0.247738 0.302478
O O12 0.750000 0.000000 0.236008
#
# Coordination Sequence:
#
# PCOD9422698 Si02
#       5
#     8   8   8   8   8
#     4  11  24  40  72 100 135 174 231 295 353 409
#     4  12  24  42  70 102 135 176 230 290 357 405
#     4  11  20  38  71 104 131 166 223 294 351 407
#     4  12  26  45  65  95 142 190 229 281 342 424
#     4  10  21  43  70 102 127 174 233 296 347 409
#
# _framework density 21.172865999999999
#
# number of rings (size 3 to 8) (size 9 to 14) (size 15 to 20)
#    0.000    0.800    4.000    6.000    2.800    0.800 
#    7.200    1.000    0.000    0.000    0.000    0.000 
#    0.000    0.000    0.000    0.000    0.000    0.000 
#
# Total GULP energy -222883.199794 kJ/mol
# GULP energy per Si atom -5572.079995 kJ/mol
# Density = 2.112468 g / cm^3
# Si number density = 21.172866 Si / 1000 Ang^3
#
#
#
# Elastic Constant Matrix: (Units=GPa)
#
#
# Indices 1 2 3 4 5 6 
#
# 1 114.2143 58.7944 35.1865 0.0000 0.0000 0.0000
# 2 58.7944 77.9379 34.1597 0.0000 0.0000 0.0000
# 3 35.1865 34.1597 129.1040 0.0000 0.0000 0.0000
# 4 0.0000 0.0000 0.0000 -5.8120 0.0000 0.0000
# 5 0.0000 0.0000 0.0000 0.0000 38.6118 0.0000
# 6 0.0000 0.0000 0.0000 0.0000 0.0000 26.8690
#
#
#
# Elastic Compliance Matrix: (Units=1/GPa)
#
#
# Indices 1 2 3 4 5 6 
#
# 1 0.014475 -0.010396 -0.001194 0.000000 0.000000 0.000000
# 2 -0.010396 0.021981 -0.002982 0.000000 0.000000 0.000000
# 3 -0.001194 -0.002982 0.008860 0.000000 0.000000 0.000000
# 4 0.000000 0.000000 0.000000 -0.172059 0.000000 0.000000
# 5 0.000000 0.000000 0.000000 0.000000 0.025899 0.000000
# 6 0.000000 0.000000 0.000000 0.000000 0.000000 0.037218
#
#
# Mechanical properties :
#
#
# Convention : Reuss Voigt Hill
#
# Bulk Modulus (GPa) = 61.84284 64.17081 63.00683
# Shear Modulus (GPa) = -171.87467 24.80814 -73.53326
#
# Velocity S-wave (km/s) = -9.01959 3.42672 -5.89961
# Velocity P-wave (km/s) = 8.89937 6.78457 4.07238
#
# Compressibility (1/GPa) = 0.01617002
#
# Stress axis : x y z
#
# Youngs Moduli (GPa) = 69.08432 45.49486 112.86252
#
# Poissons Ratio (x) = 0.47297 0.13480
# Poissons Ratio (y) = 0.71821 0.33661
# Poissons Ratio (z) = 0.08251 0.13569
#
# Static dielectric constant tensor:
#      x y z
#    x 2.178000 0.000000 0.000000 
#    y 0.000000 1.730980 0.000000 
#    z 0.000000 0.000000 1.814520 
# 
# From -- ./inp_files/17108.got.cif
#   From: 2010.05.17/outbox.cif.g08.bks.cpg/sg54_9_cif.got.tgz:17108.got - 2010.06.03 13:09:01.
