data_PCOD9422925
_publ_section_title
;
Structure prediction by ZEFSAII (Michael W. Deem and Ramdas Pophale) SiO2 
 PCOD9422925
Probable space group: P C C A
;
_chemical_formula_sum "Si O2"
_cell_formula_units_Z 52
_cell_length_a 22.004446
_cell_length_b 5.316301
_cell_length_c 21.776785
_cell_angle_alpha 90.000000
_cell_angle_beta 90.000000
_cell_angle_gamma 90.000000
_cell_volume 2547.497487
_symmetry_space_group_name_H-M "P C C A"
_symmetry_group_IT_number 54
_symmetry_cell_setting 'orthorhombic'
loop_
_space_group_symop_operation_xyz
x,y,z
1/2-x,-y,z
1/2+x,-y,1/2-z
-x,y,1/2-z
-x,-y,-z
1/2+x,y,-z
1/2-x,y,1/2+z
x,-y,1/2+z
loop_
_atom_site_type_symbol
_atom_site_label
_atom_site_fract_x
_atom_site_fract_y
_atom_site_fract_z
Si Si1 0.750000 0.000000 0.809532
Si Si2 0.691436 0.620165 0.715123
Si Si3 0.870701 0.260939 0.313491
Si Si4 0.515682 0.094103 0.312869
Si Si5 0.892495 0.069995 0.625003
Si Si6 0.577230 0.408107 0.556482
Si Si7 0.442803 0.467614 0.083724
O O1 0.723581 0.777986 0.768214
O O2 0.811522 0.889741 0.837185
O O3 0.750000 0.500000 0.681328
O O4 0.648397 0.425003 0.753040
O O5 0.656585 0.815017 0.671681
O O6 0.892993 0.407792 0.373228
O O7 0.929555 0.093155 0.297503
O O8 0.500000 0.245429 0.250000
O O9 0.450807 0.994073 0.334254
O O10 0.536957 0.241652 0.372588
O O11 0.906707 0.312431 0.581490
O O12 0.882788 0.813450 0.586952
O O13 0.581212 0.397261 0.483088
O O14 0.505023 0.373938 0.572148
#
# Coordination Sequence:
#
# PCOD9422925 Si02
#       7
#     4   8   8   8   8   8   8
#     4  10  22  40  62  92 124 174 222 278 354 410
#     4  10  24  41  67  97 132 176 229 282 352 409
#     4  11  21  38  62  95 129 176 218 283 347 413
#     4  11  23  35  63  97 138 167 210 276 345 404
#     4  11  23  42  64 101 132 175 221 279 329 412
#     4  10  24  39  67  94 135 179 225 266 338 396
#     4  10  22  40  60  94 137 178 219 270 331 414
#
# _framework density 20.412191
#
# number of rings (size 3 to 8) (size 9 to 14) (size 15 to 20)
#    0.000    1.538    1.538    2.769    8.615    2.462 
#    0.000    0.000    0.000    5.538    0.000    0.000 
#    0.000    0.000    0.000    0.000    0.000    0.000 
#
# Total GULP energy -289682.713525 kJ/mol
# GULP energy per Si atom -5570.821414 kJ/mol
# Density = 2.036573 g / cm^3
# Si number density = 20.412191 Si / 1000 Ang^3
#
#
#
# Elastic Constant Matrix: (Units=GPa)
#
#
# Indices 1 2 3 4 5 6 
#
# 1 97.6305 43.7444 24.6933 0.0000 0.0000 0.0000
# 2 43.7444 88.2663 39.9364 0.0000 0.0000 0.0000
# 3 24.6933 39.9364 111.6451 0.0000 0.0000 0.0000
# 4 0.0000 0.0000 0.0000 77.7710 0.0000 0.0000
# 5 0.0000 0.0000 0.0000 0.0000 -42.1289 0.0000
# 6 0.0000 0.0000 0.0000 0.0000 0.0000 -5.6732
#
#
#
# Elastic Compliance Matrix: (Units=1/GPa)
#
#
# Indices 1 2 3 4 5 6 
#
# 1 0.013211 -0.006234 -0.000692 0.000000 0.000000 0.000000
# 2 -0.006234 0.016459 -0.004509 0.000000 0.000000 0.000000
# 3 -0.000692 -0.004509 0.010723 0.000000 0.000000 0.000000
# 4 0.000000 0.000000 0.000000 0.012858 0.000000 0.000000
# 5 0.000000 0.000000 0.000000 0.000000 -0.023737 0.000000
# 6 0.000000 0.000000 0.000000 0.000000 0.000000 -0.176267
#
#
# Mechanical properties :
#
#
# Convention : Reuss Voigt Hill
#
# Bulk Modulus (GPa) = 57.06746 57.14334 57.10540
# Shear Modulus (GPa) = -42.35781 18.60496 -11.87643
#
# Velocity S-wave (km/s) = -4.56029 3.02232 -2.41473
# Velocity P-wave (km/s) = 0.53838 6.34308 4.50136
#
# Compressibility (1/GPa) = 0.01752312
#
# Stress axis : x y z
#
# Youngs Moduli (GPa) = 75.69424 60.75703 93.25941
#
# Poissons Ratio (x) = 0.37878 0.06453
# Poissons Ratio (y) = 0.47190 0.42047
# Poissons Ratio (z) = 0.05237 0.27393
#
# Static dielectric constant tensor:
#      x y z
#    x 1.699290 0.000000 0.000000 
#    y 0.000000 1.826500 0.000000 
#    z 0.000000 0.000000 1.738460 
# 
# From -- ./inp_files/22168.got.cif
#   From: 2010.05.17/outbox.cif.g08.bks.cpg/sg54_12_cif.got.tgz:22168.got - 2010.06.03 13:09:01.
