data_PCOD9422505
_publ_section_title
;
Structure prediction by ZEFSAII (Michael W. Deem and Ramdas Pophale) SiO2 
 PCOD9422505
Probable space group: P C C A
;
_chemical_formula_sum "Si O2"
_cell_formula_units_Z 40
_cell_length_a 22.892347
_cell_length_b 5.505723
_cell_length_c 13.383751
_cell_angle_alpha 90.000000
_cell_angle_beta 90.000000
_cell_angle_gamma 90.000000
_cell_volume 1686.873540
_symmetry_space_group_name_H-M "P C C A"
_symmetry_group_IT_number 54
_symmetry_cell_setting 'orthorhombic'
loop_
_space_group_symop_operation_xyz
x,y,z
1/2-x,-y,z
1/2+x,-y,1/2-z
-x,y,1/2-z
-x,-y,-z
1/2+x,y,-z
1/2-x,y,1/2+z
x,-y,1/2+z
loop_
_atom_site_type_symbol
_atom_site_label
_atom_site_fract_x
_atom_site_fract_y
_atom_site_fract_z
Si Si1 0.783005 0.754758 0.533425
Si Si2 0.943537 0.060550 0.296731
Si Si3 0.619042 0.572826 0.161594
Si Si4 0.150801 0.320581 0.656767
Si Si5 0.061103 0.369429 0.018685
O O1 0.750000 0.500000 0.553745
O O2 0.844551 0.749511 0.590638
O O3 0.797190 0.753511 0.415117
O O4 0.750000 0.000000 0.560238
O O5 0.931546 0.287024 0.222128
O O6 0.951948 0.137947 0.412191
O O7 0.000000 0.930913 0.250000
O O8 0.885319 0.904458 0.300745
O O9 0.663257 0.478511 0.246011
O O10 0.592987 0.365124 0.088724
O O11 0.105360 0.474865 0.588348
O O12 0.000000 0.500000 0.000000
#
# Coordination Sequence:
#
# PCOD9422505 Si02
#       5
#     8   8   8   8   8
#     4  11  28  52  76 104 140 188 245 307 366 414
#     4  11  23  39  68 106 141 186 229 287 363 431
#     4  10  24  45  68 102 137 187 237 295 353 438
#     4  10  26  42  68 100 141 178 241 299 347 436
#     4  10  21  40  62  96 145 183 229 282 351 428
#
# _framework density 23.712505
#
# number of rings (size 3 to 8) (size 9 to 14) (size 15 to 20)
#    0.000    1.600    2.000    0.000   14.000    3.200 
#    0.000    0.000    0.000    0.000    0.000    0.000 
#    0.000    0.000    0.000    0.000    0.000    0.000 
#
# Total GULP energy -223479.699848 kJ/mol
# GULP energy per Si atom -5586.992496 kJ/mol
# Density = 2.365853 g / cm^3
# Si number density = 23.712505 Si / 1000 Ang^3
#
#
#
# Elastic Constant Matrix: (Units=GPa)
#
#
# Indices 1 2 3 4 5 6 
#
# 1 44.8973 2.6239 13.0722 0.0000 0.0000 0.0000
# 2 2.6239 49.9830 11.9984 0.0000 0.0000 0.0000
# 3 13.0722 11.9984 129.4188 0.0000 0.0000 0.0000
# 4 0.0000 0.0000 0.0000 -47.3515 0.0000 0.0000
# 5 0.0000 0.0000 0.0000 0.0000 38.4882 0.0000
# 6 0.0000 0.0000 0.0000 0.0000 0.0000 28.3202
#
#
#
# Elastic Compliance Matrix: (Units=1/GPa)
#
#
# Indices 1 2 3 4 5 6 
#
# 1 0.022969 -0.000664 -0.002259 0.000000 0.000000 0.000000
# 2 -0.000664 0.020481 -0.001832 0.000000 0.000000 0.000000
# 3 -0.002259 -0.001832 0.008125 0.000000 0.000000 0.000000
# 4 0.000000 0.000000 0.000000 -0.021119 0.000000 0.000000
# 5 0.000000 0.000000 0.000000 0.000000 0.025982 0.000000
# 6 0.000000 0.000000 0.000000 0.000000 0.000000 0.035310
#
#
# Mechanical properties :
#
#
# Convention : Reuss Voigt Hill
#
# Bulk Modulus (GPa) = 23.77126 31.07646 27.42386
# Shear Modulus (GPa) = 43.37271 16.99836 30.18553
#
# Velocity S-wave (km/s) = 4.28145 2.68031 3.57175
# Velocity P-wave (km/s) = 5.87261 4.76579 5.34791
#
# Compressibility (1/GPa) = 0.04206761
#
# Stress axis : x y z
#
# Youngs Moduli (GPa) = 43.53611 48.82492 123.07985
#
# Poissons Ratio (x) = 0.03240 0.27798
# Poissons Ratio (y) = 0.02889 0.22546
# Poissons Ratio (z) = 0.09833 0.08944
#
# Static dielectric constant tensor:
#      x y z
#    x 1.901570 0.000000 0.000000 
#    y 0.000000 1.968440 0.000000 
#    z 0.000000 0.000000 1.904660 
# 
# From -- ./inp_files/10124.got.cif
#   From: 2010.05.17/outbox.cif.g08.bks.cpg/sg54_6_cif.got.tgz:10124.got - 2010.06.03 13:09:01.
