data_PCOD9422225
_publ_section_title
;
Structure prediction by ZEFSAII (Michael W. Deem and Ramdas Pophale) SiO2 
 PCOD9422225
Probable space group: P C C A
;
_chemical_formula_sum "Si O2"
_cell_formula_units_Z 56
_cell_length_a 16.732039
_cell_length_b 11.009298
_cell_length_c 14.406018
_cell_angle_alpha 90.000000
_cell_angle_beta 90.000000
_cell_angle_gamma 90.000000
_cell_volume 2653.703814
_symmetry_space_group_name_H-M "P C C A"
_symmetry_group_IT_number 54
_symmetry_cell_setting 'orthorhombic'
loop_
_space_group_symop_operation_xyz
x,y,z
1/2-x,-y,z
1/2+x,-y,1/2-z
-x,y,1/2-z
-x,-y,-z
1/2+x,y,-z
1/2-x,y,1/2+z
x,-y,1/2+z
loop_
_atom_site_type_symbol
_atom_site_label
_atom_site_fract_x
_atom_site_fract_y
_atom_site_fract_z
Si Si1 0.805299 0.381574 0.262351
Si Si2 0.076057 0.236477 0.120138
Si Si3 0.425884 0.606283 0.403252
Si Si4 0.844221 0.774912 0.270185
Si Si5 0.046605 0.388122 0.613652
Si Si6 0.075227 0.831461 0.418426
Si Si7 0.949062 0.027716 0.838234
O O1 0.750000 0.500000 0.278368
O O2 0.874797 0.347359 0.335493
O O3 0.849180 0.390729 0.162670
O O4 0.746235 0.267244 0.271468
O O5 0.983612 0.277501 0.110564
O O6 0.076690 0.110290 0.175277
O O7 0.109247 0.197575 0.019377
O O8 0.409841 0.591373 0.513784
O O9 0.484768 0.497310 0.372523
O O10 0.895840 0.656652 0.303929
O O11 0.863368 0.818892 0.165880
O O12 0.873245 0.882276 0.339257
O O13 0.988696 0.274381 0.598867
O O14 0.019009 0.950422 0.413504
O O15 0.000000 0.071626 0.750000
#
# Coordination Sequence:
#
# PCOD9422225 Si02
#       7
#     8   8   8   8   8   8   8
#     4  12  25  37  56  85 122 159 188 233 297 358
#     4  11  22  38  60  87 115 151 202 249 287 344
#     4  10  21  37  60  86 114 153 200 247 287 338
#     4  10  21  37  58  87 120 152 187 236 302 363
#     4   9  18  37  62  85 113 152 199 245 290 343
#     4   9  19  36  62  88 113 150 197 245 293 348
#     4   9  18  36  63  87 112 150 194 242 292 345
#
# _framework density 21.102582000000002
#
# number of rings (size 3 to 8) (size 9 to 14) (size 15 to 20)
#    0.000    2.000    0.000    4.714    0.000    2.857 
#    0.000    1.429    0.000    5.143    0.000    0.000 
#    0.000    0.000    0.000    0.000    0.000    0.000 
#
# Total GULP energy -312028.183526 kJ/mol
# GULP energy per Si atom -5571.931849 kJ/mol
# Density = 2.105455 g / cm^3
# Si number density = 21.102582 Si / 1000 Ang^3
#
#
#
# Elastic Constant Matrix: (Units=GPa)
#
#
# Indices 1 2 3 4 5 6 
#
# 1 65.9042 18.3344 13.8527 0.0000 0.0000 0.0000
# 2 18.3344 71.2712 1.7624 0.0000 0.0000 0.0000
# 3 13.8527 1.7624 75.1995 0.0000 0.0000 0.0000
# 4 0.0000 0.0000 0.0000 24.5758 0.0000 0.0000
# 5 0.0000 0.0000 0.0000 0.0000 21.0739 0.0000
# 6 0.0000 0.0000 0.0000 0.0000 0.0000 20.9754
#
#
#
# Elastic Compliance Matrix: (Units=1/GPa)
#
#
# Indices 1 2 3 4 5 6 
#
# 1 0.017007 -0.004300 -0.003032 0.000000 0.000000 0.000000
# 2 -0.004300 0.015126 0.000438 0.000000 0.000000 0.000000
# 3 -0.003032 0.000438 0.013846 0.000000 0.000000 0.000000
# 4 0.000000 0.000000 0.000000 0.040690 0.000000 0.000000
# 5 0.000000 0.000000 0.000000 0.000000 0.047452 0.000000
# 6 0.000000 0.000000 0.000000 0.000000 0.000000 0.047675
#
#
# Mechanical properties :
#
#
# Convention : Reuss Voigt Hill
#
# Bulk Modulus (GPa) = 31.06510 31.14156 31.10333
# Shear Modulus (GPa) = 24.23463 25.22006 24.72734
#
# Velocity S-wave (km/s) = 3.39251 3.46080 3.42682
# Velocity P-wave (km/s) = 5.48621 5.54606 5.51621
#
# Compressibility (1/GPa) = 0.03219046
#
# Stress axis : x y z
#
# Youngs Moduli (GPa) = 58.79875 66.11004 72.22164
#
# Poissons Ratio (x) = 0.28428 0.21899
# Poissons Ratio (y) = 0.25284 -0.03161
# Poissons Ratio (z) = 0.17829 -0.02893
#
# Static dielectric constant tensor:
#      x y z
#    x 1.745480 0.000000 0.000000 
#    y 0.000000 1.823380 0.000000 
#    z 0.000000 0.000000 1.854420 
# 
# From -- ./inp_files/13494.got.cif
#   From: 2010.05.17/outbox.cif.g08.bks.cpg/sg54_7_cif.got.tgz:13494.got - 2010.06.03 13:09:01.
