data_PCOD9422541
_publ_section_title
;
Structure prediction by ZEFSAII (Michael W. Deem and Ramdas Pophale) SiO2 
 PCOD9422541
Probable space group: P C C A
;
_chemical_formula_sum "Si O2"
_cell_formula_units_Z 64
_cell_length_a 24.336558
_cell_length_b 15.730977
_cell_length_c 8.670756
_cell_angle_alpha 90.000000
_cell_angle_beta 90.000000
_cell_angle_gamma 90.000000
_cell_volume 3319.493448
_symmetry_space_group_name_H-M "P C C A"
_symmetry_group_IT_number 54
_symmetry_cell_setting 'orthorhombic'
loop_
_space_group_symop_operation_xyz
x,y,z
1/2-x,-y,z
1/2+x,-y,1/2-z
-x,y,1/2-z
-x,-y,-z
1/2+x,y,-z
1/2-x,y,1/2+z
x,-y,1/2+z
loop_
_atom_site_type_symbol
_atom_site_label
_atom_site_fract_x
_atom_site_fract_y
_atom_site_fract_z
Si Si1 0.434808 0.053412 0.280646
Si Si2 0.454093 0.724778 0.525402
Si Si3 0.810550 0.283780 0.480322
Si Si4 0.797524 0.226577 0.127008
Si Si5 0.427555 0.762207 0.885755
Si Si6 0.361509 0.389683 0.951649
Si Si7 0.690922 0.464244 0.851884
Si Si8 0.891892 0.889970 0.547885
O O1 0.500000 0.045039 0.250000
O O2 0.428745 0.135025 0.392311
O O3 0.411011 0.966676 0.345688
O O4 0.402970 0.078457 0.125293
O O5 0.436132 0.738429 0.705075
O O6 0.519604 0.726272 0.524983
O O7 0.424058 0.640655 0.465960
O O8 0.430055 0.806069 0.433943
O O9 0.806496 0.246254 0.307332
O O10 0.766055 0.235134 0.584449
O O11 0.870875 0.271718 0.548706
O O12 0.798508 0.384810 0.466954
O O13 0.826648 0.302769 0.030904
O O14 0.830180 0.141911 0.080376
O O15 0.344194 0.426535 0.787245
O O16 0.342642 0.459593 0.072442
O O17 0.750000 0.500000 0.800013
#
# Coordination Sequence:
#
# PCOD9422541 Si02
#       8
#     8   8   8   8   8   8   8   8
#     4  11  21  38  66 100 124 169 218 260 321 374
#     4   9  20  41  63  94 129 169 209 261 327 380
#     4  11  25  39  67  93 124 168 217 259 327 390
#     4  10  24  42  60  96 125 168 205 267 328 380
#     4  10  21  40  67  91 125 174 215 258 322 394
#     4  10  22  37  64  92 127 157 208 269 318 369
#     4  11  22  38  61 100 123 166 216 266 315 379
#     4  10  22  38  63  93 130 157 213 268 312 376
#
# _framework density 19.280049999999999
#
# number of rings (size 3 to 8) (size 9 to 14) (size 15 to 20)
#    0.000    1.750    3.750    0.750   10.500    0.000 
#    0.000    6.250    0.000    0.000    0.000    0.000 
#    0.000    0.000    0.000    0.000    0.000    0.000 
#
# Total GULP energy -357441.476787 kJ/mol
# GULP energy per Si atom -5585.023075 kJ/mol
# Density = 1.923617 g / cm^3
# Si number density = 19.280050 Si / 1000 Ang^3
#
#
#
# Elastic Constant Matrix: (Units=GPa)
#
#
# Indices 1 2 3 4 5 6 
#
# 1 148.9770 49.2694 39.6569 0.0000 0.0000 0.0000
# 2 49.2694 91.6532 32.4057 0.0000 0.0000 0.0000
# 3 39.6569 32.4057 35.0415 0.0000 0.0000 0.0000
# 4 0.0000 0.0000 0.0000 18.0879 0.0000 0.0000
# 5 0.0000 0.0000 0.0000 0.0000 26.8284 0.0000
# 6 0.0000 0.0000 0.0000 0.0000 0.0000 35.9507
#
#
#
# Elastic Compliance Matrix: (Units=1/GPa)
#
#
# Indices 1 2 3 4 5 6 
#
# 1 0.009850 -0.002011 -0.009287 0.000000 0.000000 0.000000
# 2 -0.002011 0.016622 -0.013096 0.000000 0.000000 0.000000
# 3 -0.009287 -0.013096 0.051159 0.000000 0.000000 0.000000
# 4 0.000000 0.000000 0.000000 0.055286 0.000000 0.000000
# 5 0.000000 0.000000 0.000000 0.000000 0.037274 0.000000
# 6 0.000000 0.000000 0.000000 0.000000 0.000000 0.027816
#
#
# Mechanical properties :
#
#
# Convention : Reuss Voigt Hill
#
# Bulk Modulus (GPa) = 34.67122 57.59286 46.13204
# Shear Modulus (GPa) = 19.50018 26.46272 22.98145
#
# Velocity S-wave (km/s) = 3.18373 3.70881 3.45625
# Velocity P-wave (km/s) = 5.61577 6.94816 6.31719
#
# Compressibility (1/GPa) = 0.02884236
#
# Stress axis : x y z
#
# Youngs Moduli (GPa) = 101.52495 60.16103 19.54708
#
# Poissons Ratio (x) = 0.12100 0.18154
# Poissons Ratio (y) = 0.20419 0.25598
# Poissons Ratio (z) = 0.94288 0.78784
#
# Static dielectric constant tensor:
#      x y z
#    x 1.670790 0.000000 0.000000 
#    y 0.000000 1.671570 0.000000 
#    z 0.000000 0.000000 1.710220 
# 
# From -- ./inp_files/5301.got.cif
#   From: 2010.05.17/outbox.cif.g08.bks.cpg/sg54_3_cif.got.tgz:5301.got - 2010.06.03 13:09:01.
