data_PCOD9422899
_publ_section_title
;
Structure prediction by ZEFSAII (Michael W. Deem and Ramdas Pophale) SiO2 
 PCOD9422899
Probable space group: P C C A
;
_chemical_formula_sum "Si O2"
_cell_formula_units_Z 56
_cell_length_a 14.682479
_cell_length_b 20.382040
_cell_length_c 8.935701
_cell_angle_alpha 90.000000
_cell_angle_beta 90.000000
_cell_angle_gamma 90.000000
_cell_volume 2674.087822
_symmetry_space_group_name_H-M "P C C A"
_symmetry_group_IT_number 54
_symmetry_cell_setting 'orthorhombic'
loop_
_space_group_symop_operation_xyz
x,y,z
1/2-x,-y,z
1/2+x,-y,1/2-z
-x,y,1/2-z
-x,-y,-z
1/2+x,y,-z
1/2-x,y,1/2+z
x,-y,1/2+z
loop_
_atom_site_type_symbol
_atom_site_label
_atom_site_fract_x
_atom_site_fract_y
_atom_site_fract_z
Si Si1 0.678757 0.868954 0.236742
Si Si2 0.141738 0.356550 0.997333
Si Si3 0.336458 0.796769 0.947888
Si Si4 0.250000 0.000000 0.626936
Si Si5 0.220652 0.575154 0.201243
Si Si6 0.073958 0.943047 0.996987
Si Si7 0.500000 0.849544 0.750000
Si Si8 0.971840 0.568314 0.423907
O O1 0.655361 0.833854 0.392937
O O2 0.745287 0.823991 0.134712
O O3 0.732927 0.934897 0.278784
O O4 0.592216 0.896418 0.144939
O O5 0.163934 0.280494 0.978281
O O6 0.183576 0.394999 0.854999
O O7 0.034394 0.374791 0.995915
O O8 0.193218 0.384986 0.140823
O O9 0.423588 0.810469 0.842247
O O10 0.335034 0.983646 0.525012
O O11 0.250000 0.500000 0.220231
O O12 0.136731 0.578757 0.082002
O O13 0.052791 0.895473 0.133982
O O14 0.000000 0.000000 0.000000
O O15 0.000000 0.563891 0.250000
O O16 0.000000 0.500000 0.500000
#
# Coordination Sequence:
#
# PCOD9422899 Si02
#       8
#     8   8   8   4   8   8   4   8
#     4  12  25  48  71 105 143 186 239 308 361 438
#     4  11  25  43  68 101 138 190 236 289 359 434
#     4  12  26  47  72  99 147 197 241 292 368 451
#     4  12  22  44  72 104 136 178 232 304 362 414
#     4  11  22  40  70 100 135 179 231 296 360 420
#     4  12  26  45  75 106 138 175 234 298 371 423
#     4  12  26  46  68 102 138 192 228 288 356 432
#     4  10  22  39  65  98 136 172 223 296 353 415
#
# _framework density 20.941721000000001
#
# number of rings (size 3 to 8) (size 9 to 14) (size 15 to 20)
#    0.000    0.571    4.286    3.429    5.000    1.714 
#    0.000    0.000    3.143    0.000    0.000    0.000 
#    0.000    0.000    0.000    0.000    0.000    0.000 
#
# Total GULP energy -313218.073427 kJ/mol
# GULP energy per Si atom -5593.179883 kJ/mol
# Density = 2.089406 g / cm^3
# Si number density = 20.941721 Si / 1000 Ang^3
#
#
#
# Elastic Constant Matrix: (Units=GPa)
#
#
# Indices 1 2 3 4 5 6 
#
# 1 90.7977 35.5183 34.2370 0.0000 0.0000 0.0000
# 2 35.5183 158.6563 35.1660 0.0000 0.0000 0.0000
# 3 34.2370 35.1660 81.2241 0.0000 0.0000 0.0000
# 4 0.0000 0.0000 0.0000 10.1078 0.0000 0.0000
# 5 0.0000 0.0000 0.0000 0.0000 30.8012 0.0000
# 6 0.0000 0.0000 0.0000 0.0000 0.0000 27.8774
#
#
#
# Elastic Compliance Matrix: (Units=1/GPa)
#
#
# Indices 1 2 3 4 5 6 
#
# 1 0.013628 -0.001966 -0.004893 0.000000 0.000000 0.000000
# 2 -0.001966 0.007256 -0.002313 0.000000 0.000000 0.000000
# 3 -0.004893 -0.002313 0.015375 0.000000 0.000000 0.000000
# 4 0.000000 0.000000 0.000000 0.098934 0.000000 0.000000
# 5 0.000000 0.000000 0.000000 0.000000 0.032466 0.000000
# 6 0.000000 0.000000 0.000000 0.000000 0.000000 0.035871
#
#
# Mechanical properties :
#
#
# Convention : Reuss Voigt Hill
#
# Bulk Modulus (GPa) = 55.81888 60.05787 57.93838
# Shear Modulus (GPa) = 21.94470 28.80772 25.37621
#
# Velocity S-wave (km/s) = 3.24063 3.71295 3.48480
# Velocity P-wave (km/s) = 6.38079 6.86456 6.62709
#
# Compressibility (1/GPa) = 0.01791508
#
# Stress axis : x y z
#
# Youngs Moduli (GPa) = 73.38026 137.82268 65.03957
#
# Poissons Ratio (x) = 0.27100 0.31823
# Poissons Ratio (y) = 0.14429 0.15041
# Poissons Ratio (z) = 0.35904 0.31872
#
# Static dielectric constant tensor:
#      x y z
#    x 1.769090 0.000000 0.000000 
#    y 0.000000 1.694010 0.000000 
#    z 0.000000 0.000000 1.790330 
# 
# From -- ./inp_files/3706.got.cif
#   From: 2010.05.17/outbox.cif.g08.bks.cpg/sg54_2_cif.got.tgz:3706.got - 2010.06.03 13:09:01.
