data_PCOD9422693
_publ_section_title
;
Structure prediction by ZEFSAII (Michael W. Deem and Ramdas Pophale) SiO2 
 PCOD9422693
Probable space group: P C C A
;
_chemical_formula_sum "Si O2"
_cell_formula_units_Z 28
_cell_length_a 11.631361
_cell_length_b 5.749233
_cell_length_c 17.505846
_cell_angle_alpha 90.000000
_cell_angle_beta 90.000000
_cell_angle_gamma 90.000000
_cell_volume 1170.640509
_symmetry_space_group_name_H-M "P C C A"
_symmetry_group_IT_number 54
_symmetry_cell_setting 'orthorhombic'
loop_
_space_group_symop_operation_xyz
x,y,z
1/2-x,-y,z
1/2+x,-y,1/2-z
-x,y,1/2-z
-x,-y,-z
1/2+x,y,-z
1/2-x,y,1/2+z
x,-y,1/2+z
loop_
_atom_site_type_symbol
_atom_site_label
_atom_site_fract_x
_atom_site_fract_y
_atom_site_fract_z
Si Si1 0.250000 0.500000 0.662344
Si Si2 0.879588 0.442740 0.595148
Si Si3 0.938480 0.836051 0.318130
Si Si4 0.926097 0.778314 0.941255
O O1 0.180558 0.292280 0.702985
O O2 0.344726 0.387881 0.607982
O O3 0.750000 0.500000 0.616727
O O4 0.882038 0.250112 0.527373
O O5 0.961518 0.348676 0.661702
O O6 0.945791 0.669853 0.562308
O O7 0.000000 0.980503 0.250000
O O8 0.918784 0.982181 0.395272
#
# Coordination Sequence:
#
# PCOD9422693 Si02
#       4
#     4   8   8   8
#     4  10  22  44  66  90 134 180 218 282 342 394
#     4  10  22  42  70 100 131 174 227 282 331 397
#     4  11  25  42  67  99 135 181 223 275 340 411
#     4  10  21  43  68  97 130 175 229 280 335 392
#
# _framework density 23.918527000000001
#
# number of rings (size 3 to 8) (size 9 to 14) (size 15 to 20)
#    0.000    1.714    1.429    1.714    2.000    5.714 
#   10.286    0.000    0.000    0.000    0.000    0.000 
#    0.000    0.000    0.000    0.000    0.000    0.000 
#
# Total GULP energy -156320.949057 kJ/mol
# GULP energy per Si atom -5582.891038 kJ/mol
# Density = 2.386409 g / cm^3
# Si number density = 23.918527 Si / 1000 Ang^3
#
#
#
# Elastic Constant Matrix: (Units=GPa)
#
#
# Indices 1 2 3 4 5 6 
#
# 1 157.9084 31.1439 10.6070 0.0000 0.0000 0.0000
# 2 31.1439 65.2990 4.7589 0.0000 0.0000 0.0000
# 3 10.6070 4.7589 58.4663 0.0000 0.0000 0.0000
# 4 0.0000 0.0000 0.0000 25.0656 0.0000 0.0000
# 5 0.0000 0.0000 0.0000 0.0000 26.8242 0.0000
# 6 0.0000 0.0000 0.0000 0.0000 0.0000 20.5615
#
#
#
# Elastic Compliance Matrix: (Units=1/GPa)
#
#
# Indices 1 2 3 4 5 6 
#
# 1 0.007049 -0.003288 -0.001011 0.000000 0.000000 0.000000
# 2 -0.003288 0.016940 -0.000782 0.000000 0.000000 0.000000
# 3 -0.001011 -0.000782 0.017351 0.000000 0.000000 0.000000
# 4 0.000000 0.000000 0.000000 0.039895 0.000000 0.000000
# 5 0.000000 0.000000 0.000000 0.000000 0.037280 0.000000
# 6 0.000000 0.000000 0.000000 0.000000 0.000000 0.048634
#
#
# Mechanical properties :
#
#
# Convention : Reuss Voigt Hill
#
# Bulk Modulus (GPa) = 32.07581 41.63257 36.85419
# Shear Modulus (GPa) = 26.63753 30.16787 28.40270
#
# Velocity S-wave (km/s) = 3.34080 3.55530 3.44972
# Velocity P-wave (km/s) = 5.32173 5.85639 5.59545
#
# Compressibility (1/GPa) = 0.03117615
#
# Stress axis : x y z
#
# Youngs Moduli (GPa) = 141.85853 59.03344 57.63357
#
# Poissons Ratio (x) = 0.19413 0.05828
# Poissons Ratio (y) = 0.46649 0.04508
# Poissons Ratio (z) = 0.14345 0.04618
#
# Static dielectric constant tensor:
#      x y z
#    x 1.876560 0.000000 0.000000 
#    y 0.000000 1.983240 0.000000 
#    z 0.000000 0.000000 1.939880 
# 
# From -- ./inp_files/20750.got.cif
#   From: 2010.05.17/outbox.cif.g08.bks.cpg/sg54_11_cif.got.tgz:20750.got - 2010.06.03 13:09:01.
