data_PCOD9422169
_publ_section_title
;
Structure prediction by ZEFSAII (Michael W. Deem and Ramdas Pophale) SiO2 
 PCOD9422169
Probable space group: P C C A
;
_chemical_formula_sum "Si O2"
_cell_formula_units_Z 40
_cell_length_a 5.146068
_cell_length_b 26.292040
_cell_length_c 13.634098
_cell_angle_alpha 90.000000
_cell_angle_beta 90.000000
_cell_angle_gamma 90.000000
_cell_volume 1844.701990
_symmetry_space_group_name_H-M "P C C A"
_symmetry_group_IT_number 54
_symmetry_cell_setting 'orthorhombic'
loop_
_space_group_symop_operation_xyz
x,y,z
1/2-x,-y,z
1/2+x,-y,1/2-z
-x,y,1/2-z
-x,-y,-z
1/2+x,y,-z
1/2-x,y,1/2+z
x,-y,1/2+z
loop_
_atom_site_type_symbol
_atom_site_label
_atom_site_fract_x
_atom_site_fract_y
_atom_site_fract_z
Si Si1 0.659354 0.942698 0.042145
Si Si2 0.752294 0.342090 0.439151
Si Si3 0.747909 0.555451 0.819452
Si Si4 0.000000 0.839971 0.250000
Si Si5 0.106698 0.765584 0.070113
Si Si6 0.500000 0.088398 0.750000
O O1 0.533602 0.943295 0.149905
O O2 0.750000 0.000000 0.015304
O O3 0.442993 0.917341 0.971986
O O4 0.555893 0.339728 0.532182
O O5 0.717616 0.395775 0.387418
O O6 0.652565 0.291254 0.384808
O O7 0.750000 0.500000 0.871247
O O8 0.500000 0.553919 0.750000
O O9 0.000000 0.560818 0.750000
O O10 0.050665 0.804516 0.156374
O O11 0.249696 0.876041 0.253945
O O12 0.367420 0.771247 0.005503
#
# Coordination Sequence:
#
# PCOD9422169 Si02
#       6
#     8   8   8   4   8   4
#     4  10  23  43  67  96 131 173 213 257 317 369
#     4  10  21  38  59  85 112 153 203 252 313 370
#     4  10  21  36  55  85 119 152 193 247 314 383
#     4  12  26  41  64  96 126 177 214 254 344 370
#     4  10  23  43  62  88 126 161 213 270 310 382
#     4  12  26  41  66 102 132 167 224 268 310 386
#
# _framework density 21.683720999999998
#
# number of rings (size 3 to 8) (size 9 to 14) (size 15 to 20)
#    0.000    1.600    0.000    3.600    1.400    8.800 
#    1.800    0.000    0.000    0.000    0.000    0.000 
#    0.000    0.000    0.000    0.000    0.000    0.000 
#
# Total GULP energy -223104.947008 kJ/mol
# GULP energy per Si atom -5577.623675 kJ/mol
# Density = 2.163437 g / cm^3
# Si number density = 21.683721 Si / 1000 Ang^3
#
#
#
# Elastic Constant Matrix: (Units=GPa)
#
#
# Indices 1 2 3 4 5 6 
#
# 1 157.3030 25.5692 32.5152 0.0000 0.0000 0.0000
# 2 25.5692 76.3654 34.0384 0.0000 0.0000 0.0000
# 3 32.5152 34.0384 76.6604 0.0000 0.0000 0.0000
# 4 0.0000 0.0000 0.0000 46.0463 0.0000 0.0000
# 5 0.0000 0.0000 0.0000 0.0000 24.6700 0.0000
# 6 0.0000 0.0000 0.0000 0.0000 0.0000 12.0988
#
#
#
# Elastic Compliance Matrix: (Units=1/GPa)
#
#
# Indices 1 2 3 4 5 6 
#
# 1 0.007068 -0.001284 -0.002427 0.000000 0.000000 0.000000
# 2 -0.001284 0.016560 -0.006808 0.000000 0.000000 0.000000
# 3 -0.002427 -0.006808 0.017097 0.000000 0.000000 0.000000
# 4 0.000000 0.000000 0.000000 0.021717 0.000000 0.000000
# 5 0.000000 0.000000 0.000000 0.000000 0.040535 0.000000
# 6 0.000000 0.000000 0.000000 0.000000 0.000000 0.082653
#
#
# Mechanical properties :
#
#
# Convention : Reuss Voigt Hill
#
# Bulk Modulus (GPa) = 50.80115 54.95272 52.87694
# Shear Modulus (GPa) = 23.44886 31.11011 27.27948
#
# Velocity S-wave (km/s) = 3.29204 3.79188 3.55077
# Velocity P-wave (km/s) = 6.15866 6.67600 6.42254
#
# Compressibility (1/GPa) = 0.01968459
#
# Stress axis : x y z
#
# Youngs Moduli (GPa) = 141.48866 60.38829 58.49012
#
# Poissons Ratio (x) = 0.07757 0.14198
# Poissons Ratio (y) = 0.18174 0.39819
# Poissons Ratio (z) = 0.34345 0.41112
#
# Static dielectric constant tensor:
#      x y z
#    x 1.850120 0.000000 0.000000 
#    y 0.000000 1.912310 0.000000 
#    z 0.000000 0.000000 1.776200 
# 
# From -- ./inp_files/10857.got.cif
#   From: 2010.05.17/outbox.cif.g08.bks.cpg/sg54_6_cif.got.tgz:10857.got - 2010.06.03 13:09:01.
