data_PCOD9422099
_publ_section_title
;
Structure prediction by ZEFSAII (Michael W. Deem and Ramdas Pophale) SiO2 
 PCOD9422099
Probable space group: P C C A
;
_chemical_formula_sum "Si O2"
_cell_formula_units_Z 60
_cell_length_a 25.542493
_cell_length_b 7.494156
_cell_length_c 18.131005
_cell_angle_alpha 90.000000
_cell_angle_beta 90.000000
_cell_angle_gamma 90.000000
_cell_volume 3470.626591
_symmetry_space_group_name_H-M "P C C A"
_symmetry_group_IT_number 54
_symmetry_cell_setting 'orthorhombic'
loop_
_space_group_symop_operation_xyz
x,y,z
1/2-x,-y,z
1/2+x,-y,1/2-z
-x,y,1/2-z
-x,-y,-z
1/2+x,y,-z
1/2-x,y,1/2+z
x,-y,1/2+z
loop_
_atom_site_type_symbol
_atom_site_label
_atom_site_fract_x
_atom_site_fract_y
_atom_site_fract_z
Si Si1 0.250000 0.212966 0.188665
Si Si2 0.837428 0.789499 0.190930
Si Si3 0.041395 0.210326 0.312528
Si Si4 0.458605 0.789678 0.812528
Si Si5 0.041447 0.500002 0.435456
Si Si6 0.250000 0.500000 0.560636
Si Si7 0.337428 0.210507 0.809069
Si Si8 0.335902 0.499997 0.434455
O O1 0.299846 0.254564 0.240836
O O2 0.250001 0.329882 0.115189
O O3 0.200154 0.254567 0.240836
O O4 0.250000 0.000000 0.173367
O O5 0.898310 0.758898 0.210992
O O6 0.825900 0.669365 0.119399
O O7 0.830390 0.000004 0.174432
O O8 0.032797 0.327685 0.384392
O O9 0.101690 0.241106 0.289007
O O10 0.000000 0.260758 0.250000
O O11 0.035407 0.000002 0.327495
O O12 0.500000 0.739246 0.750000
O O13 0.467204 0.672319 0.884392
O O14 0.102848 0.500003 0.456693
O O15 0.000000 0.500000 0.500000
O O16 0.299475 0.499999 0.505618
O O17 0.325901 0.330644 0.880599
#
# Coordination Sequence:
#
# PCOD9422099 Si02
#       8
#     8   8   8   8   8   4   8   8
#     4  10  21  35  53  77 101 126 162 210 256 292
#     4   9  18  35  56  74  95 129 171 207 241 289
#     4   9  18  33  54  77  98 126 167 209 246 287
#     4   9  18  33  54  77  98 126 167 209 246 287
#     4  10  21  34  49  74 105 135 165 198 243 296
#     4  12  24  34  48  76 108 132 160 202 252 300
#     4   9  18  35  56  74  95 129 171 207 241 289
#     4  10  21  35  52  73 100 136 170 199 238 295
#
# _framework density 17.287946000000002
#
# number of rings (size 3 to 8) (size 9 to 14) (size 15 to 20)
#    0.000    2.400    0.000    2.000    0.000    3.733 
#    0.000    0.000    0.000    0.000    0.000    0.000 
#    0.000    0.000    0.000    0.000    0.000    0.000 
#
# Total GULP energy -334783.808488 kJ/mol
# GULP energy per Si atom -5579.730141 kJ/mol
# Density = 1.724860 g / cm^3
# Si number density = 17.287946 Si / 1000 Ang^3
#
#
#
# Elastic Constant Matrix: (Units=GPa)
#
#
# Indices 1 2 3 4 5 6 
#
# 1 133.5835 69.0885 121.1011 0.0000 0.0000 0.0000
# 2 69.0885 79.0035 76.1377 0.0000 0.0000 0.0000
# 3 121.1011 76.1377 153.5510 0.0000 0.0000 0.0000
# 4 0.0000 0.0000 0.0000 27.6432 0.0000 0.0000
# 5 0.0000 0.0000 0.0000 0.0000 39.8530 0.0000
# 6 0.0000 0.0000 0.0000 0.0000 0.0000 19.5418
#
#
#
# Elastic Compliance Matrix: (Units=1/GPa)
#
#
# Indices 1 2 3 4 5 6 
#
# 1 0.027706 -0.006072 -0.018840 0.000000 0.000000 0.000000
# 2 -0.006072 0.025573 -0.007891 0.000000 0.000000 0.000000
# 3 -0.018840 -0.007891 0.025284 0.000000 0.000000 0.000000
# 4 0.000000 0.000000 0.000000 0.036175 0.000000 0.000000
# 5 0.000000 0.000000 0.000000 0.000000 0.025092 0.000000
# 6 0.000000 0.000000 0.000000 0.000000 0.000000 0.051172
#
#
# Mechanical properties :
#
#
# Convention : Reuss Voigt Hill
#
# Bulk Modulus (GPa) = 77.18563 99.86584 88.52573
# Shear Modulus (GPa) = 19.16238 24.06165 21.61202
#
# Velocity S-wave (km/s) = 3.33291 3.73475 3.53954
# Velocity P-wave (km/s) = 7.71719 8.74582 8.24756
#
# Compressibility (1/GPa) = 0.01295578
#
# Stress axis : x y z
#
# Youngs Moduli (GPa) = 36.09318 39.10409 39.55107
#
# Poissons Ratio (x) = 0.23745 0.74514
# Poissons Ratio (y) = 0.21917 0.31210
# Poissons Ratio (z) = 0.67999 0.30857
#
# Static dielectric constant tensor:
#      x y z
#    x 1.598240 0.000000 0.000000 
#    y 0.000000 1.603840 0.000000 
#    z 0.000000 0.000000 1.527370 
# 
# From -- ./inp_files/14977.got.cif
#   From: 2010.05.17/outbox.cif.g08.bks.cpg/sg54_8_cif.got.tgz:14977.got - 2010.06.03 13:09:01.
