data_PCOD9422626
_publ_section_title
;
Structure prediction by ZEFSAII (Michael W. Deem and Ramdas Pophale) SiO2 
 PCOD9422626
Probable space group: P C C A
;
_chemical_formula_sum "Si O2"
_cell_formula_units_Z 40
_cell_length_a 28.574467
_cell_length_b 6.414374
_cell_length_c 10.128597
_cell_angle_alpha 90.000000
_cell_angle_beta 90.000000
_cell_angle_gamma 90.000000
_cell_volume 1856.443381
_symmetry_space_group_name_H-M "P C C A"
_symmetry_group_IT_number 54
_symmetry_cell_setting 'orthorhombic'
loop_
_space_group_symop_operation_xyz
x,y,z
1/2-x,-y,z
1/2+x,-y,1/2-z
-x,y,1/2-z
-x,-y,-z
1/2+x,y,-z
1/2-x,y,1/2+z
x,-y,1/2+z
loop_
_atom_site_type_symbol
_atom_site_label
_atom_site_fract_x
_atom_site_fract_y
_atom_site_fract_z
Si Si1 0.048430 0.621624 0.182625
Si Si2 0.702841 0.615550 0.752027
Si Si3 0.071085 0.325054 0.395002
Si Si4 0.500000 0.026484 0.750000
Si Si5 0.250000 0.000000 0.382312
Si Si6 0.170859 0.700991 0.973130
O O1 0.081495 0.498666 0.283011
O O2 0.000000 0.549905 0.250000
O O3 0.039221 0.870939 0.186850
O O4 0.056028 0.563890 0.031554
O O5 0.750000 0.500000 0.800946
O O6 0.719303 0.841855 0.704434
O O7 0.684900 0.484609 0.626657
O O8 0.668535 0.627164 0.876082
O O9 0.120452 0.215019 0.427626
O O10 0.030672 0.165147 0.349803
O O11 0.212904 0.134230 0.464483
#
# Coordination Sequence:
#
# PCOD9422626 Si02
#       6
#     8   8   8   4   4   8
#     4  10  24  41  67  87 127 166 207 262 315 369
#     4  10  21  42  64  91 124 166 205 258 318 371
#     4  12  23  42  63  96 124 166 211 259 317 375
#     4  10  24  40  66  88 126 166 210 260 310 372
#     4  10  22  42  66  92 126 168 204 262 314 372
#     4  11  24  39  66  93 128 161 212 258 312 381
#
# _framework density 21.546579000000001
#
# number of rings (size 3 to 8) (size 9 to 14) (size 15 to 20)
#    0.600    0.800    1.000    4.800    0.000    4.800 
#    0.000    0.000    0.000    0.000    0.000    0.000 
#    0.000    0.000    0.000    0.000    0.000    0.000 
#
# Total GULP energy -222943.127097 kJ/mol
# GULP energy per Si atom -5573.578177 kJ/mol
# Density = 2.149754 g / cm^3
# Si number density = 21.546579 Si / 1000 Ang^3
#
#
#
# Elastic Constant Matrix: (Units=GPa)
#
#
# Indices 1 2 3 4 5 6 
#
# 1 63.7197 15.3653 20.4909 0.0000 0.0000 0.0000
# 2 15.3653 88.5836 48.5295 0.0000 0.0000 0.0000
# 3 20.4909 48.5295 141.9842 0.0000 0.0000 0.0000
# 4 0.0000 0.0000 0.0000 12.6549 0.0000 0.0000
# 5 0.0000 0.0000 0.0000 0.0000 2.7766 0.0000
# 6 0.0000 0.0000 0.0000 0.0000 0.0000 21.8945
#
#
#
# Elastic Compliance Matrix: (Units=1/GPa)
#
#
# Indices 1 2 3 4 5 6 
#
# 1 0.016725 -0.001942 -0.001750 0.000000 0.000000 0.000000
# 2 -0.001942 0.014115 -0.004544 0.000000 0.000000 0.000000
# 3 -0.001750 -0.004544 0.008849 0.000000 0.000000 0.000000
# 4 0.000000 0.000000 0.000000 0.079021 0.000000 0.000000
# 5 0.000000 0.000000 0.000000 0.000000 0.360156 0.000000
# 6 0.000000 0.000000 0.000000 0.000000 0.000000 0.045673
#
#
# Mechanical properties :
#
#
# Convention : Reuss Voigt Hill
#
# Bulk Modulus (GPa) = 43.07379 51.45102 47.26240
# Shear Modulus (GPa) = 9.11162 21.45865 15.28513
#
# Velocity S-wave (km/s) = 2.05864 3.15924 2.66635
# Velocity P-wave (km/s) = 5.06804 6.10234 5.60908
#
# Compressibility (1/GPa) = 0.02321598
#
# Stress axis : x y z
#
# Youngs Moduli (GPa) = 59.79137 70.84579 113.01044
#
# Poissons Ratio (x) = 0.13761 0.19774
# Poissons Ratio (y) = 0.11614 0.51354
# Poissons Ratio (z) = 0.10462 0.32194
#
# Static dielectric constant tensor:
#      x y z
#    x 1.877660 0.000000 0.000000 
#    y 0.000000 1.818720 0.000000 
#    z 0.000000 0.000000 1.781920 
# 
# From -- ./inp_files/10454.got.cif
#   From: 2010.05.17/outbox.cif.g08.bks.cpg/sg54_6_cif.got.tgz:10454.got - 2010.06.03 13:09:01.
