data_PCOD9422485
_publ_section_title
;
Structure prediction by ZEFSAII (Michael W. Deem and Ramdas Pophale) SiO2 
 PCOD9422485
Probable space group: P C C A
;
_chemical_formula_sum "Si O2"
_cell_formula_units_Z 56
_cell_length_a 15.356055
_cell_length_b 14.195928
_cell_length_c 13.086165
_cell_angle_alpha 90.000000
_cell_angle_beta 90.000000
_cell_angle_gamma 90.000000
_cell_volume 2852.698271
_symmetry_space_group_name_H-M "P C C A"
_symmetry_group_IT_number 54
_symmetry_cell_setting 'orthorhombic'
loop_
_space_group_symop_operation_xyz
x,y,z
1/2-x,-y,z
1/2+x,-y,1/2-z
-x,y,1/2-z
-x,-y,-z
1/2+x,y,-z
1/2-x,y,1/2+z
x,-y,1/2+z
loop_
_atom_site_type_symbol
_atom_site_label
_atom_site_fract_x
_atom_site_fract_y
_atom_site_fract_z
Si Si1 0.288830 0.910475 0.899663
Si Si2 0.581413 0.965225 0.431376
Si Si3 0.844599 0.230652 0.994456
Si Si4 0.345059 0.452577 0.001288
Si Si5 0.980100 0.553318 0.868820
Si Si6 0.595479 0.859988 0.785661
Si Si7 0.483294 0.232479 0.629136
O O1 0.348720 0.859761 0.816900
O O2 0.250000 0.000000 0.839441
O O3 0.340080 0.964771 0.989331
O O4 0.227918 0.833937 0.952986
O O5 0.575266 0.857076 0.396372
O O6 0.500000 0.000000 0.500000
O O7 0.588160 0.035500 0.336004
O O8 0.826600 0.341467 0.996733
O O9 0.864729 0.199636 0.878631
O O10 0.930144 0.215279 0.063422
O O11 0.250000 0.500000 0.985633
O O12 0.397739 0.489002 0.101134
O O13 0.425979 0.469695 0.921533
O O14 0.954509 0.661326 0.898014
O O15 0.000000 0.549449 0.750000
O O16 0.500000 0.828578 0.750000
O O17 0.500000 0.231565 0.750000
#
# Coordination Sequence:
#
# PCOD9422485 Si02
#       7
#     8   8   8   8   8   8   8
#     4  12  26  41  60  93 134 168 214 271 327 380
#     4  12  22  40  63  91 130 172 218 264 315 393
#     4  11  25  45  61 101 131 164 220 275 326 392
#     4  10  23  45  70  95 134 169 218 278 336 391
#     4   9  21  44  69 100 130 172 216 272 337 398
#     4  12  25  43  66  94 128 179 220 259 327 390
#     4  10  21  39  69  93 128 170 215 260 327 401
#
# _framework density 19.630537
#
# number of rings (size 3 to 8) (size 9 to 14) (size 15 to 20)
#    0.000    1.143    4.286    0.429    6.000    1.143 
#   10.286    0.000    0.000    0.000    0.000    0.000 
#    0.000    0.000    0.000    0.000    0.000    0.000 
#
# Total GULP energy -312296.261484 kJ/mol
# GULP energy per Si atom -5576.718955 kJ/mol
# Density = 1.958586 g / cm^3
# Si number density = 19.630537 Si / 1000 Ang^3
#
#
#
# Elastic Constant Matrix: (Units=GPa)
#
#
# Indices 1 2 3 4 5 6 
#
# 1 90.1019 52.0822 32.8964 0.0000 0.0000 0.0000
# 2 52.0822 92.4349 14.7157 0.0000 0.0000 0.0000
# 3 32.8964 14.7157 71.3007 0.0000 0.0000 0.0000
# 4 0.0000 0.0000 0.0000 9.1935 0.0000 0.0000
# 5 0.0000 0.0000 0.0000 0.0000 21.7506 0.0000
# 6 0.0000 0.0000 0.0000 0.0000 0.0000 37.9813
#
#
#
# Elastic Compliance Matrix: (Units=1/GPa)
#
#
# Indices 1 2 3 4 5 6 
#
# 1 0.019239 -0.009747 -0.006865 0.000000 0.000000 0.000000
# 2 -0.009747 0.016124 0.001169 0.000000 0.000000 0.000000
# 3 -0.006865 0.001169 0.016951 0.000000 0.000000 0.000000
# 4 0.000000 0.000000 0.000000 0.108772 0.000000 0.000000
# 5 0.000000 0.000000 0.000000 0.000000 0.045976 0.000000
# 6 0.000000 0.000000 0.000000 0.000000 0.000000 0.026329
#
#
# Mechanical properties :
#
#
# Convention : Reuss Voigt Hill
#
# Bulk Modulus (GPa) = 46.66587 50.35848 48.51217
# Shear Modulus (GPa) = 18.42162 24.06130 21.24146
#
# Velocity S-wave (km/s) = 3.06668 3.50481 3.29304
# Velocity P-wave (km/s) = 6.03018 6.48745 6.26299
#
# Compressibility (1/GPa) = 0.02142894
#
# Stress axis : x y z
#
# Youngs Moduli (GPa) = 51.97699 62.01765 58.99357
#
# Poissons Ratio (x) = 0.60451 0.40498
# Poissons Ratio (y) = 0.50664 -0.06898
# Poissons Ratio (z) = 0.35681 -0.07252
#
# Static dielectric constant tensor:
#      x y z
#    x 1.760000 0.000000 0.000000 
#    y 0.000000 1.726720 0.000000 
#    z 0.000000 0.000000 1.674170 
# 
# From -- ./inp_files/8405.got.cif
#   From: 2010.05.17/outbox.cif.g08.bks.cpg/sg54_5_cif.got.tgz:8405.got - 2010.06.03 13:09:01.
