data_PCOD9422384
_publ_section_title
;
Structure prediction by ZEFSAII (Michael W. Deem and Ramdas Pophale) SiO2 
 PCOD9422384
Probable space group: P C C A
;
_chemical_formula_sum "Si O2"
_cell_formula_units_Z 32
_cell_length_a 14.798192
_cell_length_b 9.913360
_cell_length_c 8.781484
_cell_angle_alpha 90.000000
_cell_angle_beta 90.000000
_cell_angle_gamma 90.000000
_cell_volume 1288.241987
_symmetry_space_group_name_H-M "P C C A"
_symmetry_group_IT_number 54
_symmetry_cell_setting 'orthorhombic'
loop_
_space_group_symop_operation_xyz
x,y,z
1/2-x,-y,z
1/2+x,-y,1/2-z
-x,y,1/2-z
-x,-y,-z
1/2+x,y,-z
1/2-x,y,1/2+z
x,-y,1/2+z
loop_
_atom_site_type_symbol
_atom_site_label
_atom_site_fract_x
_atom_site_fract_y
_atom_site_fract_z
Si Si1 0.593567 0.911293 0.836578
Si Si2 0.878981 0.618592 0.894448
Si Si3 0.322319 0.115125 0.481398
Si Si4 0.592431 0.657113 0.042286
O O1 0.500000 0.885282 0.750000
O O2 0.662869 0.897306 0.697626
O O3 0.750000 0.000000 0.977691
O O4 0.594617 0.057186 0.916375
O O5 0.815830 0.728865 0.975442
O O6 0.873573 0.641277 0.714270
O O7 0.982939 0.644286 0.948389
O O8 0.866283 0.463610 0.941456
O O9 0.110234 0.200182 0.535164
#
# Coordination Sequence:
#
# PCOD9422384 Si02
#       4
#     8   8   8   8
#     4  12  24  42  67 101 136 189 245 302 347 425
#     4  10  21  39  67 105 143 179 226 297 357 422
#     4  12  26  43  65  98 146 190 235 296 368 430
#     4  10  21  38  69 106 137 175 239 294 349 414
#
# _framework density 24.840053999999999
#
# number of rings (size 3 to 8) (size 9 to 14) (size 15 to 20)
#    0.000    1.000    2.500    4.500    7.000    0.000 
#    0.000    2.500    0.000    6.000    0.000    0.000 
#    0.000    0.000    0.000    0.000    0.000    0.000 
#
# Total GULP energy -179266.572287 kJ/mol
# GULP energy per Si atom -5602.080384 kJ/mol
# Density = 2.478352 g / cm^3
# Si number density = 24.840054 Si / 1000 Ang^3
#
#
#
# Elastic Constant Matrix: (Units=GPa)
#
#
# Indices 1 2 3 4 5 6 
#
# 1 48.9317 25.4665 19.0245 0.0000 0.0000 0.0000
# 2 25.4665 153.3272 29.7194 0.0000 0.0000 0.0000
# 3 19.0245 29.7194 109.8312 0.0000 0.0000 0.0000
# 4 0.0000 0.0000 0.0000 56.6081 0.0000 0.0000
# 5 0.0000 0.0000 0.0000 0.0000 19.9465 0.0000
# 6 0.0000 0.0000 0.0000 0.0000 0.0000 42.4063
#
#
#
# Elastic Compliance Matrix: (Units=1/GPa)
#
#
# Indices 1 2 3 4 5 6 
#
# 1 0.023367 -0.003268 -0.003163 0.000000 0.000000 0.000000
# 2 -0.003268 0.007340 -0.001420 0.000000 0.000000 0.000000
# 3 -0.003163 -0.001420 0.010037 0.000000 0.000000 0.000000
# 4 0.000000 0.000000 0.000000 0.017665 0.000000 0.000000
# 5 0.000000 0.000000 0.000000 0.000000 0.050134 0.000000
# 6 0.000000 0.000000 0.000000 0.000000 0.000000 0.023581
#
#
# Mechanical properties :
#
#
# Convention : Reuss Voigt Hill
#
# Bulk Modulus (GPa) = 39.93338 51.16786 45.55062
# Shear Modulus (GPa) = 32.01529 39.65082 35.83305
#
# Velocity S-wave (km/s) = 3.59396 3.99964 3.80221
# Velocity P-wave (km/s) = 5.77349 6.47867 6.13622
#
# Compressibility (1/GPa) = 0.02504171
#
# Stress axis : x y z
#
# Youngs Moduli (GPa) = 42.79479 136.23896 99.63058
#
# Poissons Ratio (x) = 0.44523 0.31516
# Poissons Ratio (y) = 0.13985 0.14148
# Poissons Ratio (z) = 0.13537 0.19347
#
# Static dielectric constant tensor:
#      x y z
#    x 2.162200 0.000000 0.000000 
#    y 0.000000 1.861980 0.000000 
#    z 0.000000 0.000000 1.861150 
# 
# From -- ./inp_files/3260.got.cif
#   From: 2010.05.17/outbox.cif.g08.bks.cpg/sg54_2_cif.got.tgz:3260.got - 2010.06.03 13:09:01.
