data_PCOD9422477
_publ_section_title
;
Structure prediction by ZEFSAII (Michael W. Deem and Ramdas Pophale) SiO2 
 PCOD9422477
Probable space group: P C C A
;
_chemical_formula_sum "Si O2"
_cell_formula_units_Z 56
_cell_length_a 9.059403
_cell_length_b 15.055749
_cell_length_c 21.366290
_cell_angle_alpha 90.000000
_cell_angle_beta 90.000000
_cell_angle_gamma 90.000000
_cell_volume 2914.278577
_symmetry_space_group_name_H-M "P C C A"
_symmetry_group_IT_number 54
_symmetry_cell_setting 'orthorhombic'
loop_
_space_group_symop_operation_xyz
x,y,z
1/2-x,-y,z
1/2+x,-y,1/2-z
-x,y,1/2-z
-x,-y,-z
1/2+x,y,-z
1/2-x,y,1/2+z
x,-y,1/2+z
loop_
_atom_site_type_symbol
_atom_site_label
_atom_site_fract_x
_atom_site_fract_y
_atom_site_fract_z
Si Si1 0.481516 0.552659 0.822127
Si Si2 0.099786 0.942872 0.314477
Si Si3 0.086880 0.042304 0.557872
Si Si4 0.448024 0.747012 0.820761
Si Si5 0.121639 0.751453 0.055732
Si Si6 0.631978 0.363964 0.993704
Si Si7 0.250000 0.500000 0.602773
Si Si8 0.750000 0.500000 0.093594
O O1 0.500000 0.530231 0.750000
O O2 0.393652 0.646182 0.828175
O O3 0.641716 0.557695 0.854233
O O4 0.386819 0.483259 0.860903
O O5 0.141346 0.838543 0.327222
O O6 0.000000 0.948939 0.250000
O O7 0.001818 0.967862 0.375964
O O8 0.250000 0.000000 0.309308
O O9 0.098966 0.146204 0.539370
O O10 0.250000 0.000000 0.564252
O O11 0.000000 0.000000 0.500000
O O12 0.500000 0.748571 0.750000
O O13 0.579745 0.751856 0.871089
O O14 0.015896 0.678629 0.021808
O O15 0.281141 0.718443 0.035811
O O16 0.712382 0.416328 0.049951
O O17 0.643882 0.439936 0.940689
#
# Coordination Sequence:
#
# PCOD9422477 Si02
#       8
#     8   8   8   8   8   8   4   4
#     4  11  21  37  58  83 116 154 190 241 294 348
#     4  10  21  39  67  93 121 161 205 253 309 375
#     4  11  23  40  61  93 125 161 207 256 314 374
#     4   9  19  37  59  82 112 152 195 232 294 357
#     4  11  21  38  59  82 117 156 190 242 303 347
#     4  11  21  35  56  84 114 152 196 239 287 351
#     4  11  21  36  58  86 115 151 202 238 288 357
#     4  11  21  36  56  84 115 149 198 238 288 349
#
# _framework density 19.215734999999999
#
# number of rings (size 3 to 8) (size 9 to 14) (size 15 to 20)
#    0.000    1.429    2.857    3.000    0.000    3.429 
#    0.000    0.000    0.000    0.857    0.000    0.000 
#    0.000    0.000    0.000    0.000    0.000    0.000 
#
# Total GULP energy -311757.212573 kJ/mol
# GULP energy per Si atom -5567.093082 kJ/mol
# Density = 1.917200 g / cm^3
# Si number density = 19.215735 Si / 1000 Ang^3
#
#
#
# Elastic Constant Matrix: (Units=GPa)
#
#
# Indices 1 2 3 4 5 6 
#
# 1 74.7938 30.6912 39.6619 0.0000 0.0000 0.0000
# 2 30.6912 103.4077 32.8831 0.0000 0.0000 0.0000
# 3 39.6619 32.8831 137.3603 0.0000 0.0000 0.0000
# 4 0.0000 0.0000 0.0000 -17.2963 0.0000 0.0000
# 5 0.0000 0.0000 0.0000 0.0000 65.3398 0.0000
# 6 0.0000 0.0000 0.0000 0.0000 0.0000 19.6589
#
#
#
# Elastic Compliance Matrix: (Units=1/GPa)
#
#
# Indices 1 2 3 4 5 6 
#
# 1 0.017054 -0.003784 -0.004018 0.000000 0.000000 0.000000
# 2 -0.003784 0.011307 -0.001614 0.000000 0.000000 0.000000
# 3 -0.004018 -0.001614 0.008827 0.000000 0.000000 0.000000
# 4 0.000000 0.000000 0.000000 -0.057816 0.000000 0.000000
# 5 0.000000 0.000000 0.000000 0.000000 0.015305 0.000000
# 6 0.000000 0.000000 0.000000 0.000000 0.000000 0.050868
#
#
# Mechanical properties :
#
#
# Convention : Reuss Voigt Hill
#
# Bulk Modulus (GPa) = 54.48202 58.00380 56.24291
# Shear Modulus (GPa) = 70.92786 27.69552 49.31169
#
# Velocity S-wave (km/s) = 6.08206 3.80056 5.07128
# Velocity P-wave (km/s) = 8.81682 7.03634 7.97642
#
# Compressibility (1/GPa) = 0.01835468
#
# Stress axis : x y z
#
# Youngs Moduli (GPa) = 58.63889 88.44258 113.29101
#
# Poissons Ratio (x) = 0.33464 0.45524
# Poissons Ratio (y) = 0.22187 0.18288
# Poissons Ratio (z) = 0.23563 0.14277
#
# Static dielectric constant tensor:
#      x y z
#    x 1.678100 0.000000 0.000000 
#    y 0.000000 1.764290 0.000000 
#    z 0.000000 0.000000 1.679370 
# 
# From -- ./inp_files/20588.got.cif
#   From: 2010.05.17/outbox.cif.g08.bks.cpg/sg54_11_cif.got.tgz:20588.got - 2010.06.03 13:09:01.
