data_PCOD9422492
_publ_section_title
;
Structure prediction by ZEFSAII (Michael W. Deem and Ramdas Pophale) SiO2 
 PCOD9422492
Probable space group: P C C A
;
_chemical_formula_sum "Si O2"
_cell_formula_units_Z 64
_cell_length_a 31.744225
_cell_length_b 9.463685
_cell_length_c 10.675584
_cell_angle_alpha 90.000000
_cell_angle_beta 90.000000
_cell_angle_gamma 90.000000
_cell_volume 3207.130612
_symmetry_space_group_name_H-M "P C C A"
_symmetry_group_IT_number 54
_symmetry_cell_setting 'orthorhombic'
loop_
_space_group_symop_operation_xyz
x,y,z
1/2-x,-y,z
1/2+x,-y,1/2-z
-x,y,1/2-z
-x,-y,-z
1/2+x,y,-z
1/2-x,y,1/2+z
x,-y,1/2+z
loop_
_atom_site_type_symbol
_atom_site_label
_atom_site_fract_x
_atom_site_fract_y
_atom_site_fract_z
Si Si1 0.732007 0.851089 0.742505
Si Si2 0.691139 0.306742 0.706228
Si Si3 0.950108 0.908813 0.259115
Si Si4 0.833800 0.857150 0.465834
Si Si5 0.395257 0.346458 0.180258
Si Si6 0.622440 0.644697 0.394453
Si Si7 0.592858 0.934017 0.493583
Si Si8 0.820905 0.615801 0.120358
O O1 0.771576 0.757873 0.789126
O O2 0.698494 0.880267 0.852358
O O3 0.708834 0.749895 0.642687
O O4 0.750000 0.000000 0.696402
O O5 0.689588 0.210514 0.582977
O O6 0.645394 0.298137 0.770315
O O7 0.698585 0.469401 0.669290
O O8 0.934773 0.747974 0.282125
O O9 0.000000 0.921420 0.250000
O O10 0.932065 0.995480 0.377778
O O11 0.928940 0.956005 0.127883
O O12 0.868645 0.742156 0.421768
O O13 0.860571 0.996568 0.497120
O O14 0.403858 0.504292 0.133581
O O15 0.362620 0.360007 0.295246
O O16 0.597730 0.769251 0.461659
O O17 0.661981 0.599023 0.480879
#
# Coordination Sequence:
#
# PCOD9422492 Si02
#       8
#     8   8   8   8   8   8   8   8
#     4  11  25  39  56  86 121 159 212 274 329 365
#     4  11  23  38  60  87 122 163 216 272 325 379
#     4  11  23  43  68 101 136 173 211 272 338 400
#     4  10  22  40  60  89 123 168 213 267 324 396
#     4   9  20  41  64  89 123 165 214 260 318 400
#     4  11  21  38  67  93 118 171 221 262 322 394
#     4  11  23  41  70  97 134 172 219 266 328 411
#     4  10  21  40  60  85 121 165 214 264 318 390
#
# _framework density 19.955532000000002
#
# number of rings (size 3 to 8) (size 9 to 14) (size 15 to 20)
#    0.000    1.500    2.500    2.250    3.500    0.500 
#    0.000    1.250    0.000    0.000    0.000    0.000 
#    0.000    0.000    0.000    0.000    0.000    0.000 
#
# Total GULP energy -357535.493211 kJ/mol
# GULP energy per Si atom -5586.492081 kJ/mol
# Density = 1.991011 g / cm^3
# Si number density = 19.955532 Si / 1000 Ang^3
#
#
#
# Elastic Constant Matrix: (Units=GPa)
#
#
# Indices 1 2 3 4 5 6 
#
# 1 83.3553 42.4832 28.3547 0.0000 0.0000 0.0000
# 2 42.4832 125.5985 37.3081 0.0000 0.0000 0.0000
# 3 28.3547 37.3081 85.0895 0.0000 0.0000 0.0000
# 4 0.0000 0.0000 0.0000 24.5901 0.0000 0.0000
# 5 0.0000 0.0000 0.0000 0.0000 21.0910 0.0000
# 6 0.0000 0.0000 0.0000 0.0000 0.0000 23.0533
#
#
#
# Elastic Compliance Matrix: (Units=1/GPa)
#
#
# Indices 1 2 3 4 5 6 
#
# 1 0.015235 -0.004191 -0.003239 0.000000 0.000000 0.000000
# 2 -0.004191 0.010307 -0.003123 0.000000 0.000000 0.000000
# 3 -0.003239 -0.003123 0.014201 0.000000 0.000000 0.000000
# 4 0.000000 0.000000 0.000000 0.040667 0.000000 0.000000
# 5 0.000000 0.000000 0.000000 0.000000 0.047413 0.000000
# 6 0.000000 0.000000 0.000000 0.000000 0.000000 0.043378
#
#
# Mechanical properties :
#
#
# Convention : Reuss Voigt Hill
#
# Bulk Modulus (GPa) = 53.65635 56.70393 55.18014
# Shear Modulus (GPa) = 25.18661 26.14004 25.66332
#
# Velocity S-wave (km/s) = 3.55651 3.62320 3.59001
# Velocity P-wave (km/s) = 6.61901 6.78088 6.70043
#
# Compressibility (1/GPa) = 0.01863712
#
# Stress axis : x y z
#
# Youngs Moduli (GPa) = 65.63984 97.02167 70.41812
#
# Poissons Ratio (x) = 0.40661 0.22810
# Poissons Ratio (y) = 0.27509 0.21989
# Poissons Ratio (z) = 0.21262 0.30296
#
# Static dielectric constant tensor:
#      x y z
#    x 1.684970 0.000000 0.000000 
#    y 0.000000 1.713650 0.000000 
#    z 0.000000 0.000000 1.754790 
# 
# From -- ./inp_files/10553.got.cif
#   From: 2010.05.17/outbox.cif.g08.bks.cpg/sg54_6_cif.got.tgz:10553.got - 2010.06.03 13:09:01.
