data_PCOD9422422
_publ_section_title
;
Structure prediction by ZEFSAII (Michael W. Deem and Ramdas Pophale) SiO2 
 PCOD9422422
Probable space group: P C C A
;
_chemical_formula_sum "Si O2"
_cell_formula_units_Z 40
_cell_length_a 8.639008
_cell_length_b 15.429584
_cell_length_c 14.030136
_cell_angle_alpha 90.000000
_cell_angle_beta 90.000000
_cell_angle_gamma 90.000000
_cell_volume 1870.165212
_symmetry_space_group_name_H-M "P C C A"
_symmetry_group_IT_number 54
_symmetry_cell_setting 'orthorhombic'
loop_
_space_group_symop_operation_xyz
x,y,z
1/2-x,-y,z
1/2+x,-y,1/2-z
-x,y,1/2-z
-x,-y,-z
1/2+x,y,-z
1/2-x,y,1/2+z
x,-y,1/2+z
loop_
_atom_site_type_symbol
_atom_site_label
_atom_site_fract_x
_atom_site_fract_y
_atom_site_fract_z
Si Si1 0.500000 0.699288 0.250000
Si Si2 0.983408 0.377141 0.066034
Si Si3 0.011618 0.194870 0.960314
Si Si4 0.181751 0.161018 0.133968
Si Si5 0.250000 0.500000 0.046553
Si Si6 0.660366 0.923091 0.694445
O O1 0.589279 0.651129 0.166137
O O2 0.380732 0.756062 0.189973
O O3 0.135690 0.431723 0.095940
O O4 0.864466 0.439588 0.013841
O O5 0.024789 0.294764 0.997444
O O6 0.120628 0.157823 0.875427
O O7 0.838044 0.181092 0.923833
O O8 0.054099 0.139146 0.054584
O O9 0.222286 0.097721 0.219378
O O10 0.500000 0.943355 0.750000
O O11 0.750000 0.000000 0.640166
#
# Coordination Sequence:
#
# PCOD9422422 Si02
#       6
#     4   8   8   8   4   8
#     4  10  22  36  66  92 126 172 224 264 320 400
#     4  10  21  39  62  91 130 170 217 265 328 393
#     4  10  22  42  66  96 132 180 221 270 340 400
#     4  10  23  39  66  97 126 175 227 269 326 398
#     4  10  22  38  62  92 126 170 208 276 328 382
#     4  10  24  42  64  99 134 172 223 280 334 395
#
# _framework density 21.388484999999999
#
# number of rings (size 3 to 8) (size 9 to 14) (size 15 to 20)
#    0.000    2.000    0.000    2.400    9.800    1.600 
#    0.000    4.000    2.200    0.000    0.000    0.000 
#    0.000    0.000    0.000    0.000    0.000    0.000 
#
# Total GULP energy -222858.600379 kJ/mol
# GULP energy per Si atom -5571.465009 kJ/mol
# Density = 2.133980 g / cm^3
# Si number density = 21.388485 Si / 1000 Ang^3
#
#
#
# Elastic Constant Matrix: (Units=GPa)
#
#
# Indices 1 2 3 4 5 6 
#
# 1 59.5040 28.7014 42.9511 0.0000 0.0000 0.0000
# 2 28.7014 82.6480 42.8935 0.0000 0.0000 0.0000
# 3 42.9511 42.8935 120.6981 0.0000 0.0000 0.0000
# 4 0.0000 0.0000 0.0000 43.7645 0.0000 0.0000
# 5 0.0000 0.0000 0.0000 0.0000 33.2717 0.0000
# 6 0.0000 0.0000 0.0000 0.0000 0.0000 31.7224
#
#
#
# Elastic Compliance Matrix: (Units=1/GPa)
#
#
# Indices 1 2 3 4 5 6 
#
# 1 0.024073 -0.004799 -0.006861 0.000000 0.000000 0.000000
# 2 -0.004799 0.015793 -0.003905 0.000000 0.000000 0.000000
# 3 -0.006861 -0.003905 0.012114 0.000000 0.000000 0.000000
# 4 0.000000 0.000000 0.000000 0.022850 0.000000 0.000000
# 5 0.000000 0.000000 0.000000 0.000000 0.030056 0.000000
# 6 0.000000 0.000000 0.000000 0.000000 0.000000 0.031523
#
#
# Mechanical properties :
#
#
# Convention : Reuss Voigt Hill
#
# Bulk Modulus (GPa) = 47.96071 54.66025 51.31048
# Shear Modulus (GPa) = 28.65537 31.63866 30.14701
#
# Velocity S-wave (km/s) = 3.66424 3.85026 3.75840
# Velocity P-wave (km/s) = 6.35409 6.73627 6.54797
#
# Compressibility (1/GPa) = 0.02085040
#
# Stress axis : x y z
#
# Youngs Moduli (GPa) = 41.54069 63.32114 82.54746
#
# Poissons Ratio (x) = 0.30388 0.56635
# Poissons Ratio (y) = 0.19936 0.32231
# Poissons Ratio (z) = 0.28501 0.24724
#
# Static dielectric constant tensor:
#      x y z
#    x 1.863470 0.000000 0.000000 
#    y 0.000000 1.893490 0.000000 
#    z 0.000000 0.000000 1.800600 
# 
# From -- ./inp_files/6905.got.cif
#   From: 2010.05.17/outbox.cif.g08.bks.cpg/sg54_4_cif.got.tgz:6905.got - 2010.06.03 13:09:01.
