data_PCOD9422709
_publ_section_title
;
Structure prediction by ZEFSAII (Michael W. Deem and Ramdas Pophale) SiO2 
 PCOD9422709
Probable space group: P C C A
;
_chemical_formula_sum "Si O2"
_cell_formula_units_Z 60
_cell_length_a 17.832627
_cell_length_b 10.141321
_cell_length_c 14.462542
_cell_angle_alpha 90.000000
_cell_angle_beta 90.000000
_cell_angle_gamma 90.000000
_cell_volume 2615.498579
_symmetry_space_group_name_H-M "P C C A"
_symmetry_group_IT_number 54
_symmetry_cell_setting 'orthorhombic'
loop_
_space_group_symop_operation_xyz
x,y,z
1/2-x,-y,z
1/2+x,-y,1/2-z
-x,y,1/2-z
-x,-y,-z
1/2+x,y,-z
1/2-x,y,1/2+z
x,-y,1/2+z
loop_
_atom_site_type_symbol
_atom_site_label
_atom_site_fract_x
_atom_site_fract_y
_atom_site_fract_z
Si Si1 0.839636 0.480894 0.372328
Si Si2 0.462375 0.322197 0.104366
Si Si3 0.250000 0.000000 0.476971
Si Si4 0.842108 0.297266 0.213885
Si Si5 0.044733 0.936481 0.326129
Si Si6 0.381878 0.544473 0.912978
Si Si7 0.688761 0.197621 0.175582
Si Si8 0.396678 0.132358 0.956088
O O1 0.750000 0.500000 0.357262
O O2 0.891362 0.607572 0.347544
O O3 0.868828 0.357849 0.310963
O O4 0.855747 0.462302 0.480907
O O5 0.498719 0.197485 0.155026
O O6 0.528278 0.430959 0.092608
O O7 0.433539 0.253669 0.009895
O O8 0.217671 0.885983 0.411644
O O9 0.325131 0.926032 0.514000
O O10 0.848409 0.423160 0.145187
O O11 0.759364 0.241159 0.234448
O O12 0.876400 0.186229 0.147180
O O13 0.124622 0.894341 0.283844
O O14 0.000000 0.017904 0.250000
O O15 0.054580 0.008121 0.423683
O O16 0.347314 0.672960 0.866594
#
# Coordination Sequence:
#
# PCOD9422709 Si02
#       8
#     8   8   4   8   8   8   8   8
#     4  12  26  39  64 103 132 177 226 269 334 402
#     4  11  25  43  67  97 137 168 228 277 332 401
#     4   8  18  36  66  90 114 176 224 256 334 390
#     4  11  23  40  67  95 138 173 223 275 332 400
#     4  10  23  40  69  95 128 177 223 274 341 389
#     4  11  23  42  63  97 135 175 214 274 338 400
#     4   9  19  39  64  90 130 174 219 268 330 394
#     4  10  21  44  66  94 130 178 218 277 332 407
#
# _framework density 22.940175
#
# number of rings (size 3 to 8) (size 9 to 14) (size 15 to 20)
#    0.000    1.600    1.333    2.800    7.467    1.067 
#    0.000    0.000    0.000    3.200    0.000    0.000 
#    0.000    0.000    0.000    0.000    0.000    0.000 
#
# Total GULP energy -334516.183921 kJ/mol
# GULP energy per Si atom -5575.269732 kJ/mol
# Density = 2.288796 g / cm^3
# Si number density = 22.940175 Si / 1000 Ang^3
#
#
#
# Elastic Constant Matrix: (Units=GPa)
#
#
# Indices 1 2 3 4 5 6 
#
# 1 105.3074 25.4319 10.9735 0.0000 0.0000 0.0000
# 2 25.4319 80.5944 -4.3987 0.0000 0.0000 0.0000
# 3 10.9735 -4.3987 58.1078 0.0000 0.0000 0.0000
# 4 0.0000 0.0000 0.0000 22.8965 0.0000 0.0000
# 5 0.0000 0.0000 0.0000 0.0000 19.9037 0.0000
# 6 0.0000 0.0000 0.0000 0.0000 0.0000 15.7353
#
#
#
# Elastic Compliance Matrix: (Units=1/GPa)
#
#
# Indices 1 2 3 4 5 6 
#
# 1 0.010566 -0.003457 -0.002257 0.000000 0.000000 0.000000
# 2 -0.003457 0.013591 0.001682 0.000000 0.000000 0.000000
# 3 -0.002257 0.001682 0.017763 0.000000 0.000000 0.000000
# 4 0.000000 0.000000 0.000000 0.043675 0.000000 0.000000
# 5 0.000000 0.000000 0.000000 0.000000 0.050242 0.000000
# 6 0.000000 0.000000 0.000000 0.000000 0.000000 0.063551
#
#
# Mechanical properties :
#
#
# Convention : Reuss Voigt Hill
#
# Bulk Modulus (GPa) = 29.53847 34.22475 31.88161
# Shear Modulus (GPa) = 22.85839 25.84063 24.34951
#
# Velocity S-wave (km/s) = 3.16006 3.35988 3.26150
# Velocity P-wave (km/s) = 5.12044 5.47752 5.30199
#
# Compressibility (1/GPa) = 0.03385416
#
# Stress axis : x y z
#
# Youngs Moduli (GPa) = 94.64164 73.58033 56.29693
#
# Poissons Ratio (x) = 0.25440 0.12707
# Poissons Ratio (y) = 0.32721 -0.09468
# Poissons Ratio (z) = 0.21362 -0.12374
#
# Static dielectric constant tensor:
#      x y z
#    x 1.949930 0.000000 0.000000 
#    y 0.000000 1.908960 0.000000 
#    z 0.000000 0.000000 1.857260 
# 
# From -- ./inp_files/14283.got.cif
#   From: 2010.05.17/outbox.cif.g08.bks.cpg/sg54_8_cif.got.tgz:14283.got - 2010.06.03 13:09:01.
