data_PCOD9422679
_publ_section_title
;
Structure prediction by ZEFSAII (Michael W. Deem and Ramdas Pophale) SiO2 
 PCOD9422679
Probable space group: P C C A
;
_chemical_formula_sum "Si O2"
_cell_formula_units_Z 40
_cell_length_a 23.023437
_cell_length_b 5.047251
_cell_length_c 14.450042
_cell_angle_alpha 90.000000
_cell_angle_beta 90.000000
_cell_angle_gamma 90.000000
_cell_volume 1679.168076
_symmetry_space_group_name_H-M "P C C A"
_symmetry_group_IT_number 54
_symmetry_cell_setting 'orthorhombic'
loop_
_space_group_symop_operation_xyz
x,y,z
1/2-x,-y,z
1/2+x,-y,1/2-z
-x,y,1/2-z
-x,-y,-z
1/2+x,y,-z
1/2-x,y,1/2+z
x,-y,1/2+z
loop_
_atom_site_type_symbol
_atom_site_label
_atom_site_fract_x
_atom_site_fract_y
_atom_site_fract_z
Si Si1 0.398935 0.120601 0.117426
Si Si2 0.636709 0.613701 0.289274
Si Si3 0.186310 0.533711 0.034619
Si Si4 0.594783 0.395925 0.106259
Si Si5 0.516930 0.889484 0.140221
O O1 0.410351 0.410125 0.163336
O O2 0.376477 0.919622 0.195888
O O3 0.458925 0.988724 0.087982
O O4 0.346297 0.182542 0.046620
O O5 0.689200 0.561433 0.358848
O O6 0.637267 0.514972 0.185721
O O7 0.250000 0.500000 0.993432
O O8 0.136122 0.373605 0.981944
O O9 0.545356 0.623298 0.100332
O O10 0.563383 0.125539 0.132081
O O11 0.500000 0.854182 0.250000
#
# Coordination Sequence:
#
# PCOD9422679 Si02
#       5
#     8   8   8   8   8
#     4  10  22  41  66  94 131 179 208 270 345 389
#     4  10  21  43  65  97 132 173 224 262 345 394
#     4  10  27  47  67  95 142 175 237 283 318 398
#     4  12  24  40  72 103 132 180 221 278 343 407
#     4  12  21  40  69 101 143 166 217 282 341 414
#
# _framework density 23.821321999999999
#
# number of rings (size 3 to 8) (size 9 to 14) (size 15 to 20)
#    1.200    0.000    4.000    1.800    2.800    3.200 
#    0.000    0.000    4.400    0.000    0.000    0.000 
#    0.000    0.000    0.000    0.000    0.000    0.000 
#
# Total GULP energy -222992.933013 kJ/mol
# GULP energy per Si atom -5574.823325 kJ/mol
# Density = 2.376710 g / cm^3
# Si number density = 23.821322 Si / 1000 Ang^3
#
#
#
# Elastic Constant Matrix: (Units=GPa)
#
#
# Indices 1 2 3 4 5 6 
#
# 1 150.1088 40.5745 38.9679 0.0000 0.0000 0.0000
# 2 40.5745 130.8514 12.8353 0.0000 0.0000 0.0000
# 3 38.9679 12.8353 62.3372 0.0000 0.0000 0.0000
# 4 0.0000 0.0000 0.0000 26.0544 0.0000 0.0000
# 5 0.0000 0.0000 0.0000 0.0000 30.8574 0.0000
# 6 0.0000 0.0000 0.0000 0.0000 0.0000 13.4880
#
#
#
# Elastic Compliance Matrix: (Units=1/GPa)
#
#
# Indices 1 2 3 4 5 6 
#
# 1 0.008512 -0.002161 -0.004876 0.000000 0.000000 0.000000
# 2 -0.002161 0.008348 -0.000368 0.000000 0.000000 0.000000
# 3 -0.004876 -0.000368 0.019166 0.000000 0.000000 0.000000
# 4 0.000000 0.000000 0.000000 0.038381 0.000000 0.000000
# 5 0.000000 0.000000 0.000000 0.000000 0.032407 0.000000
# 6 0.000000 0.000000 0.000000 0.000000 0.000000 0.074140
#
#
# Mechanical properties :
#
#
# Convention : Reuss Voigt Hill
#
# Bulk Modulus (GPa) = 47.13466 58.67255 52.90360
# Shear Modulus (GPa) = 24.65047 30.80794 27.72920
#
# Velocity S-wave (km/s) = 3.22033 3.60014 3.41552
# Velocity P-wave (km/s) = 5.80147 6.47805 6.14907
#
# Compressibility (1/GPa) = 0.02121581
#
# Stress axis : x y z
#
# Youngs Moduli (GPa) = 117.48511 119.78259 52.17707
#
# Poissons Ratio (x) = 0.25886 0.25441
# Poissons Ratio (y) = 0.25389 0.01920
# Poissons Ratio (z) = 0.57284 0.04409
#
# Static dielectric constant tensor:
#      x y z
#    x 1.927550 0.000000 0.000000 
#    y 0.000000 1.894200 0.000000 
#    z 0.000000 0.000000 1.995180 
# 
# From -- ./inp_files/14831.got.cif
#   From: 2010.05.17/outbox.cif.g08.bks.cpg/sg54_8_cif.got.tgz:14831.got - 2010.06.03 13:09:01.
