data_PCOD9422533
_publ_section_title
;
Structure prediction by ZEFSAII (Michael W. Deem and Ramdas Pophale) SiO2 
 PCOD9422533
Probable space group: P C C A
;
_chemical_formula_sum "Si O2"
_cell_formula_units_Z 64
_cell_length_a 13.499979
_cell_length_b 9.419946
_cell_length_c 23.559643
_cell_angle_alpha 90.000000
_cell_angle_beta 90.000000
_cell_angle_gamma 90.000000
_cell_volume 2996.057965
_symmetry_space_group_name_H-M "P C C A"
_symmetry_group_IT_number 54
_symmetry_cell_setting 'orthorhombic'
loop_
_space_group_symop_operation_xyz
x,y,z
1/2-x,-y,z
1/2+x,-y,1/2-z
-x,y,1/2-z
-x,-y,-z
1/2+x,y,-z
1/2-x,y,1/2+z
x,-y,1/2+z
loop_
_atom_site_type_symbol
_atom_site_label
_atom_site_fract_x
_atom_site_fract_y
_atom_site_fract_z
Si Si1 0.067326 0.272496 0.351302
Si Si2 0.899903 0.237057 0.630729
Si Si3 0.722378 0.336240 0.554612
Si Si4 0.961569 0.451869 0.814738
Si Si5 0.698951 0.152199 0.950454
Si Si6 0.462702 0.996107 0.109856
Si Si7 0.751452 0.162275 0.715777
Si Si8 0.303713 0.778354 0.660974
O O1 0.117181 0.310548 0.413175
O O2 0.161913 0.256257 0.309272
O O3 0.986720 0.386900 0.331124
O O4 0.014747 0.120606 0.351426
O O5 0.801691 0.280083 0.599375
O O6 0.860609 0.205683 0.694049
O O7 0.972977 0.366246 0.639279
O O8 0.951469 0.109556 0.597011
O O9 0.750000 0.500000 0.544724
O O10 0.752369 0.248363 0.498883
O O11 0.857172 0.370803 0.823391
O O12 0.000000 0.433658 0.750000
O O13 0.586110 0.097999 0.940417
O O14 0.729834 0.227594 0.891727
O O15 0.750000 0.000000 0.956252
O O16 0.382743 0.098148 0.141810
O O17 0.748756 0.170703 0.782997
O O18 0.750000 0.000000 0.694958
#
# Coordination Sequence:
#
# PCOD9422533 Si02
#       8
#     8   8   8   8   8   8   8   8
#     4  11  25  41  65 104 130 166 231 277 324 400
#     4  10  21  40  65  96 128 168 215 273 336 393
#     4  11  24  44  68  91 133 173 221 275 331 397
#     4  11  22  41  63  95 134 176 214 264 332 406
#     4  10  24  45  66  93 129 175 220 275 341 391
#     4  10  22  43  65  98 128 163 223 280 322 398
#     4  11  20  37  68  98 133 172 214 272 345 394
#     4  10  23  44  65  90 137 176 214 267 343 407
#
# _framework density 21.361402999999999
#
# number of rings (size 3 to 8) (size 9 to 14) (size 15 to 20)
#    0.000    1.500    3.750    1.125    1.750    3.500 
#    6.750    2.500    0.000    0.000    0.000    0.000 
#    0.000    0.000    0.000    0.000    0.000    0.000 
#
# Total GULP energy -356509.069127 kJ/mol
# GULP energy per Si atom -5570.454205 kJ/mol
# Density = 2.131278 g / cm^3
# Si number density = 21.361403 Si / 1000 Ang^3
#
#
#
# Elastic Constant Matrix: (Units=GPa)
#
#
# Indices 1 2 3 4 5 6 
#
# 1 35.1225 24.8779 -3.8550 0.0000 0.0000 0.0000
# 2 24.8779 102.4333 15.4410 0.0000 0.0000 0.0000
# 3 -3.8550 15.4410 86.2480 0.0000 0.0000 0.0000
# 4 0.0000 0.0000 0.0000 -15.4262 0.0000 0.0000
# 5 0.0000 0.0000 0.0000 0.0000 10.0749 0.0000
# 6 0.0000 0.0000 0.0000 0.0000 0.0000 16.6775
#
#
#
# Elastic Compliance Matrix: (Units=1/GPa)
#
#
# Indices 1 2 3 4 5 6 
#
# 1 0.035222 -0.009036 0.003192 0.000000 0.000000 0.000000
# 2 -0.009036 0.012351 -0.002615 0.000000 0.000000 0.000000
# 3 0.003192 -0.002615 0.012205 0.000000 0.000000 0.000000
# 4 0.000000 0.000000 0.000000 -0.064825 0.000000 0.000000
# 5 0.000000 0.000000 0.000000 0.000000 0.099256 0.000000
# 6 0.000000 0.000000 0.000000 0.000000 0.000000 0.059961
#
#
# Mechanical properties :
#
#
# Convention : Reuss Voigt Hill
#
# Bulk Modulus (GPa) = 23.33109 32.97016 28.15063
# Shear Modulus (GPa) = 26.97234 14.75459 20.86346
#
# Velocity S-wave (km/s) = 3.55726 2.63099 3.12859
# Velocity P-wave (km/s) = 5.27427 4.96965 5.12422
#
# Compressibility (1/GPa) = 0.04286126
#
# Stress axis : x y z
#
# Youngs Moduli (GPa) = 28.39122 80.96443 81.93147
#
# Poissons Ratio (x) = 0.73156 -0.26152
# Poissons Ratio (y) = 0.25653 0.21426
# Poissons Ratio (z) = -0.09062 0.21173
#
# Static dielectric constant tensor:
#      x y z
#    x 1.896110 0.000000 0.000000 
#    y 0.000000 1.786160 0.000000 
#    z 0.000000 0.000000 1.828990 
# 
# From -- ./inp_files/24526.got.cif
#   From: 2010.05.17/outbox.cif.g08.bks.cpg/sg54_13_cif.got.tgz:24526.got - 2010.06.03 13:09:01.
