data_PCOD9422798
_publ_section_title
;
Structure prediction by ZEFSAII (Michael W. Deem and Ramdas Pophale) SiO2 
 PCOD9422798
Probable space group: P C C A
;
_chemical_formula_sum "Si O2"
_cell_formula_units_Z 60
_cell_length_a 26.888389
_cell_length_b 7.699743
_cell_length_c 13.503603
_cell_angle_alpha 90.000000
_cell_angle_beta 90.000000
_cell_angle_gamma 90.000000
_cell_volume 2795.700690
_symmetry_space_group_name_H-M "P C C A"
_symmetry_group_IT_number 54
_symmetry_cell_setting 'orthorhombic'
loop_
_space_group_symop_operation_xyz
x,y,z
1/2-x,-y,z
1/2+x,-y,1/2-z
-x,y,1/2-z
-x,-y,-z
1/2+x,y,-z
1/2-x,y,1/2+z
x,-y,1/2+z
loop_
_atom_site_type_symbol
_atom_site_label
_atom_site_fract_x
_atom_site_fract_y
_atom_site_fract_z
Si Si1 0.551581 0.051154 0.695601
Si Si2 0.750000 0.000000 0.255201
Si Si3 0.261388 0.691901 0.090831
Si Si4 0.361387 0.813085 0.997687
Si Si5 0.852692 0.854559 0.227636
Si Si6 0.064623 0.361777 0.434931
Si Si7 0.342887 0.779219 0.547942
Si Si8 0.463322 0.257546 0.459962
O O1 0.500000 0.073325 0.750000
O O2 0.570180 0.235593 0.657323
O O3 0.598413 0.967571 0.750715
O O4 0.539267 0.911943 0.608469
O O5 0.739029 0.835784 0.324490
O O6 0.801964 0.959290 0.203747
O O7 0.250000 0.500000 0.128460
O O8 0.214289 0.737147 0.020034
O O9 0.315105 0.709628 0.041400
O O10 0.362839 0.771218 0.879530
O O11 0.416759 0.765516 0.035218
O O12 0.353218 0.019050 0.018702
O O13 0.844496 0.757388 0.331943
O O14 0.114988 0.338994 0.498097
O O15 0.048809 0.556994 0.409448
O O16 0.017554 0.280931 0.494083
#
# Coordination Sequence:
#
# PCOD9422798 Si02
#       8
#     8   4   8   8   8   8   8   8
#     4  11  23  38  61  91 126 163 208 255 315 369
#     4  10  22  40  60  90 126 158 208 248 304 370
#     4  11  22  40  65  92 123 165 206 253 309 365
#     4  11  21  40  65  89 124 166 201 256 313 364
#     4  10  22  37  63  90 121 164 202 257 308 361
#     4  11  22  40  64  90 120 171 207 252 319 372
#     4  11  21  41  65  90 123 165 210 251 307 375
#     4  10  23  39  61  91 124 160 210 258 307 374
#
# _framework density 21.461525000000002
#
# number of rings (size 3 to 8) (size 9 to 14) (size 15 to 20)
#    0.000    1.333    5.333    2.000    3.733    0.533 
#    0.000    9.333    0.000    0.000    0.000    0.000 
#    0.000    0.000    0.000    0.000    0.000    0.000 
#
# Total GULP energy -334597.669614 kJ/mol
# GULP energy per Si atom -5576.627827 kJ/mol
# Density = 2.141268 g / cm^3
# Si number density = 21.461525 Si / 1000 Ang^3
#
#
#
# Elastic Constant Matrix: (Units=GPa)
#
#
# Indices 1 2 3 4 5 6 
#
# 1 123.3434 -23.0361 2.1962 0.0000 0.0000 0.0000
# 2 -23.0361 78.5744 -3.4961 0.0000 0.0000 0.0000
# 3 2.1962 -3.4961 35.5935 0.0000 0.0000 0.0000
# 4 0.0000 0.0000 0.0000 14.9044 0.0000 0.0000
# 5 0.0000 0.0000 0.0000 0.0000 35.6259 0.0000
# 6 0.0000 0.0000 0.0000 0.0000 0.0000 37.5124
#
#
#
# Elastic Compliance Matrix: (Units=1/GPa)
#
#
# Indices 1 2 3 4 5 6 
#
# 1 0.008580 0.002503 -0.000284 0.000000 0.000000 0.000000
# 2 0.002503 0.013513 0.001173 0.000000 0.000000 0.000000
# 3 -0.000284 0.001173 0.028228 0.000000 0.000000 0.000000
# 4 0.000000 0.000000 0.000000 0.067094 0.000000 0.000000
# 5 0.000000 0.000000 0.000000 0.000000 0.028069 0.000000
# 6 0.000000 0.000000 0.000000 0.000000 0.000000 0.026658
#
#
# Mechanical properties :
#
#
# Convention : Reuss Voigt Hill
#
# Bulk Modulus (GPa) = 17.51173 20.98214 19.24694
# Shear Modulus (GPa) = 27.11606 35.06503 31.09054
#
# Velocity S-wave (km/s) = 3.55839 4.04648 3.81026
# Velocity P-wave (km/s) = 5.00601 5.62405 5.32401
#
# Compressibility (1/GPa) = 0.05710458
#
# Stress axis : x y z
#
# Youngs Moduli (GPa) = 116.55110 74.00430 35.42614
#
# Poissons Ratio (x) = -0.18522 0.01005
# Poissons Ratio (y) = -0.29170 -0.04155
# Poissons Ratio (z) = 0.03305 -0.08680
#
# Static dielectric constant tensor:
#      x y z
#    x 1.794170 0.000000 0.000000 
#    y 0.000000 1.809840 0.000000 
#    z 0.000000 0.000000 1.800890 
# 
# From -- ./inp_files/15248.got.cif
#   From: 2010.05.17/outbox.cif.g08.bks.cpg/sg54_8_cif.got.tgz:15248.got - 2010.06.03 13:09:01.
