data_PCOD9422404
_publ_section_title
;
Structure prediction by ZEFSAII (Michael W. Deem and Ramdas Pophale) SiO2 
 PCOD9422404
Probable space group: P C C A
;
_chemical_formula_sum "Si O2"
_cell_formula_units_Z 48
_cell_length_a 30.681623
_cell_length_b 8.471133
_cell_length_c 8.550059
_cell_angle_alpha 90.000000
_cell_angle_beta 90.000000
_cell_angle_gamma 90.000000
_cell_volume 2222.229667
_symmetry_space_group_name_H-M "P C C A"
_symmetry_group_IT_number 54
_symmetry_cell_setting 'orthorhombic'
loop_
_space_group_symop_operation_xyz
x,y,z
1/2-x,-y,z
1/2+x,-y,1/2-z
-x,y,1/2-z
-x,-y,-z
1/2+x,y,-z
1/2-x,y,1/2+z
x,-y,1/2+z
loop_
_atom_site_type_symbol
_atom_site_label
_atom_site_fract_x
_atom_site_fract_y
_atom_site_fract_z
Si Si1 0.277228 0.843327 0.393135
Si Si2 0.543898 0.588110 0.846606
Si Si3 0.871091 0.928144 0.598891
Si Si4 0.369609 0.240720 0.237423
Si Si5 0.954456 0.261920 0.195964
Si Si6 0.277891 0.355463 0.182717
O O1 0.326146 0.859101 0.330826
O O2 0.252031 0.696634 0.324042
O O3 0.278621 0.799454 0.574222
O O4 0.250000 0.000000 0.368639
O O5 0.500000 0.624751 0.750000
O O6 0.585090 0.668719 0.764929
O O7 0.551771 0.400813 0.823745
O O8 0.541214 0.650094 0.025712
O O9 0.871164 0.867318 0.420196
O O10 0.914194 0.857010 0.679328
O O11 0.867078 0.115857 0.621567
O O12 0.328914 0.363270 0.229215
O O13 0.000000 0.183334 0.250000
O O14 0.250000 0.500000 0.114231
#
# Coordination Sequence:
#
# PCOD9422404 Si02
#       6
#     8   8   8   8   8   8
#     4  11  22  41  63  88 123 165 205 254 310 371
#     4  10  21  39  61  89 123 160 203 251 310 367
#     4  10  23  39  60  89 120 158 206 249 307 367
#     4  10  23  41  59  90 123 159 205 255 305 370
#     4  10  21  39  62  90 121 161 205 252 308 369
#     4  11  24  40  61  92 124 160 209 257 310 367
#
# _framework density 21.599927000000001
#
# number of rings (size 3 to 8) (size 9 to 14) (size 15 to 20)
#    0.000    1.667    1.667    3.000    4.667    3.333 
#    3.000    3.333    0.000    0.000    0.000    0.000 
#    0.000    0.000    0.000    0.000    0.000    0.000 
#
# Total GULP energy -267671.807214 kJ/mol
# GULP energy per Si atom -5576.495984 kJ/mol
# Density = 2.155076 g / cm^3
# Si number density = 21.599927 Si / 1000 Ang^3
#
#
#
# Elastic Constant Matrix: (Units=GPa)
#
#
# Indices 1 2 3 4 5 6 
#
# 1 167.9210 58.0131 20.2427 0.0000 0.0000 0.0000
# 2 58.0131 69.5488 6.5894 0.0000 0.0000 0.0000
# 3 20.2427 6.5894 23.1831 0.0000 0.0000 0.0000
# 4 0.0000 0.0000 0.0000 -11.8872 0.0000 0.0000
# 5 0.0000 0.0000 0.0000 0.0000 4.7326 0.0000
# 6 0.0000 0.0000 0.0000 0.0000 0.0000 36.6351
#
#
#
# Elastic Compliance Matrix: (Units=1/GPa)
#
#
# Indices 1 2 3 4 5 6 
#
# 1 0.009100 -0.007027 -0.005948 0.000000 0.000000 0.000000
# 2 -0.007027 0.020203 0.000393 0.000000 0.000000 0.000000
# 3 -0.005948 0.000393 0.048217 0.000000 0.000000 0.000000
# 4 0.000000 0.000000 0.000000 -0.084124 0.000000 0.000000
# 5 0.000000 0.000000 0.000000 0.000000 0.211302 0.000000
# 6 0.000000 0.000000 0.000000 0.000000 0.000000 0.027296
#
#
# Mechanical properties :
#
#
# Convention : Reuss Voigt Hill
#
# Bulk Modulus (GPa) = 19.10013 47.81592 33.45803
# Shear Modulus (GPa) = 18.20766 17.61660 17.91213
#
# Velocity S-wave (km/s) = 2.90651 2.85895 2.88283
# Velocity P-wave (km/s) = 4.48616 5.75180 5.15795
#
# Compressibility (1/GPa) = 0.05235565
#
# Stress axis : x y z
#
# Youngs Moduli (GPa) = 109.89088 49.49859 20.73954
#
# Poissons Ratio (x) = 0.34783 0.12337
# Poissons Ratio (y) = 0.77220 -0.00816
# Poissons Ratio (z) = 0.65368 -0.01948
#
# Static dielectric constant tensor:
#      x y z
#    x 1.839820 0.000000 0.000000 
#    y 0.000000 1.822450 0.000000 
#    z 0.000000 0.000000 1.750170 
# 
# From -- ./inp_files/5813.got.cif
#   From: 2010.05.17/outbox.cif.g08.bks.cpg/sg54_3_cif.got.tgz:5813.got - 2010.06.03 13:09:01.
