data_PCOD9422717
_publ_section_title
;
Structure prediction by ZEFSAII (Michael W. Deem and Ramdas Pophale) SiO2 
 PCOD9422717
Probable space group: P C C A
;
_chemical_formula_sum "Si O2"
_cell_formula_units_Z 36
_cell_length_a 21.367004
_cell_length_b 6.367920
_cell_length_c 12.055231
_cell_angle_alpha 90.000000
_cell_angle_beta 90.000000
_cell_angle_gamma 90.000000
_cell_volume 1640.275381
_symmetry_space_group_name_H-M "P C C A"
_symmetry_group_IT_number 54
_symmetry_cell_setting 'orthorhombic'
loop_
_space_group_symop_operation_xyz
x,y,z
1/2-x,-y,z
1/2+x,-y,1/2-z
-x,y,1/2-z
-x,-y,-z
1/2+x,y,-z
1/2-x,y,1/2+z
x,-y,1/2+z
loop_
_atom_site_type_symbol
_atom_site_label
_atom_site_fract_x
_atom_site_fract_y
_atom_site_fract_z
Si Si1 0.368422 0.395982 0.370123
Si Si2 0.750000 0.500000 0.981254
Si Si3 0.588104 0.935703 0.447573
Si Si4 0.026044 0.685329 0.922962
Si Si5 0.800857 0.147972 0.820050
O O1 0.310985 0.484522 0.441894
O O2 0.396152 0.211227 0.447391
O O3 0.421625 0.570665 0.348986
O O4 0.339924 0.297383 0.260151
O O5 0.763075 0.296918 0.904941
O O6 0.534036 0.813785 0.378876
O O7 0.560429 0.149784 0.496896
O O8 0.649411 0.997533 0.380366
O O9 0.000000 0.500000 0.000000
O O10 0.750000 0.000000 0.759777
#
# Coordination Sequence:
#
# PCOD9422717 Si02
#       5
#     8   4   8   8   8
#     4  11  24  42  70  99 135 180 231 281 352 413
#     4  12  24  44  66 100 144 178 230 300 336 418
#     4  10  21  44  69  96 138 175 228 290 337 414
#     4   9  20  43  71  93 132 179 222 288 345 401
#     4  12  26  41  69 105 138 188 233 286 362 423
#
# _framework density 21.947533
#
# number of rings (size 3 to 8) (size 9 to 14) (size 15 to 20)
#    0.000    1.333    4.444    0.667    3.111    1.778 
#    0.000   12.222    0.000    0.000    0.000    0.000 
#    0.000    0.000    0.000    0.000    0.000    0.000 
#
# Total GULP energy -201190.499784 kJ/mol
# GULP energy per Si atom -5588.624994 kJ/mol
# Density = 2.189758 g / cm^3
# Si number density = 21.947533 Si / 1000 Ang^3
#
#
#
# Elastic Constant Matrix: (Units=GPa)
#
#
# Indices 1 2 3 4 5 6 
#
# 1 134.9944 67.6126 26.4999 0.0000 0.0000 0.0000
# 2 67.6126 115.8965 22.6346 0.0000 0.0000 0.0000
# 3 26.4999 22.6346 48.3437 0.0000 0.0000 0.0000
# 4 0.0000 0.0000 0.0000 28.0680 0.0000 0.0000
# 5 0.0000 0.0000 0.0000 0.0000 16.5426 0.0000
# 6 0.0000 0.0000 0.0000 0.0000 0.0000 76.9008
#
#
#
# Elastic Compliance Matrix: (Units=1/GPa)
#
#
# Indices 1 2 3 4 5 6 
#
# 1 0.010926 -0.005728 -0.003307 0.000000 0.000000 0.000000
# 2 -0.005728 0.012500 -0.002713 0.000000 0.000000 0.000000
# 3 -0.003307 -0.002713 0.023768 0.000000 0.000000 0.000000
# 4 0.000000 0.000000 0.000000 0.035628 0.000000 0.000000
# 5 0.000000 0.000000 0.000000 0.000000 0.060450 0.000000
# 6 0.000000 0.000000 0.000000 0.000000 0.000000 0.013004
#
#
# Mechanical properties :
#
#
# Convention : Reuss Voigt Hill
#
# Bulk Modulus (GPa) = 42.19739 59.19207 50.69473
# Shear Modulus (GPa) = 26.64247 36.46812 31.55529
#
# Velocity S-wave (km/s) = 3.48791 4.08070 3.79589
# Velocity P-wave (km/s) = 5.95726 7.01649 6.50846
#
# Compressibility (1/GPa) = 0.02369815
#
# Stress axis : x y z
#
# Youngs Moduli (GPa) = 91.52572 80.00080 42.07319
#
# Poissons Ratio (x) = 0.45826 0.13914
# Poissons Ratio (y) = 0.52427 0.11413
# Poissons Ratio (z) = 0.30269 0.21701
#
# Static dielectric constant tensor:
#      x y z
#    x 1.860710 0.000000 0.000000 
#    y 0.000000 1.787430 0.000000 
#    z 0.000000 0.000000 1.758980 
# 
# From -- ./inp_files/9724.got.cif
#   From: 2010.05.17/outbox.cif.g08.bks.cpg/sg54_5_cif.got.tgz:9724.got - 2010.06.03 13:09:01.
