data_PCOD9422710
_publ_section_title
;
Structure prediction by ZEFSAII (Michael W. Deem and Ramdas Pophale) SiO2 
 PCOD9422710
Probable space group: P C C A
;
_chemical_formula_sum "Si O2"
_cell_formula_units_Z 48
_cell_length_a 14.774599
_cell_length_b 9.144662
_cell_length_c 18.205904
_cell_angle_alpha 90.000000
_cell_angle_beta 90.000000
_cell_angle_gamma 90.000000
_cell_volume 2459.776277
_symmetry_space_group_name_H-M "P C C A"
_symmetry_group_IT_number 54
_symmetry_cell_setting 'orthorhombic'
loop_
_space_group_symop_operation_xyz
x,y,z
1/2-x,-y,z
1/2+x,-y,1/2-z
-x,y,1/2-z
-x,-y,-z
1/2+x,y,-z
1/2-x,y,1/2+z
x,-y,1/2+z
loop_
_atom_site_type_symbol
_atom_site_label
_atom_site_fract_x
_atom_site_fract_y
_atom_site_fract_z
Si Si1 0.750000 0.500000 0.810498
Si Si2 0.402103 0.621523 0.288289
Si Si3 0.500000 0.851595 0.750000
Si Si4 0.351347 0.056465 0.830252
Si Si5 0.619660 0.311935 0.374854
Si Si6 0.940420 0.137475 0.021424
Si Si7 0.506492 0.573949 0.422052
O O1 0.667031 0.474060 0.755914
O O2 0.776711 0.350768 0.854131
O O3 0.500000 0.627220 0.250000
O O4 0.365069 0.785143 0.294091
O O5 0.420401 0.556209 0.369034
O O6 0.440741 0.759097 0.690503
O O7 0.427748 0.949474 0.795829
O O8 0.369800 0.084053 0.916966
O O9 0.250000 0.000000 0.817892
O O10 0.602321 0.217561 0.449354
O O11 0.585591 0.478774 0.387626
O O12 0.006807 0.253844 0.062593
O O13 0.000000 0.000000 0.000000
O O14 0.500000 0.500000 0.500000
#
# Coordination Sequence:
#
# PCOD9422710 Si02
#       7
#     4   8   4   8   8   8   8
#     4  12  24  40  66 106 136 172 238 274 348 430
#     4  11  21  42  67  93 141 176 216 289 346 400
#     4  12  22  40  72  94 138 174 232 286 346 416
#     4  11  24  43  64 101 133 178 229 280 344 419
#     4  11  22  40  64 104 130 179 225 280 339 407
#     4  10  21  44  66  94 135 179 223 275 344 406
#     4   9  20  39  65  89 130 175 221 269 338 403
#
# _framework density 19.513968999999999
#
# number of rings (size 3 to 8) (size 9 to 14) (size 15 to 20)
#    0.000    1.333    4.167    2.000    0.000    0.000 
#    3.000    6.667    0.000    0.000    0.000    0.000 
#    0.000    0.000    0.000    0.000    0.000    0.000 
#
# Total GULP energy -267367.993710 kJ/mol
# GULP energy per Si atom -5570.166536 kJ/mol
# Density = 1.946955 g / cm^3
# Si number density = 19.513969 Si / 1000 Ang^3
#
#
#
# Elastic Constant Matrix: (Units=GPa)
#
#
# Indices 1 2 3 4 5 6 
#
# 1 97.4183 39.6421 46.8961 0.0000 0.0000 0.0000
# 2 39.6421 67.0420 41.4316 0.0000 0.0000 0.0000
# 3 46.8961 41.4316 130.0947 0.0000 0.0000 0.0000
# 4 0.0000 0.0000 0.0000 34.0665 0.0000 0.0000
# 5 0.0000 0.0000 0.0000 0.0000 19.4866 0.0000
# 6 0.0000 0.0000 0.0000 0.0000 0.0000 28.6882
#
#
#
# Elastic Compliance Matrix: (Units=1/GPa)
#
#
# Indices 1 2 3 4 5 6 
#
# 1 0.014456 -0.006633 -0.003099 0.000000 0.000000 0.000000
# 2 -0.006633 0.021614 -0.004493 0.000000 0.000000 0.000000
# 3 -0.003099 -0.004493 0.010234 0.000000 0.000000 0.000000
# 4 0.000000 0.000000 0.000000 0.029354 0.000000 0.000000
# 5 0.000000 0.000000 0.000000 0.000000 0.051317 0.000000
# 6 0.000000 0.000000 0.000000 0.000000 0.000000 0.034858
#
#
# Mechanical properties :
#
#
# Convention : Reuss Voigt Hill
#
# Bulk Modulus (GPa) = 56.00179 61.16607 58.58393
# Shear Modulus (GPa) = 25.47980 27.55394 26.51687
#
# Velocity S-wave (km/s) = 3.61740 3.76175 3.69028
# Velocity P-wave (km/s) = 6.79765 7.09087 6.94581
#
# Compressibility (1/GPa) = 0.01785657
#
# Stress axis : x y z
#
# Youngs Moduli (GPa) = 69.17687 46.26539 97.70914
#
# Poissons Ratio (x) = 0.30687 0.30276
# Poissons Ratio (y) = 0.45884 0.43897
# Poissons Ratio (z) = 0.21435 0.20785
#
# Static dielectric constant tensor:
#      x y z
#    x 1.690140 0.000000 0.000000 
#    y 0.000000 1.714440 0.000000 
#    z 0.000000 0.000000 1.717060 
# 
# From -- ./inp_files/18060.got.cif
#   From: 2010.05.17/outbox.cif.g08.bks.cpg/sg54_10_cif.got.tgz:18060.got - 2010.06.03 13:09:01.
