data_PCOD9422793
_publ_section_title
;
Structure prediction by ZEFSAII (Michael W. Deem and Ramdas Pophale) SiO2 
 PCOD9422793
Probable space group: P C C A
;
_chemical_formula_sum "Si O2"
_cell_formula_units_Z 60
_cell_length_a 13.886740
_cell_length_b 11.993531
_cell_length_c 18.979648
_cell_angle_alpha 90.000000
_cell_angle_beta 90.000000
_cell_angle_gamma 90.000000
_cell_volume 3161.080240
_symmetry_space_group_name_H-M "P C C A"
_symmetry_group_IT_number 54
_symmetry_cell_setting 'orthorhombic'
loop_
_space_group_symop_operation_xyz
x,y,z
1/2-x,-y,z
1/2+x,-y,1/2-z
-x,y,1/2-z
-x,-y,-z
1/2+x,y,-z
1/2-x,y,1/2+z
x,-y,1/2+z
loop_
_atom_site_type_symbol
_atom_site_label
_atom_site_fract_x
_atom_site_fract_y
_atom_site_fract_z
Si Si1 0.958083 0.278851 0.671175
Si Si2 0.750000 0.362591 0.131426
Si Si3 0.958083 0.721149 0.671175
Si Si4 0.932639 0.873873 0.931826
Si Si5 0.250000 0.500000 0.628412
Si Si6 0.567361 0.873873 0.931826
Si Si7 0.750000 0.281062 0.468038
Si Si8 0.043064 0.500000 0.671765
O O1 0.845233 0.308320 0.666932
O O2 0.000000 0.270844 0.750000
O O3 0.998678 0.174130 0.629255
O O4 0.006432 0.388362 0.635549
O O5 0.750000 0.500000 0.135552
O O6 0.845233 0.308321 0.166931
O O7 0.750000 0.322058 0.049514
O O8 0.000000 0.729157 0.750000
O O9 0.998678 0.825870 0.629255
O O10 0.006432 0.611639 0.635549
O O11 0.843119 0.793268 0.948698
O O12 0.899740 0.000000 0.916136
O O13 1.000000 0.876293 0.000000
O O14 0.250000 0.608790 0.579813
O O15 0.156346 0.500000 0.676021
O O16 0.656880 0.793267 0.948698
O O17 0.000000 0.500000 0.750000
#
# Coordination Sequence:
#
# PCOD9422793 Si02
#       8
#     8   8   8   8   4   8   8   8
#     4  11  24  42  64  97 132 172 213 268 325 392
#     4  12  24  39  65 101 135 168 210 264 335 392
#     4  11  24  42  64  97 132 172 213 268 325 392
#     4  11  24  43  67  92 129 173 221 272 318 380
#     4  12  22  36  68 102 122 172 220 270 322 394
#     4  11  24  43  67  92 129 173 221 272 318 380
#     4  12  23  39  66  99 131 166 221 267 327 387
#     4  10  22  37  60  93 131 169 205 265 323 385
#
# _framework density 18.980851999999999
#
# number of rings (size 3 to 8) (size 9 to 14) (size 15 to 20)
#    0.000    0.800    7.333    0.400    0.000    5.867 
#    0.000    4.667    0.000    0.000    0.000    0.000 
#    0.000    0.000    0.000    0.000    0.000    0.000 
#
# Total GULP energy -334854.658163 kJ/mol
# GULP energy per Si atom -5580.910969 kJ/mol
# Density = 1.893765 g / cm^3
# Si number density = 18.980852 Si / 1000 Ang^3
#
#
#
# Elastic Constant Matrix: (Units=GPa)
#
#
# Indices 1 2 3 4 5 6 
#
# 1 189.5093 57.8705 53.4307 0.0000 0.0000 0.0000
# 2 57.8705 144.1092 50.4160 0.0000 0.0000 0.0000
# 3 53.4307 50.4160 102.2326 0.0000 0.0000 0.0000
# 4 0.0000 0.0000 0.0000 -8.6873 0.0000 0.0000
# 5 0.0000 0.0000 0.0000 0.0000 26.7385 0.0000
# 6 0.0000 0.0000 0.0000 0.0000 0.0000 20.4850
#
#
#
# Elastic Compliance Matrix: (Units=1/GPa)
#
#
# Indices 1 2 3 4 5 6 
#
# 1 0.006525 -0.001725 -0.002560 0.000000 0.000000 0.000000
# 2 -0.001725 0.008842 -0.003459 0.000000 0.000000 0.000000
# 3 -0.002560 -0.003459 0.012825 0.000000 0.000000 0.000000
# 4 0.000000 0.000000 0.000000 -0.115111 0.000000 0.000000
# 5 0.000000 0.000000 0.000000 0.000000 0.037399 0.000000
# 6 0.000000 0.000000 0.000000 0.000000 0.000000 0.048816
#
#
# Mechanical properties :
#
#
# Convention : Reuss Voigt Hill
#
# Bulk Modulus (GPa) = 78.70700 84.36505 81.53603
# Shear Modulus (GPa) = 262.89435 25.98284 144.43859
#
# Velocity S-wave (km/s) = 11.78158 3.70388 8.73282
# Velocity P-wave (km/s) = 15.05426 7.92689 12.03051
#
# Compressibility (1/GPa) = 0.01270535
#
# Stress axis : x y z
#
# Youngs Moduli (GPa) = 153.25216 113.09755 77.97155
#
# Poissons Ratio (x) = 0.19508 0.19958
# Poissons Ratio (y) = 0.26434 0.26970
# Poissons Ratio (z) = 0.39228 0.39120
#
# Static dielectric constant tensor:
#      x y z
#    x 1.665910 0.000000 0.000000 
#    y 0.000000 1.705680 0.000000 
#    z 0.000000 0.000000 1.672220 
# 
# From -- ./inp_files/21222.got.cif
#   From: 2010.05.17/outbox.cif.g08.bks.cpg/sg54_11_cif.got.tgz:21222.got - 2010.06.03 13:09:01.
