data_PCOD9422222
_publ_section_title
;
Structure prediction by ZEFSAII (Michael W. Deem and Ramdas Pophale) SiO2 
 PCOD9422222
Probable space group: P C C A
;
_chemical_formula_sum "Si O2"
_cell_formula_units_Z 32
_cell_length_a 8.091790
_cell_length_b 12.189030
_cell_length_c 13.811160
_cell_angle_alpha 90.000000
_cell_angle_beta 90.000000
_cell_angle_gamma 90.000000
_cell_volume 1362.209503
_symmetry_space_group_name_H-M "P C C A"
_symmetry_group_IT_number 54
_symmetry_cell_setting 'orthorhombic'
loop_
_space_group_symop_operation_xyz
x,y,z
1/2-x,-y,z
1/2+x,-y,1/2-z
-x,y,1/2-z
-x,-y,-z
1/2+x,y,-z
1/2-x,y,1/2+z
x,-y,1/2+z
loop_
_atom_site_type_symbol
_atom_site_label
_atom_site_fract_x
_atom_site_fract_y
_atom_site_fract_z
Si Si1 0.598374 0.751124 0.051575
Si Si2 0.899168 0.925645 0.839847
Si Si3 0.779207 0.621799 0.895375
Si Si4 0.812290 0.257618 0.728949
O O1 0.512363 0.868438 0.077547
O O2 0.464749 0.662021 0.086882
O O3 0.761603 0.744123 0.117816
O O4 0.660779 0.711777 0.947685
O O5 0.810028 0.827917 0.780989
O O6 0.000000 0.981160 0.750000
O O7 0.750000 0.000000 0.878784
O O8 0.750000 0.500000 0.933572
O O9 0.731809 0.629502 0.782797
O O10 0.000000 0.231674 0.750000
#
# Coordination Sequence:
#
# PCOD9422222 Si02
#       4
#     8   8   8   8
#     4  10  22  39  57  87 122 155 204 256 300 366
#     4   9  18  35  60  87 116 154 199 246 305 368
#     4  11  22  37  58  83 118 163 203 252 309 363
#     4  10  21  37  58  85 117 154 199 254 305 363
#
# _framework density 23.491246
#
# number of rings (size 3 to 8) (size 9 to 14) (size 15 to 20)
#    0.000    2.000    0.000    5.250    0.000    3.000 
#    0.000    5.000    0.000   15.000    0.000   21.000 
#    0.000    0.000    0.000    0.000    0.000    0.000 
#
# Total GULP energy -178643.833884 kJ/mol
# GULP energy per Si atom -5582.619809 kJ/mol
# Density = 2.343778 g / cm^3
# Si number density = 23.491246 Si / 1000 Ang^3
#
#
#
# Elastic Constant Matrix: (Units=GPa)
#
#
# Indices 1 2 3 4 5 6 
#
# 1 128.8133 25.6083 3.3631 0.0000 0.0000 0.0000
# 2 25.6083 78.8934 24.5389 0.0000 0.0000 0.0000
# 3 3.3631 24.5389 48.7652 0.0000 0.0000 0.0000
# 4 0.0000 0.0000 0.0000 9.1002 0.0000 0.0000
# 5 0.0000 0.0000 0.0000 0.0000 35.6405 0.0000
# 6 0.0000 0.0000 0.0000 0.0000 0.0000 16.1281
#
#
#
# Elastic Compliance Matrix: (Units=1/GPa)
#
#
# Indices 1 2 3 4 5 6 
#
# 1 0.008334 -0.002995 0.000932 0.000000 0.000000 0.000000
# 2 -0.002995 0.016104 -0.007897 0.000000 0.000000 0.000000
# 3 0.000932 -0.007897 0.024416 0.000000 0.000000 0.000000
# 4 0.000000 0.000000 0.000000 0.109888 0.000000 0.000000
# 5 0.000000 0.000000 0.000000 0.000000 0.028058 0.000000
# 6 0.000000 0.000000 0.000000 0.000000 0.000000 0.062004
#
#
# Mechanical properties :
#
#
# Convention : Reuss Voigt Hill
#
# Bulk Modulus (GPa) = 34.56087 40.38806 37.47447
# Shear Modulus (GPa) = 17.96184 25.70452 21.83318
#
# Velocity S-wave (km/s) = 2.76817 3.31148 3.05194
# Velocity P-wave (km/s) = 4.99612 5.64370 5.32976
#
# Compressibility (1/GPa) = 0.02893446
#
# Stress axis : x y z
#
# Youngs Moduli (GPa) = 119.98605 62.09688 40.95690
#
# Poissons Ratio (x) = 0.18600 -0.03819
# Poissons Ratio (y) = 0.35939 0.32344
# Poissons Ratio (z) = -0.11188 0.49038
#
# Static dielectric constant tensor:
#      x y z
#    x 1.897630 0.000000 0.000000 
#    y 0.000000 1.903000 0.000000 
#    z 0.000000 0.000000 1.920340 
# 
# From -- ./inp_files/6793.got.cif
#   From: 2010.05.17/outbox.cif.g08.bks.cpg/sg54_4_cif.got.tgz:6793.got - 2010.06.03 13:09:01.
