data_PCOD9422453
_publ_section_title
;
Structure prediction by ZEFSAII (Michael W. Deem and Ramdas Pophale) SiO2 
 PCOD9422453
Probable space group: P C C A
;
_chemical_formula_sum "Si O2"
_cell_formula_units_Z 56
_cell_length_a 13.432635
_cell_length_b 14.050972
_cell_length_c 14.977746
_cell_angle_alpha 90.000000
_cell_angle_beta 90.000000
_cell_angle_gamma 90.000000
_cell_volume 2826.923419
_symmetry_space_group_name_H-M "P C C A"
_symmetry_group_IT_number 54
_symmetry_cell_setting 'orthorhombic'
loop_
_space_group_symop_operation_xyz
x,y,z
1/2-x,-y,z
1/2+x,-y,1/2-z
-x,y,1/2-z
-x,-y,-z
1/2+x,y,-z
1/2-x,y,1/2+z
x,-y,1/2+z
loop_
_atom_site_type_symbol
_atom_site_label
_atom_site_fract_x
_atom_site_fract_y
_atom_site_fract_z
Si Si1 0.511841 0.367547 0.153935
Si Si2 0.692050 0.583265 0.932453
Si Si3 0.957314 0.734593 0.650892
Si Si4 0.367447 0.720280 0.006478
Si Si5 0.649441 0.941967 0.499693
Si Si6 0.644809 0.458383 0.628661
Si Si7 0.525041 0.045904 0.645159
O O1 0.500000 0.320947 0.250000
O O2 0.401317 0.372719 0.115721
O O3 0.557281 0.474056 0.163310
O O4 0.586144 0.315923 0.086201
O O5 0.750000 0.500000 0.880389
O O6 0.773005 0.659780 0.962582
O O7 0.647451 0.533345 0.021083
O O8 0.873708 0.653146 0.645093
O O9 0.931756 0.845879 0.637130
O O10 0.000000 0.728310 0.750000
O O11 0.043641 0.711138 0.579140
O O12 0.335617 0.829289 0.997979
O O13 0.574016 0.958764 0.416505
O O14 0.750000 0.000000 0.485708
O O15 0.599685 0.976297 0.592815
O O16 0.750000 0.500000 0.660828
O O17 0.500000 0.027965 0.750000
#
# Coordination Sequence:
#
# PCOD9422453 Si02
#       7
#     8   8   8   8   8   8   8
#     4  12  25  40  61  94 126 165 208 251 305 359
#     4  11  22  40  63  82 125 168 206 253 301 359
#     4  10  21  39  65  88 120 164 212 253 306 369
#     4  11  23  42  60  90 122 164 203 255 313 362
#     4  10  23  39  66  92 121 159 205 253 314 372
#     4  11  21  37  63  88 123 165 208 254 299 359
#     4   9  21  42  65  93 123 160 203 256 312 369
#
# _framework density 19.809521
#
# number of rings (size 3 to 8) (size 9 to 14) (size 15 to 20)
#    0.000    1.429    4.286    1.714    2.000    4.000 
#    0.000    1.429    0.000    0.000    0.000    0.000 
#    0.000    0.000    0.000    0.000    0.000    0.000 
#
# Total GULP energy -312683.506466 kJ/mol
# GULP energy per Si atom -5583.634044 kJ/mol
# Density = 1.976443 g / cm^3
# Si number density = 19.809521 Si / 1000 Ang^3
#
#
#
# Elastic Constant Matrix: (Units=GPa)
#
#
# Indices 1 2 3 4 5 6 
#
# 1 118.4834 79.2835 40.3951 0.0000 0.0000 0.0000
# 2 79.2835 127.0859 39.1687 0.0000 0.0000 0.0000
# 3 40.3951 39.1687 112.8531 0.0000 0.0000 0.0000
# 4 0.0000 0.0000 0.0000 -11.6672 0.0000 0.0000
# 5 0.0000 0.0000 0.0000 0.0000 -4.3999 0.0000
# 6 0.0000 0.0000 0.0000 0.0000 0.0000 61.2922
#
#
#
# Elastic Compliance Matrix: (Units=1/GPa)
#
#
# Indices 1 2 3 4 5 6 
#
# 1 0.015039 -0.008648 -0.002382 0.000000 0.000000 0.000000
# 2 -0.008648 0.013784 -0.001689 0.000000 0.000000 0.000000
# 3 -0.002382 -0.001689 0.010300 0.000000 0.000000 0.000000
# 4 0.000000 0.000000 0.000000 -0.085711 0.000000 0.000000
# 5 0.000000 0.000000 0.000000 0.000000 -0.227279 0.000000
# 6 0.000000 0.000000 0.000000 0.000000 0.000000 0.016315
#
#
# Mechanical properties :
#
#
# Convention : Reuss Voigt Hill
#
# Bulk Modulus (GPa) = 73.06622 75.12411 74.09516
# Shear Modulus (GPa) = -21.97289 22.35005 0.18858
#
# Velocity S-wave (km/s) = -3.33409 3.36258 0.30888
# Velocity P-wave (km/s) = 4.70563 7.28571 6.13288
#
# Compressibility (1/GPa) = 0.01368622
#
# Stress axis : x y z
#
# Youngs Moduli (GPa) = 66.49459 72.54621 97.09090
#
# Poissons Ratio (x) = 0.62739 0.23122
# Poissons Ratio (y) = 0.57505 0.16396
# Poissons Ratio (z) = 0.15836 0.12251
#
# Static dielectric constant tensor:
#      x y z
#    x 1.694790 0.000000 0.000000 
#    y 0.000000 1.710900 0.000000 
#    z 0.000000 0.000000 1.715170 
# 
# From -- ./inp_files/12709.got.cif
#   From: 2010.05.17/outbox.cif.g08.bks.cpg/sg54_7_cif.got.tgz:12709.got - 2010.06.03 13:09:01.
