data_PCOD9422859
_publ_section_title
;
Structure prediction by ZEFSAII (Michael W. Deem and Ramdas Pophale) SiO2 
 PCOD9422859
Probable space group: P C C A
;
_chemical_formula_sum "Si O2"
_cell_formula_units_Z 48
_cell_length_a 8.767044
_cell_length_b 18.773793
_cell_length_c 13.709949
_cell_angle_alpha 90.000000
_cell_angle_beta 90.000000
_cell_angle_gamma 90.000000
_cell_volume 2256.529682
_symmetry_space_group_name_H-M "P C C A"
_symmetry_group_IT_number 54
_symmetry_cell_setting 'orthorhombic'
loop_
_space_group_symop_operation_xyz
x,y,z
1/2-x,-y,z
1/2+x,-y,1/2-z
-x,y,1/2-z
-x,-y,-z
1/2+x,y,-z
1/2-x,y,1/2+z
x,-y,1/2+z
loop_
_atom_site_type_symbol
_atom_site_label
_atom_site_fract_x
_atom_site_fract_y
_atom_site_fract_z
Si Si1 0.087692 0.900100 0.146250
Si Si2 0.934403 0.605518 0.444933
Si Si3 0.422391 0.471779 0.846586
Si Si4 0.946437 0.057801 0.359310
Si Si5 0.684143 0.706713 0.488012
Si Si6 0.437661 0.809843 0.461675
O O1 0.272040 0.912507 0.145222
O O2 0.000000 0.890831 0.250000
O O3 0.037155 0.976986 0.102700
O O4 0.050440 0.834574 0.074821
O O5 0.919465 0.577521 0.556951
O O6 0.784503 0.651787 0.425541
O O7 0.970743 0.538817 0.377468
O O8 0.075746 0.659323 0.444564
O O9 0.250000 0.500000 0.830049
O O10 0.500000 0.439845 0.750000
O O11 0.000000 0.050688 0.250000
O O12 0.055577 0.115826 0.407469
O O13 0.577450 0.760445 0.429408
O O14 0.793731 0.758969 0.547660
#
# Coordination Sequence:
#
# PCOD9422859 Si02
#       6
#     8   8   8   8   8   8
#     4  10  22  39  60  87 118 156 205 260 308 351
#     4  10  22  45  63  88 128 160 196 246 300 340
#     4  11  24  40  69  97 121 157 203 245 294 348
#     4  10  22  39  60  87 118 156 205 260 308 351
#     4  10  22  39  65  84 124 166 196 242 298 366
#     4  11  21  41  61  87 117 162 208 244 301 363
#
# _framework density 21.271599999999999
#
# number of rings (size 3 to 8) (size 9 to 14) (size 15 to 20)
#    0.000    1.667    3.333    0.500    4.667    0.000 
#    0.000   10.000    0.000    0.000    0.000    0.000 
#    0.000    0.000    0.000    0.000    0.000    0.000 
#
# Total GULP energy -267679.619238 kJ/mol
# GULP energy per Si atom -5576.658734 kJ/mol
# Density = 2.122319 g / cm^3
# Si number density = 21.271600 Si / 1000 Ang^3
#
#
#
# Elastic Constant Matrix: (Units=GPa)
#
#
# Indices 1 2 3 4 5 6 
#
# 1 65.9463 15.4946 0.8673 0.0000 0.0000 0.0000
# 2 15.4946 88.9934 6.4390 0.0000 0.0000 0.0000
# 3 0.8673 6.4390 61.9761 0.0000 0.0000 0.0000
# 4 0.0000 0.0000 0.0000 9.6796 0.0000 0.0000
# 5 0.0000 0.0000 0.0000 0.0000 8.4132 0.0000
# 6 0.0000 0.0000 0.0000 0.0000 0.0000 49.0102
#
#
#
# Elastic Compliance Matrix: (Units=1/GPa)
#
#
# Indices 1 2 3 4 5 6 
#
# 1 0.015811 -0.002758 0.000065 0.000000 0.000000 0.000000
# 2 -0.002758 0.011803 -0.001188 0.000000 0.000000 0.000000
# 3 0.000065 -0.001188 0.016258 0.000000 0.000000 0.000000
# 4 0.000000 0.000000 0.000000 0.103310 0.000000 0.000000
# 5 0.000000 0.000000 0.000000 0.000000 0.118861 0.000000
# 6 0.000000 0.000000 0.000000 0.000000 0.000000 0.020404
#
#
# Mechanical properties :
#
#
# Convention : Reuss Voigt Hill
#
# Bulk Modulus (GPa) = 27.69200 29.16862 28.43031
# Shear Modulus (GPa) = 16.32688 26.36159 21.34423
#
# Velocity S-wave (km/s) = 2.77346 3.52417 3.17111
# Velocity P-wave (km/s) = 4.82729 5.50472 5.17709
#
# Compressibility (1/GPa) = 0.03611151
#
# Stress axis : x y z
#
# Youngs Moduli (GPa) = 63.24749 84.72542 61.50919
#
# Poissons Ratio (x) = 0.23363 -0.00401
# Poissons Ratio (y) = 0.17441 0.07305
# Poissons Ratio (z) = -0.00413 0.10063
#
# Static dielectric constant tensor:
#      x y z
#    x 1.864780 0.000000 0.000000 
#    y 0.000000 1.763250 0.000000 
#    z 0.000000 0.000000 1.749880 
# 
# From -- ./inp_files/11712.got.cif
#   From: 2010.05.17/outbox.cif.g08.bks.cpg/sg54_6_cif.got.tgz:11712.got - 2010.06.03 13:09:01.
