data_PCOD9422572
_publ_section_title
;
Structure prediction by ZEFSAII (Michael W. Deem and Ramdas Pophale) SiO2 
 PCOD9422572
Probable space group: P C C A
;
_chemical_formula_sum "Si O2"
_cell_formula_units_Z 36
_cell_length_a 14.625649
_cell_length_b 21.847486
_cell_length_c 5.125569
_cell_angle_alpha 90.000000
_cell_angle_beta 90.000000
_cell_angle_gamma 90.000000
_cell_volume 1637.791831
_symmetry_space_group_name_H-M "P C C A"
_symmetry_group_IT_number 54
_symmetry_cell_setting 'orthorhombic'
loop_
_space_group_symop_operation_xyz
x,y,z
1/2-x,-y,z
1/2+x,-y,1/2-z
-x,y,1/2-z
-x,-y,-z
1/2+x,y,-z
1/2-x,y,1/2+z
x,-y,1/2+z
loop_
_atom_site_type_symbol
_atom_site_label
_atom_site_fract_x
_atom_site_fract_y
_atom_site_fract_z
Si Si1 0.786240 0.931429 0.238214
Si Si2 0.308381 0.762830 0.277424
Si Si3 0.500000 0.456641 0.750000
Si Si4 0.812978 0.619043 0.697790
Si Si5 0.556501 0.865267 0.002937
O O1 0.715991 0.903785 0.449879
O O2 0.880536 0.919187 0.381637
O O3 0.750000 0.000000 0.191194
O O4 0.223579 0.771467 0.478978
O O5 0.335168 0.691701 0.301927
O O6 0.384792 0.809009 0.382694
O O7 0.500000 0.500000 0.500000
O O8 0.592723 0.416790 0.736791
O O9 0.758974 0.605711 0.430021
O O10 0.500000 0.889093 0.250000
O O11 0.500000 0.843798 0.750000
#
# Coordination Sequence:
#
# PCOD9422572 Si02
#       5
#     8   8   4   8   8
#     4  10  21  41  63  82 116 169 205 243 310 383
#     4  10  21  41  65  90 124 169 209 256 323 392
#     4  12  26  42  66 100 134 182 226 278 336 390
#     4  10  23  43  66  96 132 175 226 272 331 395
#     4  12  24  38  61  98 126 154 208 270 325 379
#
# _framework density 21.980816999999998
#
# number of rings (size 3 to 8) (size 9 to 14) (size 15 to 20)
#    0.000    1.333    0.000    5.333    1.556    2.667 
#    2.000   13.333    0.000    0.000    0.000    0.000 
#    0.000    0.000    0.000    0.000    0.000    0.000 
#
# Total GULP energy -201089.286695 kJ/mol
# GULP energy per Si atom -5585.813519 kJ/mol
# Density = 2.193079 g / cm^3
# Si number density = 21.980817 Si / 1000 Ang^3
#
#
#
# Elastic Constant Matrix: (Units=GPa)
#
#
# Indices 1 2 3 4 5 6 
#
# 1 103.8433 50.2852 13.4257 0.0000 0.0000 0.0000
# 2 50.2852 115.7170 -1.7241 0.0000 0.0000 0.0000
# 3 13.4257 -1.7241 126.2518 0.0000 0.0000 0.0000
# 4 0.0000 0.0000 0.0000 20.2483 0.0000 0.0000
# 5 0.0000 0.0000 0.0000 0.0000 46.5520 0.0000
# 6 0.0000 0.0000 0.0000 0.0000 0.0000 15.8498
#
#
#
# Elastic Compliance Matrix: (Units=1/GPa)
#
#
# Indices 1 2 3 4 5 6 
#
# 1 0.012438 -0.005426 -0.001397 0.000000 0.000000 0.000000
# 2 -0.005426 0.011010 0.000727 0.000000 0.000000 0.000000
# 3 -0.001397 0.000727 0.008079 0.000000 0.000000 0.000000
# 4 0.000000 0.000000 0.000000 0.049387 0.000000 0.000000
# 5 0.000000 0.000000 0.000000 0.000000 0.021481 0.000000
# 6 0.000000 0.000000 0.000000 0.000000 0.000000 0.063092
#
#
# Mechanical properties :
#
#
# Convention : Reuss Voigt Hill
#
# Bulk Modulus (GPa) = 51.71404 52.19839 51.95622
# Shear Modulus (GPa) = 27.15562 35.45170 31.30366
#
# Velocity S-wave (km/s) = 3.51867 4.02038 3.77787
# Velocity P-wave (km/s) = 6.33135 6.73425 6.53591
#
# Compressibility (1/GPa) = 0.01933711
#
# Stress axis : x y z
#
# Youngs Moduli (GPa) = 80.39990 90.82352 123.77553
#
# Poissons Ratio (x) = 0.49278 0.17288
# Poissons Ratio (y) = 0.43623 -0.09003
# Poissons Ratio (z) = 0.11230 -0.06606
#
# Static dielectric constant tensor:
#      x y z
#    x 1.858620 0.000000 0.000000 
#    y 0.000000 1.927040 0.000000 
#    z 0.000000 0.000000 1.843490 
# 
# From -- ./inp_files/185.got.cif
#   From: 2010.05.17/outbox.cif.g08.bks.cpg/sg54_1_cif.got.tgz:185.got - 2010.06.03 13:09:01.
