data_PCOD9422352
_publ_section_title
;
Structure prediction by ZEFSAII (Michael W. Deem and Ramdas Pophale) SiO2 
 PCOD9422352
Probable space group: P C C A
;
_chemical_formula_sum "Si O2"
_cell_formula_units_Z 40
_cell_length_a 5.385233
_cell_length_b 11.375576
_cell_length_c 25.615168
_cell_angle_alpha 90.000000
_cell_angle_beta 90.000000
_cell_angle_gamma 90.000000
_cell_volume 1569.188452
_symmetry_space_group_name_H-M "P C C A"
_symmetry_group_IT_number 54
_symmetry_cell_setting 'orthorhombic'
loop_
_space_group_symop_operation_xyz
x,y,z
1/2-x,-y,z
1/2+x,-y,1/2-z
-x,y,1/2-z
-x,-y,-z
1/2+x,y,-z
1/2-x,y,1/2+z
x,-y,1/2+z
loop_
_atom_site_type_symbol
_atom_site_label
_atom_site_fract_x
_atom_site_fract_y
_atom_site_fract_z
Si Si1 0.918394 0.851318 0.198182
Si Si2 0.592428 0.271991 0.826679
Si Si3 0.750000 0.000000 0.601769
Si Si4 0.112889 0.642896 0.030922
Si Si5 0.250000 0.500000 0.127875
Si Si6 0.151126 0.132052 0.065028
O O1 0.140573 0.756929 0.197868
O O2 0.000000 0.924090 0.250000
O O3 0.651931 0.786168 0.198446
O O4 0.917780 0.930559 0.145497
O O5 0.584452 0.410751 0.838462
O O6 0.619060 0.204169 0.881255
O O7 0.639931 0.096833 0.562498
O O8 0.095020 0.581865 0.087429
O O9 0.157403 0.782630 0.036176
O O10 0.376116 0.612394 0.003768
O O11 0.250000 0.000000 0.065445
#
# Coordination Sequence:
#
# PCOD9422352 Si02
#       6
#     8   8   4   8   4   8
#     4  11  23  40  64  99 135 163 214 272 323 379
#     4  10  23  41  65  97 124 174 220 260 323 389
#     4  10  22  38  64  92 132 182 220 248 320 402
#     4  11  26  42  64  98 128 167 219 280 337 377
#     4  10  24  46  74  88 128 176 228 274 322 404
#     4  10  21  38  63  88 133 172 216 259 318 400
#
# _framework density 25.490884000000001
#
# number of rings (size 3 to 8) (size 9 to 14) (size 15 to 20)
#    0.000    1.600    2.000    1.200    2.800   11.200 
#    0.000    2.000    0.000    0.000    0.000    0.000 
#    0.000    0.000    0.000    0.000    0.000    0.000 
#
# Total GULP energy -222839.402396 kJ/mol
# GULP energy per Si atom -5570.985060 kJ/mol
# Density = 2.543287 g / cm^3
# Si number density = 25.490884 Si / 1000 Ang^3
#
#
#
# Elastic Constant Matrix: (Units=GPa)
#
#
# Indices 1 2 3 4 5 6 
#
# 1 163.9075 45.2437 35.5254 0.0000 0.0000 0.0000
# 2 45.2437 157.5246 26.5969 0.0000 0.0000 0.0000
# 3 35.5254 26.5969 60.1311 0.0000 0.0000 0.0000
# 4 0.0000 0.0000 0.0000 15.7604 0.0000 0.0000
# 5 0.0000 0.0000 0.0000 0.0000 8.0075 0.0000
# 6 0.0000 0.0000 0.0000 0.0000 0.0000 26.0566
#
#
#
# Elastic Compliance Matrix: (Units=1/GPa)
#
#
# Indices 1 2 3 4 5 6 
#
# 1 0.007303 -0.001479 -0.003660 0.000000 0.000000 0.000000
# 2 -0.001479 0.007160 -0.002293 0.000000 0.000000 0.000000
# 3 -0.003660 -0.002293 0.019807 0.000000 0.000000 0.000000
# 4 0.000000 0.000000 0.000000 0.063450 0.000000 0.000000
# 5 0.000000 0.000000 0.000000 0.000000 0.124883 0.000000
# 6 0.000000 0.000000 0.000000 0.000000 0.000000 0.038378
#
#
# Mechanical properties :
#
#
# Convention : Reuss Voigt Hill
#
# Bulk Modulus (GPa) = 51.53361 66.25502 58.89431
# Shear Modulus (GPa) = 17.71075 28.24470 22.97773
#
# Velocity S-wave (km/s) = 2.63874 3.33232 3.00561
# Velocity P-wave (km/s) = 5.43547 6.39171 5.93288
#
# Compressibility (1/GPa) = 0.01940481
#
# Stress axis : x y z
#
# Youngs Moduli (GPa) = 136.93654 139.65872 50.48749
#
# Poissons Ratio (x) = 0.20662 0.18478
# Poissons Ratio (y) = 0.20259 0.11577
# Poissons Ratio (z) = 0.50119 0.32024
#
# Static dielectric constant tensor:
#      x y z
#    x 0.766260 0.000000 0.000000 
#    y 0.000000 2.105510 0.000000 
#    z 0.000000 0.000000 2.092870 
# 
# From -- ./inp_files/25189.got.cif
#   From: 2010.05.17/outbox.cif.g08.bks.cpg/sg54_13_cif.got.tgz:25189.got - 2010.06.03 13:09:01.
