data_PCOD9422807
_publ_section_title
;
Structure prediction by ZEFSAII (Michael W. Deem and Ramdas Pophale) SiO2 
 PCOD9422807
Probable space group: P C C A
;
_chemical_formula_sum "Si O2"
_cell_formula_units_Z 40
_cell_length_a 8.302353
_cell_length_b 16.964456
_cell_length_c 12.696980
_cell_angle_alpha 90.000000
_cell_angle_beta 90.000000
_cell_angle_gamma 90.000000
_cell_volume 1788.304906
_symmetry_space_group_name_H-M "P C C A"
_symmetry_group_IT_number 54
_symmetry_cell_setting 'orthorhombic'
loop_
_space_group_symop_operation_xyz
x,y,z
1/2-x,-y,z
1/2+x,-y,1/2-z
-x,y,1/2-z
-x,-y,-z
1/2+x,y,-z
1/2-x,y,1/2+z
x,-y,1/2+z
loop_
_atom_site_type_symbol
_atom_site_label
_atom_site_fract_x
_atom_site_fract_y
_atom_site_fract_z
Si Si1 0.937249 0.255018 0.137615
Si Si2 0.548881 0.917478 0.866219
Si Si3 0.878685 0.445308 0.931770
Si Si4 0.635372 0.332838 0.056585
Si Si5 0.402902 0.898846 0.084156
O O1 0.750409 0.274953 0.120812
O O2 0.000000 0.285931 0.250000
O O3 0.972430 0.162163 0.132558
O O4 0.044380 0.291015 0.041590
O O5 0.500000 0.895913 0.750000
O O6 0.719911 0.877846 0.890503
O O7 0.568650 0.012435 0.875541
O O8 0.426340 0.897575 0.958763
O O9 0.750000 0.500000 0.869725
O O10 0.997669 0.381081 0.881167
O O11 0.763035 0.395568 0.009076
O O12 0.000000 0.500000 0.000000
#
# Coordination Sequence:
#
# PCOD9422807 Si02
#       5
#     8   8   8   8   8
#     4  11  22  38  58  83 121 160 196 250 310 369
#     4  10  22  39  60  84 115 154 208 272 321 372
#     4   8  14  30  59  85 114 157 190 234 295 339
#     4   9  19  34  56  87 116 152 201 236 288 368
#     4  10  22  38  58  85 116 157 209 258 320 385
#
# _framework density 22.367549
#
# number of rings (size 3 to 8) (size 9 to 14) (size 15 to 20)
#    0.000    2.400    0.000    1.800    0.000    9.600 
#    0.000    4.000    0.000   60.000    0.000    0.000 
#    0.000    0.000    0.000    0.000    0.000    0.000 
#
# Total GULP energy -223258.482245 kJ/mol
# GULP energy per Si atom -5581.462056 kJ/mol
# Density = 2.231664 g / cm^3
# Si number density = 22.367549 Si / 1000 Ang^3
#
#
#
# Elastic Constant Matrix: (Units=GPa)
#
#
# Indices 1 2 3 4 5 6 
#
# 1 164.5204 47.0551 52.5411 0.0000 0.0000 0.0000
# 2 47.0551 73.1406 -0.4258 0.0000 0.0000 0.0000
# 3 52.5411 -0.4258 116.7586 0.0000 0.0000 0.0000
# 4 0.0000 0.0000 0.0000 -10.7874 0.0000 0.0000
# 5 0.0000 0.0000 0.0000 0.0000 12.5955 0.0000
# 6 0.0000 0.0000 0.0000 0.0000 0.0000 51.5667
#
#
#
# Elastic Compliance Matrix: (Units=1/GPa)
#
#
# Indices 1 2 3 4 5 6 
#
# 1 0.009062 -0.005854 -0.004099 0.000000 0.000000 0.000000
# 2 -0.005854 0.017454 0.002698 0.000000 0.000000 0.000000
# 3 -0.004099 0.002698 0.010419 0.000000 0.000000 0.000000
# 4 0.000000 0.000000 0.000000 -0.092700 0.000000 0.000000
# 5 0.000000 0.000000 0.000000 0.000000 0.079393 0.000000
# 6 0.000000 0.000000 0.000000 0.000000 0.000000 0.019392
#
#
# Mechanical properties :
#
#
# Convention : Reuss Voigt Hill
#
# Bulk Modulus (GPa) = 44.59350 61.41783 53.00566
# Shear Modulus (GPa) = 76.91790 27.69157 52.30474
#
# Velocity S-wave (km/s) = 5.87050 3.52237 4.84097
# Velocity P-wave (km/s) = 8.11975 6.63784 7.41590
#
# Compressibility (1/GPa) = 0.02242479
#
# Stress axis : x y z
#
# Youngs Moduli (GPa) = 110.35638 57.29368 95.97783
#
# Poissons Ratio (x) = 0.33538 0.39342
# Poissons Ratio (y) = 0.64598 -0.25893
# Poissons Ratio (z) = 0.45235 -0.15456
#
# Static dielectric constant tensor:
#      x y z
#    x 1.823790 0.000000 0.000000 
#    y 0.000000 1.914590 0.000000 
#    z 0.000000 0.000000 1.753460 
# 
# From -- ./inp_files/6864.got.cif
#   From: 2010.05.17/outbox.cif.g08.bks.cpg/sg54_4_cif.got.tgz:6864.got - 2010.06.03 13:09:01.
