data_PCOD9422498
_publ_section_title
;
Structure prediction by ZEFSAII (Michael W. Deem and Ramdas Pophale) SiO2 
 PCOD9422498
Probable space group: P C C A
;
_chemical_formula_sum "Si O2"
_cell_formula_units_Z 56
_cell_length_a 12.284526
_cell_length_b 12.168863
_cell_length_c 19.228254
_cell_angle_alpha 90.000000
_cell_angle_beta 90.000000
_cell_angle_gamma 90.000000
_cell_volume 2874.406961
_symmetry_space_group_name_H-M "P C C A"
_symmetry_group_IT_number 54
_symmetry_cell_setting 'orthorhombic'
loop_
_space_group_symop_operation_xyz
x,y,z
1/2-x,-y,z
1/2+x,-y,1/2-z
-x,y,1/2-z
-x,-y,-z
1/2+x,y,-z
1/2-x,y,1/2+z
x,-y,1/2+z
loop_
_atom_site_type_symbol
_atom_site_label
_atom_site_fract_x
_atom_site_fract_y
_atom_site_fract_z
Si Si1 0.798085 0.379680 0.280918
Si Si2 0.827392 0.689360 0.626380
Si Si3 0.636878 0.934132 0.070475
Si Si4 0.040048 0.558221 0.597630
Si Si5 0.672780 0.699539 0.508792
Si Si6 0.134537 0.315058 0.603569
Si Si7 0.005980 0.874207 0.440001
O O1 0.750000 0.500000 0.264631
O O2 0.820004 0.321085 0.208806
O O3 0.900782 0.396073 0.332318
O O4 0.707894 0.321100 0.328112
O O5 0.856143 0.815164 0.605634
O O6 0.716069 0.666002 0.584580
O O7 0.917853 0.602384 0.600743
O O8 0.750000 0.000000 0.068816
O O9 0.552662 0.022619 0.101576
O O10 0.585568 0.914093 0.994250
O O11 0.096956 0.613606 0.530957
O O12 0.071063 0.430283 0.595227
O O13 0.781094 0.704726 0.460436
O O14 0.603473 0.811732 0.517820
O O15 0.048283 0.218682 0.606011
#
# Coordination Sequence:
#
# PCOD9422498 Si02
#       7
#     8   8   8   8   8   8   8
#     4   9  22  41  63  87 124 168 201 249 315 388
#     4  12  22  39  64  92 120 166 211 259 311 368
#     4  11  22  40  63  88 122 161 213 260 309 365
#     4  10  22  39  61  93 129 162 201 248 318 384
#     4  11  20  36  60  97 121 159 199 256 310 368
#     4  10  21  40  61  92 129 161 203 256 309 383
#     4  11  21  38  65  90 123 166 206 257 320 368
#
# _framework density 19.482278999999998
#
# number of rings (size 3 to 8) (size 9 to 14) (size 15 to 20)
#    0.000    1.429    4.286    1.714    0.000    5.714 
#    0.000    2.143    6.286    0.000    0.000    0.000 
#    0.000    0.000    0.000    0.000    0.000    0.000 
#
# Total GULP energy -312640.422618 kJ/mol
# GULP energy per Si atom -5582.864690 kJ/mol
# Density = 1.943794 g / cm^3
# Si number density = 19.482279 Si / 1000 Ang^3
#
#
#
# Elastic Constant Matrix: (Units=GPa)
#
#
# Indices 1 2 3 4 5 6 
#
# 1 63.8807 24.7526 23.8758 0.0000 0.0000 0.0000
# 2 24.7526 67.6674 18.2300 0.0000 0.0000 0.0000
# 3 23.8758 18.2300 74.7301 0.0000 0.0000 0.0000
# 4 0.0000 0.0000 0.0000 17.8459 0.0000 0.0000
# 5 0.0000 0.0000 0.0000 0.0000 16.3326 0.0000
# 6 0.0000 0.0000 0.0000 0.0000 0.0000 37.6737
#
#
#
# Elastic Compliance Matrix: (Units=1/GPa)
#
#
# Indices 1 2 3 4 5 6 
#
# 1 0.019769 -0.005919 -0.004872 0.000000 0.000000 0.000000
# 2 -0.005919 0.017590 -0.002400 0.000000 0.000000 0.000000
# 3 -0.004872 -0.002400 0.015524 0.000000 0.000000 0.000000
# 4 0.000000 0.000000 0.000000 0.056035 0.000000 0.000000
# 5 0.000000 0.000000 0.000000 0.000000 0.061227 0.000000
# 6 0.000000 0.000000 0.000000 0.000000 0.000000 0.026544
#
#
# Mechanical properties :
#
#
# Convention : Reuss Voigt Hill
#
# Bulk Modulus (GPa) = 37.73532 37.77723 37.75627
# Shear Modulus (GPa) = 21.56075 23.66511 22.61293
#
# Velocity S-wave (km/s) = 3.33030 3.48903 3.41059
# Velocity P-wave (km/s) = 5.84799 5.97192 5.91028
#
# Compressibility (1/GPa) = 0.02650037
#
# Stress axis : x y z
#
# Youngs Moduli (GPa) = 50.58536 56.85127 64.41830
#
# Poissons Ratio (x) = 0.33649 0.31385
# Poissons Ratio (y) = 0.29940 0.15460
# Poissons Ratio (z) = 0.24646 0.13644
#
# Static dielectric constant tensor:
#      x y z
#    x 1.727740 0.000000 0.000000 
#    y 0.000000 1.707870 0.000000 
#    z 0.000000 0.000000 1.657000 
# 
# From -- ./inp_files/21174.got.cif
#   From: 2010.05.17/outbox.cif.g08.bks.cpg/sg54_11_cif.got.tgz:21174.got - 2010.06.03 13:09:01.
