data_PCOD9422638
_publ_section_title
;
Structure prediction by ZEFSAII (Michael W. Deem and Ramdas Pophale) SiO2 
 PCOD9422638
Probable space group: P C C A
;
_chemical_formula_sum "Si O2"
_cell_formula_units_Z 60
_cell_length_a 8.379007
_cell_length_b 17.735377
_cell_length_c 18.596341
_cell_angle_alpha 90.000000
_cell_angle_beta 90.000000
_cell_angle_gamma 90.000000
_cell_volume 2763.506428
_symmetry_space_group_name_H-M "P C C A"
_symmetry_group_IT_number 54
_symmetry_cell_setting 'orthorhombic'
loop_
_space_group_symop_operation_xyz
x,y,z
1/2-x,-y,z
1/2+x,-y,1/2-z
-x,y,1/2-z
-x,-y,-z
1/2+x,y,-z
1/2-x,y,1/2+z
x,-y,1/2+z
loop_
_atom_site_type_symbol
_atom_site_label
_atom_site_fract_x
_atom_site_fract_y
_atom_site_fract_z
Si Si1 0.750000 0.000000 0.613020
Si Si2 0.663604 0.305348 0.906603
Si Si3 0.801150 0.730634 0.557604
Si Si4 0.744790 0.135397 0.391332
Si Si5 0.819780 0.416785 0.276662
Si Si6 0.343676 0.282542 0.299393
Si Si7 0.943985 0.107063 0.018569
Si Si8 0.690294 0.120333 0.236664
O O1 0.621516 0.033363 0.557717
O O2 0.780084 0.067491 0.669259
O O3 0.471153 0.300337 0.914122
O O4 0.734793 0.225167 0.878608
O O5 0.699168 0.372355 0.851950
O O6 0.743826 0.309518 0.984911
O O7 0.656785 0.722801 0.614416
O O8 0.845468 0.818062 0.543304
O O9 0.582806 0.111975 0.432660
O O10 0.763682 0.097121 0.313710
O O11 0.881010 0.115743 0.448775
O O12 0.750000 0.500000 0.280266
O O13 0.736043 0.361099 0.220241
O O14 0.000000 0.421994 0.250000
O O15 0.500000 0.280309 0.250000
O O16 0.250864 0.205138 0.280306
O O17 0.500000 0.122605 0.250000
#
# Coordination Sequence:
#
# PCOD9422638 Si02
#       8
#     4   8   8   8   8   8   8   8
#     4  12  26  42  60 100 140 182 230 298 348 408
#     4  10  22  41  72 100 136 176 230 279 341 406
#     4  10  21  42  67 102 130 179 232 284 331 414
#     4  10  23  44  69  97 132 180 233 286 345 415
#     4  12  25  46  71 107 142 181 225 276 342 410
#     4  11  23  42  72  99 135 180 230 284 345 410
#     4  10  24  41  68  94 135 181 229 284 352 406
#     4  11  26  41  66  99 137 176 235 294 348 407
#
# _framework density 21.711549000000002
#
# number of rings (size 3 to 8) (size 9 to 14) (size 15 to 20)
#    0.000    1.333    4.000    0.400    5.600    3.200 
#    0.000    1.333    0.000    0.000    0.000    0.000 
#    0.000    0.000    0.000    0.000    0.000    0.000 
#
# Total GULP energy -335132.265661 kJ/mol
# GULP energy per Si atom -5585.537761 kJ/mol
# Density = 2.166213 g / cm^3
# Si number density = 21.711549 Si / 1000 Ang^3
#
#
#
# Elastic Constant Matrix: (Units=GPa)
#
#
# Indices 1 2 3 4 5 6 
#
# 1 48.6682 20.2733 10.9250 0.0000 0.0000 0.0000
# 2 20.2733 131.4533 32.4176 0.0000 0.0000 0.0000
# 3 10.9250 32.4176 130.9405 0.0000 0.0000 0.0000
# 4 0.0000 0.0000 0.0000 -286.3868 0.0000 0.0000
# 5 0.0000 0.0000 0.0000 0.0000 26.0693 0.0000
# 6 0.0000 0.0000 0.0000 0.0000 0.0000 29.4425
#
#
#
# Elastic Compliance Matrix: (Units=1/GPa)
#
#
# Indices 1 2 3 4 5 6 
#
# 1 0.022097 -0.003145 -0.001065 0.000000 0.000000 0.000000
# 2 -0.003145 0.008550 -0.001854 0.000000 0.000000 0.000000
# 3 -0.001065 -0.001854 0.008185 0.000000 0.000000 0.000000
# 4 0.000000 0.000000 0.000000 -0.003492 0.000000 0.000000
# 5 0.000000 0.000000 0.000000 0.000000 0.038359 0.000000
# 6 0.000000 0.000000 0.000000 0.000000 0.000000 0.033965
#
#
# Mechanical properties :
#
#
# Convention : Reuss Voigt Hill
#
# Bulk Modulus (GPa) = 37.44994 48.69931 43.07463
# Shear Modulus (GPa) = 38.85226 -29.67858 4.58684
#
# Velocity S-wave (km/s) = 4.23481 -3.70124 1.45506
# Velocity P-wave (km/s) = 6.41855 2.05263 4.76503
#
# Compressibility (1/GPa) = 0.02670231
#
# Stress axis : x y z
#
# Youngs Moduli (GPa) = 45.25598 116.96448 122.17509
#
# Poissons Ratio (x) = 0.36788 0.13011
# Poissons Ratio (y) = 0.14234 0.22654
# Poissons Ratio (z) = 0.04820 0.21688
#
# Static dielectric constant tensor:
#      x y z
#    x 1.862500 0.000000 0.000000 
#    y 0.000000 1.787780 0.000000 
#    z 0.000000 0.000000 1.818420 
# 
# From -- ./inp_files/16820.got.cif
#   From: 2010.05.17/outbox.cif.g08.bks.cpg/sg54_9_cif.got.tgz:16820.got - 2010.06.03 13:09:01.
