data_PCOD9422426
_publ_section_title
;
Structure prediction by ZEFSAII (Michael W. Deem and Ramdas Pophale) SiO2 
 PCOD9422426
Probable space group: P C C A
;
_chemical_formula_sum "Si O2"
_cell_formula_units_Z 52
_cell_length_a 24.797911
_cell_length_b 8.200542
_cell_length_c 13.276396
_cell_angle_alpha 90.000000
_cell_angle_beta 90.000000
_cell_angle_gamma 90.000000
_cell_volume 2699.838910
_symmetry_space_group_name_H-M "P C C A"
_symmetry_group_IT_number 54
_symmetry_cell_setting 'orthorhombic'
loop_
_space_group_symop_operation_xyz
x,y,z
1/2-x,-y,z
1/2+x,-y,1/2-z
-x,y,1/2-z
-x,-y,-z
1/2+x,y,-z
1/2-x,y,1/2+z
x,-y,1/2+z
loop_
_atom_site_type_symbol
_atom_site_label
_atom_site_fract_x
_atom_site_fract_y
_atom_site_fract_z
Si Si1 0.765948 0.735133 0.177253
Si Si2 0.250000 0.000000 0.681205
Si Si3 0.447510 0.489035 0.680056
Si Si4 0.686952 0.756080 0.460704
Si Si5 0.171067 0.567939 0.733303
Si Si6 0.063533 0.820614 0.536941
Si Si7 0.476144 0.851037 0.638287
O O1 0.777751 0.735450 0.059887
O O2 0.800182 0.592097 0.227317
O O3 0.702701 0.705799 0.202716
O O4 0.783537 0.891026 0.240796
O O5 0.212845 0.894533 0.608613
O O6 0.500000 0.483559 0.750000
O O7 0.392915 0.447204 0.741319
O O8 0.451593 0.344397 0.598006
O O9 0.444979 0.675878 0.638702
O O10 0.683441 0.602677 0.384503
O O11 0.626212 0.801743 0.490657
O O12 0.025377 0.833088 0.440238
O O13 0.055404 0.986012 0.602761
O O14 0.500000 0.875365 0.750000
#
# Coordination Sequence:
#
# PCOD9422426 Si02
#       7
#     8   4   8   8   8   8   8
#     4  10  21  39  63  85 127 160 209 257 314 379
#     4  10  22  38  60  90 120 158 206 258 308 378
#     4  10  21  39  66  93 127 163 208 262 318 384
#     4  10  22  39  62  88 125 163 207 261 312 375
#     4   9  22  40  61  90 118 163 208 261 312 376
#     4  10  22  40  59  93 126 163 210 260 312 382
#     4  10  22  38  63  88 125 167 206 259 317 374
#
# _framework density 19.260408999999999
#
# number of rings (size 3 to 8) (size 9 to 14) (size 15 to 20)
#    0.000    2.154    0.000    1.385    6.462    4.923 
#    0.000    9.231    0.000    0.000    0.000    0.000 
#    0.000    0.000    0.000    0.000    0.000    0.000 
#
# Total GULP energy -289857.881630 kJ/mol
# GULP energy per Si atom -5574.190031 kJ/mol
# Density = 1.921657 g / cm^3
# Si number density = 19.260409 Si / 1000 Ang^3
#
#
#
# Elastic Constant Matrix: (Units=GPa)
#
#
# Indices 1 2 3 4 5 6 
#
# 1 91.1221 18.8029 51.7167 0.0000 0.0000 0.0000
# 2 18.8029 103.7177 50.1849 0.0000 0.0000 0.0000
# 3 51.7167 50.1849 107.3308 0.0000 0.0000 0.0000
# 4 0.0000 0.0000 0.0000 19.4718 0.0000 0.0000
# 5 0.0000 0.0000 0.0000 0.0000 26.0215 0.0000
# 6 0.0000 0.0000 0.0000 0.0000 0.0000 -116.6809
#
#
#
# Elastic Compliance Matrix: (Units=1/GPa)
#
#
# Indices 1 2 3 4 5 6 
#
# 1 0.015188 0.001018 -0.007794 0.000000 0.000000 0.000000
# 2 0.001018 0.012529 -0.006349 0.000000 0.000000 0.000000
# 3 -0.007794 -0.006349 0.016041 0.000000 0.000000 0.000000
# 4 0.000000 0.000000 0.000000 0.051356 0.000000 0.000000
# 5 0.000000 0.000000 0.000000 0.000000 0.038430 0.000000
# 6 0.000000 0.000000 0.000000 0.000000 0.000000 -0.008570
#
#
# Mechanical properties :
#
#
# Convention : Reuss Voigt Hill
#
# Bulk Modulus (GPa) = 57.11679 60.39775 58.75727
# Shear Modulus (GPa) = 31.83519 -2.13978 14.84770
#
# Velocity S-wave (km/s) = 4.06998 -1.05517 2.77951
# Velocity P-wave (km/s) = 7.19762 5.47193 6.39327
#
# Compressibility (1/GPa) = 0.01750799
#
# Stress axis : x y z
#
# Youngs Moduli (GPa) = 65.84233 79.81567 62.34050
#
# Poissons Ratio (x) = -0.08124 0.48589
# Poissons Ratio (y) = -0.06702 0.39577
# Poissons Ratio (z) = 0.51318 0.50672
#
# Static dielectric constant tensor:
#      x y z
#    x 1.663340 0.000000 0.000000 
#    y 0.000000 1.728460 0.000000 
#    z 0.000000 0.000000 1.646790 
# 
# From -- ./inp_files/10299.got.cif
#   From: 2010.05.17/outbox.cif.g08.bks.cpg/sg54_6_cif.got.tgz:10299.got - 2010.06.03 13:09:01.
