data_PCOD9422614
_publ_section_title
;
Structure prediction by ZEFSAII (Michael W. Deem and Ramdas Pophale) SiO2 
 PCOD9422614
Probable space group: P C C A
;
_chemical_formula_sum "Si O2"
_cell_formula_units_Z 40
_cell_length_a 5.551307
_cell_length_b 11.428339
_cell_length_c 27.274226
_cell_angle_alpha 90.000000
_cell_angle_beta 90.000000
_cell_angle_gamma 90.000000
_cell_volume 1730.337400
_symmetry_space_group_name_H-M "P C C A"
_symmetry_group_IT_number 54
_symmetry_cell_setting 'orthorhombic'
loop_
_space_group_symop_operation_xyz
x,y,z
1/2-x,-y,z
1/2+x,-y,1/2-z
-x,y,1/2-z
-x,-y,-z
1/2+x,y,-z
1/2-x,y,1/2+z
x,-y,1/2+z
loop_
_atom_site_type_symbol
_atom_site_label
_atom_site_fract_x
_atom_site_fract_y
_atom_site_fract_z
Si Si1 0.100844 0.815738 0.390129
Si Si2 0.250000 0.000000 0.143345
Si Si3 0.824705 0.365952 0.483620
Si Si4 0.965625 0.187978 0.192860
Si Si5 0.247322 0.631035 0.625358
Si Si6 0.750000 0.000000 0.532217
O O1 0.213344 0.814564 0.335522
O O2 0.867469 0.899560 0.389197
O O3 0.005079 0.683116 0.391642
O O4 0.256682 0.885268 0.430875
O O5 0.063096 0.061177 0.178744
O O6 0.750000 0.500000 0.499132
O O7 0.561020 0.308866 0.492214
O O8 0.890827 0.370532 0.426395
O O9 0.000000 0.208493 0.250000
O O10 0.122382 0.284597 0.163949
O O11 0.250000 0.500000 0.644466
O O12 0.500000 0.000000 0.500000
#
# Coordination Sequence:
#
# PCOD9422614 Si02
#       6
#     8   4   8   8   8   4
#     4  11  24  46  71 105 148 188 245 304 372 463
#     4  10  21  41  72 100 142 174 239 303 370 434
#     4   9  19  37  64  96 131 181 239 288 347 420
#     4  11  25  43  73 105 137 191 245 312 381 447
#     4  10  25  45  68 104 150 196 247 308 368 453
#     4  12  27  45  78 116 160 200 239 315 400 462
#
# _framework density 23.116879000000001
#
# number of rings (size 3 to 8) (size 9 to 14) (size 15 to 20)
#    0.000    1.600    2.000    0.600    8.400    4.800 
#    3.600    0.000    0.000    0.000    0.000    0.000 
#    0.000    0.000    0.000    0.000    0.000    0.000 
#
# Total GULP energy -222930.000527 kJ/mol
# GULP energy per Si atom -5573.250013 kJ/mol
# Density = 2.306426 g / cm^3
# Si number density = 23.116879 Si / 1000 Ang^3
#
#
#
# Elastic Constant Matrix: (Units=GPa)
#
#
# Indices 1 2 3 4 5 6 
#
# 1 89.4335 11.2681 16.9978 0.0000 0.0000 0.0000
# 2 11.2681 111.3714 6.6642 0.0000 0.0000 0.0000
# 3 16.9978 6.6642 97.3490 0.0000 0.0000 0.0000
# 4 0.0000 0.0000 0.0000 -0.5579 0.0000 0.0000
# 5 0.0000 0.0000 0.0000 0.0000 -4.5576 0.0000
# 6 0.0000 0.0000 0.0000 0.0000 0.0000 26.2988
#
#
#
# Elastic Compliance Matrix: (Units=1/GPa)
#
#
# Indices 1 2 3 4 5 6 
#
# 1 0.011690 -0.001065 -0.001968 0.000000 0.000000 0.000000
# 2 -0.001065 0.009113 -0.000438 0.000000 0.000000 0.000000
# 3 -0.001968 -0.000438 0.010646 0.000000 0.000000 0.000000
# 4 0.000000 0.000000 0.000000 -1.792484 0.000000 0.000000
# 5 0.000000 0.000000 0.000000 0.000000 -0.219414 0.000000
# 6 0.000000 0.000000 0.000000 0.000000 0.000000 0.038025
#
#
# Mechanical properties :
#
#
# Convention : Reuss Voigt Hill
#
# Bulk Modulus (GPa) = 40.80545 40.89045 40.84795
# Shear Modulus (GPa) = -2.59428 21.78493 9.59532
#
# Velocity S-wave (km/s) = -1.06051 3.07315 2.03956
# Velocity P-wave (km/s) = 4.02375 5.50630 4.82234
#
# Compressibility (1/GPa) = 0.02450653
#
# Stress axis : x y z
#
# Youngs Moduli (GPa) = 85.54505 109.73432 93.93242
#
# Poissons Ratio (x) = 0.11686 0.18488
# Poissons Ratio (y) = 0.09110 0.04113
# Poissons Ratio (z) = 0.16837 0.04805
#
# Static dielectric constant tensor:
#      x y z
#    x 2.388790 0.000000 0.000000 
#    y 0.000000 1.960070 0.000000 
#    z 0.000000 0.000000 1.880910 
# 
# From -- ./inp_files/25203.got.cif
#   From: 2010.05.17/outbox.cif.g08.bks.cpg/sg54_13_cif.got.tgz:25203.got - 2010.06.03 13:09:01.
