data_PCOD9422843
_publ_section_title
;
Structure prediction by ZEFSAII (Michael W. Deem and Ramdas Pophale) SiO2 
 PCOD9422843
Probable space group: P C C A
;
_chemical_formula_sum "Si O2"
_cell_formula_units_Z 24
_cell_length_a 13.531247
_cell_length_b 13.546765
_cell_length_c 5.219241
_cell_angle_alpha 90.000000
_cell_angle_beta 90.000000
_cell_angle_gamma 90.000000
_cell_volume 956.711005
_symmetry_space_group_name_H-M "P C C A"
_symmetry_group_IT_number 54
_symmetry_cell_setting 'orthorhombic'
loop_
_space_group_symop_operation_xyz
x,y,z
1/2-x,-y,z
1/2+x,-y,1/2-z
-x,y,1/2-z
-x,-y,-z
1/2+x,y,-z
1/2-x,y,1/2+z
x,-y,1/2+z
loop_
_atom_site_type_symbol
_atom_site_label
_atom_site_fract_x
_atom_site_fract_y
_atom_site_fract_z
Si Si1 0.880859 0.950544 0.283929
Si Si2 0.931743 0.749959 0.498553
Si Si3 0.360902 0.540841 0.359053
O O1 0.867345 0.844549 0.416024
O O2 0.000000 0.958222 0.250000
O O3 0.847352 0.031606 0.492832
O O4 0.867741 0.653425 0.556571
O O5 0.000000 0.730125 0.250000
O O6 0.000000 0.770999 0.750000
O O7 0.250000 0.500000 0.319916
O O8 0.406075 0.472215 0.579359
#
# Coordination Sequence:
#
# PCOD9422843 Si02
#       3
#     8   8   8
#     4   9  16  28  46  73 111 143 166 204 261 319
#     4  11  21  32  53  84 111 139 180 225 263 310
#     4  10  22  39  55  74 103 146 186 221 271 322
#
# _framework density 25.085946
#
# number of rings (size 3 to 8) (size 9 to 14) (size 15 to 20)
#    0.000    2.000    0.000    7.000    0.000    4.000 
#    0.000    0.000    0.000    0.000    0.000   28.000 
#    0.000    0.000    0.000    0.000    0.000    2.000 
#
# Total GULP energy -134168.728236 kJ/mol
# GULP energy per Si atom -5590.363676 kJ/mol
# Density = 2.502885 g / cm^3
# Si number density = 25.085946 Si / 1000 Ang^3
#
#
#
# Elastic Constant Matrix: (Units=GPa)
#
#
# Indices 1 2 3 4 5 6 
#
# 1 85.5032 22.3608 0.9216 0.0000 0.0000 0.0000
# 2 22.3608 166.7176 34.0593 0.0000 0.0000 0.0000
# 3 0.9216 34.0593 153.1561 0.0000 0.0000 0.0000
# 4 0.0000 0.0000 0.0000 40.7699 0.0000 0.0000
# 5 0.0000 0.0000 0.0000 0.0000 0.5154 0.0000
# 6 0.0000 0.0000 0.0000 0.0000 0.0000 32.7389
#
#
#
# Elastic Compliance Matrix: (Units=1/GPa)
#
#
# Indices 1 2 3 4 5 6 
#
# 1 0.012134 -0.001689 0.000303 0.000000 0.000000 0.000000
# 2 -0.001689 0.006519 -0.001440 0.000000 0.000000 0.000000
# 3 0.000303 -0.001440 0.006848 0.000000 0.000000 0.000000
# 4 0.000000 0.000000 0.000000 0.024528 0.000000 0.000000
# 5 0.000000 0.000000 0.000000 0.000000 1.940404 0.000000
# 6 0.000000 0.000000 0.000000 0.000000 0.000000 0.030545
#
#
# Mechanical properties :
#
#
# Convention : Reuss Voigt Hill
#
# Bulk Modulus (GPa) = 50.38261 57.78446 54.08354
# Shear Modulus (GPa) = 2.45912 38.00717 20.23315
#
# Velocity S-wave (km/s) = 0.99116 3.89662 2.84307
# Velocity P-wave (km/s) = 4.63006 6.58251 5.69065
#
# Compressibility (1/GPa) = 0.01984812
#
# Stress axis : x y z
#
# Youngs Moduli (GPa) = 82.41311 153.40187 146.03684
#
# Poissons Ratio (x) = 0.25914 -0.04420
# Poissons Ratio (y) = 0.13922 0.21022
# Poissons Ratio (z) = -0.02494 0.22082
#
# Static dielectric constant tensor:
#      x y z
#    x 1.772250 0.000000 0.000000 
#    y 0.000000 1.964810 0.000000 
#    z 0.000000 0.000000 2.029610 
# 
# From -- ./inp_files/302.got.cif
#   From: 2010.05.17/outbox.cif.g08.bks.cpg/sg54_1_cif.got.tgz:302.got - 2010.06.03 13:09:01.
