data_PCOD9422544
_publ_section_title
;
Structure prediction by ZEFSAII (Michael W. Deem and Ramdas Pophale) SiO2 
 PCOD9422544
Probable space group: P C C A
;
_chemical_formula_sum "Si O2"
_cell_formula_units_Z 32
_cell_length_a 9.759457
_cell_length_b 9.444231
_cell_length_c 13.909096
_cell_angle_alpha 90.000000
_cell_angle_beta 90.000000
_cell_angle_gamma 90.000000
_cell_volume 1282.009256
_symmetry_space_group_name_H-M "P C C A"
_symmetry_group_IT_number 54
_symmetry_cell_setting 'orthorhombic'
loop_
_space_group_symop_operation_xyz
x,y,z
1/2-x,-y,z
1/2+x,-y,1/2-z
-x,y,1/2-z
-x,-y,-z
1/2+x,y,-z
1/2-x,y,1/2+z
x,-y,1/2+z
loop_
_atom_site_type_symbol
_atom_site_label
_atom_site_fract_x
_atom_site_fract_y
_atom_site_fract_z
Si Si1 0.345301 0.123074 0.034255
Si Si2 0.409380 0.690100 0.966789
Si Si3 0.125251 0.898134 0.819968
Si Si4 0.074116 0.582689 0.847488
O O1 0.227935 0.231350 0.998285
O O2 0.407248 0.069215 0.931967
O O3 0.250000 0.000000 0.079799
O O4 0.469580 0.212500 0.079618
O O5 0.374217 0.560829 0.897175
O O6 0.472816 0.636876 0.067866
O O7 0.151051 0.728418 0.815016
O O8 0.000000 0.926719 0.750000
O O9 0.250000 0.000000 0.796413
O O10 0.000000 0.537142 0.750000
#
# Coordination Sequence:
#
# PCOD9422544 Si02
#       4
#     8   8   8   8
#     4  10  21  41  66  96 132 179 232 283 344 412
#     4  10  21  40  67  93 133 178 218 282 346 404
#     4   9  19  39  65  95 135 176 224 286 341 409
#     4   9  20  40  64  96 131 171 226 278 340 414
#
# _framework density 24.960816999999999
#
# number of rings (size 3 to 8) (size 9 to 14) (size 15 to 20)
#    0.000    2.500    0.000    0.750    0.000    9.000 
#    0.000   48.750    0.000   13.500    0.000    0.000 
#    0.000    0.000    0.000    0.000    0.000    0.000 
#
# Total GULP energy -178648.981126 kJ/mol
# GULP energy per Si atom -5582.780660 kJ/mol
# Density = 2.490401 g / cm^3
# Si number density = 24.960817 Si / 1000 Ang^3
#
#
#
# Elastic Constant Matrix: (Units=GPa)
#
#
# Indices 1 2 3 4 5 6 
#
# 1 146.2995 110.6179 21.2251 0.0000 0.0000 0.0000
# 2 110.6179 208.4533 55.9653 0.0000 0.0000 0.0000
# 3 21.2251 55.9653 79.8353 0.0000 0.0000 0.0000
# 4 0.0000 0.0000 0.0000 -150.2856 0.0000 0.0000
# 5 0.0000 0.0000 0.0000 0.0000 16.1890 0.0000
# 6 0.0000 0.0000 0.0000 0.0000 0.0000 61.0779
#
#
#
# Elastic Compliance Matrix: (Units=1/GPa)
#
#
# Indices 1 2 3 4 5 6 
#
# 1 0.011562 -0.006541 0.001512 0.000000 0.000000 0.000000
# 2 -0.006541 0.009610 -0.004998 0.000000 0.000000 0.000000
# 3 0.001512 -0.004998 0.015627 0.000000 0.000000 0.000000
# 4 0.000000 0.000000 0.000000 -0.006654 0.000000 0.000000
# 5 0.000000 0.000000 0.000000 0.000000 0.061770 0.000000
# 6 0.000000 0.000000 0.000000 0.000000 0.000000 0.016373
#
#
# Mechanical properties :
#
#
# Convention : Reuss Voigt Hill
#
# Bulk Modulus (GPa) = 59.72050 90.02274 74.87162
# Shear Modulus (GPa) = 37.33439 1.84825 19.59132
#
# Velocity S-wave (km/s) = 3.87165 0.86143 2.80462
# Velocity P-wave (km/s) = 6.63053 6.09371 6.36778
#
# Compressibility (1/GPa) = 0.01674467
#
# Stress axis : x y z
#
# Youngs Moduli (GPa) = 86.49108 104.05562 63.99014
#
# Poissons Ratio (x) = 0.68066 -0.09673
# Poissons Ratio (y) = 0.56576 0.31981
# Poissons Ratio (z) = -0.13074 0.52005
#
# Static dielectric constant tensor:
#      x y z
#    x 2.186020 0.000000 0.000000 
#    y 0.000000 2.060210 0.000000 
#    z 0.000000 0.000000 1.941190 
# 
# From -- ./inp_files/12186.got.cif
#   From: 2010.05.17/outbox.cif.g08.bks.cpg/sg54_7_cif.got.tgz:12186.got - 2010.06.03 13:09:01.
