data_PCOD9422289
_publ_section_title
;
Structure prediction by ZEFSAII (Michael W. Deem and Ramdas Pophale) SiO2 
 PCOD9422289
Probable space group: P C C A
;
_chemical_formula_sum "Si O2"
_cell_formula_units_Z 32
_cell_length_a 5.346074
_cell_length_b 7.186094
_cell_length_c 36.097944
_cell_angle_alpha 90.000000
_cell_angle_beta 90.000000
_cell_angle_gamma 90.000000
_cell_volume 1386.788803
_symmetry_space_group_name_H-M "P C C A"
_symmetry_group_IT_number 54
_symmetry_cell_setting 'orthorhombic'
loop_
_space_group_symop_operation_xyz
x,y,z
1/2-x,-y,z
1/2+x,-y,1/2-z
-x,y,1/2-z
-x,-y,-z
1/2+x,y,-z
1/2-x,y,1/2+z
x,-y,1/2+z
loop_
_atom_site_type_symbol
_atom_site_label
_atom_site_fract_x
_atom_site_fract_y
_atom_site_fract_z
Si Si1 0.501520 0.126163 0.791718
Si Si2 0.482208 0.289781 0.400452
Si Si3 0.013110 0.709187 0.631245
Si Si4 0.219397 0.224595 0.981694
O O1 0.500000 0.205729 0.750000
O O2 0.526666 0.274265 0.824688
O O3 0.750000 0.000000 0.794723
O O4 0.250000 0.000000 0.795791
O O5 0.247602 0.200570 0.380073
O O6 0.499391 0.499037 0.384206
O O7 0.404942 0.284701 0.443163
O O8 0.748217 0.206135 0.389573
O O9 0.250000 0.000000 0.982152
O O10 0.506345 0.286490 0.988638
#
# Coordination Sequence:
#
# PCOD9422289 Si02
#       4
#     8   8   8   8
#     4  10  21  38  61  88 118 155 198 243 292 347
#     4  10  21  38  58  85 120 154 196 240 293 356
#     4  10  21  38  56  85 120 154 194 239 294 352
#     4  10  21  38  59  84 115 152 195 244 296 351
#
# _framework density 23.074888000000001
#
# number of rings (size 3 to 8) (size 9 to 14) (size 15 to 20)
#    0.000    2.000    0.000    3.000    0.000    3.000 
#    0.000   20.000    0.000    0.000    0.000    0.000 
#    0.000    0.000    0.000    0.000    0.000    0.000 
#
# Total GULP energy -178603.827182 kJ/mol
# GULP energy per Si atom -5581.369599 kJ/mol
# Density = 2.302237 g / cm^3
# Si number density = 23.074888 Si / 1000 Ang^3
#
#
#
# Elastic Constant Matrix: (Units=GPa)
#
#
# Indices 1 2 3 4 5 6 
#
# 1 218.9440 33.6223 62.8833 0.0000 0.0000 0.0000
# 2 33.6223 99.3835 23.0124 0.0000 0.0000 0.0000
# 3 62.8833 23.0124 171.0484 0.0000 0.0000 0.0000
# 4 0.0000 0.0000 0.0000 38.4785 0.0000 0.0000
# 5 0.0000 0.0000 0.0000 0.0000 41.7120 0.0000
# 6 0.0000 0.0000 0.0000 0.0000 0.0000 -21.0809
#
#
#
# Elastic Compliance Matrix: (Units=1/GPa)
#
#
# Indices 1 2 3 4 5 6 
#
# 1 0.005284 -0.001381 -0.001757 0.000000 0.000000 0.000000
# 2 -0.001381 0.010746 -0.000938 0.000000 0.000000 0.000000
# 3 -0.001757 -0.000938 0.006618 0.000000 0.000000 0.000000
# 4 0.000000 0.000000 0.000000 0.025989 0.000000 0.000000
# 5 0.000000 0.000000 0.000000 0.000000 0.023974 0.000000
# 6 0.000000 0.000000 0.000000 0.000000 0.000000 -0.047436
#
#
# Mechanical properties :
#
#
# Convention : Reuss Voigt Hill
#
# Bulk Modulus (GPa) = 68.97880 80.93465 74.95673
# Shear Modulus (GPa) = 131.03081 36.47911 83.75496
#
# Velocity S-wave (km/s) = 7.54376 3.98037 6.03124
# Velocity P-wave (km/s) = 10.28767 7.50169 9.00309
#
# Compressibility (1/GPa) = 0.01449721
#
# Stress axis : x y z
#
# Youngs Moduli (GPa) = 189.25044 93.05430 151.09440
#
# Poissons Ratio (x) = 0.12849 0.26544
# Poissons Ratio (y) = 0.26132 0.14175
# Poissons Ratio (z) = 0.33248 0.08730
#
# Static dielectric constant tensor:
#      x y z
#    x 1.906030 0.000000 0.000000 
#    y 0.000000 1.804300 0.000000 
#    z 0.000000 0.000000 1.874050 
# 
# From -- ./inp_files/26862.got.cif
#   From: 2010.05.17/outbox.cif.g08.bks.cpg/sg54_14_cif.got.tgz:26862.got - 2010.06.03 13:09:01.
