data_PCOD9422803
_publ_section_title
;
Structure prediction by ZEFSAII (Michael W. Deem and Ramdas Pophale) SiO2 
 PCOD9422803
Probable space group: P C C A
;
_chemical_formula_sum "Si O2"
_cell_formula_units_Z 48
_cell_length_a 11.161733
_cell_length_b 8.097420
_cell_length_c 23.770609
_cell_angle_alpha 90.000000
_cell_angle_beta 90.000000
_cell_angle_gamma 90.000000
_cell_volume 2148.417118
_symmetry_space_group_name_H-M "P C C A"
_symmetry_group_IT_number 54
_symmetry_cell_setting 'orthorhombic'
loop_
_space_group_symop_operation_xyz
x,y,z
1/2-x,-y,z
1/2+x,-y,1/2-z
-x,y,1/2-z
-x,-y,-z
1/2+x,y,-z
1/2-x,y,1/2+z
x,-y,1/2+z
loop_
_atom_site_type_symbol
_atom_site_label
_atom_site_fract_x
_atom_site_fract_y
_atom_site_fract_z
Si Si1 0.943013 0.410630 0.409999
Si Si2 0.174007 0.665779 0.977535
Si Si3 0.561004 0.725995 0.193652
Si Si4 0.694101 0.241532 0.406573
Si Si5 0.023314 0.895148 0.183747
Si Si6 0.782744 0.192119 0.636172
O O1 0.835249 0.279228 0.403332
O O2 0.879875 0.586761 0.408345
O O3 0.036825 0.372865 0.459893
O O4 0.023754 0.394462 0.355317
O O5 0.250000 0.500000 0.994188
O O6 0.241357 0.724945 0.921313
O O7 0.176030 0.802967 0.027214
O O8 0.500000 0.667270 0.250000
O O9 0.703744 0.743331 0.188817
O O10 0.507017 0.909227 0.182071
O O11 0.643091 0.142642 0.352666
O O12 0.921243 0.799751 0.149169
O O13 0.000000 0.851946 0.250000
O O14 0.750000 0.000000 0.630855
#
# Coordination Sequence:
#
# PCOD9422803 Si02
#       6
#     8   8   8   8   8   8
#     4  10  22  38  57  90 120 153 200 246 297 350
#     4  11  21  39  63  85 117 165 196 242 298 359
#     4   9  20  39  63  84 116 156 198 248 298 357
#     4  11  23  37  58  90 121 154 197 249 293 357
#     4  10  22  39  62  89 117 158 200 244 302 358
#     4   9  20  39  58  86 118 152 201 247 298 359
#
# _framework density 22.342033000000001
#
# number of rings (size 3 to 8) (size 9 to 14) (size 15 to 20)
#    0.000    2.000    1.667    1.500    4.667    1.333 
#    3.000    2.500    0.000    0.000    0.000    0.000 
#    0.000    0.000    0.000    0.000    0.000    0.000 
#
# Total GULP energy -267564.455828 kJ/mol
# GULP energy per Si atom -5574.259496 kJ/mol
# Density = 2.229118 g / cm^3
# Si number density = 22.342033 Si / 1000 Ang^3
#
#
#
# Elastic Constant Matrix: (Units=GPa)
#
#
# Indices 1 2 3 4 5 6 
#
# 1 113.0606 15.4850 14.6449 0.0000 0.0000 0.0000
# 2 15.4850 17.8373 10.8921 0.0000 0.0000 0.0000
# 3 14.6449 10.8921 105.2941 0.0000 0.0000 0.0000
# 4 0.0000 0.0000 0.0000 22.6413 0.0000 0.0000
# 5 0.0000 0.0000 0.0000 0.0000 14.2157 0.0000
# 6 0.0000 0.0000 0.0000 0.0000 0.0000 27.1538
#
#
#
# Elastic Compliance Matrix: (Units=1/GPa)
#
#
# Indices 1 2 3 4 5 6 
#
# 1 0.010066 -0.008415 -0.000530 0.000000 0.000000 0.000000
# 2 -0.008415 0.066877 -0.005748 0.000000 0.000000 0.000000
# 3 -0.000530 -0.005748 0.010165 0.000000 0.000000 0.000000
# 4 0.000000 0.000000 0.000000 0.044167 0.000000 0.000000
# 5 0.000000 0.000000 0.000000 0.000000 0.070345 0.000000
# 6 0.000000 0.000000 0.000000 0.000000 0.000000 0.036827
#
#
# Mechanical properties :
#
#
# Convention : Reuss Voigt Hill
#
# Bulk Modulus (GPa) = 17.32383 35.35956 26.34170
# Shear Modulus (GPa) = 17.41713 25.81349 21.61531
#
# Velocity S-wave (km/s) = 2.79510 3.40277 3.11380
# Velocity P-wave (km/s) = 4.26469 5.59458 4.97428
#
# Compressibility (1/GPa) = 0.05772396
#
# Stress axis : x y z
#
# Youngs Moduli (GPa) = 99.34481 14.95277 98.37263
#
# Poissons Ratio (x) = 0.12583 0.05209
# Poissons Ratio (y) = 0.83600 0.56541
# Poissons Ratio (z) = 0.05261 0.08594
#
# Static dielectric constant tensor:
#      x y z
#    x 1.167710 0.000000 0.000000 
#    y 0.000000 1.840030 0.000000 
#    z 0.000000 0.000000 1.891390 
# 
# From -- ./inp_files/24034.got.cif
#   From: 2010.05.17/outbox.cif.g08.bks.cpg/sg54_13_cif.got.tgz:24034.got - 2010.06.03 13:09:01.
