data_PCOD9422347
_publ_section_title
;
Structure prediction by ZEFSAII (Michael W. Deem and Ramdas Pophale) SiO2 
 PCOD9422347
Probable space group: P C C A
;
_chemical_formula_sum "Si O2"
_cell_formula_units_Z 40
_cell_length_a 11.617418
_cell_length_b 5.040739
_cell_length_c 33.721317
_cell_angle_alpha 90.000000
_cell_angle_beta 90.000000
_cell_angle_gamma 90.000000
_cell_volume 1974.732868
_symmetry_space_group_name_H-M "P C C A"
_symmetry_group_IT_number 54
_symmetry_cell_setting 'orthorhombic'
loop_
_space_group_symop_operation_xyz
x,y,z
1/2-x,-y,z
1/2+x,-y,1/2-z
-x,y,1/2-z
-x,-y,-z
1/2+x,y,-z
1/2-x,y,1/2+z
x,-y,1/2+z
loop_
_atom_site_type_symbol
_atom_site_label
_atom_site_fract_x
_atom_site_fract_y
_atom_site_fract_z
Si Si1 0.620057 0.073122 0.205323
Si Si2 0.379442 0.480821 0.915640
Si Si3 0.116536 0.016257 0.973297
Si Si4 0.682743 0.748220 0.789561
Si Si5 0.989999 0.563984 0.666987
O O1 0.536041 0.851772 0.186003
O O2 0.750000 0.000000 0.194752
O O3 0.618585 0.108582 0.252927
O O4 0.596602 0.359068 0.187369
O O5 0.250000 0.500000 0.898358
O O6 0.394080 0.726654 0.945309
O O7 0.467423 0.448323 0.879635
O O8 0.386414 0.227904 0.943435
O O9 0.250000 0.000000 0.991069
O O10 0.000000 0.000000 0.000000
O O11 0.750000 0.500000 0.769657
O O12 0.608793 0.578054 0.820613
O O13 0.750000 0.000000 0.807947
#
# Coordination Sequence:
#
# PCOD9422347 Si02
#       5
#     8   8   8   8   8
#     4  11  22  36  57  85 113 150 204 258 305 360
#     4  10  21  38  62  93 123 151 191 250 307 357
#     4  10  21  40  65  93 125 158 195 242 302 374
#     4  11  24  41  56  80 120 165 210 260 308 363
#     4  12  23  39  61  85 116 158 202 250 311 366
#
# _framework density 20.255903
#
# number of rings (size 3 to 8) (size 9 to 14) (size 15 to 20)
#    0.000    1.200    0.000    7.800    0.000    4.800 
#    0.000    3.000    0.000    0.000    0.000    0.000 
#    0.000    0.000    0.000    0.000    0.000    0.000 
#
# Total GULP energy -222990.922576 kJ/mol
# GULP energy per Si atom -5574.773064 kJ/mol
# Density = 2.020980 g / cm^3
# Si number density = 20.255903 Si / 1000 Ang^3
#
#
#
# Elastic Constant Matrix: (Units=GPa)
#
#
# Indices 1 2 3 4 5 6 
#
# 1 99.6864 24.2691 46.6983 0.0000 0.0000 0.0000
# 2 24.2691 136.3960 39.0086 0.0000 0.0000 0.0000
# 3 46.6983 39.0086 89.6757 0.0000 0.0000 0.0000
# 4 0.0000 0.0000 0.0000 9.3504 0.0000 0.0000
# 5 0.0000 0.0000 0.0000 0.0000 28.2024 0.0000
# 6 0.0000 0.0000 0.0000 0.0000 0.0000 41.5964
#
#
#
# Elastic Compliance Matrix: (Units=1/GPa)
#
#
# Indices 1 2 3 4 5 6 
#
# 1 0.013291 -0.000440 -0.006730 0.000000 0.000000 0.000000
# 2 -0.000440 0.008388 -0.003419 0.000000 0.000000 0.000000
# 3 -0.006730 -0.003419 0.016143 0.000000 0.000000 0.000000
# 4 0.000000 0.000000 0.000000 0.106947 0.000000 0.000000
# 5 0.000000 0.000000 0.000000 0.000000 0.035458 0.000000
# 6 0.000000 0.000000 0.000000 0.000000 0.000000 0.024041
#
#
# Mechanical properties :
#
#
# Convention : Reuss Voigt Hill
#
# Bulk Modulus (GPa) = 60.08413 60.63446 60.35930
# Shear Modulus (GPa) = 21.64550 30.21531 25.93040
#
# Velocity S-wave (km/s) = 3.27249 3.86642 3.58179
# Velocity P-wave (km/s) = 6.63369 7.06622 6.85337
#
# Compressibility (1/GPa) = 0.01664333
#
# Stress axis : x y z
#
# Youngs Moduli (GPa) = 75.23741 119.21981 61.94521
#
# Poissons Ratio (x) = 0.05248 0.41688
# Poissons Ratio (y) = 0.03312 0.21182
# Poissons Ratio (z) = 0.50634 0.40767
#
# Static dielectric constant tensor:
#      x y z
#    x 1.922800 0.000000 0.000000 
#    y 0.000000 1.660750 0.000000 
#    z 0.000000 0.000000 1.682710 
# 
# From -- ./inp_files/28011.got.cif
#   From: 2010.05.17/outbox.cif.g08.bks.cpg/sg54_15_cif.got.tgz:28011.got - 2010.06.03 13:09:01.
