data_PCOD9422822
_publ_section_title
;
Structure prediction by ZEFSAII (Michael W. Deem and Ramdas Pophale) SiO2 
 PCOD9422822
Probable space group: P C C A
;
_chemical_formula_sum "Si O2"
_cell_formula_units_Z 40
_cell_length_a 5.596763
_cell_length_b 11.976357
_cell_length_c 28.207815
_cell_angle_alpha 90.000000
_cell_angle_beta 90.000000
_cell_angle_gamma 90.000000
_cell_volume 1890.736885
_symmetry_space_group_name_H-M "P C C A"
_symmetry_group_IT_number 54
_symmetry_cell_setting 'orthorhombic'
loop_
_space_group_symop_operation_xyz
x,y,z
1/2-x,-y,z
1/2+x,-y,1/2-z
-x,y,1/2-z
-x,-y,-z
1/2+x,y,-z
1/2-x,y,1/2+z
x,-y,1/2+z
loop_
_atom_site_type_symbol
_atom_site_label
_atom_site_fract_x
_atom_site_fract_y
_atom_site_fract_z
Si Si1 0.094300 0.179478 0.381302
Si Si2 0.297357 0.371504 0.652753
Si Si3 0.250000 0.000000 0.644039
Si Si4 0.535258 0.195705 0.194019
Si Si5 0.500000 0.565580 0.250000
Si Si6 0.220916 0.134239 0.976586
O O1 0.209597 0.169007 0.329048
O O2 0.289602 0.174569 0.422151
O O3 0.937417 0.291440 0.382983
O O4 0.931732 0.070207 0.387767
O O5 0.250000 0.500000 0.639493
O O6 0.453779 0.371510 0.701151
O O7 0.056433 0.308177 0.668300
O O8 0.126842 0.092979 0.676600
O O9 0.500000 0.209279 0.250000
O O10 0.750000 0.500000 0.243889
O O11 0.250000 0.000000 0.978566
O O12 0.477620 0.172656 0.997826
#
# Coordination Sequence:
#
# PCOD9422822 Si02
#       6
#     8   8   4   8   4   8
#     4  11  24  41  64  94 133 172 220 274 331 404
#     4  10  24  38  62  91 125 171 223 274 328 380
#     4  10  24  38  58  90 136 170 218 254 332 392
#     4  11  24  38  62  90 128 179 219 264 324 388
#     4  10  22  38  62  88 128 168 222 280 316 370
#     4  10  23  40  70  99 130 167 217 277 343 397
#
# _framework density 21.155773
#
# number of rings (size 3 to 8) (size 9 to 14) (size 15 to 20)
#    0.000    1.600    0.000    3.000   23.800    1.600 
#    0.000    0.000    0.000    1.200    0.000    0.000 
#    0.000    0.000    0.000    0.000    0.000    0.000 
#
# Total GULP energy -223396.768590 kJ/mol
# GULP energy per Si atom -5584.919215 kJ/mol
# Density = 2.110762 g / cm^3
# Si number density = 21.155773 Si / 1000 Ang^3
#
#
#
# Elastic Constant Matrix: (Units=GPa)
#
#
# Indices 1 2 3 4 5 6 
#
# 1 95.8071 28.2237 21.2156 0.0000 0.0000 0.0000
# 2 28.2237 108.1978 9.7613 0.0000 0.0000 0.0000
# 3 21.2156 9.7613 63.4596 0.0000 0.0000 0.0000
# 4 0.0000 0.0000 0.0000 10.7291 0.0000 0.0000
# 5 0.0000 0.0000 0.0000 0.0000 33.0457 0.0000
# 6 0.0000 0.0000 0.0000 0.0000 0.0000 21.5884
#
#
#
# Elastic Compliance Matrix: (Units=1/GPa)
#
#
# Indices 1 2 3 4 5 6 
#
# 1 0.012066 -0.002823 -0.003600 0.000000 0.000000 0.000000
# 2 -0.002823 0.010033 -0.000600 0.000000 0.000000 0.000000
# 3 -0.003600 -0.000600 0.017054 0.000000 0.000000 0.000000
# 4 0.000000 0.000000 0.000000 0.093204 0.000000 0.000000
# 5 0.000000 0.000000 0.000000 0.000000 0.030261 0.000000
# 6 0.000000 0.000000 0.000000 0.000000 0.000000 0.046321
#
#
# Mechanical properties :
#
#
# Convention : Reuss Voigt Hill
#
# Bulk Modulus (GPa) = 39.82688 42.87395 41.35041
# Shear Modulus (GPa) = 21.61199 26.95691 24.28445
#
# Velocity S-wave (km/s) = 3.19966 3.57348 3.39172
# Velocity P-wave (km/s) = 5.70235 6.11033 5.90987
#
# Compressibility (1/GPa) = 0.02510867
#
# Stress axis : x y z
#
# Youngs Moduli (GPa) = 82.87517 99.67356 58.63816
#
# Poissons Ratio (x) = 0.28136 0.21108
# Poissons Ratio (y) = 0.23394 0.03516
# Poissons Ratio (z) = 0.29833 0.05976
#
# Static dielectric constant tensor:
#      x y z
#    x 1.874810 0.000000 0.000000 
#    y 0.000000 1.756270 0.000000 
#    z 0.000000 0.000000 1.753930 
# 
# From -- ./inp_files/25176.got.cif
#   From: 2010.05.17/outbox.cif.g08.bks.cpg/sg54_13_cif.got.tgz:25176.got - 2010.06.03 13:09:01.
