data_PCOD9422578
_publ_section_title
;
Structure prediction by ZEFSAII (Michael W. Deem and Ramdas Pophale) SiO2 
 PCOD9422578
Probable space group: P C C A
;
_chemical_formula_sum "Si O2"
_cell_formula_units_Z 48
_cell_length_a 15.144571
_cell_length_b 12.185831
_cell_length_c 11.724963
_cell_angle_alpha 90.000000
_cell_angle_beta 90.000000
_cell_angle_gamma 90.000000
_cell_volume 2163.832340
_symmetry_space_group_name_H-M "P C C A"
_symmetry_group_IT_number 54
_symmetry_cell_setting 'orthorhombic'
loop_
_space_group_symop_operation_xyz
x,y,z
1/2-x,-y,z
1/2+x,-y,1/2-z
-x,y,1/2-z
-x,-y,-z
1/2+x,y,-z
1/2-x,y,1/2+z
x,-y,1/2+z
loop_
_atom_site_type_symbol
_atom_site_label
_atom_site_fract_x
_atom_site_fract_y
_atom_site_fract_z
Si Si1 0.624184 0.418389 0.686234
Si Si2 0.107957 0.906787 0.762055
Si Si3 0.923147 0.231934 0.024078
Si Si4 0.321883 0.647468 0.865478
Si Si5 0.384736 0.278108 0.596286
Si Si6 0.395249 0.844243 0.725745
O O1 0.592592 0.352463 0.575073
O O2 0.727957 0.388556 0.683146
O O3 0.613065 0.547895 0.669979
O O4 0.589709 0.365838 0.804463
O O5 0.119904 0.852994 0.885886
O O6 0.149996 0.825298 0.668883
O O7 0.000000 0.901498 0.750000
O O8 0.135948 0.031132 0.743676
O O9 0.029816 0.228734 0.030741
O O10 0.886878 0.202795 0.901429
O O11 0.348882 0.761141 0.810296
O O12 0.324018 0.665016 0.001894
O O13 0.500000 0.845414 0.750000
#
# Coordination Sequence:
#
# PCOD9422578 Si02
#       6
#     8   8   8   8   8   8
#     4  10  25  42  61  84 121 172 197 248 308 360
#     4   8  19  36  63  88 121 160 190 243 308 358
#     4  10  21  41  63  89 122 158 202 253 304 353
#     4  11  25  39  62  88 121 163 206 244 303 365
#     4  10  21  42  63  88 121 155 204 250 302 359
#     4  11  22  36  63  97 121 153 207 250 296 361
#
# _framework density 22.182865
#
# number of rings (size 3 to 8) (size 9 to 14) (size 15 to 20)
#    0.000    2.000    1.667    1.500    7.000    5.333 
#    0.000    3.333    0.000    0.000    0.000    0.000 
#    0.000    0.000    0.000    0.000    0.000    0.000 
#
# Total GULP energy -268064.279851 kJ/mol
# GULP energy per Si atom -5584.672497 kJ/mol
# Density = 2.213238 g / cm^3
# Si number density = 22.182865 Si / 1000 Ang^3
#
#
#
# Elastic Constant Matrix: (Units=GPa)
#
#
# Indices 1 2 3 4 5 6 
#
# 1 26.4478 2.3116 4.8005 0.0000 0.0000 0.0000
# 2 2.3116 134.7787 37.8772 0.0000 0.0000 0.0000
# 3 4.8005 37.8772 120.1893 0.0000 0.0000 0.0000
# 4 0.0000 0.0000 0.0000 6.2438 0.0000 0.0000
# 5 0.0000 0.0000 0.0000 0.0000 16.1968 0.0000
# 6 0.0000 0.0000 0.0000 0.0000 0.0000 15.9244
#
#
#
# Elastic Compliance Matrix: (Units=1/GPa)
#
#
# Indices 1 2 3 4 5 6 
#
# 1 0.038094 -0.000248 -0.001443 0.000000 0.000000 0.000000
# 2 -0.000248 0.008142 -0.002556 0.000000 0.000000 0.000000
# 3 -0.001443 -0.002556 0.009183 0.000000 0.000000 0.000000
# 4 0.000000 0.000000 0.000000 0.160158 0.000000 0.000000
# 5 0.000000 0.000000 0.000000 0.000000 0.061741 0.000000
# 6 0.000000 0.000000 0.000000 0.000000 0.000000 0.062797
#
#
# Mechanical properties :
#
#
# Convention : Reuss Voigt Hill
#
# Bulk Modulus (GPa) = 21.31058 41.26605 31.28832
# Shear Modulus (GPa) = 13.72678 23.43476 18.58077
#
# Velocity S-wave (km/s) = 2.49027 3.25381 2.89730
# Velocity P-wave (km/s) = 4.23039 5.72359 5.03268
#
# Compressibility (1/GPa) = 0.04692505
#
# Stress axis : x y z
#
# Youngs Moduli (GPa) = 26.25088 122.81755 108.89220
#
# Poissons Ratio (x) = 0.03042 0.15718
# Poissons Ratio (y) = 0.00650 0.27834
# Poissons Ratio (z) = 0.03789 0.31393
#
# Static dielectric constant tensor:
#      x y z
#    x 1.925410 0.000000 0.000000 
#    y 0.000000 1.793670 0.000000 
#    z 0.000000 0.000000 1.780270 
# 
# From -- ./inp_files/8963.got.cif
#   From: 2010.05.17/outbox.cif.g08.bks.cpg/sg54_5_cif.got.tgz:8963.got - 2010.06.03 13:09:01.
