data_PCOD9422226
_publ_section_title
;
Structure prediction by ZEFSAII (Michael W. Deem and Ramdas Pophale) SiO2 
 PCOD9422226
Probable space group: P C C A
;
_chemical_formula_sum "Si O2"
_cell_formula_units_Z 56
_cell_length_a 5.082840
_cell_length_b 15.272833
_cell_length_c 33.854697
_cell_angle_alpha 90.000000
_cell_angle_beta 90.000000
_cell_angle_gamma 90.000000
_cell_volume 2628.118681
_symmetry_space_group_name_H-M "P C C A"
_symmetry_group_IT_number 54
_symmetry_cell_setting 'orthorhombic'
loop_
_space_group_symop_operation_xyz
x,y,z
1/2-x,-y,z
1/2+x,-y,1/2-z
-x,y,1/2-z
-x,-y,-z
1/2+x,y,-z
1/2-x,y,1/2+z
x,-y,1/2+z
loop_
_atom_site_type_symbol
_atom_site_label
_atom_site_fract_x
_atom_site_fract_y
_atom_site_fract_z
Si Si1 0.304640 0.403754 0.087110
Si Si2 0.247864 0.394086 0.275365
Si Si3 0.717177 0.651495 0.133875
Si Si4 0.680220 0.852614 0.126002
Si Si5 0.667315 0.903939 0.921579
Si Si6 0.002723 0.936388 0.793390
Si Si7 0.525077 0.256682 0.475158
O O1 0.250000 0.500000 0.070170
O O2 0.552746 0.408119 0.116309
O O3 0.383859 0.333014 0.054377
O O4 0.055825 0.372581 0.112833
O O5 0.250000 0.500000 0.278420
O O6 0.500000 0.366921 0.250000
O O7 0.221077 0.358678 0.319284
O O8 0.000000 0.366743 0.250000
O O9 0.775952 0.752780 0.124458
O O10 0.430806 0.864851 0.097680
O O11 0.567465 0.875919 0.169264
O O12 0.930459 0.908970 0.110796
O O13 0.571112 0.837282 0.954932
O O14 0.750000 0.000000 0.935803
O O15 0.000000 0.891495 0.750000
O O16 0.250000 0.000000 0.790706
O O17 0.750000 0.000000 0.799518
O O18 0.221975 0.264327 0.487657
#
# Coordination Sequence:
#
# PCOD9422226 Si02
#       7
#     8   8   8   8   8   8   8
#     4  12  25  45  71 100 132 176 221 264 328 395
#     4  10  21  37  58  89 129 172 220 273 327 381
#     4  12  23  42  67  96 134 174 226 278 322 383
#     4  12  22  41  66  96 132 173 225 276 320 382
#     4  12  25  44  70  99 132 175 220 262 326 393
#     4  10  21  37  58  89 129 173 222 274 327 381
#     4  12  26  46  71 101 138 164 210 272 330 394
#
# _framework density 21.308017
#
# number of rings (size 3 to 8) (size 9 to 14) (size 15 to 20)
#    0.000    0.571    2.857    6.429    0.000    2.857 
#    0.000    2.143    0.000    0.000    0.000    0.000 
#    0.000    0.000    0.000    0.000    0.000    0.000 
#
# Total GULP energy -313310.237981 kJ/mol
# GULP energy per Si atom -5594.825678 kJ/mol
# Density = 2.125952 g / cm^3
# Si number density = 21.308017 Si / 1000 Ang^3
#
#
#
# Elastic Constant Matrix: (Units=GPa)
#
#
# Indices 1 2 3 4 5 6 
#
# 1 104.0197 -1.1229 3.1150 0.0000 0.0000 0.0000
# 2 -1.1229 82.3828 19.9189 0.0000 0.0000 0.0000
# 3 3.1150 19.9189 69.0843 0.0000 0.0000 0.0000
# 4 0.0000 0.0000 0.0000 22.9475 0.0000 0.0000
# 5 0.0000 0.0000 0.0000 0.0000 19.2197 0.0000
# 6 0.0000 0.0000 0.0000 0.0000 0.0000 9.8788
#
#
#
# Elastic Compliance Matrix: (Units=1/GPa)
#
#
# Indices 1 2 3 4 5 6 
#
# 1 0.009632 0.000254 -0.000508 0.000000 0.000000 0.000000
# 2 0.000254 0.013055 -0.003776 0.000000 0.000000 0.000000
# 3 -0.000508 -0.003776 0.015587 0.000000 0.000000 0.000000
# 4 0.000000 0.000000 0.000000 0.043578 0.000000 0.000000
# 5 0.000000 0.000000 0.000000 0.000000 0.052030 0.000000
# 6 0.000000 0.000000 0.000000 0.000000 0.000000 0.101227
#
#
# Mechanical properties :
#
#
# Convention : Reuss Voigt Hill
#
# Bulk Modulus (GPa) = 33.09643 33.25655 33.17649
# Shear Modulus (GPa) = 19.74437 25.98093 22.86265
#
# Velocity S-wave (km/s) = 3.04734 3.49564 3.27916
# Velocity P-wave (km/s) = 5.28657 5.65102 5.47183
#
# Compressibility (1/GPa) = 0.03021474
#
# Stress axis : x y z
#
# Youngs Moduli (GPa) = 103.82594 76.60033 64.15795
#
# Poissons Ratio (x) = -0.01946 0.03256
# Poissons Ratio (y) = -0.02637 0.24223
# Poissons Ratio (z) = 0.05269 0.28921
#
# Static dielectric constant tensor:
#      x y z
#    x 1.626340 0.000000 0.000000 
#    y 0.000000 1.795610 0.000000 
#    z 0.000000 0.000000 1.786840 
# 
# From -- ./inp_files/27212.got.cif
#   From: 2010.05.17/outbox.cif.g08.bks.cpg/sg54_14_cif.got.tgz:27212.got - 2010.06.03 13:09:01.
