data_PCOD9422719
_publ_section_title
;
Structure prediction by ZEFSAII (Michael W. Deem and Ramdas Pophale) SiO2 
 PCOD9422719
Probable space group: P C C A
;
_chemical_formula_sum "Si O2"
_cell_formula_units_Z 60
_cell_length_a 25.431530
_cell_length_b 8.483366
_cell_length_c 11.945252
_cell_angle_alpha 90.000000
_cell_angle_beta 90.000000
_cell_angle_gamma 90.000000
_cell_volume 2577.128117
_symmetry_space_group_name_H-M "P C C A"
_symmetry_group_IT_number 54
_symmetry_cell_setting 'orthorhombic'
loop_
_space_group_symop_operation_xyz
x,y,z
1/2-x,-y,z
1/2+x,-y,1/2-z
-x,y,1/2-z
-x,-y,-z
1/2+x,y,-z
1/2-x,y,1/2+z
x,-y,1/2+z
loop_
_atom_site_type_symbol
_atom_site_label
_atom_site_fract_x
_atom_site_fract_y
_atom_site_fract_z
Si Si1 0.946761 0.669037 0.470527
Si Si2 0.720489 0.292156 0.470889
Si Si3 0.332669 0.234796 0.428709
Si Si4 0.640743 0.402535 0.304202
Si Si5 0.176185 0.888194 0.838743
Si Si6 0.053676 0.290410 0.034910
Si Si7 0.582528 0.273872 0.729126
Si Si8 0.250000 0.000000 0.159177
O O1 0.902246 0.699549 0.376643
O O2 0.948713 0.479800 0.463984
O O3 0.934680 0.698850 0.601399
O O4 0.003923 0.750527 0.455713
O O5 0.781369 0.306215 0.508716
O O6 0.691036 0.409238 0.386846
O O7 0.687233 0.262550 0.583519
O O8 0.716483 0.121678 0.411077
O O9 0.342414 0.320379 0.310735
O O10 0.388135 0.242069 0.494566
O O11 0.318590 0.054157 0.401008
O O12 0.615530 0.570583 0.269509
O O13 0.119965 0.875498 0.783108
O O14 0.216859 0.887814 0.738560
O O15 0.045649 0.242417 0.164297
#
# Coordination Sequence:
#
# PCOD9422719 Si02
#       8
#     8   8   8   8   8   8   8   4
#     4  10  21  44  70  97 132 177 226 279 345 410
#     4  12  22  41  68  95 137 180 229 274 339 416
#     4  12  23  42  68 103 134 182 229 277 340 420
#     4  11  24  43  71  99 138 175 228 285 342 406
#     4  12  23  39  67  94 134 180 227 274 340 420
#     4  10  23  40  71 100 128 175 230 282 336 414
#     4  11  23  43  68 100 132 173 221 291 345 402
#     4  12  20  40  62  94 124 186 222 258 328 410
#
# _framework density 23.281728000000001
#
# number of rings (size 3 to 8) (size 9 to 14) (size 15 to 20)
#    0.000    0.800    6.667    1.200    0.000    0.533 
#    0.000   15.333    2.933    0.000    0.000    0.000 
#    0.000    0.000    0.000    0.000    0.000    0.000 
#
# Total GULP energy -334790.983368 kJ/mol
# GULP energy per Si atom -5579.849723 kJ/mol
# Density = 2.322874 g / cm^3
# Si number density = 23.281728 Si / 1000 Ang^3
#
#
#
# Elastic Constant Matrix: (Units=GPa)
#
#
# Indices 1 2 3 4 5 6 
#
# 1 119.4744 -7.6694 38.2885 0.0000 0.0000 0.0000
# 2 -7.6694 13.1869 -1.4003 0.0000 0.0000 0.0000
# 3 38.2885 -1.4003 107.9000 0.0000 0.0000 0.0000
# 4 0.0000 0.0000 0.0000 3.9488 0.0000 0.0000
# 5 0.0000 0.0000 0.0000 0.0000 39.7507 0.0000
# 6 0.0000 0.0000 0.0000 0.0000 0.0000 -36.3640
#
#
#
# Elastic Compliance Matrix: (Units=1/GPa)
#
#
# Indices 1 2 3 4 5 6 
#
# 1 0.009806 0.005341 -0.003410 0.000000 0.000000 0.000000
# 2 0.005341 0.078847 -0.000872 0.000000 0.000000 0.000000
# 3 -0.003410 -0.000872 0.010467 0.000000 0.000000 0.000000
# 4 0.000000 0.000000 0.000000 0.253239 0.000000 0.000000
# 5 0.000000 0.000000 0.000000 0.000000 0.025157 0.000000
# 6 0.000000 0.000000 0.000000 0.000000 0.000000 -0.027500
#
#
# Mechanical properties :
#
#
# Convention : Reuss Voigt Hill
#
# Bulk Modulus (GPa) = 9.87789 33.22207 21.54998
# Shear Modulus (GPa) = 13.10125 15.55659 14.32892
#
# Velocity S-wave (km/s) = 2.37476 2.58774 2.48353
# Velocity P-wave (km/s) = 3.43093 4.81966 4.18332
#
# Compressibility (1/GPa) = 0.10123618
#
# Stress axis : x y z
#
# Youngs Moduli (GPa) = 101.98109 12.68287 95.54141
#
# Poissons Ratio (x) = -0.06774 0.32582
# Poissons Ratio (y) = -0.54466 0.08330
# Poissons Ratio (z) = 0.34778 0.01106
#
# Static dielectric constant tensor:
#      x y z
#    x 2.044500 0.000000 0.000000 
#    y 0.000000 1.801920 0.000000 
#    z 0.000000 0.000000 1.914200 
# 
# From -- ./inp_files/10360.got.cif
#   From: 2010.05.17/outbox.cif.g08.bks.cpg/sg54_6_cif.got.tgz:10360.got - 2010.06.03 13:09:01.
