data_PCOD9422088
_publ_section_title
;
Structure prediction by ZEFSAII (Michael W. Deem and Ramdas Pophale) SiO2 
 PCOD9422088
Probable space group: P C C A
;
_chemical_formula_sum "Si O2"
_cell_formula_units_Z 24
_cell_length_a 9.288358
_cell_length_b 4.879592
_cell_length_c 20.501024
_cell_angle_alpha 90.000000
_cell_angle_beta 90.000000
_cell_angle_gamma 90.000000
_cell_volume 929.176058
_symmetry_space_group_name_H-M "P C C A"
_symmetry_group_IT_number 54
_symmetry_cell_setting 'orthorhombic'
loop_
_space_group_symop_operation_xyz
x,y,z
1/2-x,-y,z
1/2+x,-y,1/2-z
-x,y,1/2-z
-x,-y,-z
1/2+x,y,-z
1/2-x,y,1/2+z
x,-y,1/2+z
loop_
_atom_site_type_symbol
_atom_site_label
_atom_site_fract_x
_atom_site_fract_y
_atom_site_fract_z
Si Si1 0.250000 0.500000 0.928123
Si Si2 0.093570 0.435117 0.804468
Si Si3 0.250000 0.000000 0.516124
Si Si4 0.847989 0.230457 0.359433
O O1 0.138564 0.349664 0.877786
O O2 0.302399 0.255024 0.973604
O O3 0.250000 0.500000 0.775251
O O4 0.007701 0.692949 0.677544
O O5 0.000000 0.282262 0.750000
O O6 0.131069 0.889881 0.567769
O O7 0.750000 0.500000 0.367866
O O8 0.750000 0.000000 0.325877
#
# Coordination Sequence:
#
# PCOD9422088 Si02
#       4
#     4   8   4   8
#     4  10  24  42  72 108 142 192 246 308 370 452
#     4  10  24  48  73 105 147 200 257 306 372 447
#     4  10  20  46  68 112 142 184 238 308 388 450
#     4  10  22  44  75 104 146 186 233 309 383 442
#
# _framework density 25.829335
#
# number of rings (size 3 to 8) (size 9 to 14) (size 15 to 20)
#    2.000    0.000    1.667    1.000    0.000    5.333 
#    3.000    3.333    0.000    0.000    0.000    0.000 
#    0.000    0.000    0.000    0.000    0.000    0.000 
#
# Total GULP energy -133719.021815 kJ/mol
# GULP energy per Si atom -5571.625909 kJ/mol
# Density = 2.577055 g / cm^3
# Si number density = 25.829335 Si / 1000 Ang^3
#
#
#
# Elastic Constant Matrix: (Units=GPa)
#
#
# Indices 1 2 3 4 5 6 
#
# 1 164.4502 38.0580 50.6766 0.0000 0.0000 0.0000
# 2 38.0580 128.1540 47.2806 0.0000 0.0000 0.0000
# 3 50.6766 47.2806 172.0992 0.0000 0.0000 0.0000
# 4 0.0000 0.0000 0.0000 -1.1873 0.0000 0.0000
# 5 0.0000 0.0000 0.0000 0.0000 22.3534 0.0000
# 6 0.0000 0.0000 0.0000 0.0000 0.0000 34.1578
#
#
#
# Elastic Compliance Matrix: (Units=1/GPa)
#
#
# Indices 1 2 3 4 5 6 
#
# 1 0.006922 -0.001451 -0.001640 0.000000 0.000000 0.000000
# 2 -0.001451 0.008987 -0.002042 0.000000 0.000000 0.000000
# 3 -0.001640 -0.002042 0.006854 0.000000 0.000000 0.000000
# 4 0.000000 0.000000 0.000000 -0.842253 0.000000 0.000000
# 5 0.000000 0.000000 0.000000 0.000000 0.044736 0.000000
# 6 0.000000 0.000000 0.000000 0.000000 0.000000 0.029276
#
#
# Mechanical properties :
#
#
# Convention : Reuss Voigt Hill
#
# Bulk Modulus (GPa) = 80.00617 81.85932 80.93274
# Shear Modulus (GPa) = -6.83951 32.97733 13.06891
#
# Velocity S-wave (km/s) = -1.62902 3.57703 2.25182
# Velocity P-wave (km/s) = 5.24441 6.98723 6.17759
#
# Compressibility (1/GPa) = 0.01249904
#
# Stress axis : x y z
#
# Youngs Moduli (GPa) = 144.46967 111.26885 145.89178
#
# Poissons Ratio (x) = 0.16141 0.23922
# Poissons Ratio (y) = 0.20958 0.29790
# Poissons Ratio (z) = 0.23689 0.22720
#
# Static dielectric constant tensor:
#      x y z
#    x 2.079220 0.000000 0.000000 
#    y 0.000000 2.001740 0.000000 
#    z 0.000000 0.000000 2.065930 
# 
# From -- ./inp_files/16945.got.cif
#   From: 2010.05.17/outbox.cif.g08.bks.cpg/sg54_9_cif.got.tgz:16945.got - 2010.06.03 13:09:01.
