data_PCOD9422178
_publ_section_title
;
Structure prediction by ZEFSAII (Michael W. Deem and Ramdas Pophale) SiO2 
 PCOD9422178
Probable space group: P C C A
;
_chemical_formula_sum "Si O2"
_cell_formula_units_Z 48
_cell_length_a 29.835000
_cell_length_b 7.920109
_cell_length_c 9.056985
_cell_angle_alpha 90.000000
_cell_angle_beta 90.000000
_cell_angle_gamma 90.000000
_cell_volume 2140.133421
_symmetry_space_group_name_H-M "P C C A"
_symmetry_group_IT_number 54
_symmetry_cell_setting 'orthorhombic'
loop_
_space_group_symop_operation_xyz
x,y,z
1/2-x,-y,z
1/2+x,-y,1/2-z
-x,y,1/2-z
-x,-y,-z
1/2+x,y,-z
1/2-x,y,1/2+z
x,-y,1/2+z
loop_
_atom_site_type_symbol
_atom_site_label
_atom_site_fract_x
_atom_site_fract_y
_atom_site_fract_z
Si Si1 0.753114 0.275412 0.751009
Si Si2 0.095959 0.618818 0.626637
Si Si3 0.310223 0.102464 0.996568
Si Si4 0.502767 0.315914 0.925383
Si Si5 0.406866 0.728366 0.469271
Si Si6 0.690061 0.699521 0.502912
O O1 0.718428 0.184819 0.637172
O O2 0.788394 0.374885 0.649716
O O3 0.785307 0.158766 0.853341
O O4 0.720826 0.359034 0.869311
O O5 0.054984 0.728843 0.557585
O O6 0.090961 0.420303 0.590950
O O7 0.099215 0.655442 0.801626
O O8 0.140066 0.660889 0.536953
O O9 0.362402 0.160288 0.995956
O O10 0.306996 0.901913 0.984053
O O11 0.500000 0.342195 0.750000
O O12 0.459030 0.207239 0.970101
O O13 0.500000 0.500000 0.000000
#
# Coordination Sequence:
#
# PCOD9422178 Si02
#       6
#     8   8   8   8   8   8
#     4  10  21  36  57  78 107 148 187 218 263 326
#     4  10  21  37  57  83 111 142 180 224 273 323
#     4  11  20  36  58  81 106 143 186 225 265 319
#     4   8  16  34  57  76 104 144 180 214 263 328
#     4  10  21  37  57  83 111 142 180 224 273 323
#     4  11  20  36  58  81 106 143 186 225 265 319
#
# _framework density 22.428507
#
# number of rings (size 3 to 8) (size 9 to 14) (size 15 to 20)
#    0.000    2.000    1.667    4.000    2.333    0.000 
#    0.000    5.833    0.000    0.000    0.000    0.000 
#    0.000    0.000    0.000    0.000    0.000    0.000 
#
# Total GULP energy -267688.803021 kJ/mol
# GULP energy per Si atom -5576.850063 kJ/mol
# Density = 2.237746 g / cm^3
# Si number density = 22.428507 Si / 1000 Ang^3
#
#
#
# Elastic Constant Matrix: (Units=GPa)
#
#
# Indices 1 2 3 4 5 6 
#
# 1 212.9348 27.9312 35.6173 0.0000 0.0000 0.0000
# 2 27.9312 39.8357 13.9353 0.0000 0.0000 0.0000
# 3 35.6173 13.9353 91.9173 0.0000 0.0000 0.0000
# 4 0.0000 0.0000 0.0000 18.1375 0.0000 0.0000
# 5 0.0000 0.0000 0.0000 0.0000 27.2128 0.0000
# 6 0.0000 0.0000 0.0000 0.0000 0.0000 21.9582
#
#
#
# Elastic Compliance Matrix: (Units=1/GPa)
#
#
# Indices 1 2 3 4 5 6 
#
# 1 0.005386 -0.003217 -0.001599 0.000000 0.000000 0.000000
# 2 -0.003217 0.028430 -0.003064 0.000000 0.000000 0.000000
# 3 -0.001599 -0.003064 0.011964 0.000000 0.000000 0.000000
# 4 0.000000 0.000000 0.000000 0.055134 0.000000 0.000000
# 5 0.000000 0.000000 0.000000 0.000000 0.036747 0.000000
# 6 0.000000 0.000000 0.000000 0.000000 0.000000 0.045541
#
#
# Mechanical properties :
#
#
# Convention : Reuss Voigt Hill
#
# Bulk Modulus (GPa) = 33.31108 55.51726 44.41417
# Shear Modulus (GPa) = 23.92702 31.27530 27.60116
#
# Velocity S-wave (km/s) = 3.26975 3.73828 3.51184
# Velocity P-wave (km/s) = 5.39809 6.59088 6.02408
#
# Compressibility (1/GPa) = 0.03002004
#
# Stress axis : x y z
#
# Youngs Moduli (GPa) = 185.67570 35.17362 83.58738
#
# Poissons Ratio (x) = 0.11315 0.13368
# Poissons Ratio (y) = 0.59728 0.25609
# Poissons Ratio (z) = 0.29694 0.10776
#
# Static dielectric constant tensor:
#      x y z
#    x 1.930210 0.000000 0.000000 
#    y 0.000000 1.875770 0.000000 
#    z 0.000000 0.000000 1.815310 
# 
# From -- ./inp_files/5819.got.cif
#   From: 2010.05.17/outbox.cif.g08.bks.cpg/sg54_3_cif.got.tgz:5819.got - 2010.06.03 13:09:01.
