data_PCOD9422570
_publ_section_title
;
Structure prediction by ZEFSAII (Michael W. Deem and Ramdas Pophale) SiO2 
 PCOD9422570
Probable space group: P C C A
;
_chemical_formula_sum "Si O2"
_cell_formula_units_Z 64
_cell_length_a 14.331523
_cell_length_b 9.144520
_cell_length_c 23.058244
_cell_angle_alpha 90.000000
_cell_angle_beta 90.000000
_cell_angle_gamma 90.000000
_cell_volume 3021.895832
_symmetry_space_group_name_H-M "P C C A"
_symmetry_group_IT_number 54
_symmetry_cell_setting 'orthorhombic'
loop_
_space_group_symop_operation_xyz
x,y,z
1/2-x,-y,z
1/2+x,-y,1/2-z
-x,y,1/2-z
-x,-y,-z
1/2+x,y,-z
1/2-x,y,1/2+z
x,-y,1/2+z
loop_
_atom_site_type_symbol
_atom_site_label
_atom_site_fract_x
_atom_site_fract_y
_atom_site_fract_z
Si Si1 0.720750 0.706140 0.193558
Si Si2 0.432589 0.318696 0.142613
Si Si3 0.169994 0.397458 0.110421
Si Si4 0.086504 0.172021 0.022114
Si Si5 0.613991 0.842801 0.976042
Si Si6 0.767562 0.828049 0.068418
Si Si7 0.413442 0.452408 0.295033
Si Si8 0.231915 0.837914 0.193928
O O1 0.743113 0.748071 0.127626
O O2 0.812158 0.618304 0.217182
O O3 0.623726 0.616171 0.192807
O O4 0.722245 0.831907 0.242031
O O5 0.391516 0.483603 0.144050
O O6 0.408587 0.252816 0.079906
O O7 0.540410 0.348322 0.156051
O O8 0.376705 0.211060 0.186431
O O9 0.250000 0.500000 0.082981
O O10 0.115569 0.302689 0.063752
O O11 0.215845 0.284095 0.155202
O O12 0.125905 0.013297 0.041400
O O13 0.130131 0.194425 0.958216
O O14 0.975896 0.160490 0.017535
O O15 0.700522 0.788938 0.014040
O O16 0.750000 0.000000 0.078871
O O17 0.500000 0.454416 0.250000
O O18 0.250000 0.000000 0.170626
#
# Coordination Sequence:
#
# PCOD9422570 Si02
#       8
#     8   8   8   8   8   8   8   8
#     4  11  24  41  66  96 125 176 222 269 340 402
#     4  11  22  40  66  95 131 171 215 277 332 389
#     4  10  22  37  62  94 125 164 215 268 319 389
#     4  10  21  41  62  90 132 171 217 269 328 393
#     4  10  22  39  65  93 125 175 218 267 329 391
#     4  10  21  41  63  89 133 172 212 271 329 388
#     4  11  23  43  66  91 133 174 219 272 341 403
#     4  11  22  40  68  95 124 165 221 276 328 398
#
# _framework density 21.178757999999998
#
# number of rings (size 3 to 8) (size 9 to 14) (size 15 to 20)
#    0.000    1.500    1.250    4.125    5.250    1.500 
#    9.000    0.000    8.250    0.000    0.000    0.000 
#    0.000    0.000    0.000    0.000    0.000    0.000 
#
# Total GULP energy -356828.360436 kJ/mol
# GULP energy per Si atom -5575.443132 kJ/mol
# Density = 2.113055 g / cm^3
# Si number density = 21.178758 Si / 1000 Ang^3
#
#
#
# Elastic Constant Matrix: (Units=GPa)
#
#
# Indices 1 2 3 4 5 6 
#
# 1 90.3050 31.9797 18.1714 0.0000 0.0000 0.0000
# 2 31.9797 103.0728 37.7223 0.0000 0.0000 0.0000
# 3 18.1714 37.7223 78.0487 0.0000 0.0000 0.0000
# 4 0.0000 0.0000 0.0000 7.3746 0.0000 0.0000
# 5 0.0000 0.0000 0.0000 0.0000 -4.9066 0.0000
# 6 0.0000 0.0000 0.0000 0.0000 0.0000 28.3532
#
#
#
# Elastic Compliance Matrix: (Units=1/GPa)
#
#
# Indices 1 2 3 4 5 6 
#
# 1 0.012542 -0.003429 -0.001263 0.000000 0.000000 0.000000
# 2 -0.003429 0.012724 -0.005352 0.000000 0.000000 0.000000
# 3 -0.001263 -0.005352 0.015693 0.000000 0.000000 0.000000
# 4 0.000000 0.000000 0.000000 0.135601 0.000000 0.000000
# 5 0.000000 0.000000 0.000000 0.000000 -0.203806 0.000000
# 6 0.000000 0.000000 0.000000 0.000000 0.000000 0.035269
#
#
# Mechanical properties :
#
#
# Convention : Reuss Voigt Hill
#
# Bulk Modulus (GPa) = 47.90970 49.68592 48.79781
# Shear Modulus (GPa) = 142.58043 18.40111 80.49077
#
# Velocity S-wave (km/s) = 8.21392 2.95082 6.17154
# Velocity P-wave (km/s) = 10.61267 5.92630 8.59505
#
# Compressibility (1/GPa) = 0.02087260
#
# Stress axis : x y z
#
# Youngs Moduli (GPa) = 79.73179 78.58930 63.72283
#
# Poissons Ratio (x) = 0.26950 0.08046
# Poissons Ratio (y) = 0.27342 0.34101
# Poissons Ratio (z) = 0.10067 0.42057
#
# Static dielectric constant tensor:
#      x y z
#    x 1.791290 0.000000 0.000000 
#    y 0.000000 1.801030 0.000000 
#    z 0.000000 0.000000 1.812360 
# 
# From -- ./inp_files/24536.got.cif
#   From: 2010.05.17/outbox.cif.g08.bks.cpg/sg54_13_cif.got.tgz:24536.got - 2010.06.03 13:09:01.
