data_PCOD9422260
_publ_section_title
;
Structure prediction by ZEFSAII (Michael W. Deem and Ramdas Pophale) SiO2 
 PCOD9422260
Probable space group: P C C A
;
_chemical_formula_sum "Si O2"
_cell_formula_units_Z 48
_cell_length_a 20.256284
_cell_length_b 7.748628
_cell_length_c 13.796179
_cell_angle_alpha 90.000000
_cell_angle_beta 90.000000
_cell_angle_gamma 90.000000
_cell_volume 2165.426311
_symmetry_space_group_name_H-M "P C C A"
_symmetry_group_IT_number 54
_symmetry_cell_setting 'orthorhombic'
loop_
_space_group_symop_operation_xyz
x,y,z
1/2-x,-y,z
1/2+x,-y,1/2-z
-x,y,1/2-z
-x,-y,-z
1/2+x,y,-z
1/2-x,y,1/2+z
x,-y,1/2+z
loop_
_atom_site_type_symbol
_atom_site_label
_atom_site_fract_x
_atom_site_fract_y
_atom_site_fract_z
Si Si1 0.567325 0.408467 0.026668
Si Si2 0.359986 0.267296 0.968931
Si Si3 0.707234 0.353744 0.829595
Si Si4 0.073506 0.403453 0.290786
Si Si5 0.360178 0.891653 0.025689
Si Si6 0.268242 0.808273 0.851542
O O1 0.622655 0.544887 0.989212
O O2 0.572891 0.422572 0.143289
O O3 0.574567 0.225673 0.975571
O O4 0.500000 0.500000 0.000000
O O5 0.407532 0.262112 0.873498
O O6 0.287311 0.260218 0.925387
O O7 0.369250 0.095886 0.031936
O O8 0.750000 0.500000 0.882943
O O9 0.636058 0.402421 0.781306
O O10 0.689211 0.188819 0.895509
O O11 0.758867 0.306112 0.742990
O O12 0.000000 0.378313 0.250000
O O13 0.330856 0.839188 0.919983
O O14 0.250000 0.000000 0.818506
#
# Coordination Sequence:
#
# PCOD9422260 Si02
#       6
#     8   8   8   8   8   8
#     4  10  21  37  63  87 121 164 208 257 314 374
#     4   8  21  38  61  84 125 158 201 268 306 367
#     4  11  23  35  61  96 119 167 211 262 324 382
#     4   9  19  41  61  85 133 162 207 271 315 370
#     4  11  22  39  63  89 121 169 211 253 327 376
#     4   9  20  40  59  85 123 158 201 265 318 373
#
# _framework density 22.166535
#
# number of rings (size 3 to 8) (size 9 to 14) (size 15 to 20)
#    1.000    1.333    0.000    2.000    2.333    2.667 
#    0.000    0.833    3.667    0.000    0.000    0.000 
#    0.000    0.000    0.000    0.000    0.000    0.000 
#
# Total GULP energy -267235.420192 kJ/mol
# GULP energy per Si atom -5567.404587 kJ/mol
# Density = 2.211608 g / cm^3
# Si number density = 22.166535 Si / 1000 Ang^3
#
#
#
# Elastic Constant Matrix: (Units=GPa)
#
#
# Indices 1 2 3 4 5 6 
#
# 1 71.5982 -8.2263 8.2071 0.0000 0.0000 0.0000
# 2 -8.2263 41.1854 6.8479 0.0000 0.0000 0.0000
# 3 8.2071 6.8479 68.9176 0.0000 0.0000 0.0000
# 4 0.0000 0.0000 0.0000 30.0650 0.0000 0.0000
# 5 0.0000 0.0000 0.0000 0.0000 24.7133 0.0000
# 6 0.0000 0.0000 0.0000 0.0000 0.0000 19.6895
#
#
#
# Elastic Compliance Matrix: (Units=1/GPa)
#
#
# Indices 1 2 3 4 5 6 
#
# 1 0.014577 0.003254 -0.002059 0.000000 0.000000 0.000000
# 2 0.003254 0.025415 -0.002913 0.000000 0.000000 0.000000
# 3 -0.002059 -0.002913 0.015045 0.000000 0.000000 0.000000
# 4 0.000000 0.000000 0.000000 0.033261 0.000000 0.000000
# 5 0.000000 0.000000 0.000000 0.000000 0.040464 0.000000
# 6 0.000000 0.000000 0.000000 0.000000 0.000000 0.050789
#
#
# Mechanical properties :
#
#
# Convention : Reuss Voigt Hill
#
# Bulk Modulus (GPa) = 19.37984 21.70651 20.54317
# Shear Modulus (GPa) = 24.97675 26.55173 25.76424
#
# Velocity S-wave (km/s) = 3.36039 3.46472 3.41296
# Velocity P-wave (km/s) = 4.88038 5.08128 4.98185
#
# Compressibility (1/GPa) = 0.05160002
#
# Stress axis : x y z
#
# Youngs Moduli (GPa) = 68.60246 39.34732 66.46850
#
# Poissons Ratio (x) = -0.12803 0.13687
# Poissons Ratio (y) = -0.22323 0.19361
# Poissons Ratio (z) = 0.14127 0.11461
#
# Static dielectric constant tensor:
#      x y z
#    x 1.945640 0.000000 0.000000 
#    y 0.000000 1.913800 0.000000 
#    z 0.000000 0.000000 1.896450 
# 
# From -- ./inp_files/22195.got.cif
#   From: 2010.05.17/outbox.cif.g08.bks.cpg/sg54_12_cif.got.tgz:22195.got - 2010.06.03 13:09:01.
