data_PCOD9422765
_publ_section_title
;
Structure prediction by ZEFSAII (Michael W. Deem and Ramdas Pophale) SiO2 
 PCOD9422765
Probable space group: P C C A
;
_chemical_formula_sum "Si O2"
_cell_formula_units_Z 36
_cell_length_a 5.243152
_cell_length_b 19.749569
_cell_length_c 16.086062
_cell_angle_alpha 90.000000
_cell_angle_beta 90.000000
_cell_angle_gamma 90.000000
_cell_volume 1665.711595
_symmetry_space_group_name_H-M "P C C A"
_symmetry_group_IT_number 54
_symmetry_cell_setting 'orthorhombic'
loop_
_space_group_symop_operation_xyz
x,y,z
1/2-x,-y,z
1/2+x,-y,1/2-z
-x,y,1/2-z
-x,-y,-z
1/2+x,y,-z
1/2-x,y,1/2+z
x,-y,1/2+z
loop_
_atom_site_type_symbol
_atom_site_label
_atom_site_fract_x
_atom_site_fract_y
_atom_site_fract_z
Si Si1 0.500000 0.378176 0.250000
Si Si2 0.456860 0.413220 0.945987
Si Si3 0.748813 0.146769 0.808775
Si Si4 0.250000 0.000000 0.691492
Si Si5 0.149185 0.292167 0.160545
Si Si6 0.750000 0.500000 0.820190
O O1 0.423239 0.328220 0.176246
O O2 0.285032 0.434870 0.238156
O O3 0.498216 0.340903 0.900789
O O4 0.532742 0.473292 0.882756
O O5 0.178602 0.416763 0.984647
O O6 0.500000 0.143251 0.750000
O O7 0.704000 0.214529 0.861964
O O8 0.000000 0.155646 0.750000
O O9 0.761571 0.073229 0.852800
O O10 0.500000 0.999688 0.750000
O O11 0.000000 0.292810 0.250000
#
# Coordination Sequence:
#
# PCOD9422765 Si02
#       6
#     4   8   8   4   8   4
#     4  10  22  36  54  88 102 140 186 242 276 332
#     4  11  26  42  58  80 111 147 186 232 287 341
#     4   9  16  28  49  79 111 143 175 220 274 325
#     4   8  14  24  42  74 114 142 168 210 272 328
#     4  10  22  37  61  82 113 144 192 234 283 331
#     4  10  24  36  62  76 114 140 192 230 298 326
#
# _framework density 21.612383999999999
#
# number of rings (size 3 to 8) (size 9 to 14) (size 15 to 20)
#    0.000    2.222    1.111    0.667   12.444    0.000 
#    0.000    0.000    0.000    0.000    0.000    1.556 
#    0.000    0.000    0.000    0.000    0.000    0.000 
#
# Total GULP energy -200420.296172 kJ/mol
# GULP energy per Si atom -5567.230449 kJ/mol
# Density = 2.156319 g / cm^3
# Si number density = 21.612384 Si / 1000 Ang^3
#
#
#
# Elastic Constant Matrix: (Units=GPa)
#
#
# Indices 1 2 3 4 5 6 
#
# 1 115.2925 17.3957 28.2448 0.0000 0.0000 0.0000
# 2 17.3957 227.6908 29.5108 0.0000 0.0000 0.0000
# 3 28.2448 29.5108 39.2784 0.0000 0.0000 0.0000
# 4 0.0000 0.0000 0.0000 19.4512 0.0000 0.0000
# 5 0.0000 0.0000 0.0000 0.0000 30.1315 0.0000
# 6 0.0000 0.0000 0.0000 0.0000 0.0000 15.2435
#
#
#
# Elastic Compliance Matrix: (Units=1/GPa)
#
#
# Indices 1 2 3 4 5 6 
#
# 1 0.010536 0.000196 -0.007724 0.000000 0.000000 0.000000
# 2 0.000196 0.004869 -0.003800 0.000000 0.000000 0.000000
# 3 -0.007724 -0.003800 0.033868 0.000000 0.000000 0.000000
# 4 0.000000 0.000000 0.000000 0.051411 0.000000 0.000000
# 5 0.000000 0.000000 0.000000 0.000000 0.033188 0.000000
# 6 0.000000 0.000000 0.000000 0.000000 0.000000 0.065602
#
#
# Mechanical properties :
#
#
# Convention : Reuss Voigt Hill
#
# Bulk Modulus (GPa) = 37.56682 59.17379 48.37030
# Shear Modulus (GPa) = 21.64487 33.43927 27.54207
#
# Velocity S-wave (km/s) = 3.16809 3.93775 3.57370
# Velocity P-wave (km/s) = 5.54997 6.93639 6.28155
#
# Compressibility (1/GPa) = 0.02661923
#
# Stress axis : x y z
#
# Youngs Moduli (GPa) = 94.91067 205.36460 29.52627
#
# Poissons Ratio (x) = -0.04027 0.22806
# Poissons Ratio (y) = -0.01861 0.11219
# Poissons Ratio (z) = 0.73308 0.78028
#
# Static dielectric constant tensor:
#      x y z
#    x 1.908360 0.000000 0.000000 
#    y 0.000000 1.868130 0.000000 
#    z 0.000000 0.000000 1.800640 
# 
# From -- ./inp_files/10819.got.cif
#   From: 2010.05.17/outbox.cif.g08.bks.cpg/sg54_6_cif.got.tgz:10819.got - 2010.06.03 13:09:01.
