data_PCOD9422666
_publ_section_title
;
Structure prediction by ZEFSAII (Michael W. Deem and Ramdas Pophale) SiO2 
 PCOD9422666
Probable space group: P C C A
;
_chemical_formula_sum "Si O2"
_cell_formula_units_Z 48
_cell_length_a 25.281684
_cell_length_b 9.254256
_cell_length_c 9.083540
_cell_angle_alpha 90.000000
_cell_angle_beta 90.000000
_cell_angle_gamma 90.000000
_cell_volume 2125.213866
_symmetry_space_group_name_H-M "P C C A"
_symmetry_group_IT_number 54
_symmetry_cell_setting 'orthorhombic'
loop_
_space_group_symop_operation_xyz
x,y,z
1/2-x,-y,z
1/2+x,-y,1/2-z
-x,y,1/2-z
-x,-y,-z
1/2+x,y,-z
1/2-x,y,1/2+z
x,-y,1/2+z
loop_
_atom_site_type_symbol
_atom_site_label
_atom_site_fract_x
_atom_site_fract_y
_atom_site_fract_z
Si Si1 0.095790 0.367771 0.464408
Si Si2 0.051295 0.077375 0.559632
Si Si3 0.813084 0.209687 0.218488
Si Si4 0.725562 0.355156 0.015365
Si Si5 0.380832 0.949116 0.824954
Si Si6 0.870907 0.390138 0.708342
O O1 0.053087 0.247958 0.517202
O O2 0.134712 0.286534 0.350045
O O3 0.124216 0.410041 0.617564
O O4 0.084688 0.516048 0.377208
O O5 0.065841 0.039140 0.726299
O O6 0.102844 0.010112 0.481452
O O7 0.000000 0.000000 0.500000
O O8 0.766170 0.253605 0.106138
O O9 0.800197 0.266966 0.381292
O O10 0.830190 0.041593 0.224629
O O11 0.750000 0.500000 0.946452
O O12 0.684917 0.424091 0.133630
O O13 0.372674 0.779692 0.822340
#
# Coordination Sequence:
#
# PCOD9422666 Si02
#       6
#     8   8   8   8   8   8
#     4  10  22  39  64  95 129 171 221 277 338 409
#     4  10  21  42  70  99 125 167 220 274 350 425
#     4  11  23  40  61  93 130 178 231 275 338 387
#     4  12  23  36  64  93 133 183 235 282 318 397
#     4  10  23  42  66  95 133 175 213 282 345 403
#     4  11  22  40  63  92 132 173 223 272 335 389
#
# _framework density 22.585963
#
# number of rings (size 3 to 8) (size 9 to 14) (size 15 to 20)
#    0.000    1.333    1.667    4.000    0.000    2.000 
#    0.000    2.500    0.000    6.000    0.000    0.000 
#    0.000    0.000    0.000    0.000    0.000    0.000 
#
# Total GULP energy -267872.868768 kJ/mol
# GULP energy per Si atom -5580.684766 kJ/mol
# Density = 2.253456 g / cm^3
# Si number density = 22.585963 Si / 1000 Ang^3
#
#
#
# Elastic Constant Matrix: (Units=GPa)
#
#
# Indices 1 2 3 4 5 6 
#
# 1 51.1072 21.1534 22.8497 0.0000 0.0000 0.0000
# 2 21.1534 134.9271 44.4376 0.0000 0.0000 0.0000
# 3 22.8497 44.4376 110.7391 0.0000 0.0000 0.0000
# 4 0.0000 0.0000 0.0000 23.8174 0.0000 0.0000
# 5 0.0000 0.0000 0.0000 0.0000 26.4252 0.0000
# 6 0.0000 0.0000 0.0000 0.0000 0.0000 25.6708
#
#
#
# Elastic Compliance Matrix: (Units=1/GPa)
#
#
# Indices 1 2 3 4 5 6 
#
# 1 0.022141 -0.002266 -0.003659 0.000000 0.000000 0.000000
# 2 -0.002266 0.008772 -0.003052 0.000000 0.000000 0.000000
# 3 -0.003659 -0.003052 0.011010 0.000000 0.000000 0.000000
# 4 0.000000 0.000000 0.000000 0.041986 0.000000 0.000000
# 5 0.000000 0.000000 0.000000 0.000000 0.037843 0.000000
# 6 0.000000 0.000000 0.000000 0.000000 0.000000 0.038955
#
#
# Mechanical properties :
#
#
# Convention : Reuss Voigt Hill
#
# Bulk Modulus (GPa) = 41.72318 52.62830 47.17574
# Shear Modulus (GPa) = 26.78802 29.07154 27.92978
#
# Velocity S-wave (km/s) = 3.44764 3.59158 3.52035
# Velocity P-wave (km/s) = 5.86186 6.36798 6.12016
#
# Compressibility (1/GPa) = 0.02396749
#
# Stress axis : x y z
#
# Youngs Moduli (GPa) = 45.16596 113.99929 90.82526
#
# Poissons Ratio (x) = 0.25832 0.33234
# Poissons Ratio (y) = 0.10235 0.27724
# Poissons Ratio (z) = 0.16527 0.34798
#
# Static dielectric constant tensor:
#      x y z
#    x 1.894450 0.000000 0.000000 
#    y 0.000000 1.918330 0.000000 
#    z 0.000000 0.000000 1.820760 
# 
# From -- ./inp_files/5848.got.cif
#   From: 2010.05.17/outbox.cif.g08.bks.cpg/sg54_3_cif.got.tgz:5848.got - 2010.06.03 13:09:01.
