data_PCOD9422972
_publ_section_title
;
Structure prediction by ZEFSAII (Michael W. Deem and Ramdas Pophale) SiO2 
 PCOD9422972
Probable space group: P C C A
;
_chemical_formula_sum "Si O2"
_cell_formula_units_Z 36
_cell_length_a 25.310093
_cell_length_b 5.666187
_cell_length_c 10.768760
_cell_angle_alpha 90.000000
_cell_angle_beta 90.000000
_cell_angle_gamma 90.000000
_cell_volume 1544.366393
_symmetry_space_group_name_H-M "P C C A"
_symmetry_group_IT_number 54
_symmetry_cell_setting 'orthorhombic'
loop_
_space_group_symop_operation_xyz
x,y,z
1/2-x,-y,z
1/2+x,-y,1/2-z
-x,y,1/2-z
-x,-y,-z
1/2+x,y,-z
1/2-x,y,1/2+z
x,-y,1/2+z
loop_
_atom_site_type_symbol
_atom_site_label
_atom_site_fract_x
_atom_site_fract_y
_atom_site_fract_z
Si Si1 0.963929 0.230702 0.629170
Si Si2 0.306932 0.875513 0.868041
Si Si3 0.838109 0.824966 0.400358
Si Si4 0.062227 0.723628 0.952058
Si Si5 0.750000 0.500000 0.502976
O O1 0.933312 0.482206 0.627368
O O2 0.000000 0.217863 0.750000
O O3 0.004129 0.257711 0.512978
O O4 0.934445 0.979343 0.615230
O O5 0.338274 0.904850 0.741272
O O6 0.293034 0.609932 0.904234
O O7 0.250000 0.000000 0.850020
O O8 0.330604 0.975916 0.995308
O O9 0.892809 0.705925 0.441971
O O10 0.784702 0.671676 0.417957
#
# Coordination Sequence:
#
# PCOD9422972 Si02
#       5
#     8   8   8   8   4
#     4  10  22  45  65  94 133 172 218 283 338 403
#     4  10  22  42  61  93 132 173 220 274 334 396
#     4  11  24  40  66  97 130 177 222 280 333 409
#     4  10  24  40  66 100 126 173 225 272 342 400
#     4  10  22  40  64  94 132 172 224 276 334 398
#
# _framework density 23.31053
#
# number of rings (size 3 to 8) (size 9 to 14) (size 15 to 20)
#    0.000    1.778    0.000    3.333    6.222    1.778 
#    0.000    0.000    0.000    0.000    0.000    0.000 
#    0.000    0.000    0.000    0.000    0.000    0.000 
#
# Total GULP energy -200877.798200 kJ/mol
# GULP energy per Si atom -5579.938839 kJ/mol
# Density = 2.325747 g / cm^3
# Si number density = 23.310530 Si / 1000 Ang^3
#
#
#
# Elastic Constant Matrix: (Units=GPa)
#
#
# Indices 1 2 3 4 5 6 
#
# 1 67.5333 20.7976 19.4652 0.0000 0.0000 0.0000
# 2 20.7976 129.9624 56.9157 0.0000 0.0000 0.0000
# 3 19.4652 56.9157 134.6395 0.0000 0.0000 0.0000
# 4 0.0000 0.0000 0.0000 196.4773 0.0000 0.0000
# 5 0.0000 0.0000 0.0000 0.0000 29.3333 0.0000
# 6 0.0000 0.0000 0.0000 0.0000 0.0000 9.9185
#
#
#
# Elastic Compliance Matrix: (Units=1/GPa)
#
#
# Indices 1 2 3 4 5 6 
#
# 1 0.015816 -0.001877 -0.001493 0.000000 0.000000 0.000000
# 2 -0.001877 0.009665 -0.003814 0.000000 0.000000 0.000000
# 3 -0.001493 -0.003814 0.009256 0.000000 0.000000 0.000000
# 4 0.000000 0.000000 0.000000 0.005090 0.000000 0.000000
# 5 0.000000 0.000000 0.000000 0.000000 0.034091 0.000000
# 6 0.000000 0.000000 0.000000 0.000000 0.000000 0.100822
#
#
# Mechanical properties :
#
#
# Convention : Reuss Voigt Hill
#
# Bulk Modulus (GPa) = 49.09739 58.49912 53.79825
# Shear Modulus (GPa) = 25.52354 62.80960 44.16657
#
# Velocity S-wave (km/s) = 3.31257 5.19646 4.35754
# Velocity P-wave (km/s) = 5.97820 7.82013 6.96036
#
# Compressibility (1/GPa) = 0.02036768
#
# Stress axis : x y z
#
# Youngs Moduli (GPa) = 63.22741 103.46156 108.04314
#
# Poissons Ratio (x) = 0.19421 0.16131
# Poissons Ratio (y) = 0.11869 0.41213
# Poissons Ratio (z) = 0.09440 0.39465
#
# Static dielectric constant tensor:
#      x y z
#    x 1.943750 0.000000 0.000000 
#    y 0.000000 1.981460 0.000000 
#    z 0.000000 0.000000 1.827420 
# 
# From -- ./inp_files/9744.got.cif
#   From: 2010.05.17/outbox.cif.g08.bks.cpg/sg54_5_cif.got.tgz:9744.got - 2010.06.03 13:09:01.
