data_PCOD9422399
_publ_section_title
;
Structure prediction by ZEFSAII (Michael W. Deem and Ramdas Pophale) SiO2 
 PCOD9422399
Probable space group: P C C A
;
_chemical_formula_sum "Si O2"
_cell_formula_units_Z 36
_cell_length_a 5.125068
_cell_length_b 23.424652
_cell_length_c 14.730170
_cell_angle_alpha 90.000000
_cell_angle_beta 90.000000
_cell_angle_gamma 90.000000
_cell_volume 1768.400132
_symmetry_space_group_name_H-M "P C C A"
_symmetry_group_IT_number 54
_symmetry_cell_setting 'orthorhombic'
loop_
_space_group_symop_operation_xyz
x,y,z
1/2-x,-y,z
1/2+x,-y,1/2-z
-x,y,1/2-z
-x,-y,-z
1/2+x,y,-z
1/2-x,y,1/2+z
x,-y,1/2+z
loop_
_atom_site_type_symbol
_atom_site_label
_atom_site_fract_x
_atom_site_fract_y
_atom_site_fract_z
Si Si1 0.500000 0.039212 0.750000
Si Si2 0.939453 0.239496 0.444082
Si Si3 0.830795 0.559225 0.439173
Si Si4 0.088265 0.103186 0.060453
Si Si5 0.756281 0.665571 0.809645
O O1 0.556085 0.075253 0.841128
O O2 0.250000 0.000000 0.767853
O O3 0.733384 0.252799 0.524751
O O4 0.917984 0.171898 0.426991
O O5 0.848128 0.277263 0.360486
O O6 0.750000 0.500000 0.389673
O O7 0.622893 0.559415 0.521883
O O8 0.797418 0.615649 0.381079
O O9 0.354281 0.087720 0.008403
O O10 0.500000 0.675607 0.750000
O O11 0.000000 0.646116 0.750000
#
# Coordination Sequence:
#
# PCOD9422399 Si02
#       5
#     4   8   8   8   8
#     4  12  26  42  66 100 130 170 212 260 318 376
#     4  10  21  41  63  85 118 161 204 247 299 363
#     4  10  21  39  61  81 112 161 206 245 297 366
#     4  10  23  43  66  94 127 169 212 260 315 370
#     4  12  24  36  57  92 122 154 194 253 313 359
#
# _framework density 20.357382999999999
#
# number of rings (size 3 to 8) (size 9 to 14) (size 15 to 20)
#    0.000    1.333    0.000    5.333    1.556    3.556 
#    2.000    0.000    0.000    0.000    0.000    0.000 
#    0.000    0.000    0.000    0.000    0.000    0.000 
#
# Total GULP energy -201301.757694 kJ/mol
# GULP energy per Si atom -5591.715491 kJ/mol
# Density = 2.031105 g / cm^3
# Si number density = 20.357383 Si / 1000 Ang^3
#
#
#
# Elastic Constant Matrix: (Units=GPa)
#
#
# Indices 1 2 3 4 5 6 
#
# 1 109.0966 36.3783 28.1920 0.0000 0.0000 0.0000
# 2 36.3783 69.8721 62.6956 0.0000 0.0000 0.0000
# 3 28.1920 62.6956 97.4802 0.0000 0.0000 0.0000
# 4 0.0000 0.0000 0.0000 -375.8843 0.0000 0.0000
# 5 0.0000 0.0000 0.0000 0.0000 -50.5888 0.0000
# 6 0.0000 0.0000 0.0000 0.0000 0.0000 26.3299
#
#
#
# Elastic Compliance Matrix: (Units=1/GPa)
#
#
# Indices 1 2 3 4 5 6 
#
# 1 0.011151 -0.006886 0.001204 0.000000 0.000000 0.000000
# 2 -0.006886 0.038094 -0.022509 0.000000 0.000000 0.000000
# 3 0.001204 -0.022509 0.024388 0.000000 0.000000 0.000000
# 4 0.000000 0.000000 0.000000 -0.002660 0.000000 0.000000
# 5 0.000000 0.000000 0.000000 0.000000 -0.019767 0.000000
# 6 0.000000 0.000000 0.000000 0.000000 0.000000 0.037980
#
#
# Mechanical properties :
#
#
# Convention : Reuss Voigt Hill
#
# Bulk Modulus (GPa) = 57.97086 58.99784 58.48435
# Shear Modulus (GPa) = 33.04288 -70.08311 -18.52011
#
# Velocity S-wave (km/s) = 4.03319 -5.87377 -3.01948
# Velocity P-wave (km/s) = 7.08712 4.11795 4.07859
#
# Compressibility (1/GPa) = 0.01725005
#
# Stress axis : x y z
#
# Youngs Moduli (GPa) = 89.67624 26.25056 41.00446
#
# Poissons Ratio (x) = 0.18076 -0.04936
# Poissons Ratio (y) = 0.61750 0.92299
# Poissons Ratio (z) = -0.10794 0.59089
#
# Static dielectric constant tensor:
#      x y z
#    x 1.692100 0.000000 0.000000 
#    y 0.000000 1.724580 0.000000 
#    z 0.000000 0.000000 1.686620 
# 
# From -- ./inp_files/6361.got.cif
#   From: 2010.05.17/outbox.cif.g08.bks.cpg/sg54_4_cif.got.tgz:6361.got - 2010.06.03 13:09:01.
