data_PCOD9422357
_publ_section_title
;
Structure prediction by ZEFSAII (Michael W. Deem and Ramdas Pophale) SiO2 
 PCOD9422357
Probable space group: P C C A
;
_chemical_formula_sum "Si O2"
_cell_formula_units_Z 64
_cell_length_a 10.073393
_cell_length_b 13.360935
_cell_length_c 21.439406
_cell_angle_alpha 90.000000
_cell_angle_beta 90.000000
_cell_angle_gamma 90.000000
_cell_volume 2885.528562
_symmetry_space_group_name_H-M "P C C A"
_symmetry_group_IT_number 54
_symmetry_cell_setting 'orthorhombic'
loop_
_space_group_symop_operation_xyz
x,y,z
1/2-x,-y,z
1/2+x,-y,1/2-z
-x,y,1/2-z
-x,-y,-z
1/2+x,y,-z
1/2-x,y,1/2+z
x,-y,1/2+z
loop_
_atom_site_type_symbol
_atom_site_label
_atom_site_fract_x
_atom_site_fract_y
_atom_site_fract_z
Si Si1 0.264717 0.788988 0.881502
Si Si2 0.954037 0.900743 0.037594
Si Si3 0.952501 0.710604 0.540836
Si Si4 0.660607 0.099382 0.244147
Si Si5 0.148281 0.591804 0.326534
Si Si6 0.740701 0.310889 0.939359
Si Si7 0.804913 0.111671 0.881343
Si Si8 0.652187 0.591807 0.814852
O O1 0.310221 0.867593 0.935452
O O2 0.115943 0.752947 0.896664
O O3 0.295610 0.839707 0.816135
O O4 0.340805 0.682175 0.876117
O O5 0.041955 0.897869 0.100142
O O6 0.003144 0.806649 0.998490
O O7 0.000000 0.000000 0.000000
O O8 0.835587 0.663766 0.497919
O O9 0.089488 0.652186 0.552480
O O10 0.500000 0.083976 0.250000
O O11 0.704183 0.145972 0.310245
O O12 0.750000 0.000000 0.240425
O O13 0.250000 0.500000 0.337058
O O14 0.165353 0.635084 0.255579
O O15 0.997665 0.555277 0.325401
O O16 0.737019 0.190433 0.927487
O O17 0.807467 0.346251 0.875446
O O18 0.750000 0.000000 0.888553
O O19 0.750000 0.500000 0.813637
#
# Coordination Sequence:
#
# PCOD9422357 Si02
#       8
#     8   8   8   8   8   8   8   8
#     4  12  25  42  70 101 136 186 233 293 358 424
#     4  11  23  39  64  95 135 181 236 279 340 413
#     4  11  25  41  64  98 136 181 236 283 337 420
#     4  11  25  42  66  96 141 184 238 285 354 429
#     4  10  23  45  75 106 136 176 233 290 365 434
#     4  11  23  44  66  96 138 178 233 287 347 420
#     4  10  21  38  63  90 129 180 226 279 340 409
#     4  10  23  43  74 104 136 176 225 292 363 425
#
# _framework density 22.179645000000001
#
# number of rings (size 3 to 8) (size 9 to 14) (size 15 to 20)
#    0.000    1.250    2.500    3.000    7.000    2.000 
#    0.000    2.500    0.000    0.000    0.000    0.000 
#    0.000    0.000    0.000    0.000    0.000    0.000 
#
# Total GULP energy -356920.649187 kJ/mol
# GULP energy per Si atom -5576.885144 kJ/mol
# Density = 2.212916 g / cm^3
# Si number density = 22.179645 Si / 1000 Ang^3
#
#
#
# Elastic Constant Matrix: (Units=GPa)
#
#
# Indices 1 2 3 4 5 6 
#
# 1 145.5104 18.2999 45.2136 0.0000 0.0000 0.0000
# 2 18.2999 37.8269 29.7106 0.0000 0.0000 0.0000
# 3 45.2136 29.7106 110.6907 0.0000 0.0000 0.0000
# 4 0.0000 0.0000 0.0000 17.9855 0.0000 0.0000
# 5 0.0000 0.0000 0.0000 0.0000 34.9214 0.0000
# 6 0.0000 0.0000 0.0000 0.0000 0.0000 11.3120
#
#
#
# Elastic Compliance Matrix: (Units=1/GPa)
#
#
# Indices 1 2 3 4 5 6 
#
# 1 0.007951 -0.001642 -0.002807 0.000000 0.000000 0.000000
# 2 -0.001642 0.033837 -0.008412 0.000000 0.000000 0.000000
# 3 -0.002807 -0.008412 0.012439 0.000000 0.000000 0.000000
# 4 0.000000 0.000000 0.000000 0.055600 0.000000 0.000000
# 5 0.000000 0.000000 0.000000 0.000000 0.028636 0.000000
# 6 0.000000 0.000000 0.000000 0.000000 0.000000 0.088402
#
#
# Mechanical properties :
#
#
# Convention : Reuss Voigt Hill
#
# Bulk Modulus (GPa) = 35.08055 53.38625 44.23340
# Shear Modulus (GPa) = 19.07755 26.23069 22.65412
#
# Velocity S-wave (km/s) = 2.93599 3.44269 3.19939
# Velocity P-wave (km/s) = 5.22918 6.31863 5.79954
#
# Compressibility (1/GPa) = 0.02850583
#
# Stress axis : x y z
#
# Youngs Moduli (GPa) = 125.76930 29.55319 80.39510
#
# Poissons Ratio (x) = 0.04852 0.22568
# Poissons Ratio (y) = 0.20649 0.67626
# Poissons Ratio (z) = 0.35304 0.24859
#
# Static dielectric constant tensor:
#      x y z
#    x 1.889320 0.000000 0.000000 
#    y 0.000000 1.873170 0.000000 
#    z 0.000000 0.000000 1.900930 
# 
# From -- ./inp_files/23673.got.cif
#   From: 2010.05.17/outbox.cif.g08.bks.cpg/sg54_12_cif.got.tgz:23673.got - 2010.06.03 13:09:01.
