data_PCOD9422703
_publ_section_title
;
Structure prediction by ZEFSAII (Michael W. Deem and Ramdas Pophale) SiO2 
 PCOD9422703
Probable space group: P C C A
;
_chemical_formula_sum "Si O2"
_cell_formula_units_Z 64
_cell_length_a 23.713686
_cell_length_b 13.538005
_cell_length_c 10.047266
_cell_angle_alpha 90.000000
_cell_angle_beta 90.000000
_cell_angle_gamma 90.000000
_cell_volume 3225.534084
_symmetry_space_group_name_H-M "P C C A"
_symmetry_group_IT_number 54
_symmetry_cell_setting 'orthorhombic'
loop_
_space_group_symop_operation_xyz
x,y,z
1/2-x,-y,z
1/2+x,-y,1/2-z
-x,y,1/2-z
-x,-y,-z
1/2+x,y,-z
1/2-x,y,1/2+z
x,-y,1/2+z
loop_
_atom_site_type_symbol
_atom_site_label
_atom_site_fract_x
_atom_site_fract_y
_atom_site_fract_z
Si Si1 0.882679 0.959204 0.696581
Si Si2 0.253307 0.793764 0.423281
Si Si3 0.124277 0.253727 0.002921
Si Si4 0.356071 0.272645 0.801807
Si Si5 0.940830 0.047707 0.455942
Si Si6 0.960480 0.387161 0.632223
Si Si7 0.214115 0.088147 0.672854
Si Si8 0.462379 0.616849 0.371618
O O1 0.863152 0.846148 0.699064
O O2 0.896034 0.988189 0.546477
O O3 0.840702 0.037335 0.765202
O O4 0.934882 0.964311 0.798174
O O5 0.188310 0.773273 0.462434
O O6 0.293588 0.709679 0.359356
O O7 0.285876 0.831683 0.555516
O O8 0.246460 0.870728 0.301858
O O9 0.080561 0.160574 0.015139
O O10 0.095662 0.326338 0.897240
O O11 0.131861 0.302113 0.148988
O O12 0.405522 0.321643 0.886689
O O13 0.000000 0.000000 0.500000
O O14 0.947955 0.502480 0.659161
O O15 0.000000 0.348052 0.750000
O O16 0.998465 0.381217 0.500176
O O17 0.250000 0.000000 0.608949
O O18 0.500000 0.657236 0.250000
#
# Coordination Sequence:
#
# PCOD9422703 Si02
#       8
#     8   8   8   8   8   8   8   8
#     4  11  23  38  57  86 122 170 214 257 309 377
#     4  12  23  40  62  94 130 174 225 268 322 378
#     4  11  23  43  62  93 136 170 215 279 327 396
#     4  11  23  39  67  93 123 174 217 265 329 388
#     4  11  24  38  56  85 126 169 209 260 318 373
#     4  10  23  42  70 101 125 163 213 272 337 397
#     4  12  22  37  60  85 127 171 224 263 300 371
#     4  10  21  43  73  96 125 164 212 266 331 416
#
# _framework density 19.841676
#
# number of rings (size 3 to 8) (size 9 to 14) (size 15 to 20)
#    0.000    1.000    5.000    2.250    1.750    2.000 
#    0.000    0.625    0.000    1.500    0.000    0.000 
#    0.000    0.000    0.000    0.000    0.000    0.000 
#
# Total GULP energy -356784.414450 kJ/mol
# GULP energy per Si atom -5574.756476 kJ/mol
# Density = 1.979652 g / cm^3
# Si number density = 19.841676 Si / 1000 Ang^3
#
#
#
# Elastic Constant Matrix: (Units=GPa)
#
#
# Indices 1 2 3 4 5 6 
#
# 1 118.6012 35.3915 7.6435 0.0000 0.0000 0.0000
# 2 35.3915 32.3641 3.0104 0.0000 0.0000 0.0000
# 3 7.6435 3.0104 74.8854 0.0000 0.0000 0.0000
# 4 0.0000 0.0000 0.0000 3.6846 0.0000 0.0000
# 5 0.0000 0.0000 0.0000 0.0000 29.8045 0.0000
# 6 0.0000 0.0000 0.0000 0.0000 0.0000 24.0331
#
#
#
# Elastic Compliance Matrix: (Units=1/GPa)
#
#
# Indices 1 2 3 4 5 6 
#
# 1 0.012556 -0.013662 -0.000732 0.000000 0.000000 0.000000
# 2 -0.013662 0.045880 -0.000450 0.000000 0.000000 0.000000
# 3 -0.000732 -0.000450 0.013447 0.000000 0.000000 0.000000
# 4 0.000000 0.000000 0.000000 0.271401 0.000000 0.000000
# 5 0.000000 0.000000 0.000000 0.000000 0.033552 0.000000
# 6 0.000000 0.000000 0.000000 0.000000 0.000000 0.041609
#
#
# Mechanical properties :
#
#
# Convention : Reuss Voigt Hill
#
# Bulk Modulus (GPa) = 23.70011 35.32684 29.51347
# Shear Modulus (GPa) = 10.81787 23.49146 17.15467
#
# Velocity S-wave (km/s) = 2.33751 3.44458 2.94356
# Velocity P-wave (km/s) = 4.38814 5.80200 5.14388
#
# Compressibility (1/GPa) = 0.04219390
#
# Stress axis : x y z
#
# Youngs Moduli (GPa) = 79.64542 21.79590 74.36841
#
# Poissons Ratio (x) = 0.29778 0.05446
# Poissons Ratio (y) = 1.08811 0.03346
# Poissons Ratio (z) = 0.05833 0.00981
#
# Static dielectric constant tensor:
#      x y z
#    x 1.785400 0.000000 0.000000 
#    y 0.000000 1.713670 0.000000 
#    z 0.000000 0.000000 1.711030 
# 
# From -- ./inp_files/5311.got.cif
#   From: 2010.05.17/outbox.cif.g08.bks.cpg/sg54_3_cif.got.tgz:5311.got - 2010.06.03 13:09:01.
