data_PCOD9422558
_publ_section_title
;
Structure prediction by ZEFSAII (Michael W. Deem and Ramdas Pophale) SiO2 
 PCOD9422558
Probable space group: P C C A
;
_chemical_formula_sum "Si O2"
_cell_formula_units_Z 32
_cell_length_a 5.230235
_cell_length_b 19.391053
_cell_length_c 13.830300
_cell_angle_alpha 90.000000
_cell_angle_beta 90.000000
_cell_angle_gamma 90.000000
_cell_volume 1402.665763
_symmetry_space_group_name_H-M "P C C A"
_symmetry_group_IT_number 54
_symmetry_cell_setting 'orthorhombic'
loop_
_space_group_symop_operation_xyz
x,y,z
1/2-x,-y,z
1/2+x,-y,1/2-z
-x,y,1/2-z
-x,-y,-z
1/2+x,y,-z
1/2-x,y,1/2+z
x,-y,1/2+z
loop_
_atom_site_type_symbol
_atom_site_label
_atom_site_fract_x
_atom_site_fract_y
_atom_site_fract_z
Si Si1 0.500000 0.617859 0.250000
Si Si2 0.000000 0.708144 0.250000
Si Si3 0.027666 0.422693 0.459044
Si Si4 0.748348 0.919470 0.683716
Si Si5 0.305727 0.211100 0.439745
O O1 0.751680 0.662111 0.273912
O O2 0.444052 0.574384 0.345198
O O3 0.899189 0.751291 0.158217
O O4 0.770302 0.386977 0.493989
O O5 0.000000 0.500000 0.500000
O O6 0.500000 0.908632 0.750000
O O7 0.719380 0.868856 0.593153
O O8 0.000000 0.904603 0.750000
O O9 0.750000 0.000000 0.655696
O O10 0.523640 0.226666 0.519165
#
# Coordination Sequence:
#
# PCOD9422558 Si02
#       5
#     4   4   8   8   8
#     4  12  26  44  71  99 134 186 222 272 350 410
#     4  12  28  46  67  97 142 182 234 284 336 410
#     4  10  23  42  69 102 137 169 217 274 330 407
#     4  10  21  40  68  98 137 180 228 292 358 419
#     4  12  26  43  70  99 134 184 237 288 349 407
#
# _framework density 22.813700999999998
#
# number of rings (size 3 to 8) (size 9 to 14) (size 15 to 20)
#    0.000    1.000    1.250    4.500    1.750   11.000 
#    0.000    0.000    0.000    0.000    0.000    0.000 
#    0.000    0.000    0.000    0.000    0.000    0.000 
#
# Total GULP energy -178985.813908 kJ/mol
# GULP energy per Si atom -5593.306685 kJ/mol
# Density = 2.276178 g / cm^3
# Si number density = 22.813701 Si / 1000 Ang^3
#
#
#
# Elastic Constant Matrix: (Units=GPa)
#
#
# Indices 1 2 3 4 5 6 
#
# 1 197.0990 28.7251 30.7022 0.0000 0.0000 0.0000
# 2 28.7251 79.0890 40.3318 0.0000 0.0000 0.0000
# 3 30.7022 40.3318 143.4366 0.0000 0.0000 0.0000
# 4 0.0000 0.0000 0.0000 31.9801 0.0000 0.0000
# 5 0.0000 0.0000 0.0000 0.0000 40.3964 0.0000
# 6 0.0000 0.0000 0.0000 0.0000 0.0000 36.2035
#
#
#
# Elastic Compliance Matrix: (Units=1/GPa)
#
#
# Indices 1 2 3 4 5 6 
#
# 1 0.005418 -0.001607 -0.000708 0.000000 0.000000 0.000000
# 2 -0.001607 0.015237 -0.003940 0.000000 0.000000 0.000000
# 3 -0.000708 -0.003940 0.008231 0.000000 0.000000 0.000000
# 4 0.000000 0.000000 0.000000 0.031269 0.000000 0.000000
# 5 0.000000 0.000000 0.000000 0.000000 0.024755 0.000000
# 6 0.000000 0.000000 0.000000 0.000000 0.000000 0.027622
#
#
# Mechanical properties :
#
#
# Convention : Reuss Voigt Hill
#
# Bulk Modulus (GPa) = 61.06518 68.79365 64.92941
# Shear Modulus (GPa) = 38.31387 43.04038 40.67712
#
# Velocity S-wave (km/s) = 4.10252 4.34822 4.22715
# Velocity P-wave (km/s) = 7.01897 7.44509 7.23516
#
# Compressibility (1/GPa) = 0.01637595
#
# Stress axis : x y z
#
# Youngs Moduli (GPa) = 184.56855 65.62953 121.48853
#
# Poissons Ratio (x) = 0.10546 0.08600
# Poissons Ratio (y) = 0.29657 0.47872
# Poissons Ratio (z) = 0.13066 0.25861
#
# Static dielectric constant tensor:
#      x y z
#    x 1.862760 0.000000 0.000000 
#    y 0.000000 1.414980 0.000000 
#    z 0.000000 0.000000 1.820160 
# 
# From -- ./inp_files/6272.got.cif
#   From: 2010.05.17/outbox.cif.g08.bks.cpg/sg54_4_cif.got.tgz:6272.got - 2010.06.03 13:09:01.
