data_PCOD9422860
_publ_section_title
;
Structure prediction by ZEFSAII (Michael W. Deem and Ramdas Pophale) SiO2 
 PCOD9422860
Probable space group: P C C A
;
_chemical_formula_sum "Si O2"
_cell_formula_units_Z 48
_cell_length_a 8.640479
_cell_length_b 17.233957
_cell_length_c 13.934845
_cell_angle_alpha 90.000000
_cell_angle_beta 90.000000
_cell_angle_gamma 90.000000
_cell_volume 2075.032802
_symmetry_space_group_name_H-M "P C C A"
_symmetry_group_IT_number 54
_symmetry_cell_setting 'orthorhombic'
loop_
_space_group_symop_operation_xyz
x,y,z
1/2-x,-y,z
1/2+x,-y,1/2-z
-x,y,1/2-z
-x,-y,-z
1/2+x,y,-z
1/2-x,y,1/2+z
x,-y,1/2+z
loop_
_atom_site_type_symbol
_atom_site_label
_atom_site_fract_x
_atom_site_fract_y
_atom_site_fract_z
Si Si1 0.610771 0.062353 0.407870
Si Si2 0.921205 0.531696 0.654225
Si Si3 0.101786 0.174261 0.422328
Si Si4 0.918443 0.388768 0.946615
Si Si5 0.808072 0.917548 0.218139
Si Si6 0.656620 0.717994 0.466504
O O1 0.561861 0.104496 0.505097
O O2 0.665897 0.121359 0.322777
O O3 0.444671 0.050736 0.352929
O O4 0.750000 0.000000 0.432438
O O5 0.750000 0.500000 0.676771
O O6 0.903530 0.584014 0.558347
O O7 0.000000 0.565554 0.750000
O O8 0.028626 0.460180 0.617881
O O9 0.186665 0.134639 0.335015
O O10 0.226420 0.225823 0.478900
O O11 0.957477 0.229810 0.403598
O O12 0.758535 0.348607 0.916719
O O13 0.051842 0.324399 0.953069
O O14 0.750000 0.000000 0.253844
#
# Coordination Sequence:
#
# PCOD9422860 Si02
#       6
#     8   8   8   8   8   8
#     4  10  22  39  60  87 120 160 214 275 330 368
#     4  11  24  40  71 101 126 166 215 263 315 371
#     4  11  21  39  63  90 120 168 214 254 317 390
#     4  10  22  45  65  92 137 167 205 263 316 365
#     4  10  22  39  60  87 122 160 212 276 324 377
#     4  10  22  39  65  88 125 172 204 248 317 386
#
# _framework density 23.132164
#
# number of rings (size 3 to 8) (size 9 to 14) (size 15 to 20)
#    0.000    1.667    3.333    0.500    4.667    1.333 
#    0.000    6.667    0.000    0.000    0.000    0.000 
#    0.000    0.000    0.000    0.000    0.000    0.000 
#
# Total GULP energy -267424.089791 kJ/mol
# GULP energy per Si atom -5571.335204 kJ/mol
# Density = 2.307951 g / cm^3
# Si number density = 23.132164 Si / 1000 Ang^3
#
#
#
# Elastic Constant Matrix: (Units=GPa)
#
#
# Indices 1 2 3 4 5 6 
#
# 1 118.4862 35.1405 12.9205 0.0000 0.0000 0.0000
# 2 35.1405 62.0756 3.3256 0.0000 0.0000 0.0000
# 3 12.9205 3.3256 74.0289 0.0000 0.0000 0.0000
# 4 0.0000 0.0000 0.0000 11.5628 0.0000 0.0000
# 5 0.0000 0.0000 0.0000 0.0000 15.8950 0.0000
# 6 0.0000 0.0000 0.0000 0.0000 0.0000 56.6567
#
#
#
# Elastic Compliance Matrix: (Units=1/GPa)
#
#
# Indices 1 2 3 4 5 6 
#
# 1 0.010315 -0.005757 -0.001542 0.000000 0.000000 0.000000
# 2 -0.005757 0.019361 0.000135 0.000000 0.000000 0.000000
# 3 -0.001542 0.000135 0.013771 0.000000 0.000000 0.000000
# 4 0.000000 0.000000 0.000000 0.086485 0.000000 0.000000
# 5 0.000000 0.000000 0.000000 0.000000 0.062913 0.000000
# 6 0.000000 0.000000 0.000000 0.000000 0.000000 0.017650
#
#
# Mechanical properties :
#
#
# Convention : Reuss Voigt Hill
#
# Bulk Modulus (GPa) = 34.34012 39.70709 37.02361
# Shear Modulus (GPa) = 21.31931 30.36983 25.84457
#
# Velocity S-wave (km/s) = 3.03913 3.62730 3.34617
# Velocity P-wave (km/s) = 5.21464 5.89455 5.56499
#
# Compressibility (1/GPa) = 0.02912046
#
# Stress axis : x y z
#
# Youngs Moduli (GPa) = 96.94373 51.65017 72.61506
#
# Poissons Ratio (x) = 0.29734 0.11195
# Poissons Ratio (y) = 0.55808 -0.00980
# Poissons Ratio (z) = 0.14946 -0.00697
#
# Static dielectric constant tensor:
#      x y z
#    x 2.048570 0.000000 0.000000 
#    y 0.000000 1.929120 0.000000 
#    z 0.000000 0.000000 1.858170 
# 
# From -- ./inp_files/11722.got.cif
#   From: 2010.05.17/outbox.cif.g08.bks.cpg/sg54_6_cif.got.tgz:11722.got - 2010.06.03 13:09:01.
