data_PCOD9422294
_publ_section_title
;
Structure prediction by ZEFSAII (Michael W. Deem and Ramdas Pophale) SiO2 
 PCOD9422294
Probable space group: P C C A
;
_chemical_formula_sum "Si O2"
_cell_formula_units_Z 64
_cell_length_a 28.069174
_cell_length_b 8.311221
_cell_length_c 12.207798
_cell_angle_alpha 90.000000
_cell_angle_beta 90.000000
_cell_angle_gamma 90.000000
_cell_volume 2847.946311
_symmetry_space_group_name_H-M "P C C A"
_symmetry_group_IT_number 54
_symmetry_cell_setting 'orthorhombic'
loop_
_space_group_symop_operation_xyz
x,y,z
1/2-x,-y,z
1/2+x,-y,1/2-z
-x,y,1/2-z
-x,-y,-z
1/2+x,y,-z
1/2-x,y,1/2+z
x,-y,1/2+z
loop_
_atom_site_type_symbol
_atom_site_label
_atom_site_fract_x
_atom_site_fract_y
_atom_site_fract_z
Si Si1 0.673217 0.753788 0.529098
Si Si2 0.893455 0.927538 0.888980
Si Si3 0.576387 0.615832 0.848098
Si Si4 0.535291 0.849792 0.998419
Si Si5 0.661080 0.830539 0.756710
Si Si6 0.352604 0.600680 0.444295
Si Si7 0.068677 0.705945 0.783784
Si Si8 0.733205 0.685322 0.914916
O O1 0.627314 0.779549 0.454880
O O2 0.669434 0.870677 0.631278
O O3 0.669427 0.574730 0.578628
O O4 0.720288 0.773966 0.458179
O O5 0.928993 0.856506 0.798567
O O6 0.915221 0.058059 0.971532
O O7 0.850729 0.013530 0.826645
O O8 0.533283 0.724119 0.897212
O O9 0.613185 0.720308 0.773459
O O10 0.559633 0.457828 0.783634
O O11 0.608600 0.581733 0.956984
O O12 0.536013 0.754242 0.112784
O O13 0.500000 0.000000 0.000000
O O14 0.707458 0.744773 0.805815
O O15 0.379722 0.674448 0.341069
O O16 0.308593 0.697720 0.494504
O O17 0.750000 0.500000 0.902112
#
# Coordination Sequence:
#
# PCOD9422294 Si02
#       8
#     8   8   8   8   8   8   8   8
#     4  11  20  36  60  87 127 174 228 279 327 396
#     4  11  24  40  65  94 127 178 223 274 350 428
#     4   9  18  38  68  99 124 168 226 266 314 418
#     4  10  24  45  69 102 142 168 211 284 359 422
#     4  10  21  38  57  90 128 172 221 274 342 386
#     4   9  18  35  60  96 125 165 227 276 316 380
#     4  11  20  39  74  97 128 179 224 275 338 402
#     4   9  21  35  55  90 132 172 226 282 330 389
#
# _framework density 22.472332999999999
#
# number of rings (size 3 to 8) (size 9 to 14) (size 15 to 20)
#    0.000    2.000    2.500    1.500    0.000    3.500 
#    0.000    1.875    2.750    0.000    0.000    0.000 
#    0.000    0.000    0.000    0.000    0.000    0.000 
#
# Total GULP energy -357239.264018 kJ/mol
# GULP energy per Si atom -5581.863500 kJ/mol
# Density = 2.242118 g / cm^3
# Si number density = 22.472333 Si / 1000 Ang^3
#
#
#
# Elastic Constant Matrix: (Units=GPa)
#
#
# Indices 1 2 3 4 5 6 
#
# 1 36.4582 18.1609 26.1497 0.0000 0.0000 0.0000
# 2 18.1609 90.1506 34.9164 0.0000 0.0000 0.0000
# 3 26.1497 34.9164 92.2844 0.0000 0.0000 0.0000
# 4 0.0000 0.0000 0.0000 35.6195 0.0000 0.0000
# 5 0.0000 0.0000 0.0000 0.0000 8.0285 0.0000
# 6 0.0000 0.0000 0.0000 0.0000 0.0000 32.4316
#
#
#
# Elastic Compliance Matrix: (Units=1/GPa)
#
#
# Indices 1 2 3 4 5 6 
#
# 1 0.035511 -0.003816 -0.008619 0.000000 0.000000 0.000000
# 2 -0.003816 0.013407 -0.003992 0.000000 0.000000 0.000000
# 3 -0.008619 -0.003992 0.014788 0.000000 0.000000 0.000000
# 4 0.000000 0.000000 0.000000 0.028074 0.000000 0.000000
# 5 0.000000 0.000000 0.000000 0.000000 0.124556 0.000000
# 6 0.000000 0.000000 0.000000 0.000000 0.000000 0.030834
#
#
# Mechanical properties :
#
#
# Convention : Reuss Voigt Hill
#
# Bulk Modulus (GPa) = 32.40961 41.92749 37.16855
# Shear Modulus (GPa) = 17.22309 24.52700 20.87504
#
# Velocity S-wave (km/s) = 2.77142 3.30727 3.05113
# Velocity P-wave (km/s) = 4.96934 5.76905 5.38406
#
# Compressibility (1/GPa) = 0.03085504
#
# Stress axis : x y z
#
# Youngs Moduli (GPa) = 28.16015 74.58698 67.62012
#
# Poissons Ratio (x) = 0.28459 0.58280
# Poissons Ratio (y) = 0.10745 0.26991
# Poissons Ratio (z) = 0.24271 0.29771
#
# Static dielectric constant tensor:
#      x y z
#    x 1.861260 0.000000 0.000000 
#    y 0.000000 1.858130 0.000000 
#    z 0.000000 0.000000 1.825590 
# 
# From -- ./inp_files/10569.got.cif
#   From: 2010.05.17/outbox.cif.g08.bks.cpg/sg54_6_cif.got.tgz:10569.got - 2010.06.03 13:09:01.
