data_PCOD9422151
_publ_section_title
;
Structure prediction by ZEFSAII (Michael W. Deem and Ramdas Pophale) SiO2 
 PCOD9422151
Probable space group: P C C A
;
_chemical_formula_sum "Si O2"
_cell_formula_units_Z 48
_cell_length_a 14.387041
_cell_length_b 30.155838
_cell_length_c 5.214341
_cell_angle_alpha 90.000000
_cell_angle_beta 90.000000
_cell_angle_gamma 90.000000
_cell_volume 2262.258934
_symmetry_space_group_name_H-M "P C C A"
_symmetry_group_IT_number 54
_symmetry_cell_setting 'orthorhombic'
loop_
_space_group_symop_operation_xyz
x,y,z
1/2-x,-y,z
1/2+x,-y,1/2-z
-x,y,1/2-z
-x,-y,-z
1/2+x,y,-z
1/2-x,y,1/2+z
x,-y,1/2+z
loop_
_atom_site_type_symbol
_atom_site_label
_atom_site_fract_x
_atom_site_fract_y
_atom_site_fract_z
Si Si1 0.190857 0.291691 0.400864
Si Si2 0.354867 0.018490 0.108293
Si Si3 0.065485 0.109362 0.500117
Si Si4 0.311515 0.388245 0.981603
Si Si5 0.935811 0.792409 0.500433
Si Si6 0.609599 0.478442 0.707954
O O1 0.275388 0.290868 0.606626
O O2 0.143533 0.339640 0.445824
O O3 0.131627 0.248977 0.471721
O O4 0.362581 0.068988 0.018931
O O5 0.250000 0.000000 0.144127
O O6 0.399125 0.011367 0.385979
O O7 0.109782 0.158548 0.503189
O O8 0.000000 0.107076 0.750000
O O9 0.000000 0.104816 0.250000
O O10 0.228867 0.390213 0.768864
O O11 0.373915 0.429984 0.907846
O O12 0.000000 0.788125 0.250000
O O13 0.000000 0.792244 0.750000
O O14 0.500000 0.485357 0.750000
O O15 0.647915 0.512423 0.492897
#
# Coordination Sequence:
#
# PCOD9422151 Si02
#       6
#     8   8   8   8   8   8
#     4  10  21  39  58  87 118 150 190 238 295 343
#     4  10  21  37  53  79 114 143 182 229 267 324
#     4  10  21  37  58  83 111 146 185 228 277 328
#     4  10  21  36  56  80 112 146 187 234 275 337
#     4  10  21  39  61  87 117 148 191 238 285 347
#     4  10  21  36  53  78 112 146 187 234 280 332
#
# _framework density 21.217732000000002
#
# number of rings (size 3 to 8) (size 9 to 14) (size 15 to 20)
#    0.000    2.000    0.000    3.000    0.000    4.667 
#    6.000    2.500    0.000    0.000    0.000    0.000 
#    0.000    0.000    0.000    0.000    0.000    0.000 
#
# Total GULP energy -267870.677907 kJ/mol
# GULP energy per Si atom -5580.639123 kJ/mol
# Density = 2.116944 g / cm^3
# Si number density = 21.217732 Si / 1000 Ang^3
#
#
#
# Elastic Constant Matrix: (Units=GPa)
#
#
# Indices 1 2 3 4 5 6 
#
# 1 24.0299 16.4230 5.3791 0.0000 0.0000 0.0000
# 2 16.4230 165.2206 20.5873 0.0000 0.0000 0.0000
# 3 5.3791 20.5873 124.9945 0.0000 0.0000 0.0000
# 4 0.0000 0.0000 0.0000 31.5117 0.0000 0.0000
# 5 0.0000 0.0000 0.0000 0.0000 15.8570 0.0000
# 6 0.0000 0.0000 0.0000 0.0000 0.0000**********
#
#
#
# Elastic Compliance Matrix: (Units=1/GPa)
#
#
# Indices 1 2 3 4 5 6 
#
# 1 0.044829 -0.004304 -0.001220 0.000000 0.000000 0.000000
# 2 -0.004304 0.006593 -0.000901 0.000000 0.000000 0.000000
# 3 -0.001220 -0.000901 0.008201 0.000000 0.000000 0.000000
# 4 0.000000 0.000000 0.000000 0.031734 0.000000 0.000000
# 5 0.000000 0.000000 0.000000 0.000000 0.063064 0.000000
# 6 0.000000 0.000000 0.000000 0.000000 0.000000 -0.000080
#
#
# Mechanical properties :
#
#
# Convention : Reuss Voigt Hill
#
# Bulk Modulus (GPa) = 21.37971 44.33599 32.85785
# Shear Modulus (GPa) = 27.35490 -2485.25802 -1228.95156
#
# Velocity S-wave (km/s) = 3.59450 -34.26156 -24.09288
# Velocity P-wave (km/s) = 5.22738 39.29629 27.53973
#
# Compressibility (1/GPa) = 0.04677332
#
# Stress axis : x y z
#
# Youngs Moduli (GPa) = 22.30676 151.68621 121.93328
#
# Poissons Ratio (x) = 0.65286 0.14880
# Poissons Ratio (y) = 0.09601 0.10981
# Poissons Ratio (z) = 0.02722 0.13661
#
# Static dielectric constant tensor:
#      x y z
#    x 1.642420 0.000000 0.000000 
#    y 0.000000 1.800770 0.000000 
#    z 0.000000 0.000000 1.801830 
# 
# From -- ./inp_files/633.got.cif
#   From: 2010.05.17/outbox.cif.g08.bks.cpg/sg54_1_cif.got.tgz:633.got - 2010.06.03 13:09:01.
