data_PCOD9422073
_publ_section_title
;
Structure prediction by ZEFSAII (Michael W. Deem and Ramdas Pophale) SiO2 
 PCOD9422073
Probable space group: P C C A
;
_chemical_formula_sum "Si O2"
_cell_formula_units_Z 32
_cell_length_a 17.232838
_cell_length_b 7.297792
_cell_length_c 9.893679
_cell_angle_alpha 90.000000
_cell_angle_beta 90.000000
_cell_angle_gamma 90.000000
_cell_volume 1244.245567
_symmetry_space_group_name_H-M "P C C A"
_symmetry_group_IT_number 54
_symmetry_cell_setting 'orthorhombic'
loop_
_space_group_symop_operation_xyz
x,y,z
1/2-x,-y,z
1/2+x,-y,1/2-z
-x,y,1/2-z
-x,-y,-z
1/2+x,y,-z
1/2-x,y,1/2+z
x,-y,1/2+z
loop_
_atom_site_type_symbol
_atom_site_label
_atom_site_fract_x
_atom_site_fract_y
_atom_site_fract_z
Si Si1 0.142391 0.462099 0.665130
Si Si2 0.052824 0.358655 0.418595
Si Si3 0.826350 0.108015 0.703873
Si Si4 0.898718 0.842579 0.924786
O O1 0.117756 0.338004 0.534105
O O2 0.084598 0.540833 0.784654
O O3 0.192353 0.315498 0.748629
O O4 0.154981 0.659135 0.596367
O O5 0.010053 0.801564 0.600991
O O6 0.000000 0.500000 0.500000
O O7 0.885447 0.111660 0.580034
O O8 0.750000 0.000000 0.660740
O O9 0.865935 0.990708 0.822146
#
# Coordination Sequence:
#
# PCOD9422073 Si02
#       4
#     8   8   8   8
#     4  11  23  48  76 112 151 197 249 316 383 456
#     4  10  20  43  74 113 147 187 247 306 392 435
#     4  12  28  49  73 108 154 203 260 304 371 460
#     4  11  26  47  75 113 150 202 249 316 382 452
#
# _framework density 25.718395999999998
#
# number of rings (size 3 to 8) (size 9 to 14) (size 15 to 20)
#    0.000    1.000    5.000    3.750    3.500    2.000 
#    4.500    2.500    0.000    0.000    0.000    0.000 
#    0.000    0.000    0.000    0.000    0.000    0.000 
#
# Total GULP energy -178439.837856 kJ/mol
# GULP energy per Si atom -5576.244933 kJ/mol
# Density = 2.565986 g / cm^3
# Si number density = 25.718396 Si / 1000 Ang^3
#
#
#
# Elastic Constant Matrix: (Units=GPa)
#
#
# Indices 1 2 3 4 5 6 
#
# 1 51.0537 36.4744 15.9298 0.0000 0.0000 0.0000
# 2 36.4744 159.2768 31.8823 0.0000 0.0000 0.0000
# 3 15.9298 31.8823 129.4691 0.0000 0.0000 0.0000
# 4 0.0000 0.0000 0.0000 37.0565 0.0000 0.0000
# 5 0.0000 0.0000 0.0000 0.0000 20.3052 0.0000
# 6 0.0000 0.0000 0.0000 0.0000 0.0000 50.4044
#
#
#
# Elastic Compliance Matrix: (Units=1/GPa)
#
#
# Indices 1 2 3 4 5 6 
#
# 1 0.023755 -0.005107 -0.001665 0.000000 0.000000 0.000000
# 2 -0.005107 0.007702 -0.001268 0.000000 0.000000 0.000000
# 3 -0.001665 -0.001268 0.008241 0.000000 0.000000 0.000000
# 4 0.000000 0.000000 0.000000 0.026986 0.000000 0.000000
# 5 0.000000 0.000000 0.000000 0.000000 0.049249 0.000000
# 6 0.000000 0.000000 0.000000 0.000000 0.000000 0.019840
#
#
# Mechanical properties :
#
#
# Convention : Reuss Voigt Hill
#
# Bulk Modulus (GPa) = 42.34134 56.48582 49.41358
# Shear Modulus (GPa) = 31.30389 38.58742 34.94565
#
# Velocity S-wave (km/s) = 3.49259 3.87768 3.69016
# Velocity P-wave (km/s) = 5.72394 6.48532 6.11649
#
# Compressibility (1/GPa) = 0.02361758
#
# Stress axis : x y z
#
# Youngs Moduli (GPa) = 42.09617 129.84229 121.34359
#
# Poissons Ratio (x) = 0.66305 0.20207
# Poissons Ratio (y) = 0.21497 0.15389
# Poissons Ratio (z) = 0.07010 0.16467
#
# Static dielectric constant tensor:
#      x y z
#    x 2.627840 0.000000 0.000000 
#    y 0.000000 2.116790 0.000000 
#    z 0.000000 0.000000 2.188880 
# 
# From -- ./inp_files/9673.got.cif
#   From: 2010.05.17/outbox.cif.g08.bks.cpg/sg54_5_cif.got.tgz:9673.got - 2010.06.03 13:09:01.
