data_PCOD9422777
_publ_section_title
;
Structure prediction by ZEFSAII (Michael W. Deem and Ramdas Pophale) SiO2 
 PCOD9422777
Probable space group: P C C A
;
_chemical_formula_sum "Si O2"
_cell_formula_units_Z 48
_cell_length_a 7.482727
_cell_length_b 8.479262
_cell_length_c 28.564978
_cell_angle_alpha 90.000000
_cell_angle_beta 90.000000
_cell_angle_gamma 90.000000
_cell_volume 1812.390801
_symmetry_space_group_name_H-M "P C C A"
_symmetry_group_IT_number 54
_symmetry_cell_setting 'orthorhombic'
loop_
_space_group_symop_operation_xyz
x,y,z
1/2-x,-y,z
1/2+x,-y,1/2-z
-x,y,1/2-z
-x,-y,-z
1/2+x,y,-z
1/2-x,y,1/2+z
x,-y,1/2+z
loop_
_atom_site_type_symbol
_atom_site_label
_atom_site_fract_x
_atom_site_fract_y
_atom_site_fract_z
Si Si1 0.147393 0.162190 0.367138
Si Si2 0.226612 0.741581 0.461383
Si Si3 0.384239 0.738834 0.594915
Si Si4 0.000000 0.403938 0.250000
Si Si5 0.750000 0.500000 0.966227
Si Si6 0.250000 0.500000 0.825170
Si Si7 0.750000 0.000000 0.465616
Si Si8 0.218918 0.176175 0.188185
O O1 0.153120 0.175869 0.422864
O O2 0.227225 0.331388 0.350270
O O3 0.954509 0.156661 0.344586
O O4 0.250000 0.000000 0.354124
O O5 0.332790 0.615243 0.493149
O O6 0.062537 0.669430 0.430316
O O7 0.166202 0.871031 0.499399
O O8 0.222209 0.635842 0.573283
O O9 0.363911 0.760228 0.650369
O O10 0.376072 0.907709 0.570320
O O11 0.922713 0.504797 0.208066
O O12 0.841832 0.294280 0.270994
O O13 0.250000 0.000000 0.207129
#
# Coordination Sequence:
#
# PCOD9422777 Si02
#       8
#     8   8   8   4   4   4   4   8
#     4  11  24  43  71 106 144 196 244 302 365 433
#     4  11  22  40  64  98 143 192 237 286 342 414
#     4  11  23  40  65  96 139 187 235 291 347 422
#     4  10  26  48  74 106 140 186 238 318 392 460
#     4  10  25  39  60 102 150 196 246 287 355 420
#     4  10  25  47  70 104 144 178 244 305 379 454
#     4  10  22  36  62  98 138 178 238 278 324 400
#     4  11  25  46  73 107 143 181 247 307 377 459
#
# _framework density 26.484355000000001
#
# number of rings (size 3 to 8) (size 9 to 14) (size 15 to 20)
#    0.000    1.333    1.667    2.500    0.000   15.333 
#    0.000    0.833    0.000    0.000    0.000    0.000 
#    0.000    0.000    0.000    0.000    0.000    0.000 
#
# Total GULP energy -267736.295602 kJ/mol
# GULP energy per Si atom -5577.839492 kJ/mol
# Density = 2.642408 g / cm^3
# Si number density = 26.484355 Si / 1000 Ang^3
#
#
#
# Elastic Constant Matrix: (Units=GPa)
#
#
# Indices 1 2 3 4 5 6 
#
# 1 71.3513 30.6596 18.6163 0.0000 0.0000 0.0000
# 2 30.6596 152.6061 49.4054 0.0000 0.0000 0.0000
# 3 18.6163 49.4054 105.6648 0.0000 0.0000 0.0000
# 4 0.0000 0.0000 0.0000 31.7575 0.0000 0.0000
# 5 0.0000 0.0000 0.0000 0.0000 25.2488 0.0000
# 6 0.0000 0.0000 0.0000 0.0000 0.0000 40.3252
#
#
#
# Elastic Compliance Matrix: (Units=1/GPa)
#
#
# Indices 1 2 3 4 5 6 
#
# 1 0.015540 -0.002635 -0.001506 0.000000 0.000000 0.000000
# 2 -0.002635 0.008168 -0.003355 0.000000 0.000000 0.000000
# 3 -0.001506 -0.003355 0.011298 0.000000 0.000000 0.000000
# 4 0.000000 0.000000 0.000000 0.031489 0.000000 0.000000
# 5 0.000000 0.000000 0.000000 0.000000 0.039606 0.000000
# 6 0.000000 0.000000 0.000000 0.000000 0.000000 0.024798
#
#
# Mechanical properties :
#
#
# Convention : Reuss Voigt Hill
#
# Bulk Modulus (GPa) = 49.96241 58.55386 54.25814
# Shear Modulus (GPa) = 32.77349 34.86237 33.81793
#
# Velocity S-wave (km/s) = 3.52158 3.63207 3.57725
# Velocity P-wave (km/s) = 5.95325 6.30445 6.13137
#
# Compressibility (1/GPa) = 0.02001505
#
# Stress axis : x y z
#
# Youngs Moduli (GPa) = 64.34932 122.42455 88.51159
#
# Poissons Ratio (x) = 0.32253 0.13331
# Poissons Ratio (y) = 0.16953 0.29696
# Poissons Ratio (z) = 0.09692 0.41074
#
# Static dielectric constant tensor:
#      x y z
#    x 2.418420 0.000000 0.000000 
#    y 0.000000 2.107860 0.000000 
#    z 0.000000 0.000000 1.990820 
# 
# From -- ./inp_files/27850.got.cif
#   From: 2010.05.17/outbox.cif.g08.bks.cpg/sg54_14_cif.got.tgz:27850.got - 2010.06.03 13:09:01.
