data_PCOD9422957
_publ_section_title
;
Structure prediction by ZEFSAII (Michael W. Deem and Ramdas Pophale) SiO2 
 PCOD9422957
Probable space group: P C C A
;
_chemical_formula_sum "Si O2"
_cell_formula_units_Z 32
_cell_length_a 20.947410
_cell_length_b 4.768406
_cell_length_c 12.566641
_cell_angle_alpha 90.000000
_cell_angle_beta 90.000000
_cell_angle_gamma 90.000000
_cell_volume 1255.228431
_symmetry_space_group_name_H-M "P C C A"
_symmetry_group_IT_number 54
_symmetry_cell_setting 'orthorhombic'
loop_
_space_group_symop_operation_xyz
x,y,z
1/2-x,-y,z
1/2+x,-y,1/2-z
-x,y,1/2-z
-x,-y,-z
1/2+x,y,-z
1/2-x,y,1/2+z
x,-y,1/2+z
loop_
_atom_site_type_symbol
_atom_site_label
_atom_site_fract_x
_atom_site_fract_y
_atom_site_fract_z
Si Si1 0.382583 0.328487 0.215648
Si Si2 0.402489 0.661160 0.947348
Si Si3 0.506765 0.730730 0.366361
Si Si4 0.685330 0.820602 0.378675
O O1 0.387735 0.209593 0.333757
O O2 0.446917 0.472436 0.172289
O O3 0.328370 0.573255 0.206601
O O4 0.364492 0.067761 0.144060
O O5 0.438382 0.378587 0.907870
O O6 0.454558 0.801414 0.025278
O O7 0.337078 0.663571 0.013766
O O8 0.500000 0.883747 0.250000
O O9 0.750000 0.000000 0.380674
#
# Coordination Sequence:
#
# PCOD9422957 Si02
#       4
#     8   8   8   8
#     4  10  22  40  63  92 127 164 208 263 319 382
#     4   9  19  38  66  93 126 168 209 259 329 387
#     4   8  16  36  64  98 129 159 204 264 327 393
#     4  11  24  42  62  90 126 167 218 265 309 374
#
# _framework density 25.493368
#
# number of rings (size 3 to 8) (size 9 to 14) (size 15 to 20)
#    0.000    2.500    0.000    0.750    0.000    6.000 
#    0.000   40.000    0.000    0.000    0.000    0.000 
#    0.000    0.000    0.000    0.000    0.000    0.000 
#
# Total GULP energy -178267.105922 kJ/mol
# GULP energy per Si atom -5570.847060 kJ/mol
# Density = 2.543534 g / cm^3
# Si number density = 25.493368 Si / 1000 Ang^3
#
#
#
# Elastic Constant Matrix: (Units=GPa)
#
#
# Indices 1 2 3 4 5 6 
#
# 1 92.0072 39.9388 66.1389 0.0000 0.0000 0.0000
# 2 39.9388 109.2394 46.8338 0.0000 0.0000 0.0000
# 3 66.1389 46.8338 163.2492 0.0000 0.0000 0.0000
# 4 0.0000 0.0000 0.0000 -16.6261 0.0000 0.0000
# 5 0.0000 0.0000 0.0000 0.0000 15.9591 0.0000
# 6 0.0000 0.0000 0.0000 0.0000 0.0000 47.2067
#
#
#
# Elastic Compliance Matrix: (Units=1/GPa)
#
#
# Indices 1 2 3 4 5 6 
#
# 1 0.016495 -0.003610 -0.005647 0.000000 0.000000 0.000000
# 2 -0.003610 0.011228 -0.001759 0.000000 0.000000 0.000000
# 3 -0.005647 -0.001759 0.008918 0.000000 0.000000 0.000000
# 4 0.000000 0.000000 0.000000 -0.060146 0.000000 0.000000
# 5 0.000000 0.000000 0.000000 0.000000 0.062660 0.000000
# 6 0.000000 0.000000 0.000000 0.000000 0.000000 0.021183
#
#
# Mechanical properties :
#
#
# Convention : Reuss Voigt Hill
#
# Bulk Modulus (GPa) = 68.44681 74.47986 71.46333
# Shear Modulus (GPa) = 57.31345 23.41355 40.36350
#
# Velocity S-wave (km/s) = 4.74663 3.03383 3.98338
# Velocity P-wave (km/s) = 7.54638 6.44600 7.01779
#
# Compressibility (1/GPa) = 0.01460988
#
# Stress axis : x y z
#
# Youngs Moduli (GPa) = 60.62395 89.06367 112.13135
#
# Poissons Ratio (x) = 0.32148 0.63324
# Poissons Ratio (y) = 0.21883 0.19721
# Poissons Ratio (z) = 0.34236 0.15664
#
# Static dielectric constant tensor:
#      x y z
#    x 2.104130 0.000000 0.000000 
#    y 0.000000 2.071740 0.000000 
#    z 0.000000 0.000000 2.080970 
# 
# From -- ./inp_files/14759.got.cif
#   From: 2010.05.17/outbox.cif.g08.bks.cpg/sg54_8_cif.got.tgz:14759.got - 2010.06.03 13:09:01.
