data_PCOD9422731
_publ_section_title
;
Structure prediction by ZEFSAII (Michael W. Deem and Ramdas Pophale) SiO2 
 PCOD9422731
Probable space group: P C C A
;
_chemical_formula_sum "Si O2"
_cell_formula_units_Z 40
_cell_length_a 9.548595
_cell_length_b 10.470515
_cell_length_c 16.705594
_cell_angle_alpha 90.000000
_cell_angle_beta 90.000000
_cell_angle_gamma 90.000000
_cell_volume 1670.203691
_symmetry_space_group_name_H-M "P C C A"
_symmetry_group_IT_number 54
_symmetry_cell_setting 'orthorhombic'
loop_
_space_group_symop_operation_xyz
x,y,z
1/2-x,-y,z
1/2+x,-y,1/2-z
-x,y,1/2-z
-x,-y,-z
1/2+x,y,-z
1/2-x,y,1/2+z
x,-y,1/2+z
loop_
_atom_site_type_symbol
_atom_site_label
_atom_site_fract_x
_atom_site_fract_y
_atom_site_fract_z
Si Si1 0.596445 0.394222 0.319910
Si Si2 0.250000 0.500000 0.038665
Si Si3 0.260342 0.764205 0.451070
Si Si4 0.338237 0.257327 0.769067
Si Si5 0.471089 0.857619 0.586105
Si Si6 0.750000 0.000000 0.316294
O O1 0.500000 0.447988 0.250000
O O2 0.621402 0.471923 0.400889
O O3 0.744744 0.358034 0.279928
O O4 0.530493 0.260268 0.350596
O O5 0.282462 0.627238 0.989031
O O6 0.316368 0.734951 0.363274
O O7 0.376334 0.819117 0.510632
O O8 0.130581 0.862243 0.442516
O O9 0.500000 0.266564 0.750000
O O10 0.282094 0.121307 0.737829
O O11 0.387939 0.971052 0.630029
#
# Coordination Sequence:
#
# PCOD9422731 Si02
#       6
#     8   4   8   8   8   4
#     4  10  21  46  67 100 144 188 245 308 356 445
#     4  10  26  44  72 108 144 206 244 304 388 438
#     4  11  25  46  72 105 153 189 252 311 371 456
#     4  11  26  44  72 105 139 189 251 309 368 456
#     4  10  24  45  69 104 146 184 241 310 367 458
#     4  10  26  46  76 102 144 190 248 306 402 426
#
# _framework density 23.949175
#
# number of rings (size 3 to 8) (size 9 to 14) (size 15 to 20)
#    0.000    1.600    2.000    0.000   11.200    6.400 
#    0.000    0.000    0.000    0.000    0.000    0.000 
#    0.000    0.000    0.000    0.000    0.000    0.000 
#
# Total GULP energy -224153.656502 kJ/mol
# GULP energy per Si atom -5603.841413 kJ/mol
# Density = 2.389467 g / cm^3
# Si number density = 23.949175 Si / 1000 Ang^3
#
#
#
# Elastic Constant Matrix: (Units=GPa)
#
#
# Indices 1 2 3 4 5 6 
#
# 1 133.1580 12.9050 45.5388 0.0000 0.0000 0.0000
# 2 12.9050 95.2455 53.9283 0.0000 0.0000 0.0000
# 3 45.5388 53.9283 174.8963 0.0000 0.0000 0.0000
# 4 0.0000 0.0000 0.0000 2.9258 0.0000 0.0000
# 5 0.0000 0.0000 0.0000 0.0000 46.2637 0.0000
# 6 0.0000 0.0000 0.0000 0.0000 0.0000 9.0205
#
#
#
# Elastic Compliance Matrix: (Units=1/GPa)
#
#
# Indices 1 2 3 4 5 6 
#
# 1 0.008245 0.000119 -0.002184 0.000000 0.000000 0.000000
# 2 0.000119 0.012722 -0.003954 0.000000 0.000000 0.000000
# 3 -0.002184 -0.003954 0.007505 0.000000 0.000000 0.000000
# 4 0.000000 0.000000 0.000000 0.341792 0.000000 0.000000
# 5 0.000000 0.000000 0.000000 0.000000 0.021615 0.000000
# 6 0.000000 0.000000 0.000000 0.000000 0.000000 0.110858
#
#
# Mechanical properties :
#
#
# Convention : Reuss Voigt Hill
#
# Bulk Modulus (GPa) = 60.84237 69.78269 65.31253
# Shear Modulus (GPa) = 9.61073 31.03717 20.32395
#
# Velocity S-wave (km/s) = 2.00541 3.60385 2.91628
# Velocity P-wave (km/s) = 5.55177 6.82041 6.21853
#
# Compressibility (1/GPa) = 0.01643592
#
# Stress axis : x y z
#
# Youngs Moduli (GPa) = 121.28438 78.60635 133.23879
#
# Poissons Ratio (x) = -0.00937 0.29094
# Poissons Ratio (y) = -0.01446 0.52678
# Poissons Ratio (z) = 0.26483 0.31078
#
# Static dielectric constant tensor:
#      x y z
#    x 1.926620 0.000000 0.000000 
#    y 0.000000 1.959660 0.000000 
#    z 0.000000 0.000000 1.849660 
# 
# From -- ./inp_files/16409.got.cif
#   From: 2010.05.17/outbox.cif.g08.bks.cpg/sg54_9_cif.got.tgz:16409.got - 2010.06.03 13:09:01.
