data_PCOD9422408
_publ_section_title
;
Structure prediction by ZEFSAII (Michael W. Deem and Ramdas Pophale) SiO2 
 PCOD9422408
Probable space group: P C C A
;
_chemical_formula_sum "Si O2"
_cell_formula_units_Z 32
_cell_length_a 4.743259
_cell_length_b 24.135913
_cell_length_c 11.002438
_cell_angle_alpha 90.000000
_cell_angle_beta 90.000000
_cell_angle_gamma 90.000000
_cell_volume 1259.590861
_symmetry_space_group_name_H-M "P C C A"
_symmetry_group_IT_number 54
_symmetry_cell_setting 'orthorhombic'
loop_
_space_group_symop_operation_xyz
x,y,z
1/2-x,-y,z
1/2+x,-y,1/2-z
-x,y,1/2-z
-x,-y,-z
1/2+x,y,-z
1/2-x,y,1/2+z
x,-y,1/2+z
loop_
_atom_site_type_symbol
_atom_site_label
_atom_site_fract_x
_atom_site_fract_y
_atom_site_fract_z
Si Si1 0.500000 0.218206 0.250000
Si Si2 0.000000 0.963289 0.750000
Si Si3 0.000000 0.291548 0.250000
Si Si4 0.164990 0.878372 0.418363
Si Si5 0.250000 0.500000 0.905180
Si Si6 0.296602 0.381372 0.414723
O O1 0.751472 0.254326 0.308972
O O2 0.333761 0.178945 0.344599
O O3 0.192557 0.925605 0.837277
O O4 0.250000 0.000000 0.687975
O O5 0.820232 0.330483 0.160846
O O6 0.340036 0.881607 0.542935
O O7 0.249527 0.439898 0.844512
O O8 0.500000 0.500000 0.000000
O O9 0.617538 0.380289 0.459431
#
# Coordination Sequence:
#
# PCOD9422408 Si02
#       6
#     4   4   4   8   4   8
#     4  12  27  46  65  97 138 175 236 294 322 390
#     4  12  26  46  74 114 154 176 222 290 328 394
#     4  12  25  40  65  97 128 171 226 286 344 390
#     4  12  26  47  74 101 139 193 233 270 341 405
#     4   8  16  34  58  82 118 160 200 260 332 408
#     4  10  21  39  61  90 126 164 212 270 337 410
#
# _framework density 25.405076000000001
#
# number of rings (size 3 to 8) (size 9 to 14) (size 15 to 20)
#    0.000    1.000    0.000    7.500    0.000    9.000 
#    0.000    8.750    0.000    0.000    0.000    0.000 
#    0.000    0.000    0.000    0.000    0.000    0.000 
#
# Total GULP energy -178832.146191 kJ/mol
# GULP energy per Si atom -5588.504568 kJ/mol
# Density = 2.534725 g / cm^3
# Si number density = 25.405076 Si / 1000 Ang^3
#
#
#
# Elastic Constant Matrix: (Units=GPa)
#
#
# Indices 1 2 3 4 5 6 
#
# 1 162.6443 48.5621 9.8074 0.0000 0.0000 0.0000
# 2 48.5621 147.7111 32.0233 0.0000 0.0000 0.0000
# 3 9.8074 32.0233 49.3337 0.0000 0.0000 0.0000
# 4 0.0000 0.0000 0.0000 2.5845 0.0000 0.0000
# 5 0.0000 0.0000 0.0000 0.0000 51.3275 0.0000
# 6 0.0000 0.0000 0.0000 0.0000 0.0000 52.6960
#
#
#
# Elastic Compliance Matrix: (Units=1/GPa)
#
#
# Indices 1 2 3 4 5 6 
#
# 1 0.006818 -0.002267 0.000116 0.000000 0.000000 0.000000
# 2 -0.002267 0.008632 -0.005153 0.000000 0.000000 0.000000
# 3 0.000116 -0.005153 0.023592 0.000000 0.000000 0.000000
# 4 0.000000 0.000000 0.000000 0.386925 0.000000 0.000000
# 5 0.000000 0.000000 0.000000 0.000000 0.019483 0.000000
# 6 0.000000 0.000000 0.000000 0.000000 0.000000 0.018977
#
#
# Mechanical properties :
#
#
# Convention : Reuss Voigt Hill
#
# Bulk Modulus (GPa) = 40.92456 60.05275 50.48866
# Shear Modulus (GPa) = 10.26317 39.27470 24.76893
#
# Velocity S-wave (km/s) = 2.01211 3.93611 3.12582
# Velocity P-wave (km/s) = 4.64132 6.65933 5.73971
#
# Compressibility (1/GPa) = 0.02443521
#
# Stress axis : x y z
#
# Youngs Moduli (GPa) = 146.66661 115.84425 42.38761
#
# Poissons Ratio (x) = 0.26258 -0.00491
# Poissons Ratio (y) = 0.33245 0.21841
# Poissons Ratio (z) = -0.01700 0.59692
#
# Static dielectric constant tensor:
#      x y z
#    x 1.919940 0.000000 0.000000 
#    y 0.000000 2.118650 0.000000 
#    z 0.000000 0.000000 1.990680 
# 
# From -- ./inp_files/6308.got.cif
#   From: 2010.05.17/outbox.cif.g08.bks.cpg/sg54_4_cif.got.tgz:6308.got - 2010.06.03 13:09:01.
