data_PCOD9422287
_publ_section_title
;
Structure prediction by ZEFSAII (Michael W. Deem and Ramdas Pophale) SiO2 
 PCOD9422287
Probable space group: P C C A
;
_chemical_formula_sum "Si O2"
_cell_formula_units_Z 56
_cell_length_a 15.450728
_cell_length_b 26.140582
_cell_length_c 5.483431
_cell_angle_alpha 90.000000
_cell_angle_beta 90.000000
_cell_angle_gamma 90.000000
_cell_volume 2214.708552
_symmetry_space_group_name_H-M "P C C A"
_symmetry_group_IT_number 54
_symmetry_cell_setting 'orthorhombic'
loop_
_space_group_symop_operation_xyz
x,y,z
1/2-x,-y,z
1/2+x,-y,1/2-z
-x,y,1/2-z
-x,-y,-z
1/2+x,y,-z
1/2-x,y,1/2+z
x,-y,1/2+z
loop_
_atom_site_type_symbol
_atom_site_label
_atom_site_fract_x
_atom_site_fract_y
_atom_site_fract_z
Si Si1 0.150097 0.020263 0.421955
Si Si2 0.444840 0.877863 0.500392
Si Si3 0.736857 0.310469 0.014394
Si Si4 0.771292 0.559682 0.808699
Si Si5 0.540130 0.295588 0.000558
Si Si6 0.300093 0.200307 0.996392
Si Si7 0.541660 0.580495 0.499449
O O1 0.130834 0.078967 0.483428
O O2 0.250000 0.000000 0.404554
O O3 0.111476 0.990703 0.655033
O O4 0.500000 0.884928 0.750000
O O5 0.393415 0.824789 0.508503
O O6 0.500000 0.880852 0.250000
O O7 0.749433 0.339562 0.264595
O O8 0.800561 0.262121 0.008060
O O9 0.642063 0.286783 0.006898
O O10 0.750000 0.500000 0.773890
O O11 0.704369 0.575729 0.028255
O O12 0.857300 0.569265 0.973206
O O13 0.500000 0.275972 0.750000
O O14 0.500000 0.275711 0.250000
O O15 0.530811 0.357466 0.000333
O O16 0.252452 0.185208 0.742566
O O17 0.500000 0.561488 0.750000
O O18 0.500000 0.560875 0.250000
#
# Coordination Sequence:
#
# PCOD9422287 Si02
#       7
#     8   8   8   8   8   8   8
#     4  10  23  40  65  97 124 171 201 241 312 365
#     4  12  26  43  68  99 129 160 207 264 303 349
#     4  10  21  40  61  94 121 164 205 244 302 376
#     4  10  21  38  56  83 119 159 206 256 307 358
#     4  10  21  38  62  93 124 157 201 256 312 364
#     4  10  23  43  67  89 126 170 211 244 299 372
#     4  10  21  38  60  87 121 158 200 255 316 371
#
# _framework density 25.285492999999999
#
# number of rings (size 3 to 8) (size 9 to 14) (size 15 to 20)
#    0.000    1.714    0.000    3.429    4.000    2.857 
#    0.000   25.714    0.000    0.000    0.000    0.000 
#    0.000    0.000    0.000    0.000    0.000    0.000 
#
# Total GULP energy -312952.117951 kJ/mol
# GULP energy per Si atom -5588.430678 kJ/mol
# Density = 2.522794 g / cm^3
# Si number density = 25.285493 Si / 1000 Ang^3
#
#
#
# Elastic Constant Matrix: (Units=GPa)
#
#
# Indices 1 2 3 4 5 6 
#
# 1 30.0045 -15.0956 54.3847 0.0000 0.0000 0.0000
# 2 -15.0956 68.7441 33.3215 0.0000 0.0000 0.0000
# 3 54.3847 33.3215 239.8427 0.0000 0.0000 0.0000
# 4 0.0000 0.0000 0.0000 29.9757 0.0000 0.0000
# 5 0.0000 0.0000 0.0000 0.0000 -29.2812 0.0000
# 6 0.0000 0.0000 0.0000 0.0000 0.0000 395.5627
#
#
#
# Elastic Compliance Matrix: (Units=1/GPa)
#
#
# Indices 1 2 3 4 5 6 
#
# 1 0.103411 0.036535 -0.028524 0.000000 0.000000 0.000000
# 2 0.036535 0.028504 -0.012244 0.000000 0.000000 0.000000
# 3 -0.028524 -0.012244 0.012338 0.000000 0.000000 0.000000
# 4 0.000000 0.000000 0.000000 0.033360 0.000000 0.000000
# 5 0.000000 0.000000 0.000000 0.000000 -0.034152 0.000000
# 6 0.000000 0.000000 0.000000 0.000000 0.000000 0.002528
#
#
# Mechanical properties :
#
#
# Convention : Reuss Voigt Hill
#
# Bulk Modulus (GPa) = 7.36455 53.75694 30.56074
# Shear Modulus (GPa) = 25.03485 96.98349 61.00917
#
# Velocity S-wave (km/s) = 3.14998 6.19989 4.91737
# Velocity P-wave (km/s) = 4.01855 8.51808 6.65982
#
# Compressibility (1/GPa) = 0.13578558
#
# Stress axis : x y z
#
# Youngs Moduli (GPa) = 9.67012 35.08227 81.04720
#
# Poissons Ratio (x) = -1.28171 2.31183
# Poissons Ratio (y) = -0.35329 0.99237
# Poissons Ratio (z) = 0.27583 0.42956
#
# Static dielectric constant tensor:
#      x y z
#    x 1.682460 0.000000 0.000000 
#    y 0.000000 2.107570 0.000000 
#    z 0.000000 0.000000 2.434380 
# 
# From -- ./inp_files/730.got.cif
#   From: 2010.05.17/outbox.cif.g08.bks.cpg/sg54_1_cif.got.tgz:730.got - 2010.06.03 13:09:01.
