data_PCOD9422854
_publ_section_title
;
Structure prediction by ZEFSAII (Michael W. Deem and Ramdas Pophale) SiO2 
 PCOD9422854
Probable space group: P C C A
;
_chemical_formula_sum "Si O2"
_cell_formula_units_Z 56
_cell_length_a 14.339308
_cell_length_b 13.788170
_cell_length_c 12.010033
_cell_angle_alpha 90.000000
_cell_angle_beta 90.000000
_cell_angle_gamma 90.000000
_cell_volume 2374.537449
_symmetry_space_group_name_H-M "P C C A"
_symmetry_group_IT_number 54
_symmetry_cell_setting 'orthorhombic'
loop_
_space_group_symop_operation_xyz
x,y,z
1/2-x,-y,z
1/2+x,-y,1/2-z
-x,y,1/2-z
-x,-y,-z
1/2+x,y,-z
1/2-x,y,1/2+z
x,-y,1/2+z
loop_
_atom_site_type_symbol
_atom_site_label
_atom_site_fract_x
_atom_site_fract_y
_atom_site_fract_z
Si Si1 0.462816 0.318659 0.363531
Si Si2 0.294536 0.797657 0.401331
Si Si3 0.605774 0.460308 0.972058
Si Si4 0.398108 0.887124 0.908594
Si Si5 0.515859 0.905184 0.124723
Si Si6 0.163448 0.336454 0.567727
Si Si7 0.788419 0.394186 0.248577
O O1 0.500000 0.367097 0.250000
O O2 0.387884 0.378284 0.434244
O O3 0.431113 0.209885 0.346749
O O4 0.556021 0.308989 0.437202
O O5 0.212386 0.875905 0.383942
O O6 0.390489 0.853575 0.415272
O O7 0.272271 0.745302 0.517466
O O8 0.314603 0.699785 0.326403
O O9 0.666824 0.557046 0.985768
O O10 0.635249 0.418830 0.848963
O O11 0.500000 0.500000 0.000000
O O12 0.453768 0.981817 0.869486
O O13 0.430889 0.884841 0.039306
O O14 0.500000 0.870265 0.250000
O O15 0.196772 0.351889 0.691715
O O16 0.750000 0.500000 0.208898
#
# Coordination Sequence:
#
# PCOD9422854 Si02
#       7
#     8   8   8   8   8   8   8
#     4  11  21  39  66  95 136 191 238 287 373 434
#     4  12  25  43  76 105 141 193 242 296 382 440
#     4   9  21  38  61  95 139 185 238 295 351 422
#     4  11  25  49  71 104 147 182 243 310 374 442
#     4  11  27  49  75 108 143 188 242 311 370 450
#     4  10  22  39  60 100 139 180 238 298 351 425
#     4  10  23  41  65 101 141 190 239 297 361 435
#
# _framework density 23.583539999999999
#
# number of rings (size 3 to 8) (size 9 to 14) (size 15 to 20)
#    0.000    1.429    1.429    2.571    4.000    6.286 
#    0.000    2.857    0.000    0.000    0.000    0.000 
#    0.000    0.000    0.000    0.000    0.000    0.000 
#
# Total GULP energy -311840.858755 kJ/mol
# GULP energy per Si atom -5568.586763 kJ/mol
# Density = 2.352986 g / cm^3
# Si number density = 23.583540 Si / 1000 Ang^3
#
#
#
# Elastic Constant Matrix: (Units=GPa)
#
#
# Indices 1 2 3 4 5 6 
#
# 1 72.1493 11.8553 6.4643 0.0000 0.0000 0.0000
# 2 11.8553 95.4235 12.2926 0.0000 0.0000 0.0000
# 3 6.4643 12.2926 69.0525 0.0000 0.0000 0.0000
# 4 0.0000 0.0000 0.0000 30.4778 0.0000 0.0000
# 5 0.0000 0.0000 0.0000 0.0000 31.0365 0.0000
# 6 0.0000 0.0000 0.0000 0.0000 0.0000 36.3209
#
#
#
# Elastic Compliance Matrix: (Units=1/GPa)
#
#
# Indices 1 2 3 4 5 6 
#
# 1 0.014222 -0.001633 -0.001041 0.000000 0.000000 0.000000
# 2 -0.001633 0.010913 -0.001790 0.000000 0.000000 0.000000
# 3 -0.001041 -0.001790 0.014898 0.000000 0.000000 0.000000
# 4 0.000000 0.000000 0.000000 0.032811 0.000000 0.000000
# 5 0.000000 0.000000 0.000000 0.000000 0.032220 0.000000
# 6 0.000000 0.000000 0.000000 0.000000 0.000000 0.027532
#
#
# Mechanical properties :
#
#
# Convention : Reuss Voigt Hill
#
# Bulk Modulus (GPa) = 32.14838 33.09441 32.62139
# Shear Modulus (GPa) = 32.91833 33.30125 33.10979
#
# Velocity S-wave (km/s) = 3.74012 3.76181 3.75098
# Velocity P-wave (km/s) = 5.68442 5.73860 5.71158
#
# Compressibility (1/GPa) = 0.03110577
#
# Stress axis : x y z
#
# Youngs Moduli (GPa) = 70.31510 91.63351 67.12404
#
# Poissons Ratio (x) = 0.14962 0.06986
# Poissons Ratio (y) = 0.11481 0.12014
# Poissons Ratio (z) = 0.07318 0.16401
#
# Static dielectric constant tensor:
#      x y z
#    x 1.970590 0.000000 0.000000 
#    y 0.000000 1.918150 0.000000 
#    z 0.000000 0.000000 2.002490 
# 
# From -- ./inp_files/8432.got.cif
#   From: 2010.05.17/outbox.cif.g08.bks.cpg/sg54_5_cif.got.tgz:8432.got - 2010.06.03 13:09:01.
