data_PCOD9422072
_publ_section_title
;
Structure prediction by ZEFSAII (Michael W. Deem and Ramdas Pophale) SiO2 
 PCOD9422072
Probable space group: P C C A
;
_chemical_formula_sum "Si O2"
_cell_formula_units_Z 40
_cell_length_a 9.078473
_cell_length_b 14.397625
_cell_length_c 14.411844
_cell_angle_alpha 90.000000
_cell_angle_beta 90.000000
_cell_angle_gamma 90.000000
_cell_volume 1883.749788
_symmetry_space_group_name_H-M "P C C A"
_symmetry_group_IT_number 54
_symmetry_cell_setting 'orthorhombic'
loop_
_space_group_symop_operation_xyz
x,y,z
1/2-x,-y,z
1/2+x,-y,1/2-z
-x,y,1/2-z
-x,-y,-z
1/2+x,y,-z
1/2-x,y,1/2+z
x,-y,1/2+z
loop_
_atom_site_type_symbol
_atom_site_label
_atom_site_fract_x
_atom_site_fract_y
_atom_site_fract_z
Si Si1 0.521461 0.838985 0.501944
Si Si2 0.653353 0.284020 0.713141
Si Si3 0.226429 0.715661 0.091530
Si Si4 0.121893 0.565367 0.948311
Si Si5 0.232844 0.096694 0.373133
O O1 0.628072 0.764380 0.451442
O O2 0.408698 0.786757 0.571991
O O3 0.420607 0.890752 0.427303
O O4 0.633514 0.905628 0.554196
O O5 0.500000 0.242882 0.750000
O O6 0.743112 0.315510 0.803607
O O7 0.603975 0.361358 0.637514
O O8 0.745542 0.197343 0.674211
O O9 0.187823 0.627525 0.030153
O O10 0.250000 0.500000 0.911303
O O11 0.000000 0.500000 0.000000
O O12 0.250000 0.000000 0.318020
#
# Coordination Sequence:
#
# PCOD9422072 Si02
#       5
#     8   8   8   8   8
#     4  10  20  43  70  95 136 186 222 284 346 410
#     4  12  24  44  71  97 143 185 223 293 357 405
#     4  11  22  45  69  96 138 185 222 283 358 409
#     4  12  26  45  72 101 134 179 237 289 346 425
#     4  11  23  42  69 105 135 181 237 281 346 422
#
# _framework density 21.234242999999999
#
# number of rings (size 3 to 8) (size 9 to 14) (size 15 to 20)
#    0.000    0.800    6.000    3.000    0.000    3.200 
#    3.600    1.000    0.000    0.000    0.000    0.000 
#    0.000    0.000    0.000    0.000    0.000    0.000 
#
# Total GULP energy -222901.251175 kJ/mol
# GULP energy per Si atom -5572.531279 kJ/mol
# Density = 2.118591 g / cm^3
# Si number density = 21.234243 Si / 1000 Ang^3
#
#
#
# Elastic Constant Matrix: (Units=GPa)
#
#
# Indices 1 2 3 4 5 6 
#
# 1 113.2131 36.9049 25.5614 0.0000 0.0000 0.0000
# 2 36.9049 112.4415 38.3567 0.0000 0.0000 0.0000
# 3 25.5614 38.3567 108.5457 0.0000 0.0000 0.0000
# 4 0.0000 0.0000 0.0000 -8.6844 0.0000 0.0000
# 5 0.0000 0.0000 0.0000 0.0000 16.1774 0.0000
# 6 0.0000 0.0000 0.0000 0.0000 0.0000 8.9999
#
#
#
# Elastic Compliance Matrix: (Units=1/GPa)
#
#
# Indices 1 2 3 4 5 6 
#
# 1 0.010067 -0.002837 -0.001368 0.000000 0.000000 0.000000
# 2 -0.002837 0.010912 -0.003188 0.000000 0.000000 0.000000
# 3 -0.001368 -0.003188 0.010661 0.000000 0.000000 0.000000
# 4 0.000000 0.000000 0.000000 -0.115149 0.000000 0.000000
# 5 0.000000 0.000000 0.000000 0.000000 0.061815 0.000000
# 6 0.000000 0.000000 0.000000 0.000000 0.000000 0.111112
#
#
# Mechanical properties :
#
#
# Convention : Reuss Voigt Hill
#
# Bulk Modulus (GPa) = 59.33364 59.53847 59.43605
# Shear Modulus (GPa) = 45.52786 18.85706 32.19246
#
# Velocity S-wave (km/s) = 4.63544 2.98325 3.89789
# Velocity P-wave (km/s) = 7.52681 6.32188 6.95050
#
# Compressibility (1/GPa) = 0.01685385
#
# Stress axis : x y z
#
# Youngs Moduli (GPa) = 99.33761 91.64010 93.79682
#
# Poissons Ratio (x) = 0.26002 0.12831
# Poissons Ratio (y) = 0.28186 0.29901
# Poissons Ratio (z) = 0.13589 0.29214
#
# Static dielectric constant tensor:
#      x y z
#    x 1.986420 0.000000 0.000000 
#    y 0.000000 0.366540 0.000000 
#    z 0.000000 0.000000 1.824380 
# 
# From -- ./inp_files/11523.got.cif
#   From: 2010.05.17/outbox.cif.g08.bks.cpg/sg54_6_cif.got.tgz:11523.got - 2010.06.03 13:09:01.
