data_PCOD9422967
_publ_section_title
;
Structure prediction by ZEFSAII (Michael W. Deem and Ramdas Pophale) SiO2 
 PCOD9422967
Probable space group: P C C A
;
_chemical_formula_sum "Si O2"
_cell_formula_units_Z 40
_cell_length_a 20.748624
_cell_length_b 6.020873
_cell_length_c 13.801155
_cell_angle_alpha 90.000000
_cell_angle_beta 90.000000
_cell_angle_gamma 90.000000
_cell_volume 1724.106943
_symmetry_space_group_name_H-M "P C C A"
_symmetry_group_IT_number 54
_symmetry_cell_setting 'orthorhombic'
loop_
_space_group_symop_operation_xyz
x,y,z
1/2-x,-y,z
1/2+x,-y,1/2-z
-x,y,1/2-z
-x,-y,-z
1/2+x,y,-z
1/2-x,y,1/2+z
x,-y,1/2+z
loop_
_atom_site_type_symbol
_atom_site_label
_atom_site_fract_x
_atom_site_fract_y
_atom_site_fract_z
Si Si1 0.127831 0.121548 0.950450
Si Si2 0.111989 0.053869 0.650690
Si Si3 0.417820 0.742225 0.323697
Si Si4 0.001595 0.640482 0.365901
Si Si5 0.685328 0.631272 0.715085
O O1 0.059812 0.236486 0.920640
O O2 0.181768 0.253507 0.890560
O O3 0.121312 0.877572 0.904042
O O4 0.135179 0.102996 0.064460
O O5 0.168767 0.181178 0.706485
O O6 0.064448 0.240574 0.604968
O O7 0.075770 0.911462 0.734020
O O8 0.480327 0.621374 0.370365
O O9 0.373696 0.542511 0.284585
O O10 0.000000 0.676729 0.250000
O O11 0.750000 0.500000 0.732678
#
# Coordination Sequence:
#
# PCOD9422967 Si02
#       5
#     8   8   8   8   8
#     4  10  23  40  63  97 131 171 224 278 332 403
#     4  11  23  40  65  98 129 174 232 266 338 413
#     4  10  22  40  64  86 137 167 220 273 345 399
#     4  11  20  38  60  97 132 180 206 268 342 413
#     4  10  23  44  65  91 126 175 225 283 348 389
#
# _framework density 23.200417000000002
#
# number of rings (size 3 to 8) (size 9 to 14) (size 15 to 20)
#    0.000    1.600    6.000    0.600    2.800    7.200 
#    0.000    6.000    0.000    0.000    0.000    0.000 
#    0.000    0.000    0.000    0.000    0.000    0.000 
#
# Total GULP energy -223465.284317 kJ/mol
# GULP energy per Si atom -5586.632108 kJ/mol
# Density = 2.314761 g / cm^3
# Si number density = 23.200417 Si / 1000 Ang^3
#
#
#
# Elastic Constant Matrix: (Units=GPa)
#
#
# Indices 1 2 3 4 5 6 
#
# 1 78.5406 27.5872 18.6665 0.0000 0.0000 0.0000
# 2 27.5872 99.1718 28.5326 0.0000 0.0000 0.0000
# 3 18.6665 28.5326 97.9286 0.0000 0.0000 0.0000
# 4 0.0000 0.0000 0.0000 18.6349 0.0000 0.0000
# 5 0.0000 0.0000 0.0000 0.0000 14.7517 0.0000
# 6 0.0000 0.0000 0.0000 0.0000 0.0000 33.2022
#
#
#
# Elastic Compliance Matrix: (Units=1/GPa)
#
#
# Indices 1 2 3 4 5 6 
#
# 1 0.014371 -0.003503 -0.001719 0.000000 0.000000 0.000000
# 2 -0.003503 0.011860 -0.002788 0.000000 0.000000 0.000000
# 3 -0.001719 -0.002788 0.011351 0.000000 0.000000 0.000000
# 4 0.000000 0.000000 0.000000 0.053663 0.000000 0.000000
# 5 0.000000 0.000000 0.000000 0.000000 0.067789 0.000000
# 6 0.000000 0.000000 0.000000 0.000000 0.000000 0.030118
#
#
# Mechanical properties :
#
#
# Convention : Reuss Voigt Hill
#
# Bulk Modulus (GPa) = 46.37508 47.24597 46.81052
# Shear Modulus (GPa) = 23.54496 26.70809 25.12653
#
# Velocity S-wave (km/s) = 3.18913 3.39660 3.29450
# Velocity P-wave (km/s) = 5.79595 5.98256 5.88999
#
# Compressibility (1/GPa) = 0.02156331
#
# Stress axis : x y z
#
# Youngs Moduli (GPa) = 69.58341 84.31619 88.09510
#
# Poissons Ratio (x) = 0.29538 0.15140
# Poissons Ratio (y) = 0.24377 0.24559
# Poissons Ratio (z) = 0.11959 0.23506
#
# Static dielectric constant tensor:
#      x y z
#    x 1.889730 0.000000 0.000000 
#    y 0.000000 1.913290 0.000000 
#    z 0.000000 0.000000 1.877500 
# 
# From -- ./inp_files/14848.got.cif
#   From: 2010.05.17/outbox.cif.g08.bks.cpg/sg54_8_cif.got.tgz:14848.got - 2010.06.03 13:09:01.
