data_PCOD9422772
_publ_section_title
;
Structure prediction by ZEFSAII (Michael W. Deem and Ramdas Pophale) SiO2 
 PCOD9422772
Probable space group: P C C A
;
_chemical_formula_sum "Si O2"
_cell_formula_units_Z 40
_cell_length_a 19.258108
_cell_length_b 5.144847
_cell_length_c 20.063892
_cell_angle_alpha 90.000000
_cell_angle_beta 90.000000
_cell_angle_gamma 90.000000
_cell_volume 1987.930804
_symmetry_space_group_name_H-M "P C C A"
_symmetry_group_IT_number 54
_symmetry_cell_setting 'orthorhombic'
loop_
_space_group_symop_operation_xyz
x,y,z
1/2-x,-y,z
1/2+x,-y,1/2-z
-x,y,1/2-z
-x,-y,-z
1/2+x,y,-z
1/2-x,y,1/2+z
x,-y,1/2+z
loop_
_atom_site_type_symbol
_atom_site_label
_atom_site_fract_x
_atom_site_fract_y
_atom_site_fract_z
Si Si1 0.940773 0.842426 0.920459
Si Si2 0.092103 0.599267 0.311619
Si Si3 0.570867 0.361019 0.335658
Si Si4 0.296322 0.755505 0.364390
Si Si5 0.596339 0.008002 0.065069
O O1 0.907705 0.611400 0.877990
O O2 0.025528 0.841050 0.925558
O O3 0.926042 0.111618 0.882709
O O4 0.913855 0.845106 0.995867
O O5 0.105377 0.691176 0.235952
O O6 0.137909 0.339991 0.320394
O O7 0.009540 0.570270 0.319126
O O8 0.106861 0.797602 0.372326
O O9 0.250000 0.500000 0.370265
O O10 0.334558 0.835767 0.432759
O O11 0.250000 0.000000 0.340990
#
# Coordination Sequence:
#
# PCOD9422772 Si02
#       5
#     8   8   8   8   8
#     4  10  22  36  62  93 127 152 188 256 314 365
#     4  10  22  38  62  90 125 155 207 243 304 356
#     4  10  22  36  61  94 126 155 186 257 316 363
#     4  12  24  38  61  88 118 163 210 254 280 354
#     4  10  22  39  62  91 123 157 206 243 305 358
#
# _framework density 20.121424000000001
#
# number of rings (size 3 to 8) (size 9 to 14) (size 15 to 20)
#    0.000    1.600    4.000    0.000    5.600    4.000 
#    0.000    0.000    0.000    7.200    0.000    0.000 
#    0.000    0.000    0.000    0.000    0.000    0.000 
#
# Total GULP energy -222934.892849 kJ/mol
# GULP energy per Si atom -5573.372321 kJ/mol
# Density = 2.007563 g / cm^3
# Si number density = 20.121424 Si / 1000 Ang^3
#
#
#
# Elastic Constant Matrix: (Units=GPa)
#
#
# Indices 1 2 3 4 5 6 
#
# 1 43.4193 32.0782 23.4523 0.0000 0.0000 0.0000
# 2 32.0782 118.4668 56.7565 0.0000 0.0000 0.0000
# 3 23.4523 56.7565 152.3981 0.0000 0.0000 0.0000
# 4 0.0000 0.0000 0.0000 -5.3919 0.0000 0.0000
# 5 0.0000 0.0000 0.0000 0.0000 2.9042 0.0000
# 6 0.0000 0.0000 0.0000 0.0000 0.0000 -2.7471
#
#
#
# Elastic Compliance Matrix: (Units=1/GPa)
#
#
# Indices 1 2 3 4 5 6 
#
# 1 0.029230 -0.007011 -0.001887 0.000000 0.000000 0.000000
# 2 -0.007011 0.011956 -0.003374 0.000000 0.000000 0.000000
# 3 -0.001887 -0.003374 0.008109 0.000000 0.000000 0.000000
# 4 0.000000 0.000000 0.000000 -0.185462 0.000000 0.000000
# 5 0.000000 0.000000 0.000000 0.000000 0.344330 0.000000
# 6 0.000000 0.000000 0.000000 0.000000 0.000000 -0.364024
#
#
# Mechanical properties :
#
#
# Convention : Reuss Voigt Hill
#
# Bulk Modulus (GPa) = 40.40204 59.87315 50.13759
# Shear Modulus (GPa) = -40.62790 12.41951 -14.10420
#
# Velocity S-wave (km/s) = -4.49835 2.48710 -2.65043
# Velocity P-wave (km/s) = 2.61869 6.16993 3.95035
#
# Compressibility (1/GPa) = 0.02475123
#
# Stress axis : x y z
#
# Youngs Moduli (GPa) = 34.21123 83.64082 123.32499
#
# Poissons Ratio (x) = 0.58638 0.23274
# Poissons Ratio (y) = 0.23985 0.41607
# Poissons Ratio (z) = 0.06456 0.28218
#
# Static dielectric constant tensor:
#      x y z
#    x 1.762560 0.000000 0.000000 
#    y 0.000000 1.775110 0.000000 
#    z 0.000000 0.000000 1.731690 
# 
# From -- ./inp_files/18790.got.cif
#   From: 2010.05.17/outbox.cif.g08.bks.cpg/sg54_10_cif.got.tgz:18790.got - 2010.06.03 13:09:01.
