data_PCOD9422691
_publ_section_title
;
Structure prediction by ZEFSAII (Michael W. Deem and Ramdas Pophale) SiO2 
 PCOD9422691
Probable space group: P C C A
;
_chemical_formula_sum "Si O2"
_cell_formula_units_Z 48
_cell_length_a 13.391170
_cell_length_b 9.771103
_cell_length_c 17.546297
_cell_angle_alpha 90.000000
_cell_angle_beta 90.000000
_cell_angle_gamma 90.000000
_cell_volume 2295.871574
_symmetry_space_group_name_H-M "P C C A"
_symmetry_group_IT_number 54
_symmetry_cell_setting 'orthorhombic'
loop_
_space_group_symop_operation_xyz
x,y,z
1/2-x,-y,z
1/2+x,-y,1/2-z
-x,y,1/2-z
-x,-y,-z
1/2+x,y,-z
1/2-x,y,1/2+z
x,-y,1/2+z
loop_
_atom_site_type_symbol
_atom_site_label
_atom_site_fract_x
_atom_site_fract_y
_atom_site_fract_z
Si Si1 0.834451 0.216277 0.170090
Si Si2 0.235371 0.159760 0.679365
Si Si3 0.186454 0.629859 0.565906
Si Si4 0.416353 0.935654 0.802771
Si Si5 0.877770 0.706335 0.095324
Si Si6 0.007530 0.445077 0.340231
O O1 0.819007 0.215470 0.261668
O O2 0.734119 0.270750 0.129638
O O3 0.928029 0.307576 0.148280
O O4 0.854361 0.055783 0.157452
O O5 0.241566 0.263471 0.609920
O O6 0.142444 0.150596 0.737577
O O7 0.250000 0.000000 0.657179
O O8 0.250000 0.500000 0.537748
O O9 0.134126 0.703742 0.495002
O O10 0.100120 0.572142 0.621199
O O11 0.500000 0.003207 0.750000
O O12 0.442991 0.828788 0.868261
O O13 0.928722 0.566819 0.122332
O O14 0.000000 0.471876 0.250000
#
# Coordination Sequence:
#
# PCOD9422691 Si02
#       6
#     8   8   8   8   8   8
#     4  10  21  43  68  96 128 174 217 275 328 396
#     4   9  21  39  65  92 126 169 219 270 324 392
#     4  12  27  43  62  96 138 174 223 278 336 398
#     4  10  22  41  72 100 129 168 230 274 330 400
#     4  11  25  43  64  96 135 177 212 276 336 401
#     4  12  24  40  69  96 130 174 228 271 331 395
#
# _framework density 20.907093
#
# number of rings (size 3 to 8) (size 9 to 14) (size 15 to 20)
#    0.000    1.333    1.667    4.500    9.333    1.333 
#    0.000    0.833    0.000    0.000    0.000    0.000 
#    0.000    0.000    0.000    0.000    0.000    0.000 
#
# Total GULP energy -267742.708333 kJ/mol
# GULP energy per Si atom -5577.973090 kJ/mol
# Density = 2.085951 g / cm^3
# Si number density = 20.907093 Si / 1000 Ang^3
#
#
#
# Elastic Constant Matrix: (Units=GPa)
#
#
# Indices 1 2 3 4 5 6 
#
# 1 48.9684 -1.3225 -9.3578 0.0000 0.0000 0.0000
# 2 -1.3225 79.8417 26.4432 0.0000 0.0000 0.0000
# 3 -9.3578 26.4432 76.6864 0.0000 0.0000 0.0000
# 4 0.0000 0.0000 0.0000 0.8919 0.0000 0.0000
# 5 0.0000 0.0000 0.0000 0.0000 19.1877 0.0000
# 6 0.0000 0.0000 0.0000 0.0000 0.0000 28.6756
#
#
#
# Elastic Compliance Matrix: (Units=1/GPa)
#
#
# Indices 1 2 3 4 5 6 
#
# 1 0.020931 -0.000564 0.002749 0.000000 0.000000 0.000000
# 2 -0.000564 0.014155 -0.004950 0.000000 0.000000 0.000000
# 3 0.002749 -0.004950 0.015082 0.000000 0.000000 0.000000
# 4 0.000000 0.000000 0.000000 1.121255 0.000000 0.000000
# 5 0.000000 0.000000 0.000000 0.000000 0.052117 0.000000
# 6 0.000000 0.000000 0.000000 0.000000 0.000000 0.034873
#
#
# Mechanical properties :
#
#
# Convention : Reuss Voigt Hill
#
# Bulk Modulus (GPa) = 22.40199 26.33582 24.36890
# Shear Modulus (GPa) = 3.90985 22.39995 13.15490
#
# Velocity S-wave (km/s) = 1.36900 3.27678 2.51112
# Velocity P-wave (km/s) = 3.63829 5.19041 4.48205
#
# Compressibility (1/GPa) = 0.04463890
#
# Stress axis : x y z
#
# Youngs Moduli (GPa) = 47.77526 70.64774 66.30305
#
# Poissons Ratio (x) = 0.03982 -0.18224
# Poissons Ratio (y) = 0.02693 0.32818
# Poissons Ratio (z) = -0.13131 0.34968
#
# Static dielectric constant tensor:
#      x y z
#    x 1.817880 0.000000 0.000000 
#    y 0.000000 1.803470 0.000000 
#    z 0.000000 0.000000 1.725540 
# 
# From -- ./inp_files/18031.got.cif
#   From: 2010.05.17/outbox.cif.g08.bks.cpg/sg54_10_cif.got.tgz:18031.got - 2010.06.03 13:09:01.
