data_PCOD9422838
_publ_section_title
;
Structure prediction by ZEFSAII (Michael W. Deem and Ramdas Pophale) SiO2 
 PCOD9422838
Probable space group: P C C A
;
_chemical_formula_sum "Si O2"
_cell_formula_units_Z 52
_cell_length_a 5.539160
_cell_length_b 21.136354
_cell_length_c 20.519069
_cell_angle_alpha 90.000000
_cell_angle_beta 90.000000
_cell_angle_gamma 90.000000
_cell_volume 2402.324309
_symmetry_space_group_name_H-M "P C C A"
_symmetry_group_IT_number 54
_symmetry_cell_setting 'orthorhombic'
loop_
_space_group_symop_operation_xyz
x,y,z
1/2-x,-y,z
1/2+x,-y,1/2-z
-x,y,1/2-z
-x,-y,-z
1/2+x,y,-z
1/2-x,y,1/2+z
x,-y,1/2+z
loop_
_atom_site_type_symbol
_atom_site_label
_atom_site_fract_x
_atom_site_fract_y
_atom_site_fract_z
Si Si1 0.250000 0.500000 0.354960
Si Si2 0.880465 0.285015 0.177928
Si Si3 0.624525 0.307898 0.460395
Si Si4 0.000000 0.587740 0.250000
Si Si5 0.277262 0.191520 0.630949
Si Si6 0.500000 0.233693 0.250000
Si Si7 0.748454 0.926713 0.959749
Si Si8 0.144063 0.599502 0.630901
O O1 0.140587 0.551159 0.306493
O O2 0.485650 0.536693 0.385022
O O3 0.607045 0.283037 0.198076
O O4 0.000000 0.284660 0.250000
O O5 0.955869 0.220134 0.143070
O O6 0.954015 0.342797 0.134550
O O7 0.359602 0.305263 0.492185
O O8 0.656911 0.245575 0.414769
O O9 0.663262 0.374098 0.421249
O O10 0.231134 0.604467 0.202336
O O11 0.162707 0.191511 0.703249
O O12 0.263139 0.124706 0.596973
O O13 0.750000 0.000000 0.937969
O O14 0.493011 0.917310 0.997416
#
# Coordination Sequence:
#
# PCOD9422838 Si02
#       8
#     4   8   8   4   8   4   8   8
#     4  12  22  40  64  98 120 162 208 268 342 398
#     4   9  20  36  55  94 122 166 202 262 330 399
#     4  11  27  46  66  98 128 176 226 272 332 396
#     4  12  22  43  64 100 124 163 206 270 338 401
#     4  10  22  38  69  92 138 173 222 281 336 400
#     4  10  22  39  62 100 134 171 214 266 352 407
#     4  10  22  40  67 100 133 181 239 286 327 378
#     4  11  25  40  68  90 136 161 217 276 331 406
#
# _framework density 21.645703999999999
#
# number of rings (size 3 to 8) (size 9 to 14) (size 15 to 20)
#    0.000    1.538    1.538    1.846    8.615    8.615 
#    0.000    0.769    5.077    0.000    0.000    0.000 
#    0.000    0.000    0.000    0.000    0.000    0.000 
#
# Total GULP energy -289493.023269 kJ/mol
# GULP energy per Si atom -5567.173524 kJ/mol
# Density = 2.159644 g / cm^3
# Si number density = 21.645704 Si / 1000 Ang^3
#
#
#
# Elastic Constant Matrix: (Units=GPa)
#
#
# Indices 1 2 3 4 5 6 
#
# 1 108.6263 35.0167 38.0624 0.0000 0.0000 0.0000
# 2 35.0167 51.9071 30.6911 0.0000 0.0000 0.0000
# 3 38.0624 30.6911 65.4004 0.0000 0.0000 0.0000
# 4 0.0000 0.0000 0.0000 -11.6333 0.0000 0.0000
# 5 0.0000 0.0000 0.0000 0.0000 49.8204 0.0000
# 6 0.0000 0.0000 0.0000 0.0000 0.0000 20.3070
#
#
#
# Elastic Compliance Matrix: (Units=1/GPa)
#
#
# Indices 1 2 3 4 5 6 
#
# 1 0.012718 -0.005817 -0.004672 0.000000 0.000000 0.000000
# 2 -0.005817 0.029324 -0.010376 0.000000 0.000000 0.000000
# 3 -0.004672 -0.010376 0.022879 0.000000 0.000000 0.000000
# 4 0.000000 0.000000 0.000000 -0.085960 0.000000 0.000000
# 5 0.000000 0.000000 0.000000 0.000000 0.020072 0.000000
# 6 0.000000 0.000000 0.000000 0.000000 0.000000 0.049244
#
#
# Mechanical properties :
#
#
# Convention : Reuss Voigt Hill
#
# Bulk Modulus (GPa) = 43.11977 48.16379 45.64178
# Shear Modulus (GPa) = 51.15741 19.84306 35.50023
#
# Velocity S-wave (km/s) = 4.86675 3.03102 4.05416
# Velocity P-wave (km/s) = 7.17944 5.87782 6.56099
#
# Compressibility (1/GPa) = 0.02319122
#
# Stress axis : x y z
#
# Youngs Moduli (GPa) = 78.62765 34.10121 43.70913
#
# Poissons Ratio (x) = 0.19838 0.20420
# Poissons Ratio (y) = 0.45741 0.45351
# Poissons Ratio (z) = 0.36734 0.35382
#
# Static dielectric constant tensor:
#      x y z
#    x 2.102030 0.000000 0.000000 
#    y 0.000000 1.822690 0.000000 
#    z 0.000000 0.000000 1.810940 
# 
# From -- ./inp_files/19839.got.cif
#   From: 2010.05.17/outbox.cif.g08.bks.cpg/sg54_10_cif.got.tgz:19839.got - 2010.06.03 13:09:01.
