data_PCOD9422417
_publ_section_title
;
Structure prediction by ZEFSAII (Michael W. Deem and Ramdas Pophale) SiO2 
 PCOD9422417
Probable space group: P C C A
;
_chemical_formula_sum "Si O2"
_cell_formula_units_Z 64
_cell_length_a 11.817396
_cell_length_b 15.496252
_cell_length_c 15.419668
_cell_angle_alpha 90.000000
_cell_angle_beta 90.000000
_cell_angle_gamma 90.000000
_cell_volume 2823.732044
_symmetry_space_group_name_H-M "P C C A"
_symmetry_group_IT_number 54
_symmetry_cell_setting 'orthorhombic'
loop_
_space_group_symop_operation_xyz
x,y,z
1/2-x,-y,z
1/2+x,-y,1/2-z
-x,y,1/2-z
-x,-y,-z
1/2+x,y,-z
1/2-x,y,1/2+z
x,-y,1/2+z
loop_
_atom_site_type_symbol
_atom_site_label
_atom_site_fract_x
_atom_site_fract_y
_atom_site_fract_z
Si Si1 0.243911 0.601561 0.825681
Si Si2 0.753601 0.901992 0.163932
Si Si3 0.697308 0.090794 0.955869
Si Si4 0.268640 0.599511 0.114772
Si Si5 0.418528 0.746179 0.827515
Si Si6 0.976418 0.167480 0.119012
Si Si7 0.869762 0.762150 0.445647
Si Si8 0.000323 0.649235 0.654315
O O1 0.250000 0.500000 0.843391
O O2 0.242836 0.611944 0.719967
O O3 0.342783 0.665275 0.856504
O O4 0.128622 0.634005 0.869103
O O5 0.836750 0.826452 0.198311
O O6 0.622675 0.874779 0.174203
O O7 0.750000 0.000000 0.197949
O O8 0.791962 0.906797 0.061447
O O9 0.570489 0.104934 0.921149
O O10 0.774545 0.168258 0.919772
O O11 0.750000 0.000000 0.928612
O O12 0.250000 0.500000 0.093995
O O13 0.185530 0.668767 0.071382
O O14 0.400917 0.614760 0.094309
O O15 0.500000 0.717598 0.750000
O O16 0.510495 0.772784 0.898086
O O17 0.031856 0.250309 0.163054
O O18 0.904335 0.211058 0.041822
O O19 0.000000 0.606576 0.750000
#
# Coordination Sequence:
#
# PCOD9422417 Si02
#       8
#     8   8   8   8   8   8   8   8
#     4  10  22  38  63  92 117 163 211 251 304 372
#     4  10  23  40  63  90 124 164 208 253 313 373
#     4  10  22  39  65  93 119 162 210 256 304 370
#     4  10  21  39  62  89 121 160 206 256 310 365
#     4  12  23  39  63  91 129 164 204 261 317 365
#     4  11  21  40  65  87 125 161 209 256 307 369
#     4  11  23  37  62  91 123 160 205 258 313 367
#     4  10  21  39  63  86 122 160 205 250 304 369
#
# _framework density 22.665040999999999
#
# number of rings (size 3 to 8) (size 9 to 14) (size 15 to 20)
#    0.000    1.500    5.000    0.000    3.500    2.000 
#    0.000    2.500    0.000    0.000    0.000    0.000 
#    0.000    0.000    0.000    0.000    0.000    0.000 
#
# Total GULP energy -357208.307820 kJ/mol
# GULP energy per Si atom -5581.379810 kJ/mol
# Density = 2.261345 g / cm^3
# Si number density = 22.665041 Si / 1000 Ang^3
#
#
#
# Elastic Constant Matrix: (Units=GPa)
#
#
# Indices 1 2 3 4 5 6 
#
# 1 151.9611 64.7016 3.7713 0.0000 0.0000 0.0000
# 2 64.7016 128.8306 -0.4302 0.0000 0.0000 0.0000
# 3 3.7713 -0.4302 13.3732 0.0000 0.0000 0.0000
# 4 0.0000 0.0000 0.0000 26.5122 0.0000 0.0000
# 5 0.0000 0.0000 0.0000 0.0000 -5.6220 0.0000
# 6 0.0000 0.0000 0.0000 0.0000 0.0000 33.4792
#
#
#
# Elastic Compliance Matrix: (Units=1/GPa)
#
#
# Indices 1 2 3 4 5 6 
#
# 1 0.008455 -0.004255 -0.002521 0.000000 0.000000 0.000000
# 2 -0.004255 0.009904 0.001518 0.000000 0.000000 0.000000
# 3 -0.002521 0.001518 0.075536 0.000000 0.000000 0.000000
# 4 0.000000 0.000000 0.000000 0.037719 0.000000 0.000000
# 5 0.000000 0.000000 0.000000 0.000000 -0.177873 0.000000
# 6 0.000000 0.000000 0.000000 0.000000 0.000000 0.029869
#
#
# Mechanical properties :
#
#
# Convention : Reuss Voigt Hill
#
# Bulk Modulus (GPa) = 11.99322 47.80556 29.89939
# Shear Modulus (GPa) = 228.12818 25.94870 127.03844
#
# Velocity S-wave (km/s) = 10.04343 3.38727 7.49480
# Velocity P-wave (km/s) = 11.82358 6.03624 9.38704
#
# Compressibility (1/GPa) = 0.08338044
#
# Stress axis : x y z
#
# Youngs Moduli (GPa) = 118.27749 100.96994 13.23867
#
# Poissons Ratio (x) = 0.42958 0.03338
# Poissons Ratio (y) = 0.50322 -0.02010
# Poissons Ratio (z) = 0.29819 -0.15331
#
# Static dielectric constant tensor:
#      x y z
#    x 1.903080 0.000000 0.000000 
#    y 0.000000 1.881030 0.000000 
#    z 0.000000 0.000000 1.970870 
# 
# From -- ./inp_files/17459.got.cif
#   From: 2010.05.17/outbox.cif.g08.bks.cpg/sg54_9_cif.got.tgz:17459.got - 2010.06.03 13:09:01.
