data_PCOD9422900
_publ_section_title
;
Structure prediction by ZEFSAII (Michael W. Deem and Ramdas Pophale) SiO2 
 PCOD9422900
Probable space group: P C C A
;
_chemical_formula_sum "Si O2"
_cell_formula_units_Z 32
_cell_length_a 9.337284
_cell_length_b 9.175292
_cell_length_c 18.438549
_cell_angle_alpha 90.000000
_cell_angle_beta 90.000000
_cell_angle_gamma 90.000000
_cell_volume 1579.673034
_symmetry_space_group_name_H-M "P C C A"
_symmetry_group_IT_number 54
_symmetry_cell_setting 'orthorhombic'
loop_
_space_group_symop_operation_xyz
x,y,z
1/2-x,-y,z
1/2+x,-y,1/2-z
-x,y,1/2-z
-x,-y,-z
1/2+x,y,-z
1/2-x,y,1/2+z
x,-y,1/2+z
loop_
_atom_site_type_symbol
_atom_site_label
_atom_site_fract_x
_atom_site_fract_y
_atom_site_fract_z
Si Si1 0.838106 0.144628 0.777712
Si Si2 0.851165 0.629686 0.705618
Si Si3 0.262432 0.677510 0.582331
Si Si4 0.456324 0.643502 0.454218
O O1 0.741494 0.225525 0.717292
O O2 0.833192 0.250969 0.847527
O O3 0.000000 0.120720 0.750000
O O4 0.750000 0.000000 0.796870
O O5 0.750000 0.500000 0.732982
O O6 0.883762 0.603394 0.621456
O O7 0.000000 0.635621 0.750000
O O8 0.250000 0.500000 0.590484
O O9 0.350161 0.718302 0.510436
O O10 0.099537 0.727011 0.569032
O O11 0.500000 0.500000 0.500000
#
# Coordination Sequence:
#
# PCOD9422900 Si02
#       4
#     8   8   8   8
#     4  12  28  46  68  96 138 184 234 285 340 406
#     4  12  24  41  71 104 136 177 229 280 344 406
#     4  10  22  43  69 102 136 172 223 277 342 406
#     4  10  22  39  66 103 142 169 218 280 341 399
#
# _framework density 20.257356999999999
#
# number of rings (size 3 to 8) (size 9 to 14) (size 15 to 20)
#    0.000    1.000    2.500    4.500   14.000    0.000 
#    0.000    2.500    0.000    0.000    0.000    0.000 
#    0.000    0.000    0.000    0.000    0.000    0.000 
#
# Total GULP energy -178675.514600 kJ/mol
# GULP energy per Si atom -5583.609831 kJ/mol
# Density = 2.021125 g / cm^3
# Si number density = 20.257357 Si / 1000 Ang^3
#
#
#
# Elastic Constant Matrix: (Units=GPa)
#
#
# Indices 1 2 3 4 5 6 
#
# 1 167.5795 25.5680 53.3862 0.0000 0.0000 0.0000
# 2 25.5680 55.4496 20.7274 0.0000 0.0000 0.0000
# 3 53.3862 20.7274 147.3723 0.0000 0.0000 0.0000
# 4 0.0000 0.0000 0.0000 -3.3071 0.0000 0.0000
# 5 0.0000 0.0000 0.0000 0.0000 27.6680 0.0000
# 6 0.0000 0.0000 0.0000 0.0000 0.0000 21.5503
#
#
#
# Elastic Compliance Matrix: (Units=1/GPa)
#
#
# Indices 1 2 3 4 5 6 
#
# 1 0.007041 -0.002420 -0.002210 0.000000 0.000000 0.000000
# 2 -0.002420 0.019867 -0.001917 0.000000 0.000000 0.000000
# 3 -0.002210 -0.001917 0.007856 0.000000 0.000000 0.000000
# 4 0.000000 0.000000 0.000000 -0.302379 0.000000 0.000000
# 5 0.000000 0.000000 0.000000 0.000000 0.036143 0.000000
# 6 0.000000 0.000000 0.000000 0.000000 0.000000 0.046403
#
#
# Mechanical properties :
#
#
# Convention : Reuss Voigt Hill
#
# Bulk Modulus (GPa) = 46.15125 63.30717 54.72921
# Shear Modulus (GPa) = -30.34880 27.23023 -1.55929
#
# Velocity S-wave (km/s) = -3.87481 3.67033 -0.87830
# Velocity P-wave (km/s) = 1.67722 7.02005 5.10363
#
# Compressibility (1/GPa) = 0.02166789
#
# Stress axis : x y z
#
# Youngs Moduli (GPa) = 142.03200 50.33429 127.29382
#
# Poissons Ratio (x) = 0.12183 0.28133
# Poissons Ratio (y) = 0.34376 0.24408
# Poissons Ratio (z) = 0.31391 0.09651
#
# Static dielectric constant tensor:
#      x y z
#    x 1.758780 0.000000 0.000000 
#    y 0.000000 1.679370 0.000000 
#    z 0.000000 0.000000 1.716370 
# 
# From -- ./inp_files/20043.got.cif
#   From: 2010.05.17/outbox.cif.g08.bks.cpg/sg54_11_cif.got.tgz:20043.got - 2010.06.03 13:09:01.
