data_PCOD9422277
_publ_section_title
;
Structure prediction by ZEFSAII (Michael W. Deem and Ramdas Pophale) SiO2 
 PCOD9422277
Probable space group: P C C A
;
_chemical_formula_sum "Si O2"
_cell_formula_units_Z 64
_cell_length_a 12.541597
_cell_length_b 16.371150
_cell_length_c 14.085673
_cell_angle_alpha 90.000000
_cell_angle_beta 90.000000
_cell_angle_gamma 90.000000
_cell_volume 2892.075532
_symmetry_space_group_name_H-M "P C C A"
_symmetry_group_IT_number 54
_symmetry_cell_setting 'orthorhombic'
loop_
_space_group_symop_operation_xyz
x,y,z
1/2-x,-y,z
1/2+x,-y,1/2-z
-x,y,1/2-z
-x,-y,-z
1/2+x,y,-z
1/2-x,y,1/2+z
x,-y,1/2+z
loop_
_atom_site_type_symbol
_atom_site_label
_atom_site_fract_x
_atom_site_fract_y
_atom_site_fract_z
Si Si1 0.305971 0.913558 0.635781
Si Si2 0.127459 0.782094 0.620696
Si Si3 0.112857 0.210765 0.789581
Si Si4 0.950494 0.461468 0.905609
Si Si5 0.685345 0.305108 0.465524
Si Si6 0.020276 0.831206 0.038804
Si Si7 0.325930 0.703207 0.310276
Si Si8 0.867461 0.480302 0.218355
O O1 0.208241 0.856584 0.603173
O O2 0.349423 0.869202 0.731045
O O3 0.407526 0.910825 0.562798
O O4 0.250000 0.000000 0.651373
O O5 0.194944 0.706213 0.574866
O O6 0.020465 0.806601 0.565524
O O7 0.118731 0.761886 0.732350
O O8 0.083671 0.179804 0.895252
O O9 0.201609 0.281051 0.781486
O O10 0.000000 0.240228 0.750000
O O11 0.878790 0.511953 0.831510
O O12 0.055539 0.457638 0.837875
O O13 0.875428 0.387722 0.938420
O O14 0.000000 0.500000 0.000000
O O15 0.605425 0.236370 0.426794
O O16 0.683281 0.285911 0.577217
O O17 0.381892 0.615240 0.302263
O O18 0.750000 0.500000 0.185781
#
# Coordination Sequence:
#
# PCOD9422277 Si02
#       8
#     8   8   8   8   8   8   8   8
#     4   9  20  40  65  97 140 175 220 283 339 420
#     4  10  22  39  66 102 134 177 233 285 353 428
#     4   9  19  39  69 100 126 175 237 280 342 415
#     4  11  25  45  63  95 136 183 242 300 375 432
#     4  11  23  42  67  97 134 182 238 304 355 422
#     4  10  21  37  68  98 133 180 231 282 346 420
#     4  11  22  41  68  94 135 180 232 305 354 427
#     4  11  26  43  64  95 135 183 241 302 372 443
#
# _framework density 22.129436999999999
#
# number of rings (size 3 to 8) (size 9 to 14) (size 15 to 20)
#    0.000    1.750    2.500    1.500    3.500    1.500 
#    4.500    0.625   16.500    0.000    0.000    0.000 
#    0.000    0.000    0.000    0.000    0.000    0.000 
#
# Total GULP energy -356357.799922 kJ/mol
# GULP energy per Si atom -5568.090624 kJ/mol
# Density = 2.207907 g / cm^3
# Si number density = 22.129437 Si / 1000 Ang^3
#
#
#
# Elastic Constant Matrix: (Units=GPa)
#
#
# Indices 1 2 3 4 5 6 
#
# 1 103.9192 14.6711 19.4326 0.0000 0.0000 0.0000
# 2 14.6711 43.2086 18.1384 0.0000 0.0000 0.0000
# 3 19.4326 18.1384 128.4909 0.0000 0.0000 0.0000
# 4 0.0000 0.0000 0.0000 10.3860 0.0000 0.0000
# 5 0.0000 0.0000 0.0000 0.0000 36.5359 0.0000
# 6 0.0000 0.0000 0.0000 0.0000 0.0000 34.4183
#
#
#
# Elastic Compliance Matrix: (Units=1/GPa)
#
#
# Indices 1 2 3 4 5 6 
#
# 1 0.010259 -0.003010 -0.001127 0.000000 0.000000 0.000000
# 2 -0.003010 0.025485 -0.003142 0.000000 0.000000 0.000000
# 3 -0.001127 -0.003142 0.008397 0.000000 0.000000 0.000000
# 4 0.000000 0.000000 0.000000 0.096284 0.000000 0.000000
# 5 0.000000 0.000000 0.000000 0.000000 0.027370 0.000000
# 6 0.000000 0.000000 0.000000 0.000000 0.000000 0.029054
#
#
# Mechanical properties :
#
#
# Convention : Reuss Voigt Hill
#
# Bulk Modulus (GPa) = 33.80472 42.23368 38.01920
# Shear Modulus (GPa) = 22.59712 31.15982 26.87847
#
# Velocity S-wave (km/s) = 3.19899 3.75650 3.48890
# Velocity P-wave (km/s) = 5.38087 6.15965 5.78338
#
# Compressibility (1/GPa) = 0.02958167
#
# Stress axis : x y z
#
# Youngs Moduli (GPa) = 97.48010 39.23911 119.09578
#
# Poissons Ratio (x) = 0.11812 0.13416
# Poissons Ratio (y) = 0.29344 0.37423
# Poissons Ratio (z) = 0.10981 0.12330
#
# Static dielectric constant tensor:
#      x y z
#    x 1.869490 0.000000 0.000000 
#    y 0.000000 1.856690 0.000000 
#    z 0.000000 0.000000 1.903240 
# 
# From -- ./inp_files/12830.got.cif
#   From: 2010.05.17/outbox.cif.g08.bks.cpg/sg54_7_cif.got.tgz:12830.got - 2010.06.03 13:09:01.
