data_PCOD9422270
_publ_section_title
;
Structure prediction by ZEFSAII (Michael W. Deem and Ramdas Pophale) SiO2 
 PCOD9422270
Probable space group: P C C A
;
_chemical_formula_sum "Si O2"
_cell_formula_units_Z 64
_cell_length_a 17.004506
_cell_length_b 16.111554
_cell_length_c 10.706835
_cell_angle_alpha 90.000000
_cell_angle_beta 90.000000
_cell_angle_gamma 90.000000
_cell_volume 2933.341057
_symmetry_space_group_name_H-M "P C C A"
_symmetry_group_IT_number 54
_symmetry_cell_setting 'orthorhombic'
loop_
_space_group_symop_operation_xyz
x,y,z
1/2-x,-y,z
1/2+x,-y,1/2-z
-x,y,1/2-z
-x,-y,-z
1/2+x,y,-z
1/2-x,y,1/2+z
x,-y,1/2+z
loop_
_atom_site_type_symbol
_atom_site_label
_atom_site_fract_x
_atom_site_fract_y
_atom_site_fract_z
Si Si1 0.691069 0.822573 0.879268
Si Si2 0.569127 0.697248 0.997360
Si Si3 0.398376 0.738210 0.014338
Si Si4 0.353418 0.085694 0.564314
Si Si5 0.217204 0.681064 0.314146
Si Si6 0.840936 0.028230 0.707261
Si Si7 0.384283 0.627147 0.255933
Si Si8 0.087763 0.434696 0.704637
O O1 0.629282 0.773878 0.969337
O O2 0.761430 0.880934 0.933635
O O3 0.726007 0.747348 0.797418
O O4 0.650566 0.883110 0.777105
O O5 0.595745 0.612645 0.927482
O O6 0.481660 0.719044 0.949567
O O7 0.561073 0.671632 0.141732
O O8 0.403569 0.831406 0.061671
O O9 0.385109 0.676451 0.127767
O O10 0.321183 0.730135 0.928328
O O11 0.368347 0.035531 0.435925
O O12 0.372704 0.036171 0.690196
O O13 0.300228 0.637056 0.324936
O O14 0.152544 0.611660 0.286326
O O15 0.750000 0.000000 0.697369
O O16 0.400434 0.532564 0.219035
O O17 0.000000 0.418253 0.750000
#
# Coordination Sequence:
#
# PCOD9422270 Si02
#       8
#     8   8   8   8   8   8   8   8
#     4  10  21  41  69  97 133 175 232 287 340 423
#     4  11  26  44  69 101 137 186 237 289 358 435
#     4  12  24  44  71  97 141 188 230 288 357 434
#     4  11  22  41  69 102 140 177 236 291 352 423
#     4  11  23  43  68 101 131 179 236 291 344 413
#     4  10  21  37  65 103 134 178 225 291 350 417
#     4  12  27  43  67 101 140 182 238 297 356 408
#     4  11  24  45  68  97 137 185 233 289 351 421
#
# _framework density 21.818124999999998
#
# number of rings (size 3 to 8) (size 9 to 14) (size 15 to 20)
#    0.000    1.000    3.750    3.375    3.500    2.000 
#    0.000    0.625    0.000    3.000    0.000    0.000 
#    0.000    0.000    0.000    0.000    0.000    0.000 
#
# Total GULP energy -357215.812944 kJ/mol
# GULP energy per Si atom -5581.497077 kJ/mol
# Density = 2.176847 g / cm^3
# Si number density = 21.818125 Si / 1000 Ang^3
#
#
#
# Elastic Constant Matrix: (Units=GPa)
#
#
# Indices 1 2 3 4 5 6 
#
# 1 81.7221 20.9517 6.5278 0.0000 0.0000 0.0000
# 2 20.9517 110.8625 39.2298 0.0000 0.0000 0.0000
# 3 6.5278 39.2298 85.5308 0.0000 0.0000 0.0000
# 4 0.0000 0.0000 0.0000 30.8255 0.0000 0.0000
# 5 0.0000 0.0000 0.0000 0.0000 15.3066 0.0000
# 6 0.0000 0.0000 0.0000 0.0000 0.0000 14.2006
#
#
#
# Elastic Compliance Matrix: (Units=1/GPa)
#
#
# Indices 1 2 3 4 5 6 
#
# 1 0.012861 -0.002487 0.000159 0.000000 0.000000 0.000000
# 2 -0.002487 0.011249 -0.004970 0.000000 0.000000 0.000000
# 3 0.000159 -0.004970 0.013959 0.000000 0.000000 0.000000
# 4 0.000000 0.000000 0.000000 0.032441 0.000000 0.000000
# 5 0.000000 0.000000 0.000000 0.000000 0.065331 0.000000
# 6 0.000000 0.000000 0.000000 0.000000 0.000000 0.070420
#
#
# Mechanical properties :
#
#
# Convention : Reuss Voigt Hill
#
# Bulk Modulus (GPa) = 42.59992 45.72599 44.16295
# Shear Modulus (GPa) = 21.86457 26.16026 24.01241
#
# Velocity S-wave (km/s) = 3.16908 3.46644 3.32109
# Velocity P-wave (km/s) = 5.74092 6.08481 5.91536
#
# Compressibility (1/GPa) = 0.02347422
#
# Stress axis : x y z
#
# Youngs Moduli (GPa) = 77.75149 88.89897 71.63879
#
# Poissons Ratio (x) = 0.22109 -0.01140
# Poissons Ratio (y) = 0.19336 0.35601
# Poissons Ratio (z) = -0.01237 0.44179
#
# Static dielectric constant tensor:
#      x y z
#    x 1.851000 0.000000 0.000000 
#    y 0.000000 1.775690 0.000000 
#    z 0.000000 0.000000 1.847380 
# 
# From -- ./inp_files/9086.got.cif
#   From: 2010.05.17/outbox.cif.g08.bks.cpg/sg54_5_cif.got.tgz:9086.got - 2010.06.03 13:09:01.
