data_PCOD9422095
_publ_section_title
;
Structure prediction by ZEFSAII (Michael W. Deem and Ramdas Pophale) SiO2 
 PCOD9422095
Probable space group: P C C A
;
_chemical_formula_sum "Si O2"
_cell_formula_units_Z 60
_cell_length_a 8.961129
_cell_length_b 18.599025
_cell_length_c 18.230749
_cell_angle_alpha 90.000000
_cell_angle_beta 90.000000
_cell_angle_gamma 90.000000
_cell_volume 3038.487256
_symmetry_space_group_name_H-M "P C C A"
_symmetry_group_IT_number 54
_symmetry_cell_setting 'orthorhombic'
loop_
_space_group_symop_operation_xyz
x,y,z
1/2-x,-y,z
1/2+x,-y,1/2-z
-x,y,1/2-z
-x,-y,-z
1/2+x,y,-z
1/2-x,y,1/2+z
x,-y,1/2+z
loop_
_atom_site_type_symbol
_atom_site_label
_atom_site_fract_x
_atom_site_fract_y
_atom_site_fract_z
Si Si1 0.264413 0.189798 0.570924
Si Si2 0.493083 0.900051 0.970208
Si Si3 0.250000 0.000000 0.456192
Si Si4 0.366368 0.285468 0.701046
Si Si5 0.296738 0.320337 0.460637
Si Si6 0.573791 0.517213 0.674076
Si Si7 0.608255 0.683393 0.691494
Si Si8 0.511231 0.605924 0.420865
O O1 0.101833 0.154032 0.571612
O O2 0.396887 0.139222 0.535659
O O3 0.304301 0.222298 0.649736
O O4 0.253549 0.257140 0.515595
O O5 0.362998 0.940128 0.923304
O O6 0.622749 0.954540 0.000255
O O7 0.500000 0.256274 0.750000
O O8 0.257446 0.320236 0.760916
O O9 0.417241 0.347198 0.644624
O O10 0.369324 0.284752 0.388565
O O11 0.399960 0.375220 0.505583
O O12 0.154225 0.363621 0.432643
O O13 0.750000 0.500000 0.674225
O O14 0.500000 0.490937 0.750000
O O15 0.552018 0.602824 0.673174
O O16 0.498444 0.475469 0.606727
O O17 0.500000 0.720037 0.750000
#
# Coordination Sequence:
#
# PCOD9422095 Si02
#       8
#     8   8   4   8   8   8   8   8
#     4  10  21  32  59  88 125 153 198 243 301 348
#     4   9  17  33  55  94 128 159 195 235 278 337
#     4   8  16  32  58  88 136 158 192 234 272 316
#     4  11  21  40  60  81 116 161 195 254 310 370
#     4  11  23  39  57  84 123 155 190 258 315 365
#     4  11  21  41  60  80 103 147 204 256 303 389
#     4  11  25  38  59  82 110 151 205 252 313 370
#     4  11  23  39  60  80 112 153 197 252 327 362
#
# _framework density 19.746670000000002
#
# number of rings (size 3 to 8) (size 9 to 14) (size 15 to 20)
#    0.000    1.600    2.667    2.800    5.600    0.533 
#    0.000    0.000    0.000    0.000    0.000    5.600 
#    0.000    0.000    0.000    0.000    0.000    0.000 
#
# Total GULP energy -334357.442659 kJ/mol
# GULP energy per Si atom -5572.624044 kJ/mol
# Density = 1.970173 g / cm^3
# Si number density = 19.746670 Si / 1000 Ang^3
#
#
#
# Elastic Constant Matrix: (Units=GPa)
#
#
# Indices 1 2 3 4 5 6 
#
# 1 109.3562 35.4527 45.4563 0.0000 0.0000 0.0000
# 2 35.4527 66.1837 26.4167 0.0000 0.0000 0.0000
# 3 45.4563 26.4167 121.1255 0.0000 0.0000 0.0000
# 4 0.0000 0.0000 0.0000 19.8348 0.0000 0.0000
# 5 0.0000 0.0000 0.0000 0.0000 33.4531 0.0000
# 6 0.0000 0.0000 0.0000 0.0000 0.0000 50.1098
#
#
#
# Elastic Compliance Matrix: (Units=1/GPa)
#
#
# Indices 1 2 3 4 5 6 
#
# 1 0.012270 -0.005186 -0.003474 0.000000 0.000000 0.000000
# 2 -0.005186 0.018742 -0.002141 0.000000 0.000000 0.000000
# 3 -0.003474 -0.002141 0.010026 0.000000 0.000000 0.000000
# 4 0.000000 0.000000 0.000000 0.050416 0.000000 0.000000
# 5 0.000000 0.000000 0.000000 0.000000 0.029893 0.000000
# 6 0.000000 0.000000 0.000000 0.000000 0.000000 0.019956
#
#
# Mechanical properties :
#
#
# Convention : Reuss Voigt Hill
#
# Bulk Modulus (GPa) = 51.44970 56.81298 54.13134
# Shear Modulus (GPa) = 29.51874 33.30218 31.41046
#
# Velocity S-wave (km/s) = 3.87055 4.11112 3.99265
# Velocity P-wave (km/s) = 6.78869 7.16718 6.98050
#
# Compressibility (1/GPa) = 0.01943646
#
# Stress axis : x y z
#
# Youngs Moduli (GPa) = 81.50252 53.35564 99.73613
#
# Poissons Ratio (x) = 0.27670 0.34644
# Poissons Ratio (y) = 0.42267 0.21357
# Poissons Ratio (z) = 0.28310 0.11425
#
# Static dielectric constant tensor:
#      x y z
#    x 1.363710 0.000000 0.000000 
#    y 0.000000 1.764880 0.000000 
#    z 0.000000 0.000000 1.685190 
# 
# From -- ./inp_files/16825.got.cif
#   From: 2010.05.17/outbox.cif.g08.bks.cpg/sg54_9_cif.got.tgz:16825.got - 2010.06.03 13:09:01.
