data_PCOD9422604
_publ_section_title
;
Structure prediction by ZEFSAII (Michael W. Deem and Ramdas Pophale) SiO2 
 PCOD9422604
Probable space group: P C C A
;
_chemical_formula_sum "Si O2"
_cell_formula_units_Z 32
_cell_length_a 7.522794
_cell_length_b 5.305685
_cell_length_c 33.739025
_cell_angle_alpha 90.000000
_cell_angle_beta 90.000000
_cell_angle_gamma 90.000000
_cell_volume 1346.645114
_symmetry_space_group_name_H-M "P C C A"
_symmetry_group_IT_number 54
_symmetry_cell_setting 'orthorhombic'
loop_
_space_group_symop_operation_xyz
x,y,z
1/2-x,-y,z
1/2+x,-y,1/2-z
-x,y,1/2-z
-x,-y,-z
1/2+x,y,-z
1/2-x,y,1/2+z
x,-y,1/2+z
loop_
_atom_site_type_symbol
_atom_site_label
_atom_site_fract_x
_atom_site_fract_y
_atom_site_fract_z
Si Si1 0.958103 0.449322 0.953982
Si Si2 0.559958 0.789615 0.325848
Si Si3 0.463128 0.711379 0.705126
Si Si4 0.554344 0.936732 0.091317
O O1 0.750000 0.500000 0.947404
O O2 0.060384 0.672660 0.931622
O O3 0.998441 0.169734 0.937099
O O4 0.000000 0.500000 0.000000
O O5 0.472076 0.515281 0.322700
O O6 0.754613 0.749188 0.306308
O O7 0.567971 0.886135 0.370702
O O8 0.461999 0.010541 0.302165
O O9 0.500000 0.634239 0.750000
O O10 0.750000 0.000000 0.106669
#
# Coordination Sequence:
#
# PCOD9422604 Si02
#       4
#     8   8   8   8
#     4  12  27  47  78 110 150 197 249 305 376 449
#     4  10  23  41  67  99 138 186 242 296 375 431
#     4  10  21  41  67  94 138 179 240 302 367 443
#     4  12  26  47  73 108 154 197 249 312 371 448
#
# _framework density 23.762758000000002
#
# number of rings (size 3 to 8) (size 9 to 14) (size 15 to 20)
#    0.000    1.000    0.000    6.000   10.500    0.000 
#   13.500    0.000    0.000    0.000    0.000    0.000 
#    0.000    0.000    0.000    0.000    0.000    0.000 
#
# Total GULP energy -178857.329736 kJ/mol
# GULP energy per Si atom -5589.291554 kJ/mol
# Density = 2.370867 g / cm^3
# Si number density = 23.762758 Si / 1000 Ang^3
#
#
#
# Elastic Constant Matrix: (Units=GPa)
#
#
# Indices 1 2 3 4 5 6 
#
# 1 92.5287 16.2733 25.5844 0.0000 0.0000 0.0000
# 2 16.2733 214.8247 48.4275 0.0000 0.0000 0.0000
# 3 25.5844 48.4275 155.7987 0.0000 0.0000 0.0000
# 4 0.0000 0.0000 0.0000 54.3658 0.0000 0.0000
# 5 0.0000 0.0000 0.0000 0.0000 42.2585 0.0000
# 6 0.0000 0.0000 0.0000 0.0000 0.0000 15.8711
#
#
#
# Elastic Compliance Matrix: (Units=1/GPa)
#
#
# Indices 1 2 3 4 5 6 
#
# 1 0.011366 -0.000473 -0.001719 0.000000 0.000000 0.000000
# 2 -0.000473 0.005025 -0.001484 0.000000 0.000000 0.000000
# 3 -0.001719 -0.001484 0.007162 0.000000 0.000000 0.000000
# 4 0.000000 0.000000 0.000000 0.018394 0.000000 0.000000
# 5 0.000000 0.000000 0.000000 0.000000 0.023664 0.000000
# 6 0.000000 0.000000 0.000000 0.000000 0.000000 0.063008
#
#
# Mechanical properties :
#
#
# Convention : Reuss Voigt Hill
#
# Bulk Modulus (GPa) = 61.72970 71.52472 66.62721
# Shear Modulus (GPa) = 35.36734 47.35686 41.36210
#
# Velocity S-wave (km/s) = 3.86210 4.46904 4.17661
# Velocity P-wave (km/s) = 6.77655 7.53622 7.16646
#
# Compressibility (1/GPa) = 0.01619966
#
# Stress axis : x y z
#
# Youngs Moduli (GPa) = 87.98080 198.98795 139.62082
#
# Poissons Ratio (x) = 0.09420 0.24005
# Poissons Ratio (y) = 0.04165 0.20724
# Poissons Ratio (z) = 0.15127 0.29536
#
# Static dielectric constant tensor:
#      x y z
#    x -16.342950 0.000000 0.000000 
#    y 0.000000 1.975580 0.000000 
#    z 0.000000 0.000000 1.916800 
# 
# From -- ./inp_files/27499.got.cif
#   From: 2010.05.17/outbox.cif.g08.bks.cpg/sg54_14_cif.got.tgz:27499.got - 2010.06.03 13:09:01.
