data_PCOD9422819
_publ_section_title
;
Structure prediction by ZEFSAII (Michael W. Deem and Ramdas Pophale) SiO2 
 PCOD9422819
Probable space group: P C C A
;
_chemical_formula_sum "Si O2"
_cell_formula_units_Z 40
_cell_length_a 5.766301
_cell_length_b 10.620303
_cell_length_c 31.102209
_cell_angle_alpha 90.000000
_cell_angle_beta 90.000000
_cell_angle_gamma 90.000000
_cell_volume 1904.695043
_symmetry_space_group_name_H-M "P C C A"
_symmetry_group_IT_number 54
_symmetry_cell_setting 'orthorhombic'
loop_
_space_group_symop_operation_xyz
x,y,z
1/2-x,-y,z
1/2+x,-y,1/2-z
-x,y,1/2-z
-x,-y,-z
1/2+x,y,-z
1/2-x,y,1/2+z
x,-y,1/2+z
loop_
_atom_site_type_symbol
_atom_site_label
_atom_site_fract_x
_atom_site_fract_y
_atom_site_fract_z
Si Si1 0.750000 0.500000 0.367323
Si Si2 0.150955 0.336939 0.822256
Si Si3 0.000000 0.683169 0.750000
Si Si4 0.523609 0.746749 0.391250
Si Si5 0.715480 0.857478 0.813342
Si Si6 0.513602 0.146279 0.515933
O O1 0.550242 0.435509 0.337020
O O2 0.661395 0.615190 0.396306
O O3 0.307532 0.376451 0.781560
O O4 0.305334 0.302896 0.863670
O O5 0.037530 0.202281 0.810550
O O6 0.137592 0.768420 0.716941
O O7 0.682716 0.834004 0.360880
O O8 0.464595 0.824611 0.433508
O O9 0.750000 0.000000 0.800852
O O10 0.256764 0.197922 0.503446
O O11 0.500000 0.000000 0.500000
#
# Coordination Sequence:
#
# PCOD9422819 Si02
#       6
#     4   8   4   8   8   8
#     4  10  22  44  74  92 134 184 246 288 348 426
#     4  10  22  42  69  96 134 181 237 291 351 414
#     4  10  22  38  62 100 136 172 226 292 348 408
#     4  10  23  42  70  97 136 183 229 286 349 426
#     4  10  23  36  66  94 135 178 226 275 348 418
#     4  10  24  42  70 108 148 177 225 289 359 432
#
# _framework density 21.000737000000001
#
# number of rings (size 3 to 8) (size 9 to 14) (size 15 to 20)
#    0.000    2.000    0.000    1.200   11.200    4.000 
#    0.000    1.000  158.400    0.000    0.000    0.000 
#    0.000    0.000    0.000    0.000    0.000    0.000 
#
# Total GULP energy -222922.166059 kJ/mol
# GULP energy per Si atom -5573.054151 kJ/mol
# Density = 2.095294 g / cm^3
# Si number density = 21.000737 Si / 1000 Ang^3
#
#
#
# Elastic Constant Matrix: (Units=GPa)
#
#
# Indices 1 2 3 4 5 6 
#
# 1 126.5904 32.2552 41.9792 0.0000 0.0000 0.0000
# 2 32.2552 113.2944 40.2521 0.0000 0.0000 0.0000
# 3 41.9792 40.2521 123.0917 0.0000 0.0000 0.0000
# 4 0.0000 0.0000 0.0000 -0.5575 0.0000 0.0000
# 5 0.0000 0.0000 0.0000 0.0000 8.0366 0.0000
# 6 0.0000 0.0000 0.0000 0.0000 0.0000 6.1723
#
#
#
# Elastic Compliance Matrix: (Units=1/GPa)
#
#
# Indices 1 2 3 4 5 6 
#
# 1 0.009187 -0.001700 -0.002577 0.000000 0.000000 0.000000
# 2 -0.001700 0.010301 -0.002789 0.000000 0.000000 0.000000
# 3 -0.002577 -0.002789 0.009915 0.000000 0.000000 0.000000
# 4 0.000000 0.000000 0.000000 -1.793829 0.000000 0.000000
# 5 0.000000 0.000000 0.000000 0.000000 0.124431 0.000000
# 6 0.000000 0.000000 0.000000 0.000000 0.000000 0.162015
#
#
# Mechanical properties :
#
#
# Convention : Reuss Voigt Hill
#
# Bulk Modulus (GPa) = 65.48217 65.77215 65.62716
# Shear Modulus (GPa) = -3.42758 19.29628 7.93435
#
# Velocity S-wave (km/s) = -1.27893 3.03452 1.94585
# Velocity P-wave (km/s) = 5.39145 6.60793 6.03044
#
# Compressibility (1/GPa) = 0.01527133
#
# Stress axis : x y z
#
# Youngs Moduli (GPa) = 108.84558 97.07408 100.85729
#
# Poissons Ratio (x) = 0.16502 0.25994
# Poissons Ratio (y) = 0.18503 0.28128
# Poissons Ratio (z) = 0.28053 0.27073
#
# Static dielectric constant tensor:
#      x y z
#    x 1.960980 0.000000 0.000000 
#    y 0.000000 1.758290 0.000000 
#    z 0.000000 0.000000 1.753770 
# 
# From -- ./inp_files/25196.got.cif
#   From: 2010.05.17/outbox.cif.g08.bks.cpg/sg54_13_cif.got.tgz:25196.got - 2010.06.03 13:09:01.
