data_PCOD9422518
_publ_section_title
;
Structure prediction by ZEFSAII (Michael W. Deem and Ramdas Pophale) SiO2 
 PCOD9422518
Probable space group: P C C A
;
_chemical_formula_sum "Si O2"
_cell_formula_units_Z 40
_cell_length_a 8.251406
_cell_length_b 11.565704
_cell_length_c 19.230241
_cell_angle_alpha 90.000000
_cell_angle_beta 90.000000
_cell_angle_gamma 90.000000
_cell_volume 1835.205731
_symmetry_space_group_name_H-M "P C C A"
_symmetry_group_IT_number 54
_symmetry_cell_setting 'orthorhombic'
loop_
_space_group_symop_operation_xyz
x,y,z
1/2-x,-y,z
1/2+x,-y,1/2-z
-x,y,1/2-z
-x,-y,-z
1/2+x,y,-z
1/2-x,y,1/2+z
x,-y,1/2+z
loop_
_atom_site_type_symbol
_atom_site_label
_atom_site_fract_x
_atom_site_fract_y
_atom_site_fract_z
Si Si1 0.578683 0.633829 0.325871
Si Si2 0.537615 0.264752 0.959384
Si Si3 0.433754 0.748787 0.675039
Si Si4 0.427366 0.438569 0.417782
Si Si5 0.337986 0.119886 0.051533
O O1 0.500000 0.618158 0.250000
O O2 0.489066 0.722732 0.378884
O O3 0.763076 0.678013 0.317640
O O4 0.551186 0.521926 0.375307
O O5 0.726522 0.234576 0.957772
O O6 0.520186 0.378425 0.008679
O O7 0.466864 0.149560 0.993228
O O8 0.500000 0.775108 0.750000
O O9 0.565701 0.672607 0.633054
O O10 0.404926 0.862254 0.628722
O O11 0.250000 0.500000 0.421611
O O12 0.250000 0.000000 0.043389
#
# Coordination Sequence:
#
# PCOD9422518 Si02
#       5
#     8   8   8   8   8
#     4  11  22  37  58  87 124 163 195 235 299 371
#     4  10  22  38  60  89 120 152 202 257 298 361
#     4  10  22  39  58  87 125 160 199 249 297 362
#     4  11  21  36  60  87 118 158 197 240 299 365
#     4  10  21  40  64  88 116 157 206 259 313 355
#
# _framework density 21.795921
#
# number of rings (size 3 to 8) (size 9 to 14) (size 15 to 20)
#    0.000    1.600    0.000    4.800    0.000    4.800 
#    0.000    4.000    0.000    6.000    0.000    0.000 
#    0.000    0.000    0.000    0.000    0.000    0.000 
#
# Total GULP energy -222768.902062 kJ/mol
# GULP energy per Si atom -5569.222552 kJ/mol
# Density = 2.174631 g / cm^3
# Si number density = 21.795921 Si / 1000 Ang^3
#
#
#
# Elastic Constant Matrix: (Units=GPa)
#
#
# Indices 1 2 3 4 5 6 
#
# 1 77.2170 39.0138 45.3889 0.0000 0.0000 0.0000
# 2 39.0138 92.2978 56.6239 0.0000 0.0000 0.0000
# 3 45.3889 56.6239 201.9725 0.0000 0.0000 0.0000
# 4 0.0000 0.0000 0.0000 9.0980 0.0000 0.0000
# 5 0.0000 0.0000 0.0000 0.0000 23.0129 0.0000
# 6 0.0000 0.0000 0.0000 0.0000 0.0000 23.9471
#
#
#
# Elastic Compliance Matrix: (Units=1/GPa)
#
#
# Indices 1 2 3 4 5 6 
#
# 1 0.017249 -0.005934 -0.002213 0.000000 0.000000 0.000000
# 2 -0.005934 0.015126 -0.002907 0.000000 0.000000 0.000000
# 3 -0.002213 -0.002907 0.006264 0.000000 0.000000 0.000000
# 4 0.000000 0.000000 0.000000 0.109914 0.000000 0.000000
# 5 0.000000 0.000000 0.000000 0.000000 0.043454 0.000000
# 6 0.000000 0.000000 0.000000 0.000000 0.000000 0.041759
#
#
# Mechanical properties :
#
#
# Convention : Reuss Voigt Hill
#
# Bulk Modulus (GPa) = 60.49061 72.61563 66.55312
# Shear Modulus (GPa) = 19.12895 26.57563 22.85229
#
# Velocity S-wave (km/s) = 2.96571 3.49563 3.24152
# Velocity P-wave (km/s) = 6.28814 7.04848 6.67914
#
# Compressibility (1/GPa) = 0.01653149
#
# Stress axis : x y z
#
# Youngs Moduli (GPa) = 57.97374 66.11074 159.65454
#
# Poissons Ratio (x) = 0.39227 0.35330
# Poissons Ratio (y) = 0.34399 0.46415
# Poissons Ratio (z) = 0.12829 0.19220
#
# Static dielectric constant tensor:
#      x y z
#    x 1.877910 0.000000 0.000000 
#    y 0.000000 1.850830 0.000000 
#    z 0.000000 0.000000 1.861560 
# 
# From -- ./inp_files/16283.got.cif
#   From: 2010.05.17/outbox.cif.g08.bks.cpg/sg54_9_cif.got.tgz:16283.got - 2010.06.03 13:09:01.
