data_PCOD9422369
_publ_section_title
;
Structure prediction by ZEFSAII (Michael W. Deem and Ramdas Pophale) SiO2 
 PCOD9422369
Probable space group: P C C A
;
_chemical_formula_sum "Si O2"
_cell_formula_units_Z 32
_cell_length_a 5.403726
_cell_length_b 8.303783
_cell_length_c 29.374462
_cell_angle_alpha 90.000000
_cell_angle_beta 90.000000
_cell_angle_gamma 90.000000
_cell_volume 1318.072297
_symmetry_space_group_name_H-M "P C C A"
_symmetry_group_IT_number 54
_symmetry_cell_setting 'orthorhombic'
loop_
_space_group_symop_operation_xyz
x,y,z
1/2-x,-y,z
1/2+x,-y,1/2-z
-x,y,1/2-z
-x,-y,-z
1/2+x,y,-z
1/2-x,y,1/2+z
x,-y,1/2+z
loop_
_atom_site_type_symbol
_atom_site_label
_atom_site_fract_x
_atom_site_fract_y
_atom_site_fract_z
Si Si1 0.400566 0.840251 0.699527
Si Si2 0.386286 0.165881 0.397589
Si Si3 0.250000 0.500000 0.173624
Si Si4 0.250000 0.500000 0.885312
Si Si5 0.223001 0.810590 0.022162
O O1 0.500000 0.864819 0.750000
O O2 0.589059 0.830643 0.657117
O O3 0.258370 0.669137 0.700311
O O4 0.250000 0.000000 0.687729
O O5 0.247334 0.329739 0.410534
O O6 0.646707 0.186483 0.424349
O O7 0.250000 0.000000 0.410308
O O8 0.498581 0.501764 0.143963
O O9 0.250000 0.000000 0.010956
O O10 0.481559 0.742310 0.003980
#
# Coordination Sequence:
#
# PCOD9422369 Si02
#       5
#     8   8   4   4   8
#     4  11  24  40  65  99 133 172 220 266 320 388
#     4  11  22  41  68  94 131 174 212 269 329 376
#     4  10  24  45  66  91 132 176 214 267 322 375
#     4  10  24  43  66  99 128 166 224 263 316 399
#     4  10  21  38  64  96 126 166 218 264 320 390
#
# _framework density 24.277878999999999
#
# number of rings (size 3 to 8) (size 9 to 14) (size 15 to 20)
#    0.000    1.500    0.000    5.250    0.000   13.000 
#    0.000    1.250    0.000    0.000    0.000    1.750 
#    0.000    0.000    0.000    0.000    0.000    0.000 
#
# Total GULP energy -178655.933344 kJ/mol
# GULP energy per Si atom -5582.997917 kJ/mol
# Density = 2.422262 g / cm^3
# Si number density = 24.277879 Si / 1000 Ang^3
#
#
#
# Elastic Constant Matrix: (Units=GPa)
#
#
# Indices 1 2 3 4 5 6 
#
# 1 119.2381 16.6220 19.7581 0.0000 0.0000 0.0000
# 2 16.6220 181.3907 -12.2416 0.0000 0.0000 0.0000
# 3 19.7581 -12.2416 123.3813 0.0000 0.0000 0.0000
# 4 0.0000 0.0000 0.0000 -2.6554 0.0000 0.0000
# 5 0.0000 0.0000 0.0000 0.0000 31.6544 0.0000
# 6 0.0000 0.0000 0.0000 0.0000 0.0000 29.5881
#
#
#
# Elastic Compliance Matrix: (Units=1/GPa)
#
#
# Indices 1 2 3 4 5 6 
#
# 1 0.008760 -0.000903 -0.001492 0.000000 0.000000 0.000000
# 2 -0.000903 0.005643 0.000705 0.000000 0.000000 0.000000
# 3 -0.001492 0.000705 0.008414 0.000000 0.000000 0.000000
# 4 0.000000 0.000000 0.000000 -0.376586 0.000000 0.000000
# 5 0.000000 0.000000 0.000000 0.000000 0.031591 0.000000
# 6 0.000000 0.000000 0.000000 0.000000 0.000000 0.033797
#
#
# Mechanical properties :
#
#
# Convention : Reuss Voigt Hill
#
# Bulk Modulus (GPa) = 51.45504 52.47634 51.96569
# Shear Modulus (GPa) = -17.95205 38.37553 10.21174
#
# Velocity S-wave (km/s) = -2.72222 3.98009 2.05313
# Velocity P-wave (km/s) = 3.37040 6.54089 5.20302
#
# Compressibility (1/GPa) = 0.01943444
#
# Stress axis : x y z
#
# Youngs Moduli (GPa) = 114.15757 177.20127 118.85154
#
# Poissons Ratio (x) = 0.16009 0.17738
# Poissons Ratio (y) = 0.10313 -0.08374
# Poissons Ratio (z) = 0.17037 -0.12485
#
# Static dielectric constant tensor:
#      x y z
#    x 1.445490 0.000000 0.000000 
#    y 0.000000 2.006410 0.000000 
#    z 0.000000 0.000000 1.968910 
# 
# From -- ./inp_files/26973.got.cif
#   From: 2010.05.17/outbox.cif.g08.bks.cpg/sg54_14_cif.got.tgz:26973.got - 2010.06.03 13:09:01.
