data_PCOD9422753
_publ_section_title
;
Structure prediction by ZEFSAII (Michael W. Deem and Ramdas Pophale) SiO2 
 PCOD9422753
Probable space group: P C C A
;
_chemical_formula_sum "Si O2"
_cell_formula_units_Z 64
_cell_length_a 27.671440
_cell_length_b 11.161857
_cell_length_c 9.721399
_cell_angle_alpha 90.000000
_cell_angle_beta 90.000000
_cell_angle_gamma 90.000000
_cell_volume 3002.596561
_symmetry_space_group_name_H-M "P C C A"
_symmetry_group_IT_number 54
_symmetry_cell_setting 'orthorhombic'
loop_
_space_group_symop_operation_xyz
x,y,z
1/2-x,-y,z
1/2+x,-y,1/2-z
-x,y,1/2-z
-x,-y,-z
1/2+x,y,-z
1/2-x,y,1/2+z
x,-y,1/2+z
loop_
_atom_site_type_symbol
_atom_site_label
_atom_site_fract_x
_atom_site_fract_y
_atom_site_fract_z
Si Si1 0.610536 0.088134 0.794883
Si Si2 0.195759 0.516957 0.113342
Si Si3 0.621041 0.677736 0.474654
Si Si4 0.889697 0.866979 0.482133
Si Si5 0.277905 0.881655 0.200441
Si Si6 0.283723 0.764737 0.471678
Si Si7 0.968760 0.469358 0.366614
Si Si8 0.104160 0.654011 0.222364
O O1 0.608818 0.211305 0.877938
O O2 0.593116 0.107156 0.638208
O O3 0.668017 0.072779 0.794727
O O4 0.593289 0.974624 0.882998
O O5 0.250000 0.500000 0.172932
O O6 0.171217 0.395106 0.053221
O O7 0.152323 0.571659 0.205150
O O8 0.204792 0.626961 0.006615
O O9 0.578599 0.587798 0.433929
O O10 0.614563 0.716885 0.632496
O O11 0.831516 0.845180 0.496431
O O12 0.903016 0.743790 0.405250
O O13 0.271776 0.778683 0.312869
O O14 0.250000 0.000000 0.241848
O O15 0.258423 0.826404 0.059744
O O16 0.944518 0.576437 0.277813
O O17 0.000000 0.400248 0.250000
O O18 0.000000 0.500000 0.500000
#
# Coordination Sequence:
#
# PCOD9422753 Si02
#       8
#     8   8   8   8   8   8   8   8
#     4  11  23  38  61  86 125 167 217 273 332 388
#     4  10  23  39  56  90 134 178 220 270 330 389
#     4  11  24  41  66  98 132 177 221 271 338 408
#     4  10  22  39  58  87 121 164 212 269 328 384
#     4  11  21  35  55  81 114 163 226 274 324 383
#     4  10  22  35  54  80 113 161 216 277 322 379
#     4  11  23  43  74 105 133 169 215 274 338 408
#     4  10  23  41  66  95 132 169 222 272 328 402
#
# _framework density 21.314883999999999
#
# number of rings (size 3 to 8) (size 9 to 14) (size 15 to 20)
#    0.000    1.500    2.500    1.875    3.500   10.500 
#    0.000    0.000    0.000    1.500    0.000    0.000 
#    0.000    0.000    0.000    0.000    0.000    0.000 
#
# Total GULP energy -356695.044339 kJ/mol
# GULP energy per Si atom -5573.360068 kJ/mol
# Density = 2.126637 g / cm^3
# Si number density = 21.314884 Si / 1000 Ang^3
#
#
#
# Elastic Constant Matrix: (Units=GPa)
#
#
# Indices 1 2 3 4 5 6 
#
# 1 68.4101 1.7596 3.4399 0.0000 0.0000 0.0000
# 2 1.7596 56.4401 13.4341 0.0000 0.0000 0.0000
# 3 3.4399 13.4341 103.6584 0.0000 0.0000 0.0000
# 4 0.0000 0.0000 0.0000 31.1325 0.0000 0.0000
# 5 0.0000 0.0000 0.0000 0.0000 27.1518 0.0000
# 6 0.0000 0.0000 0.0000 0.0000 0.0000 1.9212
#
#
#
# Elastic Compliance Matrix: (Units=1/GPa)
#
#
# Indices 1 2 3 4 5 6 
#
# 1 0.014649 -0.000352 -0.000441 0.000000 0.000000 0.000000
# 2 -0.000352 0.018290 -0.002359 0.000000 0.000000 0.000000
# 3 -0.000441 -0.002359 0.009967 0.000000 0.000000 0.000000
# 4 0.000000 0.000000 0.000000 0.032121 0.000000 0.000000
# 5 0.000000 0.000000 0.000000 0.000000 0.036830 0.000000
# 6 0.000000 0.000000 0.000000 0.000000 0.000000 0.520504
#
#
# Mechanical properties :
#
#
# Convention : Reuss Voigt Hill
#
# Bulk Modulus (GPa) = 27.31913 29.53066 28.42489
# Shear Modulus (GPa) = 7.68208 26.03277 16.85743
#
# Velocity S-wave (km/s) = 1.90050 3.49856 2.81530
# Velocity P-wave (km/s) = 4.20246 5.49586 4.89209
#
# Compressibility (1/GPa) = 0.03660438
#
# Stress axis : x y z
#
# Youngs Moduli (GPa) = 68.26441 54.67372 100.32722
#
# Poissons Ratio (x) = 0.01924 0.04420
# Poissons Ratio (y) = 0.02402 0.23665
# Poissons Ratio (z) = 0.03007 0.12896
#
# Static dielectric constant tensor:
#      x y z
#    x 1.743820 0.000000 0.000000 
#    y 0.000000 1.779790 0.000000 
#    z 0.000000 0.000000 1.811840 
# 
# From -- ./inp_files/5984.got.cif
#   From: 2010.05.17/outbox.cif.g08.bks.cpg/sg54_3_cif.got.tgz:5984.got - 2010.06.03 13:09:01.
