data_PCOD9422354
_publ_section_title
;
Structure prediction by ZEFSAII (Michael W. Deem and Ramdas Pophale) SiO2 
 PCOD9422354
Probable space group: P C C A
;
_chemical_formula_sum "Si O2"
_cell_formula_units_Z 48
_cell_length_a 7.820353
_cell_length_b 8.835323
_cell_length_c 30.459773
_cell_angle_alpha 90.000000
_cell_angle_beta 90.000000
_cell_angle_gamma 90.000000
_cell_volume 2104.628516
_symmetry_space_group_name_H-M "P C C A"
_symmetry_group_IT_number 54
_symmetry_cell_setting 'orthorhombic'
loop_
_space_group_symop_operation_xyz
x,y,z
1/2-x,-y,z
1/2+x,-y,1/2-z
-x,y,1/2-z
-x,-y,-z
1/2+x,y,-z
1/2-x,y,1/2+z
x,-y,1/2+z
loop_
_atom_site_type_symbol
_atom_site_label
_atom_site_fract_x
_atom_site_fract_y
_atom_site_fract_z
Si Si1 0.477280 0.668236 0.637456
Si Si2 0.960546 0.176637 0.952292
Si Si3 0.167843 0.337028 0.778250
Si Si4 0.883379 0.117274 0.284933
Si Si5 0.549722 0.169578 0.952089
Si Si6 0.935699 0.686834 0.861723
O O1 0.525311 0.729189 0.589284
O O2 0.595827 0.733024 0.676188
O O3 0.486208 0.487057 0.641938
O O4 0.272784 0.699309 0.641704
O O5 0.755354 0.168344 0.949801
O O6 0.020702 0.001934 0.950553
O O7 0.003903 0.237761 0.000613
O O8 0.250000 0.500000 0.787054
O O9 0.286950 0.238047 0.746164
O O10 0.000000 0.369840 0.750000
O O11 0.989007 0.205238 0.321905
O O12 0.000000 0.028463 0.250000
O O13 0.750000 0.000000 0.305296
O O14 0.497259 0.255989 0.908372
#
# Coordination Sequence:
#
# PCOD9422354 Si02
#       6
#     8   8   8   8   8   8
#     4  10  21  38  63  89 122 165 208 252 309 371
#     4   9  19  37  60  89 118 161 203 250 313 370
#     4  12  23  41  66  91 128 169 208 262 313 372
#     4  12  27  43  64  94 125 163 214 262 317 377
#     4   9  19  36  62  85 121 159 201 253 309 373
#     4  10  21  39  63  90 120 166 207 249 311 379
#
# _framework density 22.806874000000001
#
# number of rings (size 3 to 8) (size 9 to 14) (size 15 to 20)
#    0.000    1.667    1.667    3.000    4.667    0.667 
#    6.000    0.000    0.000    0.000    0.000    0.000 
#    0.000    0.000    0.000    0.000    0.000    0.000 
#
# Total GULP energy -268273.191325 kJ/mol
# GULP energy per Si atom -5589.024819 kJ/mol
# Density = 2.275496 g / cm^3
# Si number density = 22.806874 Si / 1000 Ang^3
#
#
#
# Elastic Constant Matrix: (Units=GPa)
#
#
# Indices 1 2 3 4 5 6 
#
# 1 35.9681 1.0907 25.1132 0.0000 0.0000 0.0000
# 2 1.0907 56.4092 44.9106 0.0000 0.0000 0.0000
# 3 25.1132 44.9106 201.1038 0.0000 0.0000 0.0000
# 4 0.0000 0.0000 0.0000 39.4782 0.0000 0.0000
# 5 0.0000 0.0000 0.0000 0.0000 37.9923 0.0000
# 6 0.0000 0.0000 0.0000 0.0000 0.0000 15.1070
#
#
#
# Elastic Compliance Matrix: (Units=1/GPa)
#
#
# Indices 1 2 3 4 5 6 
#
# 1 0.030872 0.003007 -0.004527 0.000000 0.000000 0.000000
# 2 0.003007 0.021854 -0.005256 0.000000 0.000000 0.000000
# 3 -0.004527 -0.005256 0.006712 0.000000 0.000000 0.000000
# 4 0.000000 0.000000 0.000000 0.025330 0.000000 0.000000
# 5 0.000000 0.000000 0.000000 0.000000 0.026321 0.000000
# 6 0.000000 0.000000 0.000000 0.000000 0.000000 0.066194
#
#
# Mechanical properties :
#
#
# Convention : Reuss Voigt Hill
#
# Bulk Modulus (GPa) = 21.79307 48.41225 35.10266
# Shear Modulus (GPa) = 24.25652 33.33993 28.79822
#
# Velocity S-wave (km/s) = 3.26477 3.82755 3.55730
# Velocity P-wave (km/s) = 4.87728 6.38800 5.68306
#
# Compressibility (1/GPa) = 0.04588614
#
# Stress axis : x y z
#
# Youngs Moduli (GPa) = 32.39205 45.75812 148.99567
#
# Poissons Ratio (x) = -0.13760 0.67446
# Poissons Ratio (y) = -0.09740 0.78312
# Poissons Ratio (z) = 0.14663 0.24050
#
# Static dielectric constant tensor:
#      x y z
#    x 1.931300 0.000000 0.000000 
#    y 0.000000 1.814090 0.000000 
#    z 0.000000 0.000000 1.855050 
# 
# From -- ./inp_files/27757.got.cif
#   From: 2010.05.17/outbox.cif.g08.bks.cpg/sg54_14_cif.got.tgz:27757.got - 2010.06.03 13:09:01.
