data_PCOD9422061
_publ_section_title
;
Structure prediction by ZEFSAII (Michael W. Deem and Ramdas Pophale) SiO2 
 PCOD9422061
Probable space group: P C C A
;
_chemical_formula_sum "Si O2"
_cell_formula_units_Z 36
_cell_length_a 15.589957
_cell_length_b 8.437020
_cell_length_c 12.969099
_cell_angle_alpha 90.000000
_cell_angle_beta 90.000000
_cell_angle_gamma 90.000000
_cell_volume 1705.861633
_symmetry_space_group_name_H-M "P C C A"
_symmetry_group_IT_number 54
_symmetry_cell_setting 'orthorhombic'
loop_
_space_group_symop_operation_xyz
x,y,z
1/2-x,-y,z
1/2+x,-y,1/2-z
-x,y,1/2-z
-x,-y,-z
1/2+x,y,-z
1/2-x,y,1/2+z
x,-y,1/2+z
loop_
_atom_site_type_symbol
_atom_site_label
_atom_site_fract_x
_atom_site_fract_y
_atom_site_fract_z
Si Si1 0.440596 0.640225 0.832951
Si Si2 0.500000 0.936789 0.750000
Si Si3 0.706249 0.329560 0.331067
Si Si4 0.161409 0.399785 0.446884
Si Si5 0.675935 0.120320 0.719873
O O1 0.500000 0.548232 0.750000
O O2 0.413519 0.038180 0.750721
O O3 0.355936 0.683308 0.766803
O O4 0.412710 0.528282 0.924585
O O5 0.512459 0.809753 0.655545
O O6 0.750000 0.500000 0.323839
O O7 0.658285 0.326677 0.439533
O O8 0.779425 0.198757 0.319769
O O9 0.250000 0.500000 0.440065
O O10 0.160597 0.262083 0.361501
O O11 0.750000 0.000000 0.679563
#
# Coordination Sequence:
#
# PCOD9422061 Si02
#       5
#     8   4   8   8   8
#     4  10  20  43  61  93 131 167 216 270 319 389
#     4  10  24  36  72  92 136 178 204 276 338 388
#     4  11  22  40  68  93 122 173 226 268 318 397
#     4  11  22  39  69  95 119 177 226 261 323 392
#     4  12  21  42  64  95 138 169 210 273 342 386
#
# _framework density 21.103705000000001
#
# number of rings (size 3 to 8) (size 9 to 14) (size 15 to 20)
#    0.667    0.444    6.667    0.000    1.556    1.778 
#    0.000    3.333    0.000    0.000    0.000    0.000 
#    0.000    0.000    0.000    0.000    0.000    0.000 
#
# Total GULP energy -200680.736809 kJ/mol
# GULP energy per Si atom -5574.464911 kJ/mol
# Density = 2.105567 g / cm^3
# Si number density = 21.103705 Si / 1000 Ang^3
#
#
#
# Elastic Constant Matrix: (Units=GPa)
#
#
# Indices 1 2 3 4 5 6 
#
# 1 130.6037 58.7419 28.7305 0.0000 0.0000 0.0000
# 2 58.7419 119.3526 39.7099 0.0000 0.0000 0.0000
# 3 28.7305 39.7099 81.2668 0.0000 0.0000 0.0000
# 4 0.0000 0.0000 0.0000 2.5928 0.0000 0.0000
# 5 0.0000 0.0000 0.0000 0.0000 24.6159 0.0000
# 6 0.0000 0.0000 0.0000 0.0000 0.0000 56.8584
#
#
#
# Elastic Compliance Matrix: (Units=1/GPa)
#
#
# Indices 1 2 3 4 5 6 
#
# 1 0.009955 -0.004452 -0.001344 0.000000 0.000000 0.000000
# 2 -0.004452 0.011997 -0.004288 0.000000 0.000000 0.000000
# 3 -0.001344 -0.004288 0.014875 0.000000 0.000000 0.000000
# 4 0.000000 0.000000 0.000000 0.385690 0.000000 0.000000
# 5 0.000000 0.000000 0.000000 0.000000 0.040624 0.000000
# 6 0.000000 0.000000 0.000000 0.000000 0.000000 0.017588
#
#
# Mechanical properties :
#
#
# Convention : Reuss Voigt Hill
#
# Bulk Modulus (GPa) = 60.02855 65.06530 62.54693
# Shear Modulus (GPa) = 9.87265 30.41614 20.14440
#
# Velocity S-wave (km/s) = 2.16525 3.80053 3.09292
# Velocity P-wave (km/s) = 5.89554 7.08215 6.51591
#
# Compressibility (1/GPa) = 0.01665874
#
# Stress axis : x y z
#
# Youngs Moduli (GPa) = 100.45257 83.35758 67.22505
#
# Poissons Ratio (x) = 0.37115 0.09034
# Poissons Ratio (y) = 0.44726 0.28825
# Poissons Ratio (z) = 0.13499 0.35742
#
# Static dielectric constant tensor:
#      x y z
#    x 1.845550 0.000000 0.000000 
#    y 0.000000 1.799110 0.000000 
#    z 0.000000 0.000000 1.783280 
# 
# From -- ./inp_files/13105.got.cif
#   From: 2010.05.17/outbox.cif.g08.bks.cpg/sg54_7_cif.got.tgz:13105.got - 2010.06.03 13:09:01.
