data_PCOD9422523
_publ_section_title
;
Structure prediction by ZEFSAII (Michael W. Deem and Ramdas Pophale) SiO2 
 PCOD9422523
Probable space group: P C C A
;
_chemical_formula_sum "Si O2"
_cell_formula_units_Z 40
_cell_length_a 8.005931
_cell_length_b 9.096863
_cell_length_c 24.966665
_cell_angle_alpha 90.000000
_cell_angle_beta 90.000000
_cell_angle_gamma 90.000000
_cell_volume 1818.293687
_symmetry_space_group_name_H-M "P C C A"
_symmetry_group_IT_number 54
_symmetry_cell_setting 'orthorhombic'
loop_
_space_group_symop_operation_xyz
x,y,z
1/2-x,-y,z
1/2+x,-y,1/2-z
-x,y,1/2-z
-x,-y,-z
1/2+x,y,-z
1/2-x,y,1/2+z
x,-y,1/2+z
loop_
_atom_site_type_symbol
_atom_site_label
_atom_site_fract_x
_atom_site_fract_y
_atom_site_fract_z
Si Si1 0.584418 0.106267 0.306653
Si Si2 0.952759 0.004767 0.419037
Si Si3 0.919510 0.665911 0.576277
Si Si4 0.415762 0.414787 0.138490
Si Si5 0.047176 0.714093 0.463173
O O1 0.500000 0.079331 0.250000
O O2 0.581603 0.283450 0.317932
O O3 0.750000 0.000000 0.306925
O O4 0.493982 0.057598 0.360969
O O5 0.017330 0.169632 0.413735
O O6 0.750000 0.000000 0.425180
O O7 0.032570 0.891225 0.461857
O O8 0.725721 0.671495 0.560642
O O9 0.956778 0.549376 0.623506
O O10 0.017251 0.641638 0.520299
O O11 0.250000 0.500000 0.150880
O O12 0.409799 0.334745 0.080473
#
# Coordination Sequence:
#
# PCOD9422523 Si02
#       5
#     8   8   8   8   8
#     4  10  23  45  70  93 119 158 209 269 336 399
#     4  10  21  40  64  93 129 172 219 268 315 375
#     4  12  22  38  61  94 134 173 215 267 314 377
#     4  11  23  42  63  90 128 167 209 262 324 386
#     4  11  23  37  60  94 132 180 219 254 310 379
#
# _framework density 21.998646000000001
#
# number of rings (size 3 to 8) (size 9 to 14) (size 15 to 20)
#    0.000    1.200    0.000    8.400    0.000    3.200 
#    0.000   10.000    0.000    0.000    0.000    0.000 
#    0.000    0.000    0.000    0.000    0.000    0.000 
#
# Total GULP energy -222739.055966 kJ/mol
# GULP energy per Si atom -5568.476399 kJ/mol
# Density = 2.194858 g / cm^3
# Si number density = 21.998646 Si / 1000 Ang^3
#
#
#
# Elastic Constant Matrix: (Units=GPa)
#
#
# Indices 1 2 3 4 5 6 
#
# 1 69.6603 38.9931 21.4233 0.0000 0.0000 0.0000
# 2 38.9931 174.1901 29.2215 0.0000 0.0000 0.0000
# 3 21.4233 29.2215 52.4243 0.0000 0.0000 0.0000
# 4 0.0000 0.0000 0.0000 33.5218 0.0000 0.0000
# 5 0.0000 0.0000 0.0000 0.0000 -18.5072 0.0000
# 6 0.0000 0.0000 0.0000 0.0000 0.0000 41.4770
#
#
#
# Elastic Compliance Matrix: (Units=1/GPa)
#
#
# Indices 1 2 3 4 5 6 
#
# 1 0.017771 -0.003045 -0.005565 0.000000 0.000000 0.000000
# 2 -0.003045 0.006855 -0.002577 0.000000 0.000000 0.000000
# 3 -0.005565 -0.002577 0.022786 0.000000 0.000000 0.000000
# 4 0.000000 0.000000 0.000000 0.029831 0.000000 0.000000
# 5 0.000000 0.000000 0.000000 0.000000 -0.054033 0.000000
# 6 0.000000 0.000000 0.000000 0.000000 0.000000 0.024110
#
#
# Mechanical properties :
#
#
# Convention : Reuss Voigt Hill
#
# Bulk Modulus (GPa) = 39.93830 52.83895 46.38862
# Shear Modulus (GPa) = 64.07110 25.07411 44.57260
#
# Velocity S-wave (km/s) = 5.40261 3.37976 4.50616
# Velocity P-wave (km/s) = 7.55725 6.26911 6.94311
#
# Compressibility (1/GPa) = 0.02503862
#
# Stress axis : x y z
#
# Youngs Moduli (GPa) = 56.27111 145.88673 43.88740
#
# Poissons Ratio (x) = 0.44416 0.24424
# Poissons Ratio (y) = 0.17132 0.11308
# Poissons Ratio (z) = 0.31316 0.37590
#
# Static dielectric constant tensor:
#      x y z
#    x 1.807190 0.000000 0.000000 
#    y 0.000000 2.020050 0.000000 
#    z 0.000000 0.000000 1.768520 
# 
# From -- ./inp_files/23273.got.cif
#   From: 2010.05.17/outbox.cif.g08.bks.cpg/sg54_12_cif.got.tgz:23273.got - 2010.06.03 13:09:01.
