data_PCOD9422651
_publ_section_title
;
Structure prediction by ZEFSAII (Michael W. Deem and Ramdas Pophale) SiO2 
 PCOD9422651
Probable space group: P C C A
;
_chemical_formula_sum "Si O2"
_cell_formula_units_Z 40
_cell_length_a 17.107389
_cell_length_b 8.630963
_cell_length_c 12.055015
_cell_angle_alpha 90.000000
_cell_angle_beta 90.000000
_cell_angle_gamma 90.000000
_cell_volume 1779.962041
_symmetry_space_group_name_H-M "P C C A"
_symmetry_group_IT_number 54
_symmetry_cell_setting 'orthorhombic'
loop_
_space_group_symop_operation_xyz
x,y,z
1/2-x,-y,z
1/2+x,-y,1/2-z
-x,y,1/2-z
-x,-y,-z
1/2+x,y,-z
1/2-x,y,1/2+z
x,-y,1/2+z
loop_
_atom_site_type_symbol
_atom_site_label
_atom_site_fract_x
_atom_site_fract_y
_atom_site_fract_z
Si Si1 0.868765 0.809888 0.347444
Si Si2 0.550534 0.906016 0.409486
Si Si3 0.179373 0.418213 0.833015
Si Si4 0.053321 0.632113 0.946466
Si Si5 0.721906 0.838986 0.498596
O O1 0.866848 0.701867 0.241969
O O2 0.908575 0.724311 0.451172
O O3 0.780479 0.834165 0.393408
O O4 0.916636 0.967139 0.323271
O O5 0.499274 0.756652 0.380438
O O6 0.631677 0.852629 0.465203
O O7 0.500000 0.000000 0.500000
O O8 0.250000 0.500000 0.767446
O O9 0.119471 0.545345 0.877190
O O10 0.222636 0.315693 0.927661
O O11 0.000000 0.500000 0.000000
O O12 0.750000 0.000000 0.557889
#
# Coordination Sequence:
#
# PCOD9422651 Si02
#       5
#     8   8   8   8   8
#     4  10  24  43  68  96 138 187 232 277 348 429
#     4   9  20  42  71  94 132 184 222 282 356 413
#     4  12  25  40  71 107 136 181 244 293 345 420
#     4  11  22  42  71  98 141 176 223 298 359 404
#     4  10  21  42  68  94 140 184 227 286 347 419
#
# _framework density 22.472389
#
# number of rings (size 3 to 8) (size 9 to 14) (size 15 to 20)
#    0.000    1.600    4.000    0.000    2.800    3.200 
#    0.000    0.000   17.600    0.000    0.000    0.000 
#    0.000    0.000    0.000    0.000    0.000    0.000 
#
# Total GULP energy -223392.830217 kJ/mol
# GULP energy per Si atom -5584.820755 kJ/mol
# Density = 2.242124 g / cm^3
# Si number density = 22.472389 Si / 1000 Ang^3
#
#
#
# Elastic Constant Matrix: (Units=GPa)
#
#
# Indices 1 2 3 4 5 6 
#
# 1 151.3330 76.3806 30.0164 0.0000 0.0000 0.0000
# 2 76.3806 170.4287 38.3686 0.0000 0.0000 0.0000
# 3 30.0164 38.3686 40.2623 0.0000 0.0000 0.0000
# 4 0.0000 0.0000 0.0000 24.8144 0.0000 0.0000
# 5 0.0000 0.0000 0.0000 0.0000 14.0948 0.0000
# 6 0.0000 0.0000 0.0000 0.0000 0.0000 60.4330
#
#
#
# Elastic Compliance Matrix: (Units=1/GPa)
#
#
# Indices 1 2 3 4 5 6 
#
# 1 0.008936 -0.003189 -0.003623 0.000000 0.000000 0.000000
# 2 -0.003189 0.008608 -0.005826 0.000000 0.000000 0.000000
# 3 -0.003623 -0.005826 0.033090 0.000000 0.000000 0.000000
# 4 0.000000 0.000000 0.000000 0.040299 0.000000 0.000000
# 5 0.000000 0.000000 0.000000 0.000000 0.070948 0.000000
# 6 0.000000 0.000000 0.000000 0.000000 0.000000 0.016547
#
#
# Mechanical properties :
#
#
# Convention : Reuss Voigt Hill
#
# Bulk Modulus (GPa) = 39.43446 72.39502 55.91474
# Shear Modulus (GPa) = 23.56731 34.35232 28.95982
#
# Velocity S-wave (km/s) = 3.24191 3.91403 3.59372
# Velocity P-wave (km/s) = 5.62133 7.26025 6.49271
#
# Compressibility (1/GPa) = 0.02535853
#
# Stress axis : x y z
#
# Youngs Moduli (GPa) = 111.90400 116.16443 30.22069
#
# Poissons Ratio (x) = 0.37049 0.10948
# Poissons Ratio (y) = 0.35690 0.17606
# Poissons Ratio (z) = 0.40541 0.67676
#
# Static dielectric constant tensor:
#      x y z
#    x 1.799630 0.000000 0.000000 
#    y 0.000000 1.866690 0.000000 
#    z 0.000000 0.000000 1.802790 
# 
# From -- ./inp_files/8717.got.cif
#   From: 2010.05.17/outbox.cif.g08.bks.cpg/sg54_5_cif.got.tgz:8717.got - 2010.06.03 13:09:01.
