data_PCOD9422845
_publ_section_title
;
Structure prediction by ZEFSAII (Michael W. Deem and Ramdas Pophale) SiO2 
 PCOD9422845
Probable space group: P C C A
;
_chemical_formula_sum "Si O2"
_cell_formula_units_Z 40
_cell_length_a 16.874873
_cell_length_b 10.769057
_cell_length_c 9.413552
_cell_angle_alpha 90.000000
_cell_angle_beta 90.000000
_cell_angle_gamma 90.000000
_cell_volume 1710.691568
_symmetry_space_group_name_H-M "P C C A"
_symmetry_group_IT_number 54
_symmetry_cell_setting 'orthorhombic'
loop_
_space_group_symop_operation_xyz
x,y,z
1/2-x,-y,z
1/2+x,-y,1/2-z
-x,y,1/2-z
-x,-y,-z
1/2+x,y,-z
1/2-x,y,1/2+z
x,-y,1/2+z
loop_
_atom_site_type_symbol
_atom_site_label
_atom_site_fract_x
_atom_site_fract_y
_atom_site_fract_z
Si Si1 0.241600 0.856922 0.260099
Si Si2 0.250000 0.500000 0.115044
Si Si3 0.157859 0.363224 0.867114
Si Si4 0.101208 0.091409 0.571940
Si Si5 0.500000 0.286597 0.250000
Si Si6 0.084605 0.152739 0.251986
O O1 0.187871 0.778856 0.367515
O O2 0.190185 0.869938 0.116540
O O3 0.327066 0.791534 0.239734
O O4 0.250000 0.000000 0.307380
O O5 0.301005 0.416788 0.223881
O O6 0.190184 0.431584 0.005882
O O7 0.064368 0.363954 0.838836
O O8 0.046515 0.195994 0.643044
O O9 0.088798 0.091062 0.406360
O O10 0.083026 0.958040 0.638614
O O11 0.000000 0.223251 0.250000
#
# Coordination Sequence:
#
# PCOD9422845 Si02
#       6
#     8   4   8   8   4   8
#     4   9  22  39  64  96 134 173 212 266 338 402
#     4  10  24  46  70  94 124 178 226 278 328 392
#     4  10  23  45  71  95 132 172 224 275 332 391
#     4  10  22  39  56  91 134 176 219 264 330 394
#     4  10  22  40  68  96 128 168 216 284 332 384
#     4  11  22  37  58  91 133 179 222 260 320 402
#
# _framework density 23.382356999999999
#
# number of rings (size 3 to 8) (size 9 to 14) (size 15 to 20)
#    0.000    2.000    1.000    0.600    5.600    9.600 
#    3.600    0.000    8.800    0.000    0.000    0.000 
#    0.000    0.000    0.000    0.000    0.000    0.000 
#
# Total GULP energy -223586.480573 kJ/mol
# GULP energy per Si atom -5589.662014 kJ/mol
# Density = 2.332914 g / cm^3
# Si number density = 23.382357 Si / 1000 Ang^3
#
#
#
# Elastic Constant Matrix: (Units=GPa)
#
#
# Indices 1 2 3 4 5 6 
#
# 1 184.1986 4.3762 16.3782 0.0000 0.0000 0.0000
# 2 4.3762 44.7040 23.7513 0.0000 0.0000 0.0000
# 3 16.3782 23.7513 109.4489 0.0000 0.0000 0.0000
# 4 0.0000 0.0000 0.0000 21.5173 0.0000 0.0000
# 5 0.0000 0.0000 0.0000 0.0000 122.2826 0.0000
# 6 0.0000 0.0000 0.0000 0.0000 0.0000 7.8794
#
#
#
# Elastic Compliance Matrix: (Units=1/GPa)
#
#
# Indices 1 2 3 4 5 6 
#
# 1 0.005503 -0.000114 -0.000799 0.000000 0.000000 0.000000
# 2 -0.000114 0.025287 -0.005470 0.000000 0.000000 0.000000
# 3 -0.000799 -0.005470 0.010443 0.000000 0.000000 0.000000
# 4 0.000000 0.000000 0.000000 0.046474 0.000000 0.000000
# 5 0.000000 0.000000 0.000000 0.000000 0.008178 0.000000
# 6 0.000000 0.000000 0.000000 0.000000 0.000000 0.126914
#
#
# Mechanical properties :
#
#
# Convention : Reuss Voigt Hill
#
# Bulk Modulus (GPa) = 35.12931 47.48476 41.30704
# Shear Modulus (GPa) = 20.40368 49.92559 35.16464
#
# Velocity S-wave (km/s) = 2.95720 4.62582 3.88222
# Velocity P-wave (km/s) = 5.16880 6.99163 6.14815
#
# Compressibility (1/GPa) = 0.02846626
#
# Stress axis : x y z
#
# Youngs Moduli (GPa) = 181.73065 39.54603 95.75518
#
# Poissons Ratio (x) = 0.00452 0.07647
# Poissons Ratio (y) = 0.02078 0.52382
# Poissons Ratio (z) = 0.14513 0.21633
#
# Static dielectric constant tensor:
#      x y z
#    x 2.006870 0.000000 0.000000 
#    y 0.000000 1.900830 0.000000 
#    z 0.000000 0.000000 1.849610 
# 
# From -- ./inp_files/4012.got.cif
#   From: 2010.05.17/outbox.cif.g08.bks.cpg/sg54_3_cif.got.tgz:4012.got - 2010.06.03 13:09:01.
