data_PCOD9422387
_publ_section_title
;
Structure prediction by ZEFSAII (Michael W. Deem and Ramdas Pophale) SiO2 
 PCOD9422387
Probable space group: P C C A
;
_chemical_formula_sum "Si O2"
_cell_formula_units_Z 52
_cell_length_a 8.136819
_cell_length_b 11.517368
_cell_length_c 29.020693
_cell_angle_alpha 90.000000
_cell_angle_beta 90.000000
_cell_angle_gamma 90.000000
_cell_volume 2719.666663
_symmetry_space_group_name_H-M "P C C A"
_symmetry_group_IT_number 54
_symmetry_cell_setting 'orthorhombic'
loop_
_space_group_symop_operation_xyz
x,y,z
1/2-x,-y,z
1/2+x,-y,1/2-z
-x,y,1/2-z
-x,-y,-z
1/2+x,y,-z
1/2-x,y,1/2+z
x,-y,1/2+z
loop_
_atom_site_type_symbol
_atom_site_label
_atom_site_fract_x
_atom_site_fract_y
_atom_site_fract_z
Si Si1 0.430166 0.640770 0.949492
Si Si2 0.474423 0.434133 0.619059
Si Si3 0.259557 0.747390 0.866135
Si Si4 0.750000 0.000000 0.612827
Si Si5 0.297073 0.307342 0.544667
Si Si6 0.420958 0.427049 0.299317
Si Si7 0.066344 0.950839 0.548416
O O1 0.446310 0.524339 0.918319
O O2 0.327041 0.728156 0.917934
O O3 0.602989 0.703549 0.958245
O O4 0.353250 0.622102 0.999492
O O5 0.593616 0.327393 0.631885
O O6 0.326024 0.378097 0.591571
O O7 0.457875 0.502797 0.666497
O O8 0.251909 0.882824 0.857920
O O9 0.373836 0.686662 0.828300
O O10 0.581509 0.015051 0.583076
O O11 0.399030 0.187822 0.545986
O O12 0.250000 0.500000 0.295209
O O13 0.500000 0.407413 0.250000
O O14 0.250000 0.000000 0.558954
O O15 0.000000 0.000000 0.500000
#
# Coordination Sequence:
#
# PCOD9422387 Si02
#       7
#     8   8   8   4   8   8   8
#     4  11  23  34  54  81 118 159 197 248 301 350
#     4  10  21  39  56  85 118 151 191 241 306 370
#     4  10  21  40  59  86 116 159 202 245 300 368
#     4  12  22  40  64  80 122 170 208 258 306 342
#     4  12  22  36  52  82 118 157 207 248 295 355
#     4   9  20  38  65  93 118 143 185 242 309 379
#     4  12  24  37  54  82 119 170 225 258 291 351
#
# _framework density 19.119990000000001
#
# number of rings (size 3 to 8) (size 9 to 14) (size 15 to 20)
#    0.000    1.231    2.308    6.000    0.000    3.692 
#    0.000    0.000    0.000    3.692    0.000    0.000 
#    0.000    0.000    0.000    0.000    0.000    0.000 
#
# Total GULP energy -290323.565734 kJ/mol
# GULP energy per Si atom -5583.145495 kJ/mol
# Density = 1.907647 g / cm^3
# Si number density = 19.119990 Si / 1000 Ang^3
#
#
#
# Elastic Constant Matrix: (Units=GPa)
#
#
# Indices 1 2 3 4 5 6 
#
# 1 81.6190 19.2080 32.0719 0.0000 0.0000 0.0000
# 2 19.2080 129.3071 28.9501 0.0000 0.0000 0.0000
# 3 32.0719 28.9501 118.7258 0.0000 0.0000 0.0000
# 4 0.0000 0.0000 0.0000 8.9682 0.0000 0.0000
# 5 0.0000 0.0000 0.0000 0.0000 20.1491 0.0000
# 6 0.0000 0.0000 0.0000 0.0000 0.0000 24.9090
#
#
#
# Elastic Compliance Matrix: (Units=1/GPa)
#
#
# Indices 1 2 3 4 5 6 
#
# 1 0.013909 -0.001296 -0.003441 0.000000 0.000000 0.000000
# 2 -0.001296 0.008301 -0.001674 0.000000 0.000000 0.000000
# 3 -0.003441 -0.001674 0.009761 0.000000 0.000000 0.000000
# 4 0.000000 0.000000 0.000000 0.111505 0.000000 0.000000
# 5 0.000000 0.000000 0.000000 0.000000 0.049630 0.000000
# 6 0.000000 0.000000 0.000000 0.000000 0.000000 0.040146
#
#
# Mechanical properties :
#
#
# Convention : Reuss Voigt Hill
#
# Bulk Modulus (GPa) = 52.22383 54.45689 53.34036
# Shear Modulus (GPa) = 19.80535 27.43338 23.61937
#
# Velocity S-wave (km/s) = 3.22195 3.79199 3.51853
# Velocity P-wave (km/s) = 6.41984 6.90765 6.66821
#
# Compressibility (1/GPa) = 0.01914835
#
# Stress axis : x y z
#
# Youngs Moduli (GPa) = 71.89454 120.47039 102.45249
#
# Poissons Ratio (x) = 0.15609 0.35258
# Poissons Ratio (y) = 0.09315 0.17151
# Poissons Ratio (z) = 0.24742 0.20167
#
# Static dielectric constant tensor:
#      x y z
#    x 1.808580 0.000000 0.000000 
#    y 0.000000 1.715540 0.000000 
#    z 0.000000 0.000000 1.623120 
# 
# From -- ./inp_files/25885.got.cif
#   From: 2010.05.17/outbox.cif.g08.bks.cpg/sg54_13_cif.got.tgz:25885.got - 2010.06.03 13:09:01.
