data_PCOD9422964
_publ_section_title
;
Structure prediction by ZEFSAII (Michael W. Deem and Ramdas Pophale) SiO2 
 PCOD9422964
Probable space group: P C C A
;
_chemical_formula_sum "Si O2"
_cell_formula_units_Z 40
_cell_length_a 11.229331
_cell_length_b 11.484054
_cell_length_c 13.762159
_cell_angle_alpha 90.000000
_cell_angle_beta 90.000000
_cell_angle_gamma 90.000000
_cell_volume 1774.743853
_symmetry_space_group_name_H-M "P C C A"
_symmetry_group_IT_number 54
_symmetry_cell_setting 'orthorhombic'
loop_
_space_group_symop_operation_xyz
x,y,z
1/2-x,-y,z
1/2+x,-y,1/2-z
-x,y,1/2-z
-x,-y,-z
1/2+x,y,-z
1/2-x,y,1/2+z
x,-y,1/2+z
loop_
_atom_site_type_symbol
_atom_site_label
_atom_site_fract_x
_atom_site_fract_y
_atom_site_fract_z
Si Si1 0.750000 0.000000 0.395689
Si Si2 0.110531 0.788451 0.633787
Si Si3 0.252520 0.364180 0.771708
Si Si4 0.274759 0.632632 0.501376
Si Si5 0.000000 0.232101 0.750000
Si Si6 0.056095 0.174743 0.537547
O O1 0.820733 0.095011 0.334506
O O2 0.660056 0.078315 0.458343
O O3 0.134834 0.701152 0.722660
O O4 0.177616 0.715342 0.549617
O O5 0.002713 0.835850 0.568749
O O6 0.250000 0.500000 0.743868
O O7 0.268528 0.358469 0.886449
O O8 0.124840 0.304580 0.747428
O O9 0.250000 0.500000 0.528252
O O10 0.396887 0.691395 0.535599
O O11 0.004178 0.164985 0.854859
#
# Coordination Sequence:
#
# PCOD9422964 Si02
#       6
#     4   8   8   8   4   8
#     4  10  22  44  66  96 132 172 234 278 338 406
#     4  11  22  41  67  97 135 173 228 278 342 398
#     4  11  24  42  66 101 137 176 227 280 336 426
#     4  10  22  40  64 100 138 173 218 279 339 410
#     4  12  22  42  68  94 134 178 222 274 346 410
#     4  11  24  42  70  98 132 182 223 285 343 402
#
# _framework density 22.538463
#
# number of rings (size 3 to 8) (size 9 to 14) (size 15 to 20)
#    0.000    1.200    6.000    1.200    0.000    4.800 
#    0.000   11.000    0.000    0.000    0.000    0.000 
#    0.000    0.000    0.000    0.000    0.000    0.000 
#
# Total GULP energy -222684.754808 kJ/mol
# GULP energy per Si atom -5567.118870 kJ/mol
# Density = 2.248716 g / cm^3
# Si number density = 22.538463 Si / 1000 Ang^3
#
#
#
# Elastic Constant Matrix: (Units=GPa)
#
#
# Indices 1 2 3 4 5 6 
#
# 1 51.8189 10.3829 -0.0170 0.0000 0.0000 0.0000
# 2 10.3829 121.1590 9.5343 0.0000 0.0000 0.0000
# 3 -0.0170 9.5343 131.2956 0.0000 0.0000 0.0000
# 4 0.0000 0.0000 0.0000 38.1754 0.0000 0.0000
# 5 0.0000 0.0000 0.0000 0.0000 14.4395 0.0000
# 6 0.0000 0.0000 0.0000 0.0000 0.0000 28.0635
#
#
#
# Elastic Compliance Matrix: (Units=1/GPa)
#
#
# Indices 1 2 3 4 5 6 
#
# 1 0.019637 -0.001693 0.000125 0.000000 0.000000 0.000000
# 2 -0.001693 0.008447 -0.000614 0.000000 0.000000 0.000000
# 3 0.000125 -0.000614 0.007661 0.000000 0.000000 0.000000
# 4 0.000000 0.000000 0.000000 0.026195 0.000000 0.000000
# 5 0.000000 0.000000 0.000000 0.000000 0.069254 0.000000
# 6 0.000000 0.000000 0.000000 0.000000 0.000000 0.035633
#
#
# Mechanical properties :
#
#
# Convention : Reuss Voigt Hill
#
# Bulk Modulus (GPa) = 31.86399 38.23045 35.04722
# Shear Modulus (GPa) = 27.52538 35.09392 31.30965
#
# Velocity S-wave (km/s) = 3.49845 3.95025 3.73119
# Velocity P-wave (km/s) = 5.52152 6.14859 5.84347
#
# Compressibility (1/GPa) = 0.03138338
#
# Stress axis : x y z
#
# Youngs Moduli (GPa) = 50.92382 118.38574 130.53161
#
# Poissons Ratio (x) = 0.20039 -0.01638
# Poissons Ratio (y) = 0.08620 0.08010
# Poissons Ratio (z) = -0.00639 0.07264
#
# Static dielectric constant tensor:
#      x y z
#    x 1.892970 0.000000 0.000000 
#    y 0.000000 1.808440 0.000000 
#    z 0.000000 0.000000 1.871270 
# 
# From -- ./inp_files/12523.got.cif
#   From: 2010.05.17/outbox.cif.g08.bks.cpg/sg54_7_cif.got.tgz:12523.got - 2010.06.03 13:09:01.
