data_PCOD9422598
_publ_section_title
;
Structure prediction by ZEFSAII (Michael W. Deem and Ramdas Pophale) SiO2 
 PCOD9422598
Probable space group: P C C A
;
_chemical_formula_sum "Si O2"
_cell_formula_units_Z 40
_cell_length_a 15.585596
_cell_length_b 9.165129
_cell_length_c 12.706543
_cell_angle_alpha 90.000000
_cell_angle_beta 90.000000
_cell_angle_gamma 90.000000
_cell_volume 1815.053401
_symmetry_space_group_name_H-M "P C C A"
_symmetry_group_IT_number 54
_symmetry_cell_setting 'orthorhombic'
loop_
_space_group_symop_operation_xyz
x,y,z
1/2-x,-y,z
1/2+x,-y,1/2-z
-x,y,1/2-z
-x,-y,-z
1/2+x,y,-z
1/2-x,y,1/2+z
x,-y,1/2+z
loop_
_atom_site_type_symbol
_atom_site_label
_atom_site_fract_x
_atom_site_fract_y
_atom_site_fract_z
Si Si1 0.750000 0.000000 0.999699
Si Si2 0.810383 0.273683 0.144021
Si Si3 0.399074 0.841995 0.014165
Si Si4 0.894727 0.507369 0.986222
Si Si5 0.051430 0.061752 0.343833
Si Si6 0.250000 0.500000 0.191916
O O1 0.773337 0.142997 0.070267
O O2 0.672979 0.060659 0.928769
O O3 0.851949 0.396326 0.068410
O O4 0.887282 0.186551 0.200468
O O5 0.756858 0.359026 0.231693
O O6 0.375813 0.676886 0.993144
O O7 0.405418 0.931726 0.906410
O O8 0.488411 0.857855 0.074091
O O9 0.837327 0.484320 0.878932
O O10 0.000000 0.500000 0.000000
O O11 0.000000 0.993198 0.250000
#
# Coordination Sequence:
#
# PCOD9422598 Si02
#       6
#     4   8   8   8   8   4
#     4  10  22  44  70  96 144 184 238 302 348 432
#     4  11  24  45  68 104 142 182 245 300 349 442
#     4  10  21  42  65  96 138 188 228 292 357 424
#     4  12  25  47  72 107 150 189 238 303 375 438
#     4  10  21  41  65  96 138 181 237 289 350 426
#     4  12  26  44  74 102 142 194 238 298 372 424
#
# _framework density 22.037918000000001
#
# number of rings (size 3 to 8) (size 9 to 14) (size 15 to 20)
#    0.000    1.200    2.000    4.200    0.000    0.000 
#   10.800   10.000    0.000    0.000    0.000    0.000 
#    0.000    0.000    0.000    0.000    0.000    0.000 
#
# Total GULP energy -222891.700686 kJ/mol
# GULP energy per Si atom -5572.292517 kJ/mol
# Density = 2.198776 g / cm^3
# Si number density = 22.037918 Si / 1000 Ang^3
#
#
#
# Elastic Constant Matrix: (Units=GPa)
#
#
# Indices 1 2 3 4 5 6 
#
# 1 109.7000 73.9743 33.8002 0.0000 0.0000 0.0000
# 2 73.9743 178.0380 60.5423 0.0000 0.0000 0.0000
# 3 33.8002 60.5423 75.1969 0.0000 0.0000 0.0000
# 4 0.0000 0.0000 0.0000 11.8012 0.0000 0.0000
# 5 0.0000 0.0000 0.0000 0.0000 23.5604 0.0000
# 6 0.0000 0.0000 0.0000 0.0000 0.0000 46.0295
#
#
#
# Elastic Compliance Matrix: (Units=1/GPa)
#
#
# Indices 1 2 3 4 5 6 
#
# 1 0.012887 -0.004661 -0.002040 0.000000 0.000000 0.000000
# 2 -0.004661 0.009420 -0.005489 0.000000 0.000000 0.000000
# 3 -0.002040 -0.005489 0.018635 0.000000 0.000000 0.000000
# 4 0.000000 0.000000 0.000000 0.084737 0.000000 0.000000
# 5 0.000000 0.000000 0.000000 0.000000 0.042444 0.000000
# 6 0.000000 0.000000 0.000000 0.000000 0.000000 0.021725
#
#
# Mechanical properties :
#
#
# Convention : Reuss Voigt Hill
#
# Bulk Modulus (GPa) = 60.38000 77.72983 69.05492
# Shear Modulus (GPa) = 22.75319 29.25278 26.00299
#
# Velocity S-wave (km/s) = 3.21667 3.64728 3.43872
# Velocity P-wave (km/s) = 6.42290 7.28590 6.86797
#
# Compressibility (1/GPa) = 0.01656177
#
# Stress axis : x y z
#
# Youngs Moduli (GPa) = 77.59525 106.15739 53.66289
#
# Poissons Ratio (x) = 0.49479 0.10948
# Poissons Ratio (y) = 0.36167 0.29456
# Poissons Ratio (z) = 0.15831 0.58271
#
# Static dielectric constant tensor:
#      x y z
#    x 1.935140 0.000000 0.000000 
#    y 0.000000 1.740390 0.000000 
#    z 0.000000 0.000000 1.804470 
# 
# From -- ./inp_files/13952.got.cif
#   From: 2010.05.17/outbox.cif.g08.bks.cpg/sg54_7_cif.got.tgz:13952.got - 2010.06.03 13:09:01.
