data_PCOD9422313
_publ_section_title
;
Structure prediction by ZEFSAII (Michael W. Deem and Ramdas Pophale) SiO2 
 PCOD9422313
Probable space group: P C C A
;
_chemical_formula_sum "Si O2"
_cell_formula_units_Z 40
_cell_length_a 8.767818
_cell_length_b 10.986845
_cell_length_c 15.716681
_cell_angle_alpha 90.000000
_cell_angle_beta 90.000000
_cell_angle_gamma 90.000000
_cell_volume 1513.998212
_symmetry_space_group_name_H-M "P C C A"
_symmetry_group_IT_number 54
_symmetry_cell_setting 'orthorhombic'
loop_
_space_group_symop_operation_xyz
x,y,z
1/2-x,-y,z
1/2+x,-y,1/2-z
-x,y,1/2-z
-x,-y,-z
1/2+x,y,-z
1/2-x,y,1/2+z
x,-y,1/2+z
loop_
_atom_site_type_symbol
_atom_site_label
_atom_site_fract_x
_atom_site_fract_y
_atom_site_fract_z
Si Si1 0.272885 0.221069 0.089671
Si Si2 0.914699 0.564979 0.337235
Si Si3 0.475465 0.925116 0.852798
Si Si4 0.307865 0.317597 0.415517
Si Si5 0.944740 0.196590 0.154825
O O1 0.350151 0.297306 0.165871
O O2 0.363643 0.095581 0.098103
O O3 0.093753 0.217529 0.099624
O O4 0.283570 0.299535 0.003483
O O5 0.750000 0.500000 0.354882
O O6 0.000000 0.530677 0.250000
O O7 0.059877 0.582334 0.403267
O O8 0.500000 0.916652 0.750000
O O9 0.382091 0.813536 0.892961
O O10 0.402378 0.057399 0.868258
O O11 0.168652 0.310773 0.349823
O O12 0.000000 0.188116 0.250000
#
# Coordination Sequence:
#
# PCOD9422313 Si02
#       5
#     8   8   8   8   8
#     4  11  23  40  64  96 135 175 219 279 339 401
#     4  11  26  49  73  95 125 168 223 285 354 429
#     4  10  21  38  59  91 140 191 231 267 316 392
#     4  11  23  40  64  97 136 173 217 280 346 405
#     4  11  21  35  62  96 134 183 232 273 320 385
#
# _framework density 26.420109
#
# number of rings (size 3 to 8) (size 9 to 14) (size 15 to 20)
#    0.000    1.200    0.000    8.400    0.000   11.200 
#    0.000    1.000    0.000    0.000    0.000    0.000 
#    0.000    0.000    0.000    0.000    0.000    0.000 
#
# Total GULP energy -222861.298018 kJ/mol
# GULP energy per Si atom -5571.532450 kJ/mol
# Density = 2.635998 g / cm^3
# Si number density = 26.420109 Si / 1000 Ang^3
#
#
#
# Elastic Constant Matrix: (Units=GPa)
#
#
# Indices 1 2 3 4 5 6 
#
# 1 170.0137 52.0306 36.5971 0.0000 0.0000 0.0000
# 2 52.0306 98.9275 19.1823 0.0000 0.0000 0.0000
# 3 36.5971 19.1823 92.6803 0.0000 0.0000 0.0000
# 4 0.0000 0.0000 0.0000 7.5123 0.0000 0.0000
# 5 0.0000 0.0000 0.0000 0.0000 32.1954 0.0000
# 6 0.0000 0.0000 0.0000 0.0000 0.0000 61.4290
#
#
#
# Elastic Compliance Matrix: (Units=1/GPa)
#
#
# Indices 1 2 3 4 5 6 
#
# 1 0.007421 -0.003474 -0.002211 0.000000 0.000000 0.000000
# 2 -0.003474 0.012158 -0.001144 0.000000 0.000000 0.000000
# 3 -0.002211 -0.001144 0.011900 0.000000 0.000000 0.000000
# 4 0.000000 0.000000 0.000000 0.133115 0.000000 0.000000
# 5 0.000000 0.000000 0.000000 0.000000 0.031060 0.000000
# 6 0.000000 0.000000 0.000000 0.000000 0.000000 0.016279
#
#
# Mechanical properties :
#
#
# Convention : Reuss Voigt Hill
#
# Bulk Modulus (GPa) = 56.12136 64.13794 60.12965
# Shear Modulus (GPa) = 21.59524 37.14811 29.37168
#
# Velocity S-wave (km/s) = 2.86209 3.75381 3.33786
# Velocity P-wave (km/s) = 5.67539 6.56635 6.13706
#
# Compressibility (1/GPa) = 0.01781853
#
# Stress axis : x y z
#
# Youngs Moduli (GPa) = 134.74956 82.25291 84.03476
#
# Poissons Ratio (x) = 0.28578 0.18583
# Poissons Ratio (y) = 0.46817 0.09617
# Poissons Ratio (z) = 0.29798 0.09413
#
# Static dielectric constant tensor:
#      x y z
#    x 2.381750 0.000000 0.000000 
#    y 0.000000 2.120830 0.000000 
#    z 0.000000 0.000000 0.614810 
# 
# From -- ./inp_files/16344.got.cif
#   From: 2010.05.17/outbox.cif.g08.bks.cpg/sg54_9_cif.got.tgz:16344.got - 2010.06.03 13:09:01.
