data_PCOD9422467
_publ_section_title
;
Structure prediction by ZEFSAII (Michael W. Deem and Ramdas Pophale) SiO2 
 PCOD9422467
Probable space group: P C C A
;
_chemical_formula_sum "Si O2"
_cell_formula_units_Z 48
_cell_length_a 25.888081
_cell_length_b 6.422954
_cell_length_c 13.935766
_cell_angle_alpha 90.000000
_cell_angle_beta 90.000000
_cell_angle_gamma 90.000000
_cell_volume 2317.210650
_symmetry_space_group_name_H-M "P C C A"
_symmetry_group_IT_number 54
_symmetry_cell_setting 'orthorhombic'
loop_
_space_group_symop_operation_xyz
x,y,z
1/2-x,-y,z
1/2+x,-y,1/2-z
-x,y,1/2-z
-x,-y,-z
1/2+x,y,-z
1/2-x,y,1/2+z
x,-y,1/2+z
loop_
_atom_site_type_symbol
_atom_site_label
_atom_site_fract_x
_atom_site_fract_y
_atom_site_fract_z
Si Si1 0.807849 0.962970 0.258092
Si Si2 0.529746 0.016395 0.652808
Si Si3 0.805139 0.616847 0.102134
Si Si4 0.632215 0.216228 0.611653
Si Si5 0.141379 0.883876 0.550112
Si Si6 0.463557 0.702284 0.009280
O O1 0.811428 0.742904 0.202406
O O2 0.750000 0.000000 0.291983
O O3 0.820935 0.122898 0.173117
O O4 0.843415 0.022902 0.347538
O O5 0.500000 0.974198 0.750000
O O6 0.580501 0.156820 0.668719
O O7 0.494593 0.145934 0.579991
O O8 0.542549 0.804255 0.596301
O O9 0.750000 0.500000 0.097299
O O10 0.851932 0.451707 0.096115
O O11 0.813269 0.771859 0.011550
O O12 0.625777 0.084146 0.514311
O O13 0.094268 0.718005 0.552898
O O14 0.500000 0.500000 0.000000
#
# Coordination Sequence:
#
# PCOD9422467 Si02
#       6
#     8   8   8   8   8   8
#     4  11  23  40  62  90 134 169 219 281 330 389
#     4  10  21  39  66  92 129 170 209 268 335 382
#     4  11  23  42  65  90 128 176 222 271 329 401
#     4  10  22  42  62  94 130 169 219 271 326 398
#     4  10  24  40  65  95 130 173 216 274 343 390
#     4  10  21  41  65  96 130 163 217 273 322 401
#
# _framework density 20.714559000000001
#
# number of rings (size 3 to 8) (size 9 to 14) (size 15 to 20)
#    0.000    1.667    1.667    2.000    2.333    2.000 
#    0.000   10.000    0.000    0.000    0.000    0.000 
#    0.000    0.000    0.000    0.000    0.000    0.000 
#
# Total GULP energy -267647.244197 kJ/mol
# GULP energy per Si atom -5575.984254 kJ/mol
# Density = 2.066741 g / cm^3
# Si number density = 20.714559 Si / 1000 Ang^3
#
#
#
# Elastic Constant Matrix: (Units=GPa)
#
#
# Indices 1 2 3 4 5 6 
#
# 1 99.4712 36.6870 23.7372 0.0000 0.0000 0.0000
# 2 36.6870 87.1118 38.9122 0.0000 0.0000 0.0000
# 3 23.7372 38.9122 78.4854 0.0000 0.0000 0.0000
# 4 0.0000 0.0000 0.0000 17.6066 0.0000 0.0000
# 5 0.0000 0.0000 0.0000 0.0000 34.7227 0.0000
# 6 0.0000 0.0000 0.0000 0.0000 0.0000 35.0307
#
#
#
# Elastic Compliance Matrix: (Units=1/GPa)
#
#
# Indices 1 2 3 4 5 6 
#
# 1 0.012028 -0.004420 -0.001447 0.000000 0.000000 0.000000
# 2 -0.004420 0.016369 -0.006779 0.000000 0.000000 0.000000
# 3 -0.001447 -0.006779 0.016540 0.000000 0.000000 0.000000
# 4 0.000000 0.000000 0.000000 0.056797 0.000000 0.000000
# 5 0.000000 0.000000 0.000000 0.000000 0.028800 0.000000
# 6 0.000000 0.000000 0.000000 0.000000 0.000000 0.028546
#
#
# Mechanical properties :
#
#
# Convention : Reuss Voigt Hill
#
# Bulk Modulus (GPa) = 50.89911 51.52681 51.21296
# Shear Modulus (GPa) = 26.18912 28.52079 27.35496
#
# Velocity S-wave (km/s) = 3.55954 3.71462 3.63790
# Velocity P-wave (km/s) = 6.44350 6.58229 6.51327
#
# Compressibility (1/GPa) = 0.01964671
#
# Stress axis : x y z
#
# Youngs Moduli (GPa) = 83.13653 61.09169 60.46071
#
# Poissons Ratio (x) = 0.26999 0.08747
# Poissons Ratio (y) = 0.36742 0.40985
# Poissons Ratio (z) = 0.12028 0.41413
#
# Static dielectric constant tensor:
#      x y z
#    x 1.841570 0.000000 0.000000 
#    y 0.000000 1.768480 0.000000 
#    z 0.000000 0.000000 1.712800 
# 
# From -- ./inp_files/15153.got.cif
#   From: 2010.05.17/outbox.cif.g08.bks.cpg/sg54_8_cif.got.tgz:15153.got - 2010.06.03 13:09:01.
