data_PCOD9422566
_publ_section_title
;
Structure prediction by ZEFSAII (Michael W. Deem and Ramdas Pophale) SiO2 
 PCOD9422566
Probable space group: P C C A
;
_chemical_formula_sum "Si O2"
_cell_formula_units_Z 40
_cell_length_a 14.178173
_cell_length_b 10.704693
_cell_length_c 10.453328
_cell_angle_alpha 90.000000
_cell_angle_beta 90.000000
_cell_angle_gamma 90.000000
_cell_volume 1586.532838
_symmetry_space_group_name_H-M "P C C A"
_symmetry_group_IT_number 54
_symmetry_cell_setting 'orthorhombic'
loop_
_space_group_symop_operation_xyz
x,y,z
1/2-x,-y,z
1/2+x,-y,1/2-z
-x,y,1/2-z
-x,-y,-z
1/2+x,y,-z
1/2-x,y,1/2+z
x,-y,1/2+z
loop_
_atom_site_type_symbol
_atom_site_label
_atom_site_fract_x
_atom_site_fract_y
_atom_site_fract_z
Si Si1 0.566030 0.284537 0.859323
Si Si2 0.744594 0.128541 0.112983
Si Si3 0.908606 0.979310 0.910927
Si Si4 0.232322 0.365853 0.717136
Si Si5 0.410196 0.239010 0.058621
O O1 0.500000 0.344367 0.750000
O O2 0.670476 0.339553 0.859810
O O3 0.506783 0.279778 0.991078
O O4 0.580279 0.139048 0.820393
O O5 0.673515 0.077850 0.003206
O O6 0.716032 0.253340 0.185177
O O7 0.841646 0.176545 0.048239
O O8 0.750000 0.000000 0.196282
O O9 0.908440 0.117041 0.848678
O O10 0.000000 0.000000 0.000000
O O11 0.250000 0.500000 0.778716
O O12 0.143863 0.353978 0.622150
#
# Coordination Sequence:
#
# PCOD9422566 Si02
#       5
#     8   8   8   8   8
#     4  11  22  42  67  99 134 180 227 289 346 414
#     4  10  21  40  70  98 133 180 224 289 342 405
#     4   9  20  38  67 103 134 167 227 285 349 401
#     4  12  27  43  67 100 138 190 230 281 350 427
#     4  10  22  41  67  99 132 176 226 289 351 400
#
# _framework density 25.212209999999999
#
# number of rings (size 3 to 8) (size 9 to 14) (size 15 to 20)
#    0.000    1.600    4.000    0.000    2.800    1.600 
#    0.000    7.000    0.000    0.000    0.000    0.000 
#    0.000    0.000    0.000    0.000    0.000    0.000 
#
# Total GULP energy -223061.466252 kJ/mol
# GULP energy per Si atom -5576.536656 kJ/mol
# Density = 2.515483 g / cm^3
# Si number density = 25.212210 Si / 1000 Ang^3
#
#
#
# Elastic Constant Matrix: (Units=GPa)
#
#
# Indices 1 2 3 4 5 6 
#
# 1 110.0863 -7.8154 20.4263 0.0000 0.0000 0.0000
# 2 -7.8154 122.4071 23.0774 0.0000 0.0000 0.0000
# 3 20.4263 23.0774 35.2752 0.0000 0.0000 0.0000
# 4 0.0000 0.0000 0.0000 20.5656 0.0000 0.0000
# 5 0.0000 0.0000 0.0000 0.0000 49.8919 0.0000
# 6 0.0000 0.0000 0.0000 0.0000 0.0000 15.8122
#
#
#
# Elastic Compliance Matrix: (Units=1/GPa)
#
#
# Indices 1 2 3 4 5 6 
#
# 1 0.010629 0.002098 -0.007527 0.000000 0.000000 0.000000
# 2 0.002098 0.009733 -0.007582 0.000000 0.000000 0.000000
# 3 -0.007527 -0.007582 0.037668 0.000000 0.000000 0.000000
# 4 0.000000 0.000000 0.000000 0.048625 0.000000 0.000000
# 5 0.000000 0.000000 0.000000 0.000000 0.020043 0.000000
# 6 0.000000 0.000000 0.000000 0.000000 0.000000 0.063242
#
#
# Mechanical properties :
#
#
# Convention : Reuss Voigt Hill
#
# Bulk Modulus (GPa) = 31.24367 37.68280 34.46323
# Shear Modulus (GPa) = 22.06217 32.72598 27.39407
#
# Velocity S-wave (km/s) = 2.96135 3.60671 3.29985
# Velocity P-wave (km/s) = 4.91039 5.68535 5.31202
#
# Compressibility (1/GPa) = 0.03200649
#
# Stress axis : x y z
#
# Youngs Moduli (GPa) = 94.07866 102.74493 26.54803
#
# Poissons Ratio (x) = -0.21554 0.19984
# Poissons Ratio (y) = -0.19736 0.20129
# Poissons Ratio (z) = 0.70817 0.77902
#
# Static dielectric constant tensor:
#      x y z
#    x 2.217040 0.000000 0.000000 
#    y 0.000000 2.143860 0.000000 
#    z 0.000000 0.000000 2.074360 
# 
# From -- ./inp_files/13241.got.cif
#   From: 2010.05.17/outbox.cif.g08.bks.cpg/sg54_7_cif.got.tgz:13241.got - 2010.06.03 13:09:01.
