data_PCOD9422919
_publ_section_title
;
Structure prediction by ZEFSAII (Michael W. Deem and Ramdas Pophale) SiO2 
 PCOD9422919
Probable space group: P C C A
;
_chemical_formula_sum "Si O2"
_cell_formula_units_Z 32
_cell_length_a 10.099113
_cell_length_b 5.196751
_cell_length_c 27.499600
_cell_angle_alpha 90.000000
_cell_angle_beta 90.000000
_cell_angle_gamma 90.000000
_cell_volume 1443.249835
_symmetry_space_group_name_H-M "P C C A"
_symmetry_group_IT_number 54
_symmetry_cell_setting 'orthorhombic'
loop_
_space_group_symop_operation_xyz
x,y,z
1/2-x,-y,z
1/2+x,-y,1/2-z
-x,y,1/2-z
-x,-y,-z
1/2+x,y,-z
1/2-x,y,1/2+z
x,-y,1/2+z
loop_
_atom_site_type_symbol
_atom_site_label
_atom_site_fract_x
_atom_site_fract_y
_atom_site_fract_z
Si Si1 0.337093 0.743394 0.740663
Si Si2 0.533383 0.581655 0.554039
Si Si3 0.364210 0.824397 0.628949
Si Si4 0.383513 0.924136 0.398619
O O1 0.250000 0.500000 0.760382
O O2 0.500000 0.745024 0.750000
O O3 0.330658 0.727675 0.681901
O O4 0.250000 0.000000 0.753297
O O5 0.500000 0.500000 0.500000
O O6 0.407036 0.614860 0.589517
O O7 0.615462 0.357348 0.579760
O O8 0.600243 0.862483 0.558216
O O9 0.250000 0.000000 0.607827
O O10 0.491332 0.012254 0.634296
O O11 0.250000 0.000000 0.372190
#
# Coordination Sequence:
#
# PCOD9422919 Si02
#       4
#     8   8   8   8
#     4  11  25  47  72 106 140 178 228 286 350 422
#     4  10  22  40  62  90 130 172 219 269 330 390
#     4   9  24  40  68  93 132 172 221 269 335 398
#     4  10  22  40  58  91 126 168 217 270 318 389
#
# _framework density 22.172184999999999
#
# number of rings (size 3 to 8) (size 9 to 14) (size 15 to 20)
#    1.500    0.500    0.000    2.250    7.000    2.000 
#    9.000    0.000    0.000    0.000    0.000    0.000 
#    0.000    0.000    0.000    0.000    0.000    0.000 
#
# Total GULP energy -178158.149980 kJ/mol
# GULP energy per Si atom -5567.442187 kJ/mol
# Density = 2.212172 g / cm^3
# Si number density = 22.172185 Si / 1000 Ang^3
#
#
#
# Elastic Constant Matrix: (Units=GPa)
#
#
# Indices 1 2 3 4 5 6 
#
# 1 163.0264 71.4206 -2.4586 0.0000 0.0000 0.0000
# 2 71.4206 153.1196 28.4572 0.0000 0.0000 0.0000
# 3 -2.4586 28.4572 63.8564 0.0000 0.0000 0.0000
# 4 0.0000 0.0000 0.0000 -1.0182 0.0000 0.0000
# 5 0.0000 0.0000 0.0000 0.0000 -15.6477 0.0000
# 6 0.0000 0.0000 0.0000 0.0000 0.0000 39.6730
#
#
#
# Elastic Compliance Matrix: (Units=1/GPa)
#
#
# Indices 1 2 3 4 5 6 
#
# 1 0.007969 -0.004115 0.002141 0.000000 0.000000 0.000000
# 2 -0.004115 0.009245 -0.004279 0.000000 0.000000 0.000000
# 3 0.002141 -0.004279 0.017649 0.000000 0.000000 0.000000
# 4 0.000000 0.000000 0.000000 -0.982137 0.000000 0.000000
# 5 0.000000 0.000000 0.000000 0.000000 -0.063907 0.000000
# 6 0.000000 0.000000 0.000000 0.000000 0.000000 0.025206
#
#
# Mechanical properties :
#
#
# Convention : Reuss Voigt Hill
#
# Bulk Modulus (GPa) = 44.72694 63.87121 54.29907
# Shear Modulus (GPa) = -5.17590 23.44030 9.13220
#
# Velocity S-wave (km/s) = -1.52954 3.25498 2.03168
# Velocity P-wave (km/s) = 4.13486 6.55713 5.48147
#
# Compressibility (1/GPa) = 0.02235789
#
# Stress axis : x y z
#
# Youngs Moduli (GPa) = 125.48730 108.16291 56.65963
#
# Poissons Ratio (x) = 0.44507 -0.12128
# Poissons Ratio (y) = 0.51636 0.24242
# Poissons Ratio (z) = -0.26861 0.46278
#
# Static dielectric constant tensor:
#      x y z
#    x 1.915410 0.000000 0.000000 
#    y 0.000000 1.850950 0.000000 
#    z 0.000000 0.000000 1.777400 
# 
# From -- ./inp_files/27491.got.cif
#   From: 2010.05.17/outbox.cif.g08.bks.cpg/sg54_14_cif.got.tgz:27491.got - 2010.06.03 13:09:01.
