data_PCOD9422659
_publ_section_title
;
Structure prediction by ZEFSAII (Michael W. Deem and Ramdas Pophale) SiO2 
 PCOD9422659
Probable space group: P C C A
;
_chemical_formula_sum "Si O2"
_cell_formula_units_Z 40
_cell_length_a 13.371160
_cell_length_b 6.484467
_cell_length_c 22.626506
_cell_angle_alpha 90.000000
_cell_angle_beta 90.000000
_cell_angle_gamma 90.000000
_cell_volume 1961.827713
_symmetry_space_group_name_H-M "P C C A"
_symmetry_group_IT_number 54
_symmetry_cell_setting 'orthorhombic'
loop_
_space_group_symop_operation_xyz
x,y,z
1/2-x,-y,z
1/2+x,-y,1/2-z
-x,y,1/2-z
-x,-y,-z
1/2+x,y,-z
1/2-x,y,1/2+z
x,-y,1/2+z
loop_
_atom_site_type_symbol
_atom_site_label
_atom_site_fract_x
_atom_site_fract_y
_atom_site_fract_z
Si Si1 0.494942 0.989879 0.600322
Si Si2 0.250000 0.500000 0.950703
Si Si3 0.050343 0.658057 0.189980
Si Si4 0.750000 0.500000 0.752307
Si Si5 0.119653 0.319953 0.345648
Si Si6 0.928965 0.297816 0.494807
O O1 0.575852 0.095297 0.643104
O O2 0.441803 0.179279 0.566911
O O3 0.435439 0.830640 0.640481
O O4 0.541706 0.855644 0.547772
O O5 0.326132 0.385940 0.906395
O O6 0.315655 0.642619 0.992344
O O7 0.157559 0.571610 0.208440
O O8 0.000000 0.744258 0.250000
O O9 0.970438 0.482195 0.168709
O O10 0.799549 0.664468 0.706797
O O11 0.000000 0.500000 0.500000
#
# Coordination Sequence:
#
# PCOD9422659 Si02
#       6
#     8   4   8   4   8   8
#     4  11  22  42  71  96 135 172 225 289 328 394
#     4  11  20  42  69  92 136 183 213 272 344 398
#     4  10  21  43  66 101 139 174 224 286 337 402
#     4   9  22  42  71  94 138 185 217 276 354 396
#     4  10  21  42  69  99 131 175 231 280 325 403
#     4  11  23  43  65  99 136 171 225 284 334 393
#
# _framework density 20.389151999999999
#
# number of rings (size 3 to 8) (size 9 to 14) (size 15 to 20)
#    0.000    1.600    4.000    0.000    0.000    3.200 
#    0.000   11.000    0.000    2.400    0.000    0.000 
#    0.000    0.000    0.000    0.000    0.000    0.000 
#
# Total GULP energy -223305.291413 kJ/mol
# GULP energy per Si atom -5582.632285 kJ/mol
# Density = 2.034275 g / cm^3
# Si number density = 20.389152 Si / 1000 Ang^3
#
#
#
# Elastic Constant Matrix: (Units=GPa)
#
#
# Indices 1 2 3 4 5 6 
#
# 1 122.9108 30.6157 45.2873 0.0000 0.0000 0.0000
# 2 30.6157 69.4599 31.0902 0.0000 0.0000 0.0000
# 3 45.2873 31.0902 79.9524 0.0000 0.0000 0.0000
# 4 0.0000 0.0000 0.0000 30.5988 0.0000 0.0000
# 5 0.0000 0.0000 0.0000 0.0000 34.9831 0.0000
# 6 0.0000 0.0000 0.0000 0.0000 0.0000 20.6797
#
#
#
# Elastic Compliance Matrix: (Units=1/GPa)
#
#
# Indices 1 2 3 4 5 6 
#
# 1 0.010603 -0.002404 -0.005071 0.000000 0.000000 0.000000
# 2 -0.002404 0.017976 -0.005628 0.000000 0.000000 0.000000
# 3 -0.005071 -0.005628 0.017569 0.000000 0.000000 0.000000
# 4 0.000000 0.000000 0.000000 0.032681 0.000000 0.000000
# 5 0.000000 0.000000 0.000000 0.000000 0.028585 0.000000
# 6 0.000000 0.000000 0.000000 0.000000 0.000000 0.048357
#
#
# Mechanical properties :
#
#
# Convention : Reuss Voigt Hill
#
# Bulk Modulus (GPa) = 50.14889 54.03438 52.09164
# Shear Modulus (GPa) = 26.50777 28.27432 27.39105
#
# Velocity S-wave (km/s) = 3.60959 3.72793 3.66924
# Velocity P-wave (km/s) = 6.48240 6.71483 6.59964
#
# Compressibility (1/GPa) = 0.01994062
#
# Stress axis : x y z
#
# Youngs Moduli (GPa) = 94.31061 55.63115 56.91957
#
# Poissons Ratio (x) = 0.13372 0.28866
# Poissons Ratio (y) = 0.22669 0.32037
# Poissons Ratio (z) = 0.47828 0.31312
#
# Static dielectric constant tensor:
#      x y z
#    x 1.687720 0.000000 0.000000 
#    y 0.000000 1.785250 0.000000 
#    z 0.000000 0.000000 1.736380 
# 
# From -- ./inp_files/26088.got.cif
#   From: 2010.05.17/outbox.cif.g08.bks.cpg/sg54_14_cif.got.tgz:26088.got - 2010.06.03 13:09:01.
