data_PCOD9422119
_publ_section_title
;
Structure prediction by ZEFSAII (Michael W. Deem and Ramdas Pophale) SiO2 
 PCOD9422119
Probable space group: P C C A
;
_chemical_formula_sum "Si O2"
_cell_formula_units_Z 28
_cell_length_a 13.907546
_cell_length_b 18.193654
_cell_length_c 5.233455
_cell_angle_alpha 90.000000
_cell_angle_beta 90.000000
_cell_angle_gamma 90.000000
_cell_volume 1324.216303
_symmetry_space_group_name_H-M "P C C A"
_symmetry_group_IT_number 54
_symmetry_cell_setting 'orthorhombic'
loop_
_space_group_symop_operation_xyz
x,y,z
1/2-x,-y,z
1/2+x,-y,1/2-z
-x,y,1/2-z
-x,-y,-z
1/2+x,y,-z
1/2-x,y,1/2+z
x,-y,1/2+z
loop_
_atom_site_type_symbol
_atom_site_label
_atom_site_fract_x
_atom_site_fract_y
_atom_site_fract_z
Si Si1 0.000000 0.050648 0.750000
Si Si2 0.812764 0.322619 0.774746
Si Si3 0.607156 0.530163 0.948855
Si Si4 0.684582 0.845941 0.804037
O O1 0.905121 0.100957 0.764651
O O2 0.000000 0.000000 0.500000
O O3 0.770343 0.329991 0.490574
O O4 0.885747 0.387470 0.845343
O O5 0.849512 0.239226 0.798463
O O6 0.651572 0.478717 0.729346
O O7 0.500000 0.500000 0.000000
O O8 0.760375 0.856898 0.572617
#
# Coordination Sequence:
#
# PCOD9422119 Si02
#       4
#     4   8   8   8
#     4  12  26  42  68 104 132 166 210 256 322 396
#     4  10  21  38  60  84 114 157 206 253 306 368
#     4  10  21  35  52  80 114 151 196 246 305 358
#     4  10  23  44  67  94 130 172 215 264 319 381
#
# _framework density 21.144583000000001
#
# number of rings (size 3 to 8) (size 9 to 14) (size 15 to 20)
#    0.000    1.714    0.000    3.429    0.000    9.143 
#    0.000    8.571    0.000    0.000    0.000    0.000 
#    0.000    0.000    0.000    0.000    0.000    0.000 
#
# Total GULP energy -156413.005022 kJ/mol
# GULP energy per Si atom -5586.178751 kJ/mol
# Density = 2.109646 g / cm^3
# Si number density = 21.144583 Si / 1000 Ang^3
#
#
#
# Elastic Constant Matrix: (Units=GPa)
#
#
# Indices 1 2 3 4 5 6 
#
# 1 88.5075 83.3624 7.8207 0.0000 0.0000 0.0000
# 2 83.3624 188.9858 56.4143 0.0000 0.0000 0.0000
# 3 7.8207 56.4143 157.9343 0.0000 0.0000 0.0000
# 4 0.0000 0.0000 0.0000 36.9838 0.0000 0.0000
# 5 0.0000 0.0000 0.0000 0.0000 23.5391 0.0000
# 6 0.0000 0.0000 0.0000 0.0000 0.0000 53.3074
#
#
#
# Elastic Compliance Matrix: (Units=1/GPa)
#
#
# Indices 1 2 3 4 5 6 
#
# 1 0.020132 -0.009607 0.002435 0.000000 0.000000 0.000000
# 2 -0.009607 0.010508 -0.003278 0.000000 0.000000 0.000000
# 3 0.002435 -0.003278 0.007382 0.000000 0.000000 0.000000
# 4 0.000000 0.000000 0.000000 0.027039 0.000000 0.000000
# 5 0.000000 0.000000 0.000000 0.000000 0.042483 0.000000
# 6 0.000000 0.000000 0.000000 0.000000 0.000000 0.018759
#
#
# Mechanical properties :
#
#
# Convention : Reuss Voigt Hill
#
# Bulk Modulus (GPa) = 58.40578 81.18028 69.79303
# Shear Modulus (GPa) = 32.69920 41.95473 37.32697
#
# Velocity S-wave (km/s) = 3.93677 4.45925 4.20613
# Velocity P-wave (km/s) = 6.95315 8.06161 7.52781
#
# Compressibility (1/GPa) = 0.01712159
#
# Stress axis : x y z
#
# Youngs Moduli (GPa) = 49.67229 95.16997 135.46594
#
# Poissons Ratio (x) = 0.91431 -0.32983
# Poissons Ratio (y) = 0.47721 0.44400
# Poissons Ratio (z) = -0.12094 0.31193
#
# Static dielectric constant tensor:
#      x y z
#    x 1.202940 0.000000 0.000000 
#    y 0.000000 1.758810 0.000000 
#    z 0.000000 0.000000 1.832190 
# 
# From -- ./inp_files/355.got.cif
#   From: 2010.05.17/outbox.cif.g08.bks.cpg/sg54_1_cif.got.tgz:355.got - 2010.06.03 13:09:01.
