data_PCOD9422897
_publ_section_title
;
Structure prediction by ZEFSAII (Michael W. Deem and Ramdas Pophale) SiO2 
 PCOD9422897
Probable space group: P C C A
;
_chemical_formula_sum "Si O2"
_cell_formula_units_Z 52
_cell_length_a 5.087727
_cell_length_b 26.079334
_cell_length_c 18.035758
_cell_angle_alpha 90.000000
_cell_angle_beta 90.000000
_cell_angle_gamma 90.000000
_cell_volume 2393.066105
_symmetry_space_group_name_H-M "P C C A"
_symmetry_group_IT_number 54
_symmetry_cell_setting 'orthorhombic'
loop_
_space_group_symop_operation_xyz
x,y,z
1/2-x,-y,z
1/2+x,-y,1/2-z
-x,y,1/2-z
-x,-y,-z
1/2+x,y,-z
1/2-x,y,1/2+z
x,-y,1/2+z
loop_
_atom_site_type_symbol
_atom_site_label
_atom_site_fract_x
_atom_site_fract_y
_atom_site_fract_z
Si Si1 0.750000 0.000000 0.551453
Si Si2 0.199457 0.554517 0.049855
Si Si3 0.174373 0.101854 0.865973
Si Si4 0.500000 0.963751 0.750000
Si Si5 0.366980 0.743965 0.675752
Si Si6 0.178256 0.333718 0.054461
Si Si7 0.349515 0.799289 0.952359
Si Si8 0.500000 0.830003 0.250000
O O1 0.705463 0.051385 0.598388
O O2 0.500000 0.000000 0.500000
O O3 0.250000 0.500000 0.088986
O O4 0.275997 0.608542 0.085679
O O5 0.400489 0.554402 0.979232
O O6 0.350982 0.134112 0.808866
O O7 0.946559 0.075099 0.817894
O O8 0.101901 0.142007 0.928784
O O9 0.750000 0.000000 0.740992
O O10 0.500000 0.721292 0.750000
O O11 0.209847 0.704878 0.623148
O O12 0.586365 0.766309 0.620007
O O13 0.196364 0.792169 0.705306
O O14 0.408840 0.328070 0.992016
O O15 0.061654 0.789316 0.983550
#
# Coordination Sequence:
#
# PCOD9422897 Si02
#       8
#     4   8   8   4   8   8   8   4
#     4  12  30  48  70  98 128 162 200 258 332 396
#     4   8  14  28  53  90 131 172 222 279 335 394
#     4  12  26  49  73  99 132 163 213 263 329 400
#     4  12  27  46  74 102 128 166 203 252 312 390
#     4  12  26  45  67  99 135 182 230 285 333 409
#     4  10  22  39  65 100 137 180 230 288 346 396
#     4  12  26  46  71  98 131 171 214 271 333 395
#     4  12  27  50  72 102 132 182 229 274 340 408
#
# _framework density 21.729444000000001
#
# number of rings (size 3 to 8) (size 9 to 14) (size 15 to 20)
#    0.000    0.923    2.308    4.154    3.231    2.462 
#    0.000    0.000    0.000    0.000    2.000    0.000 
#    0.000    0.000    0.000    0.000    0.000    0.000 
#
# Total GULP energy -290657.220147 kJ/mol
# GULP energy per Si atom -5589.561926 kJ/mol
# Density = 2.167999 g / cm^3
# Si number density = 21.729444 Si / 1000 Ang^3
#
#
#
# Elastic Constant Matrix: (Units=GPa)
#
#
# Indices 1 2 3 4 5 6 
#
# 1 81.8756 10.5728 17.8611 0.0000 0.0000 0.0000
# 2 10.5728 157.5374 49.5234 0.0000 0.0000 0.0000
# 3 17.8611 49.5234 98.7692 0.0000 0.0000 0.0000
# 4 0.0000 0.0000 0.0000 25.3214 0.0000 0.0000
# 5 0.0000 0.0000 0.0000 0.0000 26.9869 0.0000
# 6 0.0000 0.0000 0.0000 0.0000 0.0000 24.8596
#
#
#
# Elastic Compliance Matrix: (Units=1/GPa)
#
#
# Indices 1 2 3 4 5 6 
#
# 1 0.012718 -0.000155 -0.002222 0.000000 0.000000 0.000000
# 2 -0.000155 0.007537 -0.003751 0.000000 0.000000 0.000000
# 3 -0.002222 -0.003751 0.012407 0.000000 0.000000 0.000000
# 4 0.000000 0.000000 0.000000 0.039492 0.000000 0.000000
# 5 0.000000 0.000000 0.000000 0.000000 0.037055 0.000000
# 6 0.000000 0.000000 0.000000 0.000000 0.000000 0.040226
#
#
# Mechanical properties :
#
#
# Convention : Reuss Voigt Hill
#
# Bulk Modulus (GPa) = 49.00472 54.89966 51.95219
# Shear Modulus (GPa) = 29.67441 32.78190 31.22815
#
# Velocity S-wave (km/s) = 3.69945 3.88833 3.79507
# Velocity P-wave (km/s) = 6.39133 6.74380 6.56993
#
# Compressibility (1/GPa) = 0.02040620
#
# Stress axis : x y z
#
# Youngs Moduli (GPa) = 78.62599 132.67282 80.59727
#
# Poissons Ratio (x) = 0.02056 0.17911
# Poissons Ratio (y) = 0.01219 0.30234
# Poissons Ratio (z) = 0.17473 0.49769
#
# Static dielectric constant tensor:
#      x y z
#    x 1.821250 0.000000 0.000000 
#    y 0.000000 1.854090 0.000000 
#    z 0.000000 0.000000 1.453480 
# 
# From -- ./inp_files/15967.got.cif
#   From: 2010.05.17/outbox.cif.g08.bks.cpg/sg54_8_cif.got.tgz:15967.got - 2010.06.03 13:09:01.
