data_PCOD9422665
_publ_section_title
;
Structure prediction by ZEFSAII (Michael W. Deem and Ramdas Pophale) SiO2 
 PCOD9422665
Probable space group: P C C A
;
_chemical_formula_sum "Si O2"
_cell_formula_units_Z 36
_cell_length_a 5.022397
_cell_length_b 24.919811
_cell_length_c 11.425725
_cell_angle_alpha 90.000000
_cell_angle_beta 90.000000
_cell_angle_gamma 90.000000
_cell_volume 1430.011566
_symmetry_space_group_name_H-M "P C C A"
_symmetry_group_IT_number 54
_symmetry_cell_setting 'orthorhombic'
loop_
_space_group_symop_operation_xyz
x,y,z
1/2-x,-y,z
1/2+x,-y,1/2-z
-x,y,1/2-z
-x,-y,-z
1/2+x,y,-z
1/2-x,y,1/2+z
x,-y,1/2+z
loop_
_atom_site_type_symbol
_atom_site_label
_atom_site_fract_x
_atom_site_fract_y
_atom_site_fract_z
Si Si1 0.500000 0.254875 0.750000
Si Si2 0.818931 0.055494 0.418988
Si Si3 0.249451 0.441893 0.835980
Si Si4 0.218924 0.172364 0.581592
Si Si5 0.310453 0.325777 0.432544
O O1 0.315748 0.216308 0.671983
O O2 0.689521 0.292868 0.673494
O O3 0.617390 0.054875 0.531072
O O4 0.760349 0.113014 0.363441
O O5 0.750000 0.000000 0.354010
O O6 0.250000 0.500000 0.898184
O O7 0.500000 0.437302 0.750000
O O8 0.226891 0.389251 0.913288
O O9 0.000000 0.441954 0.750000
O O10 0.422719 0.176793 0.470620
O O11 0.614549 0.312890 0.459497
#
# Coordination Sequence:
#
# PCOD9422665 Si02
#       5
#     4   8   8   8   8
#     4  12  26  44  66  90 136 176 214 282 316 378
#     4   8  14  28  54  84 116 152 195 252 311 369
#     4  10  21  42  70  98 132 171 212 269 333 390
#     4  10  22  40  62  92 123 166 216 257 321 387
#     4  12  27  43  67  99 129 174 226 267 328 394
#
# _framework density 25.174620999999998
#
# number of rings (size 3 to 8) (size 9 to 14) (size 15 to 20)
#    0.000    1.778    1.111    2.667    0.000    3.556 
#    0.000    0.000    0.000   13.333    0.000    0.000 
#    0.000    0.000    0.000    0.000    0.000    0.000 
#
# Total GULP energy -201786.489554 kJ/mol
# GULP energy per Si atom -5605.180265 kJ/mol
# Density = 2.511732 g / cm^3
# Si number density = 25.174621 Si / 1000 Ang^3
#
#
#
# Elastic Constant Matrix: (Units=GPa)
#
#
# Indices 1 2 3 4 5 6 
#
# 1 127.4046 11.1243 9.7923 0.0000 0.0000 0.0000
# 2 11.1243 211.1338 55.2300 0.0000 0.0000 0.0000
# 3 9.7923 55.2300 48.4805 0.0000 0.0000 0.0000
# 4 0.0000 0.0000 0.0000 37.4741 0.0000 0.0000
# 5 0.0000 0.0000 0.0000 0.0000 23.9300 0.0000
# 6 0.0000 0.0000 0.0000 0.0000 0.0000 35.5543
#
#
#
# Elastic Compliance Matrix: (Units=1/GPa)
#
#
# Indices 1 2 3 4 5 6 
#
# 1 0.007973 0.000002 -0.001612 0.000000 0.000000 0.000000
# 2 0.000002 0.006747 -0.007687 0.000000 0.000000 0.000000
# 3 -0.001612 -0.007687 0.029709 0.000000 0.000000 0.000000
# 4 0.000000 0.000000 0.000000 0.026685 0.000000 0.000000
# 5 0.000000 0.000000 0.000000 0.000000 0.041788 0.000000
# 6 0.000000 0.000000 0.000000 0.000000 0.000000 0.028126
#
#
# Mechanical properties :
#
#
# Convention : Reuss Voigt Hill
#
# Bulk Modulus (GPa) = 38.70788 59.92357 49.31572
# Shear Modulus (GPa) = 29.72042 40.11652 34.91847
#
# Velocity S-wave (km/s) = 3.43967 3.99624 3.72835
# Velocity P-wave (km/s) = 5.58429 6.71923 6.17788
#
# Compressibility (1/GPa) = 0.02583453
#
# Stress axis : x y z
#
# Youngs Moduli (GPa) = 125.42675 148.21463 33.65956
#
# Poissons Ratio (x) = -0.00025 0.05427
# Poissons Ratio (y) = -0.00021 0.25873
# Poissons Ratio (z) = 0.20222 1.13927
#
# Static dielectric constant tensor:
#      x y z
#    x 1.904690 0.000000 0.000000 
#    y 0.000000 2.053440 0.000000 
#    z 0.000000 0.000000 1.992150 
# 
# From -- ./inp_files/6372.got.cif
#   From: 2010.05.17/outbox.cif.g08.bks.cpg/sg54_4_cif.got.tgz:6372.got - 2010.06.03 13:09:01.
