data_PCOD9422516
_publ_section_title
;
Structure prediction by ZEFSAII (Michael W. Deem and Ramdas Pophale) SiO2 
 PCOD9422516
Probable space group: P C C A
;
_chemical_formula_sum "Si O2"
_cell_formula_units_Z 40
_cell_length_a 23.376876
_cell_length_b 5.721892
_cell_length_c 13.483018
_cell_angle_alpha 90.000000
_cell_angle_beta 90.000000
_cell_angle_gamma 90.000000
_cell_volume 1803.487945
_symmetry_space_group_name_H-M "P C C A"
_symmetry_group_IT_number 54
_symmetry_cell_setting 'orthorhombic'
loop_
_space_group_symop_operation_xyz
x,y,z
1/2-x,-y,z
1/2+x,-y,1/2-z
-x,y,1/2-z
-x,-y,-z
1/2+x,y,-z
1/2-x,y,1/2+z
x,-y,1/2+z
loop_
_atom_site_type_symbol
_atom_site_label
_atom_site_fract_x
_atom_site_fract_y
_atom_site_fract_z
Si Si1 0.397009 0.283293 0.210133
Si Si2 0.969495 0.245983 0.977590
Si Si3 0.189553 0.892944 0.758233
Si Si4 0.375695 0.441635 0.891112
Si Si5 0.813193 0.408260 0.427928
O O1 0.412374 0.443048 0.303750
O O2 0.349226 0.412093 0.141284
O O3 0.364498 0.064163 0.257247
O O4 0.448727 0.236820 0.136213
O O5 0.913610 0.261469 0.047295
O O6 0.000000 0.500000 0.000000
O O7 0.000000 0.000000 0.000000
O O8 0.175500 0.683945 0.832971
O O9 0.193427 0.810628 0.644111
O O10 0.250000 0.000000 0.786800
O O11 0.349440 0.619015 0.971908
O O12 0.750000 0.500000 0.450537
#
# Coordination Sequence:
#
# PCOD9422516 Si02
#       5
#     8   8   8   8   8
#     4  10  24  45  69 102 142 177 240 299 343 439
#     4  11  28  52  76 104 143 192 245 311 372 416
#     4  11  23  42  70 103 144 186 229 291 362 436
#     4  10  26  43  70 105 138 185 244 292 356 444
#     4  10  21  40  63  98 146 183 222 282 356 425
#
# _framework density 22.179245000000002
#
# number of rings (size 3 to 8) (size 9 to 14) (size 15 to 20)
#    0.000    1.600    2.000    0.000   14.000    2.400 
#    0.000    0.000    0.000    0.000    0.000    0.000 
#    0.000    0.000    0.000    0.000    0.000    0.000 
#
# Total GULP energy -223357.754383 kJ/mol
# GULP energy per Si atom -5583.943860 kJ/mol
# Density = 2.212876 g / cm^3
# Si number density = 22.179245 Si / 1000 Ang^3
#
#
#
# Elastic Constant Matrix: (Units=GPa)
#
#
# Indices 1 2 3 4 5 6 
#
# 1 62.0634 16.5764 29.8701 0.0000 0.0000 0.0000
# 2 16.5764 58.1996 19.1394 0.0000 0.0000 0.0000
# 3 29.8701 19.1394 141.3647 0.0000 0.0000 0.0000
# 4 0.0000 0.0000 0.0000 14.8498 0.0000 0.0000
# 5 0.0000 0.0000 0.0000 0.0000 14.3318 0.0000
# 6 0.0000 0.0000 0.0000 0.0000 0.0000 34.0217
#
#
#
# Elastic Compliance Matrix: (Units=1/GPa)
#
#
# Indices 1 2 3 4 5 6 
#
# 1 0.018894 -0.004258 -0.003416 0.000000 0.000000 0.000000
# 2 -0.004258 0.018943 -0.001665 0.000000 0.000000 0.000000
# 3 -0.003416 -0.001665 0.008021 0.000000 0.000000 0.000000
# 4 0.000000 0.000000 0.000000 0.067341 0.000000 0.000000
# 5 0.000000 0.000000 0.000000 0.000000 0.069775 0.000000
# 6 0.000000 0.000000 0.000000 0.000000 0.000000 0.029393
#
#
# Mechanical properties :
#
#
# Convention : Reuss Voigt Hill
#
# Bulk Modulus (GPa) = 36.79178 43.64442 40.21810
# Shear Modulus (GPa) = 20.82434 25.71011 23.26722
#
# Velocity S-wave (km/s) = 3.06749 3.40839 3.24242
# Velocity P-wave (km/s) = 5.40096 5.93382 5.67365
#
# Compressibility (1/GPa) = 0.02717998
#
# Stress axis : x y z
#
# Youngs Moduli (GPa) = 52.92755 52.79125 124.67196
#
# Poissons Ratio (x) = 0.22479 0.42584
# Poissons Ratio (y) = 0.22537 0.20757
# Poissons Ratio (z) = 0.18079 0.08789
#
# Static dielectric constant tensor:
#      x y z
#    x 1.612560 0.000000 0.000000 
#    y 0.000000 1.244340 0.000000 
#    z 0.000000 0.000000 1.783960 
# 
# From -- ./inp_files/10141.got.cif
#   From: 2010.05.17/outbox.cif.g08.bks.cpg/sg54_6_cif.got.tgz:10141.got - 2010.06.03 13:09:01.
