data_PCOD9422806
_publ_section_title
;
Structure prediction by ZEFSAII (Michael W. Deem and Ramdas Pophale) SiO2 
 PCOD9422806
Probable space group: P C C A
;
_chemical_formula_sum "Si O2"
_cell_formula_units_Z 56
_cell_length_a 13.429699
_cell_length_b 23.156801
_cell_length_c 8.199397
_cell_angle_alpha 90.000000
_cell_angle_beta 90.000000
_cell_angle_gamma 90.000000
_cell_volume 2549.921185
_symmetry_space_group_name_H-M "P C C A"
_symmetry_group_IT_number 54
_symmetry_cell_setting 'orthorhombic'
loop_
_space_group_symop_operation_xyz
x,y,z
1/2-x,-y,z
1/2+x,-y,1/2-z
-x,y,1/2-z
-x,-y,-z
1/2+x,y,-z
1/2-x,y,1/2+z
x,-y,1/2+z
loop_
_atom_site_type_symbol
_atom_site_label
_atom_site_fract_x
_atom_site_fract_y
_atom_site_fract_z
Si Si1 0.099915 0.657314 0.456055
Si Si2 0.194043 0.640418 0.816547
Si Si3 0.116047 0.131143 0.452482
Si Si4 0.039311 0.438987 0.434865
Si Si5 0.447354 0.741432 0.426144
Si Si6 0.266790 0.933032 0.740670
Si Si7 0.455541 0.058894 0.430529
O O1 0.155599 0.646971 0.630774
O O2 0.188225 0.649792 0.328191
O O3 0.016698 0.607737 0.453335
O O4 0.037071 0.716901 0.460629
O O5 0.153879 0.581609 0.905595
O O6 0.134923 0.691551 0.908186
O O7 0.108627 0.199554 0.466006
O O8 0.174764 0.103499 0.605574
O O9 0.170352 0.102002 0.298676
O O10 0.002822 0.109277 0.464082
O O11 0.000000 0.433243 0.250000
O O12 0.000000 0.500000 0.500000
O O13 0.500000 0.748815 0.250000
O O14 0.339037 0.938216 0.899978
O O15 0.250000 0.000000 0.694165
O O16 0.500000 0.063210 0.250000
O O17 0.500000 0.000000 0.500000
#
# Coordination Sequence:
#
# PCOD9422806 Si02
#       7
#     8   8   8   8   8   8   8
#     4   9  19  38  61  85 117 155 200 248 294 346
#     4   9  19  37  61  84 115 159 199 246 295 346
#     4  11  24  39  62  90 117 152 197 244 302 366
#     4   9  19  35  55  85 126 161 199 240 289 347
#     4   9  21  41  60  85 115 154 198 245 302 359
#     4  11  23  40  61  88 120 152 193 242 302 371
#     4  10  22  38  58  83 114 150 187 232 290 355
#
# _framework density 21.961463999999999
#
# number of rings (size 3 to 8) (size 9 to 14) (size 15 to 20)
#    0.000    2.286    1.429    2.143    2.000    6.857 
#    0.000    7.857    0.000    0.000    0.000    0.000 
#    0.000    0.000    0.000    0.000    0.000    0.000 
#
# Total GULP energy -312439.318654 kJ/mol
# GULP energy per Si atom -5579.273547 kJ/mol
# Density = 2.191148 g / cm^3
# Si number density = 21.961464 Si / 1000 Ang^3
#
#
#
# Elastic Constant Matrix: (Units=GPa)
#
#
# Indices 1 2 3 4 5 6 
#
# 1 78.8003 17.3609 27.0840 0.0000 0.0000 0.0000
# 2 17.3609 123.6057 17.7120 0.0000 0.0000 0.0000
# 3 27.0840 17.7120 51.9414 0.0000 0.0000 0.0000
# 4 0.0000 0.0000 0.0000 15.1320 0.0000 0.0000
# 5 0.0000 0.0000 0.0000 0.0000 41.3652 0.0000
# 6 0.0000 0.0000 0.0000 0.0000 0.0000 27.9777
#
#
#
# Elastic Compliance Matrix: (Units=1/GPa)
#
#
# Indices 1 2 3 4 5 6 
#
# 1 0.015597 -0.001078 -0.007765 0.000000 0.000000 0.000000
# 2 -0.001078 0.008580 -0.002364 0.000000 0.000000 0.000000
# 3 -0.007765 -0.002364 0.024107 0.000000 0.000000 0.000000
# 4 0.000000 0.000000 0.000000 0.066085 0.000000 0.000000
# 5 0.000000 0.000000 0.000000 0.000000 0.024175 0.000000
# 6 0.000000 0.000000 0.000000 0.000000 0.000000 0.035743
#
#
# Mechanical properties :
#
#
# Convention : Reuss Voigt Hill
#
# Bulk Modulus (GPa) = 38.65348 42.07348 40.36348
# Shear Modulus (GPa) = 24.35169 29.70767 27.02968
#
# Velocity S-wave (km/s) = 3.33353 3.68192 3.51205
# Velocity P-wave (km/s) = 5.69696 6.10531 5.90467
#
# Compressibility (1/GPa) = 0.02587089
#
# Stress axis : x y z
#
# Youngs Moduli (GPa) = 64.11623 116.54516 41.48088
#
# Poissons Ratio (x) = 0.12563 0.32210
# Poissons Ratio (y) = 0.06911 0.09805
# Poissons Ratio (z) = 0.49787 0.27549
#
# Static dielectric constant tensor:
#      x y z
#    x 1.901200 0.000000 0.000000 
#    y 0.000000 1.821030 0.000000 
#    z 0.000000 0.000000 1.844730 
# 
# From -- ./inp_files/3679.got.cif
#   From: 2010.05.17/outbox.cif.g08.bks.cpg/sg54_2_cif.got.tgz:3679.got - 2010.06.03 13:09:01.
