data_PCOD9422623
_publ_section_title
;
Structure prediction by ZEFSAII (Michael W. Deem and Ramdas Pophale) SiO2 
 PCOD9422623
Probable space group: P C C A
;
_chemical_formula_sum "Si O2"
_cell_formula_units_Z 56
_cell_length_a 18.891135
_cell_length_b 9.357908
_cell_length_c 16.098398
_cell_angle_alpha 90.000000
_cell_angle_beta 90.000000
_cell_angle_gamma 90.000000
_cell_volume 2845.899000
_symmetry_space_group_name_H-M "P C C A"
_symmetry_group_IT_number 54
_symmetry_cell_setting 'orthorhombic'
loop_
_space_group_symop_operation_xyz
x,y,z
1/2-x,-y,z
1/2+x,-y,1/2-z
-x,y,1/2-z
-x,-y,-z
1/2+x,y,-z
1/2-x,y,1/2+z
x,-y,1/2+z
loop_
_atom_site_type_symbol
_atom_site_label
_atom_site_fract_x
_atom_site_fract_y
_atom_site_fract_z
Si Si1 0.453071 0.172716 0.913350
Si Si2 0.462861 0.573773 0.171550
Si Si3 0.918763 0.703068 0.413396
Si Si4 0.053472 0.019587 0.673989
Si Si5 0.258542 0.671076 0.529082
Si Si6 0.788288 0.153242 0.134948
Si Si7 0.668501 0.774985 0.313639
O O1 0.485086 0.300646 0.857789
O O2 0.372507 0.139145 0.886195
O O3 0.506849 0.043201 0.901040
O O4 0.454201 0.230799 0.005773
O O5 0.500000 0.502757 0.250000
O O6 0.448479 0.452631 0.104945
O O7 0.389394 0.649489 0.195415
O O8 0.929048 0.815779 0.339525
O O9 0.836588 0.693728 0.434846
O O10 0.000000 0.997590 0.750000
O O11 0.123652 0.922693 0.681268
O O12 0.250000 0.500000 0.520836
O O13 0.255879 0.747924 0.438756
O O14 0.207675 0.740606 0.599391
O O15 0.785284 0.215295 0.229231
O O16 0.750000 0.000000 0.132904
#
# Coordination Sequence:
#
# PCOD9422623 Si02
#       7
#     8   8   8   8   8   8   8
#     4  10  21  42  63  95 131 169 213 273 327 391
#     4  11  20  42  68  95 128 177 213 269 336 397
#     4  11  24  38  66  98 135 166 222 272 323 397
#     4  11  22  41  66  99 131 169 218 275 333 397
#     4  11  26  46  64  97 135 178 227 268 334 405
#     4  11  25  43  69  98 130 175 227 273 330 399
#     4  11  23  44  68  93 137 178 215 279 338 390
#
# _framework density 19.677437000000001
#
# number of rings (size 3 to 8) (size 9 to 14) (size 15 to 20)
#    0.000    1.143    4.286    2.143    6.000    0.571 
#    0.000    0.000    0.000    0.000    0.000    0.000 
#    0.000    0.000    0.000    0.000    0.000    0.000 
#
# Total GULP energy -312606.746650 kJ/mol
# GULP energy per Si atom -5582.263333 kJ/mol
# Density = 1.963265 g / cm^3
# Si number density = 19.677437 Si / 1000 Ang^3
#
#
#
# Elastic Constant Matrix: (Units=GPa)
#
#
# Indices 1 2 3 4 5 6 
#
# 1 63.6091 43.2369 56.5349 0.0000 0.0000 0.0000
# 2 43.2369 124.6805 53.3818 0.0000 0.0000 0.0000
# 3 56.5349 53.3818 125.6455 0.0000 0.0000 0.0000
# 4 0.0000 0.0000 0.0000 -33.8627 0.0000 0.0000
# 5 0.0000 0.0000 0.0000 0.0000 8.0898 0.0000
# 6 0.0000 0.0000 0.0000 0.0000 0.0000 25.3526
#
#
#
# Elastic Compliance Matrix: (Units=1/GPa)
#
#
# Indices 1 2 3 4 5 6 
#
# 1 0.028943 -0.005453 -0.010706 0.000000 0.000000 0.000000
# 2 -0.005453 0.010831 -0.002148 0.000000 0.000000 0.000000
# 3 -0.010706 -0.002148 0.013689 0.000000 0.000000 0.000000
# 4 0.000000 0.000000 0.000000 -0.029531 0.000000 0.000000
# 5 0.000000 0.000000 0.000000 0.000000 0.123612 0.000000
# 6 0.000000 0.000000 0.000000 0.000000 0.000000 0.039444
#
#
# Mechanical properties :
#
#
# Convention : Reuss Voigt Hill
#
# Bulk Modulus (GPa) = 59.35317 68.91584 64.13450
# Shear Modulus (GPa) = 21.81317 10.63472 16.22394
#
# Velocity S-wave (km/s) = 3.33308 2.32729 2.87452
# Velocity P-wave (km/s) = 6.71127 6.50542 6.60915
#
# Compressibility (1/GPa) = 0.01684830
#
# Stress axis : x y z
#
# Youngs Moduli (GPa) = 34.55026 92.32548 73.05155
#
# Poissons Ratio (x) = 0.50346 0.78212
# Poissons Ratio (y) = 0.18841 0.15692
# Poissons Ratio (z) = 0.36991 0.19833
#
# Static dielectric constant tensor:
#      x y z
#    x 1.676160 0.000000 0.000000 
#    y 0.000000 1.670280 0.000000 
#    z 0.000000 0.000000 1.770320 
# 
# From -- ./inp_files/14682.got.cif
#   From: 2010.05.17/outbox.cif.g08.bks.cpg/sg54_8_cif.got.tgz:14682.got - 2010.06.03 13:09:01.
