data_PCOD9422494
_publ_section_title
;
Structure prediction by ZEFSAII (Michael W. Deem and Ramdas Pophale) SiO2 
 PCOD9422494
Probable space group: P C C A
;
_chemical_formula_sum "Si O2"
_cell_formula_units_Z 40
_cell_length_a 4.786247
_cell_length_b 29.753694
_cell_length_c 11.382053
_cell_angle_alpha 90.000000
_cell_angle_beta 90.000000
_cell_angle_gamma 90.000000
_cell_volume 1620.901421
_symmetry_space_group_name_H-M "P C C A"
_symmetry_group_IT_number 54
_symmetry_cell_setting 'orthorhombic'
loop_
_space_group_symop_operation_xyz
x,y,z
1/2-x,-y,z
1/2+x,-y,1/2-z
-x,y,1/2-z
-x,-y,-z
1/2+x,y,-z
1/2-x,y,1/2+z
x,-y,1/2+z
loop_
_atom_site_type_symbol
_atom_site_label
_atom_site_fract_x
_atom_site_fract_y
_atom_site_fract_z
Si Si1 0.000000 0.831938 0.750000
Si Si2 0.277757 0.600692 0.078166
Si Si3 0.000000 0.469768 0.750000
Si Si4 0.250000 0.000000 0.591050
Si Si5 0.714152 0.903389 0.916966
Si Si6 0.721690 0.298424 0.921784
Si Si7 0.500000 0.228033 0.250000
O O1 0.828932 0.863100 0.839738
O O2 0.749993 0.801994 0.694787
O O3 0.228640 0.651136 0.125950
O O4 0.164538 0.561938 0.159983
O O5 0.600266 0.597383 0.042671
O O6 0.250000 0.500000 0.804045
O O7 0.247629 0.951280 0.650147
O O8 0.500000 0.000000 0.500000
O O9 0.398149 0.902018 0.963118
O O10 0.834325 0.259686 0.839752
O O11 0.399290 0.295123 0.957418
#
# Coordination Sequence:
#
# PCOD9422494 Si02
#       7
#     4   8   4   4   8   8   4
#     4  12  26  38  58  92 122 162 194 230 308 364
#     4  10  22  41  63  87 117 154 202 252 294 346
#     4  12  25  38  59  90 124 163 196 235 302 362
#     4   8  16  34  60  82 104 144 190 234 280 324
#     4  10  21  40  61  84 118 153 194 243 286 342
#     4  10  22  41  65  88 113 155 203 250 300 342
#     4  12  25  40  59  88 124 153 198 245 288 368
#
# _framework density 24.677629
#
# number of rings (size 3 to 8) (size 9 to 14) (size 15 to 20)
#    0.000    1.600    0.000    4.200    0.000    7.200 
#    0.000   15.000    0.000    0.000    0.000    0.000 
#    0.000    0.000    0.000    0.000    0.000    0.000 
#
# Total GULP energy -223748.160114 kJ/mol
# GULP energy per Si atom -5593.704003 kJ/mol
# Density = 2.462146 g / cm^3
# Si number density = 24.677629 Si / 1000 Ang^3
#
#
#
# Elastic Constant Matrix: (Units=GPa)
#
#
# Indices 1 2 3 4 5 6 
#
# 1 115.2611 15.8957 -9.2170 0.0000 0.0000 0.0000
# 2 15.8957 142.1279 25.8428 0.0000 0.0000 0.0000
# 3 -9.2170 25.8428 26.0108 0.0000 0.0000 0.0000
# 4 0.0000 0.0000 0.0000 45.3421 0.0000 0.0000
# 5 0.0000 0.0000 0.0000 0.0000 33.2856 0.0000
# 6 0.0000 0.0000 0.0000 0.0000 0.0000 2.9192
#
#
#
# Elastic Compliance Matrix: (Units=1/GPa)
#
#
# Indices 1 2 3 4 5 6 
#
# 1 0.009380 -0.002018 0.005329 0.000000 0.000000 0.000000
# 2 -0.002018 0.009021 -0.009678 0.000000 0.000000 0.000000
# 3 0.005329 -0.009678 0.049950 0.000000 0.000000 0.000000
# 4 0.000000 0.000000 0.000000 0.022055 0.000000 0.000000
# 5 0.000000 0.000000 0.000000 0.000000 0.030043 0.000000
# 6 0.000000 0.000000 0.000000 0.000000 0.000000 0.342560
#
#
# Mechanical properties :
#
#
# Convention : Reuss Voigt Hill
#
# Bulk Modulus (GPa) = 17.98017 38.71588 28.34802
# Shear Modulus (GPa) = 10.11567 33.03460 21.57514
#
# Velocity S-wave (km/s) = 2.02683 3.66272 2.96003
# Velocity P-wave (km/s) = 3.57480 5.79742 4.81608
#
# Compressibility (1/GPa) = 0.05561684
#
# Stress axis : x y z
#
# Youngs Moduli (GPa) = 106.60520 110.84758 20.02015
#
# Poissons Ratio (x) = 0.22370 -0.10669
# Poissons Ratio (y) = 0.21514 0.19376
# Poissons Ratio (z) = -0.56810 1.07281
#
# Static dielectric constant tensor:
#      x y z
#    x 1.883000 0.000000 0.000000 
#    y 0.000000 2.016180 0.000000 
#    z 0.000000 0.000000 1.934970 
# 
# From -- ./inp_files/6483.got.cif
#   From: 2010.05.17/outbox.cif.g08.bks.cpg/sg54_4_cif.got.tgz:6483.got - 2010.06.03 13:09:01.
