data_PCOD9422667
_publ_section_title
;
Structure prediction by ZEFSAII (Michael W. Deem and Ramdas Pophale) SiO2 
 PCOD9422667
Probable space group: P C C A
;
_chemical_formula_sum "Si O2"
_cell_formula_units_Z 36
_cell_length_a 24.244794
_cell_length_b 4.924103
_cell_length_c 11.849426
_cell_angle_alpha 90.000000
_cell_angle_beta 90.000000
_cell_angle_gamma 90.000000
_cell_volume 1414.630249
_symmetry_space_group_name_H-M "P C C A"
_symmetry_group_IT_number 54
_symmetry_cell_setting 'orthorhombic'
loop_
_space_group_symop_operation_xyz
x,y,z
1/2-x,-y,z
1/2+x,-y,1/2-z
-x,y,1/2-z
-x,-y,-z
1/2+x,y,-z
1/2-x,y,1/2+z
x,-y,1/2+z
loop_
_atom_site_type_symbol
_atom_site_label
_atom_site_fract_x
_atom_site_fract_y
_atom_site_fract_z
Si Si1 0.500000 0.245349 0.750000
Si Si2 0.309009 0.430944 0.324454
Si Si3 0.073069 0.444884 0.929554
Si Si4 0.073658 0.945529 0.070223
Si Si5 0.191106 0.067602 0.166731
O O1 0.461795 0.434130 0.827897
O O2 0.540173 0.057811 0.824327
O O3 0.250000 0.500000 0.379190
O O4 0.362614 0.473455 0.398995
O O5 0.312037 0.628169 0.214687
O O6 0.310182 0.126596 0.276967
O O7 0.059821 0.137756 0.963490
O O8 0.937167 0.363625 0.962261
O O9 0.138145 0.994772 0.094248
O O10 0.250000 0.000000 0.110908
#
# Coordination Sequence:
#
# PCOD9422667 Si02
#       5
#     4   8   8   8   8
#     4  12  28  50  72  96 152 186 224 304 336 408
#     4  10  21  42  71 101 140 185 224 282 354 408
#     4  12  27  45  72 106 134 184 240 281 348 415
#     4  12  27  45  72 106 134 184 240 281 348 415
#     4  10  21  42  71 101 140 185 224 282 354 408
#
# _framework density 25.448342
#
# number of rings (size 3 to 8) (size 9 to 14) (size 15 to 20)
#    0.000    0.889    2.222    4.000    0.000    3.556 
#    0.000    0.000    0.000    0.000    0.000    0.000 
#    0.000    0.000    0.000    0.000    0.000    0.000 
#
# Total GULP energy -202183.200033 kJ/mol
# GULP energy per Si atom -5616.200001 kJ/mol
# Density = 2.539042 g / cm^3
# Si number density = 25.448342 Si / 1000 Ang^3
#
#
#
# Elastic Constant Matrix: (Units=GPa)
#
#
# Indices 1 2 3 4 5 6 
#
# 1 177.1155 18.7225 52.3369 0.0000 0.0000 0.0000
# 2 18.7225 94.3968 15.0841 0.0000 0.0000 0.0000
# 3 52.3369 15.0841 71.6362 0.0000 0.0000 0.0000
# 4 0.0000 0.0000 0.0000 27.6335 0.0000 0.0000
# 5 0.0000 0.0000 0.0000 0.0000 37.3961 0.0000
# 6 0.0000 0.0000 0.0000 0.0000 0.0000 35.2564
#
#
#
# Elastic Compliance Matrix: (Units=1/GPa)
#
#
# Indices 1 2 3 4 5 6 
#
# 1 0.007234 -0.000611 -0.005157 0.000000 0.000000 0.000000
# 2 -0.000611 0.011014 -0.001873 0.000000 0.000000 0.000000
# 3 -0.005157 -0.001873 0.018121 0.000000 0.000000 0.000000
# 4 0.000000 0.000000 0.000000 0.036188 0.000000 0.000000
# 5 0.000000 0.000000 0.000000 0.000000 0.026741 0.000000
# 6 0.000000 0.000000 0.000000 0.000000 0.000000 0.028364
#
#
# Mechanical properties :
#
#
# Convention : Reuss Voigt Hill
#
# Bulk Modulus (GPa) = 47.41880 57.27062 52.34471
# Shear Modulus (GPa) = 33.33938 37.19084 35.26511
#
# Velocity S-wave (km/s) = 3.62343 3.82701 3.72661
# Velocity P-wave (km/s) = 6.01494 6.48702 6.25544
#
# Compressibility (1/GPa) = 0.02108868
#
# Stress axis : x y z
#
# Youngs Moduli (GPa) = 138.22813 90.79339 55.18362
#
# Poissons Ratio (x) = 0.05546 0.28457
# Poissons Ratio (y) = 0.08443 0.10335
# Poissons Ratio (z) = 0.71281 0.17005
#
# Static dielectric constant tensor:
#      x y z
#    x 2.020340 0.000000 0.000000 
#    y 0.000000 1.915190 0.000000 
#    z 0.000000 0.000000 1.959830 
# 
# From -- ./inp_files/14784.got.cif
#   From: 2010.05.17/outbox.cif.g08.bks.cpg/sg54_8_cif.got.tgz:14784.got - 2010.06.03 13:09:01.
