data_PCOD9422402
_publ_section_title
;
Structure prediction by ZEFSAII (Michael W. Deem and Ramdas Pophale) SiO2 
 PCOD9422402
Probable space group: P C C A
;
_chemical_formula_sum "Si O2"
_cell_formula_units_Z 64
_cell_length_a 11.419517
_cell_length_b 9.289365
_cell_length_c 31.910784
_cell_angle_alpha 90.000000
_cell_angle_beta 90.000000
_cell_angle_gamma 90.000000
_cell_volume 3385.097930
_symmetry_space_group_name_H-M "P C C A"
_symmetry_group_IT_number 54
_symmetry_cell_setting 'orthorhombic'
loop_
_space_group_symop_operation_xyz
x,y,z
1/2-x,-y,z
1/2+x,-y,1/2-z
-x,y,1/2-z
-x,-y,-z
1/2+x,y,-z
1/2-x,y,1/2+z
x,-y,1/2+z
loop_
_atom_site_type_symbol
_atom_site_label
_atom_site_fract_x
_atom_site_fract_y
_atom_site_fract_z
Si Si1 0.074176 0.351149 0.639167
Si Si2 0.620605 0.327042 0.570923
Si Si3 0.392517 0.335220 0.426229
Si Si4 0.386729 0.838727 0.220551
Si Si5 0.739185 0.836441 0.919754
Si Si6 0.118714 0.182592 0.723593
Si Si7 0.946494 0.844647 0.489582
Si Si8 0.929039 0.310165 0.368913
O O1 0.152808 0.261235 0.607238
O O2 0.101827 0.284370 0.683673
O O3 0.098895 0.520934 0.636310
O O4 0.944756 0.324596 0.620672
O O5 0.597468 0.496060 0.562144
O O6 0.757546 0.297345 0.572719
O O7 0.569017 0.238161 0.532720
O O8 0.562086 0.295110 0.615739
O O9 0.465733 0.239182 0.458491
O O10 0.500000 0.802528 0.250000
O O11 0.255853 0.797578 0.238062
O O12 0.400764 0.767134 0.174710
O O13 0.387701 0.011525 0.214228
O O14 0.679123 0.847449 0.965330
O O15 0.859790 0.757969 0.908520
O O16 0.750000 0.000000 0.904018
O O17 0.000000 0.212152 0.750000
O O18 0.000000 0.000000 0.500000
#
# Coordination Sequence:
#
# PCOD9422402 Si02
#       8
#     8   8   8   8   8   8   8   8
#     4  10  21  39  61  89 119 158 206 258 298 370
#     4  10  22  40  61  81 119 162 201 256 307 377
#     4   9  22  42  57  82 117 161 205 249 311 370
#     4  10  22  40  63  93 129 165 209 254 311 378
#     4  11  22  37  59  86 119 158 197 252 305 365
#     4  10  21  39  63  91 127 167 204 251 313 380
#     4  11  24  38  58  86 120 155 204 260 313 367
#     4  11  22  38  63  92 120 157 212 253 312 364
#
# _framework density 18.906396000000001
#
# number of rings (size 3 to 8) (size 9 to 14) (size 15 to 20)
#    0.000    1.750    1.250    2.250    3.500    2.500 
#    4.500    0.000    0.000    0.000    0.000    0.000 
#    0.000    0.000    0.000    0.000    0.000    0.000 
#
# Total GULP energy -356616.546385 kJ/mol
# GULP energy per Si atom -5572.133537 kJ/mol
# Density = 1.886336 g / cm^3
# Si number density = 18.906396 Si / 1000 Ang^3
#
#
#
# Elastic Constant Matrix: (Units=GPa)
#
#
# Indices 1 2 3 4 5 6 
#
# 1 132.7481 52.2609 61.3336 0.0000 0.0000 0.0000
# 2 52.2609 46.9257 34.9081 0.0000 0.0000 0.0000
# 3 61.3336 34.9081 71.0684 0.0000 0.0000 0.0000
# 4 0.0000 0.0000 0.0000 15.0273 0.0000 0.0000
# 5 0.0000 0.0000 0.0000 0.0000 112.3451 0.0000
# 6 0.0000 0.0000 0.0000 0.0000 0.0000 20.0300
#
#
#
# Elastic Compliance Matrix: (Units=1/GPa)
#
#
# Indices 1 2 3 4 5 6 
#
# 1 0.015782 -0.011730 -0.007858 0.000000 0.000000 0.000000
# 2 -0.011730 0.042300 -0.010654 0.000000 0.000000 0.000000
# 3 -0.007858 -0.010654 0.026086 0.000000 0.000000 0.000000
# 4 0.000000 0.000000 0.000000 0.066546 0.000000 0.000000
# 5 0.000000 0.000000 0.000000 0.000000 0.008901 0.000000
# 6 0.000000 0.000000 0.000000 0.000000 0.000000 0.049925
#
#
# Mechanical properties :
#
#
# Convention : Reuss Voigt Hill
#
# Bulk Modulus (GPa) = 42.22480 60.86082 51.54281
# Shear Modulus (GPa) = 17.99093 36.29645 27.14369
#
# Velocity S-wave (km/s) = 3.08811 4.38630 3.79316
# Velocity P-wave (km/s) = 5.92430 7.61008 6.81948
#
# Compressibility (1/GPa) = 0.02368276
#
# Stress axis : x y z
#
# Youngs Moduli (GPa) = 63.36364 23.64089 38.33515
#
# Poissons Ratio (x) = 0.27732 0.30125
# Poissons Ratio (y) = 0.74328 0.40840
# Poissons Ratio (z) = 0.49793 0.25186
#
# Static dielectric constant tensor:
#      x y z
#    x 1.738740 0.000000 0.000000 
#    y 0.000000 1.628960 0.000000 
#    z 0.000000 0.000000 1.657890 
# 
# From -- ./inp_files/28126.got.cif
#   From: 2010.05.17/outbox.cif.g08.bks.cpg/sg54_15_cif.got.tgz:28126.got - 2010.06.03 13:09:01.
