data_PCOD9422996
_publ_section_title
;
Structure prediction by ZEFSAII (Michael W. Deem and Ramdas Pophale) SiO2 
 PCOD9422996
Probable space group: P C C A
;
_chemical_formula_sum "Si O2"
_cell_formula_units_Z 64
_cell_length_a 16.421291
_cell_length_b 6.553553
_cell_length_c 26.564727
_cell_angle_alpha 90.000000
_cell_angle_beta 90.000000
_cell_angle_gamma 90.000000
_cell_volume 2858.837501
_symmetry_space_group_name_H-M "P C C A"
_symmetry_group_IT_number 54
_symmetry_cell_setting 'orthorhombic'
loop_
_space_group_symop_operation_xyz
x,y,z
1/2-x,-y,z
1/2+x,-y,1/2-z
-x,y,1/2-z
-x,-y,-z
1/2+x,y,-z
1/2-x,y,1/2+z
x,-y,1/2+z
loop_
_atom_site_type_symbol
_atom_site_label
_atom_site_fract_x
_atom_site_fract_y
_atom_site_fract_z
Si Si1 0.833610 0.118127 0.889241
Si Si2 0.406055 0.152437 0.686512
Si Si3 0.154823 0.996829 0.436326
Si Si4 0.094701 0.906359 0.802201
Si Si5 0.172202 0.357131 0.380326
Si Si6 0.071300 0.877547 0.530475
Si Si7 0.940704 0.281589 0.642990
Si Si8 0.401452 0.481423 0.605176
O O1 0.830910 0.354005 0.904010
O O2 0.750000 0.000000 0.898878
O O3 0.863595 0.054563 0.833360
O O4 0.903364 0.019308 0.923677
O O5 0.391822 0.167323 0.745708
O O6 0.504242 0.161950 0.679344
O O7 0.374709 0.328690 0.649604
O O8 0.136037 0.237914 0.428914
O O9 0.250000 0.000000 0.422607
O O10 0.143838 0.893434 0.490070
O O11 0.096486 0.866858 0.400055
O O12 0.166890 0.821316 0.837769
O O13 0.078580 0.149544 0.807307
O O14 0.250000 0.500000 0.391514
O O15 0.112354 0.518280 0.356398
O O16 0.067612 0.654097 0.557265
O O17 0.000000 0.000000 0.500000
O O18 0.027697 0.371048 0.627401
#
# Coordination Sequence:
#
# PCOD9422996 Si02
#       8
#     8   8   8   8   8   8   8   8
#     4  11  25  47  66  97 140 180 231 299 351 412
#     4  10  22  43  65  98 129 177 233 284 338 419
#     4  11  23  40  62  95 137 173 212 275 336 400
#     4  10  22  40  66  96 133 173 233 282 336 414
#     4  11  22  40  62 100 139 176 219 278 351 416
#     4  11  25  42  69 100 135 175 235 283 339 427
#     4  11  21  39  67  92 133 176 219 279 340 408
#     4  11  23  43  72  97 134 185 230 284 352 415
#
# _framework density 22.38672
#
# number of rings (size 3 to 8) (size 9 to 14) (size 15 to 20)
#    0.000    1.250    3.750    1.875    3.500    6.000 
#    4.500    0.000    0.000    0.000    0.000    0.000 
#    0.000    0.000    0.000    0.000    0.000    0.000 
#
# Total GULP energy -356379.657862 kJ/mol
# GULP energy per Si atom -5568.432154 kJ/mol
# Density = 2.233577 g / cm^3
# Si number density = 22.386720 Si / 1000 Ang^3
#
#
#
# Elastic Constant Matrix: (Units=GPa)
#
#
# Indices 1 2 3 4 5 6 
#
# 1 59.0755 40.0810 20.6390 0.0000 0.0000 0.0000
# 2 40.0810 159.2236 35.2291 0.0000 0.0000 0.0000
# 3 20.6390 35.2291 81.1114 0.0000 0.0000 0.0000
# 4 0.0000 0.0000 0.0000 20.7611 0.0000 0.0000
# 5 0.0000 0.0000 0.0000 0.0000 14.4151 0.0000
# 6 0.0000 0.0000 0.0000 0.0000 0.0000 39.2446
#
#
#
# Elastic Compliance Matrix: (Units=1/GPa)
#
#
# Indices 1 2 3 4 5 6 
#
# 1 0.021233 -0.004591 -0.003409 0.000000 0.000000 0.000000
# 2 -0.004591 0.007941 -0.002281 0.000000 0.000000 0.000000
# 3 -0.003409 -0.002281 0.014187 0.000000 0.000000 0.000000
# 4 0.000000 0.000000 0.000000 0.048167 0.000000 0.000000
# 5 0.000000 0.000000 0.000000 0.000000 0.069372 0.000000
# 6 0.000000 0.000000 0.000000 0.000000 0.000000 0.025481
#
#
# Mechanical properties :
#
#
# Convention : Reuss Voigt Hill
#
# Bulk Modulus (GPa) = 43.86017 54.58985 49.22501
# Shear Modulus (GPa) = 23.30555 28.44827 25.87691
#
# Velocity S-wave (km/s) = 3.23002 3.56865 3.40355
# Velocity P-wave (km/s) = 5.79183 6.43570 6.12223
#
# Compressibility (1/GPa) = 0.02279973
#
# Stress axis : x y z
#
# Youngs Moduli (GPa) = 47.09623 125.93320 70.48833
#
# Poissons Ratio (x) = 0.57812 0.24029
# Poissons Ratio (y) = 0.21621 0.16077
# Poissons Ratio (z) = 0.16055 0.28722
#
# Static dielectric constant tensor:
#      x y z
#    x 1.966110 0.000000 0.000000 
#    y 0.000000 1.981920 0.000000 
#    z 0.000000 0.000000 1.866420 
# 
# From -- ./inp_files/28358.got.cif
#   From: 2010.05.17/outbox.cif.g08.bks.cpg/sg54_15_cif.got.tgz:28358.got - 2010.06.03 13:09:01.
