data_PCOD9422323
_publ_section_title
;
Structure prediction by ZEFSAII (Michael W. Deem and Ramdas Pophale) SiO2 
 PCOD9422323
Probable space group: P C C A
;
_chemical_formula_sum "Si O2"
_cell_formula_units_Z 40
_cell_length_a 5.067280
_cell_length_b 29.575859
_cell_length_c 12.183304
_cell_angle_alpha 90.000000
_cell_angle_beta 90.000000
_cell_angle_gamma 90.000000
_cell_volume 1825.901522
_symmetry_space_group_name_H-M "P C C A"
_symmetry_group_IT_number 54
_symmetry_cell_setting 'orthorhombic'
loop_
_space_group_symop_operation_xyz
x,y,z
1/2-x,-y,z
1/2+x,-y,1/2-z
-x,y,1/2-z
-x,-y,-z
1/2+x,y,-z
1/2-x,y,1/2+z
x,-y,1/2+z
loop_
_atom_site_type_symbol
_atom_site_label
_atom_site_fract_x
_atom_site_fract_y
_atom_site_fract_z
Si Si1 0.919958 0.760706 0.577843
Si Si2 0.243931 0.446443 0.065289
Si Si3 0.750000 0.000000 0.420892
Si Si4 0.732399 0.099714 0.418952
Si Si5 0.500000 0.835895 0.250000
Si Si6 0.000000 0.615983 0.250000
Si Si7 0.000000 0.318651 0.250000
O O1 0.674566 0.763372 0.497788
O O2 0.973227 0.715266 0.647129
O O3 0.876866 0.801817 0.661806
O O4 0.250000 0.500000 0.089953
O O5 0.381036 0.417055 0.157787
O O6 0.438138 0.437112 0.961406
O O7 0.753248 0.950883 0.365987
O O8 0.500000 0.000000 0.500000
O O9 0.459677 0.104536 0.486530
O O10 0.798056 0.133989 0.321060
O O11 0.753499 0.649561 0.234323
#
# Coordination Sequence:
#
# PCOD9422323 Si02
#       7
#     8   8   4   8   4   4   4
#     4  11  25  45  66  90 128 166 205 266 328 385
#     4  10  23  41  62  92 130 171 212 255 309 369
#     4   8  16  34  56  80 116 158 194 240 302 358
#     4  10  21  38  60  88 124 161 203 255 306 367
#     4  11  24  40  66  97 121 162 218 258 317 388
#     4  12  24  41  68  99 129 168 219 270 314 374
#     4  11  26  41  64  98 124 164 219 262 325 390
#
# _framework density 21.906987000000001
#
# number of rings (size 3 to 8) (size 9 to 14) (size 15 to 20)
#    0.000    1.600    0.000    3.600    0.000   12.800 
#    0.000    6.000    0.000    0.000    0.000    0.000 
#    0.000    0.000    0.000    0.000    0.000    0.000 
#
# Total GULP energy -223311.757529 kJ/mol
# GULP energy per Si atom -5582.793938 kJ/mol
# Density = 2.185713 g / cm^3
# Si number density = 21.906987 Si / 1000 Ang^3
#
#
#
# Elastic Constant Matrix: (Units=GPa)
#
#
# Indices 1 2 3 4 5 6 
#
# 1 145.5024 56.4869 38.1585 0.0000 0.0000 0.0000
# 2 56.4869 156.9222 84.9227 0.0000 0.0000 0.0000
# 3 38.1585 84.9227 107.4571 0.0000 0.0000 0.0000
# 4 0.0000 0.0000 0.0000 35.8999 0.0000 0.0000
# 5 0.0000 0.0000 0.0000 0.0000 6.7954 0.0000
# 6 0.0000 0.0000 0.0000 0.0000 0.0000 27.2155
#
#
#
# Elastic Compliance Matrix: (Units=1/GPa)
#
#
# Indices 1 2 3 4 5 6 
#
# 1 0.008049 -0.002360 -0.000993 0.000000 0.000000 0.000000
# 2 -0.002360 0.011827 -0.008509 0.000000 0.000000 0.000000
# 3 -0.000993 -0.008509 0.016383 0.000000 0.000000 0.000000
# 4 0.000000 0.000000 0.000000 0.027855 0.000000 0.000000
# 5 0.000000 0.000000 0.000000 0.000000 0.147159 0.000000
# 6 0.000000 0.000000 0.000000 0.000000 0.000000 0.036744
#
#
# Mechanical properties :
#
#
# Convention : Reuss Voigt Hill
#
# Bulk Modulus (GPa) = 79.77345 85.44643 82.60994
# Shear Modulus (GPa) = 18.12125 29.33640 23.72882
#
# Velocity S-wave (km/s) = 2.87921 3.66339 3.29471
# Velocity P-wave (km/s) = 6.89542 7.54869 7.22944
#
# Compressibility (1/GPa) = 0.01253550
#
# Stress axis : x y z
#
# Youngs Moduli (GPa) = 124.23245 84.55420 61.03875
#
# Poissons Ratio (x) = 0.19955 0.06063
# Poissons Ratio (y) = 0.29318 0.51935
# Poissons Ratio (z) = 0.12340 0.71943
#
# Static dielectric constant tensor:
#      x y z
#    x 1.777520 0.000000 0.000000 
#    y 0.000000 1.833840 0.000000 
#    z 0.000000 0.000000 1.835720 
# 
# From -- ./inp_files/6478.got.cif
#   From: 2010.05.17/outbox.cif.g08.bks.cpg/sg54_4_cif.got.tgz:6478.got - 2010.06.03 13:09:01.
