data_PCOD9422605
_publ_section_title
;
Structure prediction by ZEFSAII (Michael W. Deem and Ramdas Pophale) SiO2 
 PCOD9422605
Probable space group: P C C A
;
_chemical_formula_sum "Si O2"
_cell_formula_units_Z 56
_cell_length_a 17.007577
_cell_length_b 8.263954
_cell_length_c 19.034071
_cell_angle_alpha 90.000000
_cell_angle_beta 90.000000
_cell_angle_gamma 90.000000
_cell_volume 2675.235519
_symmetry_space_group_name_H-M "P C C A"
_symmetry_group_IT_number 54
_symmetry_cell_setting 'orthorhombic'
loop_
_space_group_symop_operation_xyz
x,y,z
1/2-x,-y,z
1/2+x,-y,1/2-z
-x,y,1/2-z
-x,-y,-z
1/2+x,y,-z
1/2-x,y,1/2+z
x,-y,1/2+z
loop_
_atom_site_type_symbol
_atom_site_label
_atom_site_fract_x
_atom_site_fract_y
_atom_site_fract_z
Si Si1 0.274519 0.830349 0.364541
Si Si2 0.618338 0.681856 0.829681
Si Si3 0.084012 0.584207 0.012837
Si Si4 0.551819 0.778529 0.122504
Si Si5 0.500000 0.541804 0.250000
Si Si6 0.432891 0.950112 0.190390
Si Si7 0.768076 0.820948 0.795659
Si Si8 0.250000 0.500000 0.951863
O O1 0.367031 0.850810 0.350254
O O2 0.240717 0.819838 0.285722
O O3 0.255234 0.664852 0.405261
O O4 0.250000 0.000000 0.399442
O O5 0.589090 0.639159 0.907177
O O6 0.574152 0.566907 0.774455
O O7 0.595692 0.866749 0.811215
O O8 0.713491 0.686042 0.830067
O O9 0.076812 0.722142 0.954210
O O10 0.167025 0.495060 0.994226
O O11 0.000000 0.500000 0.000000
O O12 0.525721 0.641025 0.179446
O O13 0.480321 0.902731 0.120703
O O14 0.500000 0.936567 0.250000
O O15 0.362164 0.820660 0.198174
O O16 0.750000 0.000000 0.825873
#
# Coordination Sequence:
#
# PCOD9422605 Si02
#       8
#     8   8   8   8   4   8   8   4
#     4  10  21  41  68 100 136 176 227 288 351 410
#     4  11  25  40  68 101 135 184 231 283 357 428
#     4  11  25  47  64  97 144 181 232 287 356 434
#     4  11  23  41  67  98 132 174 228 289 343 421
#     4  12  22  40  70 102 126 176 236 284 348 412
#     4  11  20  41  67 101 139 174 229 294 354 419
#     4   9  20  37  63 101 137 171 227 293 348 419
#     4  10  26  44  68  98 138 188 230 294 350 428
#
# _framework density 20.932736999999999
#
# number of rings (size 3 to 8) (size 9 to 14) (size 15 to 20)
#    0.000    1.429    4.286    0.000    4.000    2.857 
#    2.571   10.000    0.000    0.000    0.000    0.000 
#    0.000    0.000    0.000    0.000    0.000    0.000 
#
# Total GULP energy -311917.485797 kJ/mol
# GULP energy per Si atom -5569.955104 kJ/mol
# Density = 2.088509 g / cm^3
# Si number density = 20.932737 Si / 1000 Ang^3
#
#
#
# Elastic Constant Matrix: (Units=GPa)
#
#
# Indices 1 2 3 4 5 6 
#
# 1 151.1772 44.5299 18.6370 0.0000 0.0000 0.0000
# 2 44.5299 92.7974 11.9069 0.0000 0.0000 0.0000
# 3 18.6370 11.9069 61.7215 0.0000 0.0000 0.0000
# 4 0.0000 0.0000 0.0000 10.5053 0.0000 0.0000
# 5 0.0000 0.0000 0.0000 0.0000 21.3825 0.0000
# 6 0.0000 0.0000 0.0000 0.0000 0.0000 38.8556
#
#
#
# Elastic Compliance Matrix: (Units=1/GPa)
#
#
# Indices 1 2 3 4 5 6 
#
# 1 0.007872 -0.003561 -0.001690 0.000000 0.000000 0.000000
# 2 -0.003561 0.012660 -0.001367 0.000000 0.000000 0.000000
# 3 -0.001690 -0.001367 0.016976 0.000000 0.000000 0.000000
# 4 0.000000 0.000000 0.000000 0.095190 0.000000 0.000000
# 5 0.000000 0.000000 0.000000 0.000000 0.046767 0.000000
# 6 0.000000 0.000000 0.000000 0.000000 0.000000 0.025736
#
#
# Mechanical properties :
#
#
# Convention : Reuss Voigt Hill
#
# Bulk Modulus (GPa) = 41.19923 50.64931 45.92427
# Shear Modulus (GPa) = 22.07231 29.52350 25.79790
#
# Velocity S-wave (km/s) = 3.25074 3.75960 3.51439
# Velocity P-wave (km/s) = 5.81499 6.56467 6.20117
#
# Compressibility (1/GPa) = 0.02427230
#
# Stress axis : x y z
#
# Youngs Moduli (GPa) = 127.03445 78.98789 58.90710
#
# Poissons Ratio (x) = 0.28124 0.09956
# Poissons Ratio (y) = 0.45231 0.08054
# Poissons Ratio (z) = 0.21469 0.10799
#
# Static dielectric constant tensor:
#      x y z
#    x 1.957060 0.000000 0.000000 
#    y 0.000000 1.379820 0.000000 
#    z 0.000000 0.000000 2.628020 
# 
# From -- ./inp_files/21679.got.cif
#   From: 2010.05.17/outbox.cif.g08.bks.cpg/sg54_11_cif.got.tgz:21679.got - 2010.06.03 13:09:01.
