data_PCOD9422987
_publ_section_title
;
Structure prediction by ZEFSAII (Michael W. Deem and Ramdas Pophale) SiO2 
 PCOD9422987
Probable space group: P C C A
;
_chemical_formula_sum "Si O2"
_cell_formula_units_Z 44
_cell_length_a 16.577439
_cell_length_b 7.461770
_cell_length_c 17.751109
_cell_angle_alpha 90.000000
_cell_angle_beta 90.000000
_cell_angle_gamma 90.000000
_cell_volume 2195.759587
_symmetry_space_group_name_H-M "P C C A"
_symmetry_group_IT_number 54
_symmetry_cell_setting 'orthorhombic'
loop_
_space_group_symop_operation_xyz
x,y,z
1/2-x,-y,z
1/2+x,-y,1/2-z
-x,y,1/2-z
-x,-y,-z
1/2+x,y,-z
1/2-x,y,1/2+z
x,-y,1/2+z
loop_
_atom_site_type_symbol
_atom_site_label
_atom_site_fract_x
_atom_site_fract_y
_atom_site_fract_z
Si Si1 0.383091 0.013402 0.360559
Si Si2 0.000000 0.819374 0.250000
Si Si3 0.619890 0.666357 0.528589
Si Si4 0.941878 0.741585 0.515486
Si Si5 0.250000 0.500000 0.066042
Si Si6 0.250000 0.000000 0.240050
Si Si7 0.134038 0.259771 0.646326
O O1 0.402811 0.876448 0.426088
O O2 0.318166 0.939579 0.300547
O O3 0.462253 0.054520 0.312724
O O4 0.363614 0.206506 0.399565
O O5 0.931803 0.705401 0.290153
O O6 0.590242 0.458581 0.537717
O O7 0.539752 0.745400 0.487079
O O8 0.704879 0.648747 0.484546
O O9 0.910460 0.794062 0.431656
O O10 0.319585 0.432751 0.119701
O O11 0.199865 0.870346 0.184422
#
# Coordination Sequence:
#
# PCOD9422987 Si02
#       7
#     8   4   8   8   4   4   8
#     4  11  23  42  65  95 129 175 212 272 319 391
#     4  10  22  42  64  88 130 170 212 250 332 388
#     4  10  22  40  65  99 122 162 223 274 318 379
#     4  10  22  41  71  93 123 172 230 265 314 391
#     4  10  24  40  66  98 128 162 220 280 324 366
#     4  10  26  38  60  98 136 170 214 258 356 378
#     4  10  22  44  61  93 130 170 214 269 318 393
#
# _framework density 20.038623000000001
#
# number of rings (size 3 to 8) (size 9 to 14) (size 15 to 20)
#    0.000    1.818    1.818    0.545    7.636    1.455 
#    6.545    0.909    0.000    0.000    0.000    0.000 
#    0.000    0.000    0.000    0.000    0.000    0.000 
#
# Total GULP energy -244996.529483 kJ/mol
# GULP energy per Si atom -5568.102943 kJ/mol
# Density = 1.999301 g / cm^3
# Si number density = 20.038623 Si / 1000 Ang^3
#
#
#
# Elastic Constant Matrix: (Units=GPa)
#
#
# Indices 1 2 3 4 5 6 
#
# 1 74.6302 22.1644 21.3170 0.0000 0.0000 0.0000
# 2 22.1644 57.9130 53.2064 0.0000 0.0000 0.0000
# 3 21.3170 53.2064 105.6729 0.0000 0.0000 0.0000
# 4 0.0000 0.0000 0.0000 -1.9454 0.0000 0.0000
# 5 0.0000 0.0000 0.0000 0.0000 390.5698 0.0000
# 6 0.0000 0.0000 0.0000 0.0000 0.0000 8.5810
#
#
#
# Elastic Compliance Matrix: (Units=1/GPa)
#
#
# Indices 1 2 3 4 5 6 
#
# 1 0.015121 -0.005554 -0.000254 0.000000 0.000000 0.000000
# 2 -0.005554 0.034170 -0.016084 0.000000 0.000000 0.000000
# 3 -0.000254 -0.016084 0.017613 0.000000 0.000000 0.000000
# 4 0.000000 0.000000 0.000000 -0.514023 0.000000 0.000000
# 5 0.000000 0.000000 0.000000 0.000000 0.002560 0.000000
# 6 0.000000 0.000000 0.000000 0.000000 0.000000 0.116536
#
#
# Mechanical properties :
#
#
# Convention : Reuss Voigt Hill
#
# Bulk Modulus (GPa) = 43.25274 47.95464 45.60369
# Shear Modulus (GPa) = -18.08113 88.87630 35.39758
#
# Velocity S-wave (km/s) = -3.00711 6.66699 4.20750
# Velocity P-wave (km/s) = 3.09428 9.12404 6.81259
#
# Compressibility (1/GPa) = 0.02311992
#
# Stress axis : x y z
#
# Youngs Moduli (GPa) = 66.13149 29.26551 56.77679
#
# Poissons Ratio (x) = 0.16254 0.01442
# Poissons Ratio (y) = 0.36729 0.91321
# Poissons Ratio (z) = 0.01680 0.47071
#
# Static dielectric constant tensor:
#      x y z
#    x 3.705450 0.000000 0.000000 
#    y 0.000000 1.727310 0.000000 
#    z 0.000000 0.000000 1.706220 
# 
# From -- ./inp_files/14040.got.cif
#   From: 2010.05.17/outbox.cif.g08.bks.cpg/sg54_8_cif.got.tgz:14040.got - 2010.06.03 13:09:01.
