data_PCOD9422532
_publ_section_title
;
Structure prediction by ZEFSAII (Michael W. Deem and Ramdas Pophale) SiO2 
 PCOD9422532
Probable space group: P C C A
;
_chemical_formula_sum "Si O2"
_cell_formula_units_Z 64
_cell_length_a 9.298894
_cell_length_b 9.708221
_cell_length_c 30.450713
_cell_angle_alpha 90.000000
_cell_angle_beta 90.000000
_cell_angle_gamma 90.000000
_cell_volume 2748.959980
_symmetry_space_group_name_H-M "P C C A"
_symmetry_group_IT_number 54
_symmetry_cell_setting 'orthorhombic'
loop_
_space_group_symop_operation_xyz
x,y,z
1/2-x,-y,z
1/2+x,-y,1/2-z
-x,y,1/2-z
-x,-y,-z
1/2+x,y,-z
1/2-x,y,1/2+z
x,-y,1/2+z
loop_
_atom_site_type_symbol
_atom_site_label
_atom_site_fract_x
_atom_site_fract_y
_atom_site_fract_z
Si Si1 0.359541 0.712283 0.546425
Si Si2 0.402979 0.447241 0.786480
Si Si3 0.464713 0.256696 0.202168
Si Si4 0.254494 0.333286 0.640193
Si Si5 0.957728 0.684083 0.967473
Si Si6 0.093411 0.004056 0.068058
Si Si7 0.083469 0.683847 0.881253
Si Si8 0.843459 0.120016 0.628826
O O1 0.353617 0.695221 0.599068
O O2 0.208298 0.647862 0.533483
O O3 0.480953 0.655954 0.515166
O O4 0.369552 0.876510 0.535917
O O5 0.250000 0.500000 0.768453
O O6 0.500000 0.369003 0.750000
O O7 0.495183 0.582634 0.796256
O O8 0.375966 0.380976 0.834100
O O9 0.500000 0.199091 0.250000
O O10 0.304775 0.256618 0.183002
O O11 0.567268 0.191978 0.166329
O O12 0.250000 0.500000 0.645018
O O13 0.414691 0.277769 0.629537
O O14 0.049861 0.613924 0.928336
O O15 0.948071 0.849151 0.953292
O O16 0.956202 0.949473 0.095228
O O17 0.250000 0.000000 0.093347
O O18 0.220590 0.780983 0.891181
O O19 0.750000 0.000000 0.650179
#
# Coordination Sequence:
#
# PCOD9422532 Si02
#       8
#     8   8   8   8   8   8   8   8
#     4  10  22  38  64  93 134 172 229 277 335 399
#     4  11  24  42  69 103 131 169 228 289 341 395
#     4  11  25  43  70 100 131 174 230 282 338 406
#     4  11  23  44  70  96 136 182 222 285 349 407
#     4  10  22  39  60  97 132 176 227 270 337 402
#     4  10  21  40  65  94 129 176 225 281 331 394
#     4  11  24  40  64 102 136 175 221 282 341 401
#     4  12  24  42  69  97 141 178 220 275 346 411
#
# _framework density 23.281531999999999
#
# number of rings (size 3 to 8) (size 9 to 14) (size 15 to 20)
#    0.000    1.250    5.000    0.375    5.250    0.000 
#    0.000    5.625    0.000    0.000    0.000    0.000 
#    0.000    0.000    0.000    0.000    0.000    0.000 
#
# Total GULP energy -356527.361277 kJ/mol
# GULP energy per Si atom -5570.740020 kJ/mol
# Density = 2.322854 g / cm^3
# Si number density = 23.281532 Si / 1000 Ang^3
#
#
#
# Elastic Constant Matrix: (Units=GPa)
#
#
# Indices 1 2 3 4 5 6 
#
# 1 136.2924 30.6646 69.8319 0.0000 0.0000 0.0000
# 2 30.6646 58.5225 24.7072 0.0000 0.0000 0.0000
# 3 69.8319 24.7072 106.4523 0.0000 0.0000 0.0000
# 4 0.0000 0.0000 0.0000 24.3465 0.0000 0.0000
# 5 0.0000 0.0000 0.0000 0.0000 40.8195 0.0000
# 6 0.0000 0.0000 0.0000 0.0000 0.0000 20.5749
#
#
#
# Elastic Compliance Matrix: (Units=1/GPa)
#
#
# Indices 1 2 3 4 5 6 
#
# 1 0.011557 -0.003165 -0.006847 0.000000 0.000000 0.000000
# 2 -0.003165 0.019811 -0.002522 0.000000 0.000000 0.000000
# 3 -0.006847 -0.002522 0.014471 0.000000 0.000000 0.000000
# 4 0.000000 0.000000 0.000000 0.041074 0.000000 0.000000
# 5 0.000000 0.000000 0.000000 0.000000 0.024498 0.000000
# 6 0.000000 0.000000 0.000000 0.000000 0.000000 0.048603
#
#
# Mechanical properties :
#
#
# Convention : Reuss Voigt Hill
#
# Bulk Modulus (GPa) = 48.14379 61.29718 54.72048
# Shear Modulus (GPa) = 26.04104 28.88576 27.46340
#
# Velocity S-wave (km/s) = 3.34807 3.52620 3.43829
# Velocity P-wave (km/s) = 5.97243 6.55474 6.27035
#
# Compressibility (1/GPa) = 0.02077111
#
# Stress axis : x y z
#
# Youngs Moduli (GPa) = 86.52393 50.47826 69.10512
#
# Poissons Ratio (x) = 0.15977 0.47316
# Poissons Ratio (y) = 0.27387 0.17426
# Poissons Ratio (z) = 0.59243 0.12729
#
# Static dielectric constant tensor:
#      x y z
#    x 2.105450 0.000000 0.000000 
#    y 0.000000 2.008790 0.000000 
#    z 0.000000 0.000000 1.937580 
# 
# From -- ./inp_files/27952.got.cif
#   From: 2010.05.17/outbox.cif.g08.bks.cpg/sg54_14_cif.got.tgz:27952.got - 2010.06.03 13:09:01.
