data_PCOD9422809
_publ_section_title
;
Structure prediction by ZEFSAII (Michael W. Deem and Ramdas Pophale) SiO2 
 PCOD9422809
Probable space group: P C C A
;
_chemical_formula_sum "Si O2"
_cell_formula_units_Z 28
_cell_length_a 4.846212
_cell_length_b 20.017521
_cell_length_c 10.799930
_cell_angle_alpha 90.000000
_cell_angle_beta 90.000000
_cell_angle_gamma 90.000000
_cell_volume 1047.692035
_symmetry_space_group_name_H-M "P C C A"
_symmetry_group_IT_number 54
_symmetry_cell_setting 'orthorhombic'
loop_
_space_group_symop_operation_xyz
x,y,z
1/2-x,-y,z
1/2+x,-y,1/2-z
-x,y,1/2-z
-x,-y,-z
1/2+x,y,-z
1/2-x,y,1/2+z
x,-y,1/2+z
loop_
_atom_site_type_symbol
_atom_site_label
_atom_site_fract_x
_atom_site_fract_y
_atom_site_fract_z
Si Si1 0.191737 0.215458 0.914266
Si Si2 0.189558 0.425935 0.582691
Si Si3 0.677341 0.069064 0.087947
Si Si4 0.500000 0.678694 0.250000
O O1 0.301604 0.273564 0.829088
O O2 0.379578 0.219949 0.038419
O O3 0.231607 0.141661 0.855373
O O4 0.250000 0.500000 0.633847
O O5 0.372348 0.421191 0.456624
O O6 0.305103 0.368512 0.668177
O O7 0.750000 0.000000 0.155900
O O8 0.369088 0.067875 0.035390
#
# Coordination Sequence:
#
# PCOD9422809 Si02
#       4
#     8   8   8   4
#     4  10  22  38  58  90 126 160 205 255 304 364
#     4  10  24  44  64  90 123 160 206 254 302 368
#     4   8  14  28  52  78 110 155 198 240 294 350
#     4  12  24  40  68  94 126 166 202 254 320 370
#
# _framework density 26.72541
#
# number of rings (size 3 to 8) (size 9 to 14) (size 15 to 20)
#    0.000    2.286    0.000    1.714    0.000    8.000 
#    0.000    0.000    0.000   17.143    0.000    0.000 
#    0.000    0.000    0.000    0.000    0.000    0.000 
#
# Total GULP energy -157045.551674 kJ/mol
# GULP energy per Si atom -5608.769703 kJ/mol
# Density = 2.666458 g / cm^3
# Si number density = 26.725410 Si / 1000 Ang^3
#
#
#
# Elastic Constant Matrix: (Units=GPa)
#
#
# Indices 1 2 3 4 5 6 
#
# 1 98.3734 18.5528 12.8375 0.0000 0.0000 0.0000
# 2 18.5528 268.6398 65.5404 0.0000 0.0000 0.0000
# 3 12.8375 65.5404 57.4406 0.0000 0.0000 0.0000
# 4 0.0000 0.0000 0.0000 -372.4995 0.0000 0.0000
# 5 0.0000 0.0000 0.0000 0.0000 32.8734 0.0000
# 6 0.0000 0.0000 0.0000 0.0000 0.0000 41.1905
#
#
#
# Elastic Compliance Matrix: (Units=1/GPa)
#
#
# Indices 1 2 3 4 5 6 
#
# 1 0.010479 -0.000211 -0.002101 0.000000 0.000000 0.000000
# 2 -0.000211 0.005163 -0.005844 0.000000 0.000000 0.000000
# 3 -0.002101 -0.005844 0.024546 0.000000 0.000000 0.000000
# 4 0.000000 0.000000 0.000000 -0.002685 0.000000 0.000000
# 5 0.000000 0.000000 0.000000 0.000000 0.030420 0.000000
# 6 0.000000 0.000000 0.000000 0.000000 0.000000 0.024277
#
#
# Mechanical properties :
#
#
# Convention : Reuss Voigt Hill
#
# Bulk Modulus (GPa) = 41.88156 68.70169 55.29162
# Shear Modulus (GPa) = 42.92890 -37.85226 2.53832
#
# Velocity S-wave (km/s) = 4.01221 -3.76751 0.97562
# Velocity P-wave (km/s) = 6.09663 2.61472 4.69072
#
# Compressibility (1/GPa) = 0.02387686
#
# Stress axis : x y z
#
# Youngs Moduli (GPa) = 95.42560 193.69775 40.73916
#
# Poissons Ratio (x) = 0.04089 0.08560
# Poissons Ratio (y) = 0.02014 0.23806
# Poissons Ratio (z) = 0.20051 1.13187
#
# Static dielectric constant tensor:
#      x y z
#    x 1.982980 0.000000 0.000000 
#    y 0.000000 2.092120 0.000000 
#    z 0.000000 0.000000 2.061640 
# 
# From -- ./inp_files/6232.got.cif
#   From: 2010.05.17/outbox.cif.g08.bks.cpg/sg54_4_cif.got.tgz:6232.got - 2010.06.03 13:09:01.
