data_PCOD9422201
_publ_section_title
;
Structure prediction by ZEFSAII (Michael W. Deem and Ramdas Pophale) SiO2 
 PCOD9422201
Probable space group: P C C A
;
_chemical_formula_sum "Si O2"
_cell_formula_units_Z 40
_cell_length_a 19.055673
_cell_length_b 9.202576
_cell_length_c 9.051309
_cell_angle_alpha 90.000000
_cell_angle_beta 90.000000
_cell_angle_gamma 90.000000
_cell_volume 1587.249123
_symmetry_space_group_name_H-M "P C C A"
_symmetry_group_IT_number 54
_symmetry_cell_setting 'orthorhombic'
loop_
_space_group_symop_operation_xyz
x,y,z
1/2-x,-y,z
1/2+x,-y,1/2-z
-x,y,1/2-z
-x,-y,-z
1/2+x,y,-z
1/2-x,y,1/2+z
x,-y,1/2+z
loop_
_atom_site_type_symbol
_atom_site_label
_atom_site_fract_x
_atom_site_fract_y
_atom_site_fract_z
Si Si1 0.289915 0.856440 0.439974
Si Si2 0.191366 0.276251 0.138263
Si Si3 0.426615 0.808548 0.560122
Si Si4 0.574483 0.562071 0.171903
Si Si5 0.916694 0.781023 0.109688
O O1 0.279539 0.820112 0.270492
O O2 0.260569 0.716280 0.532618
O O3 0.372268 0.888917 0.456413
O O4 0.250000 0.000000 0.485754
O O5 0.142292 0.394192 0.226470
O O6 0.136694 0.207837 0.023370
O O7 0.422902 0.648826 0.483499
O O8 0.397603 0.829973 0.725384
O O9 0.508001 0.844772 0.566636
O O10 0.500000 0.601816 0.250000
O O11 0.573711 0.392409 0.137653
#
# Coordination Sequence:
#
# PCOD9422201 Si02
#       5
#     8   8   8   8   8
#     4  11  25  47  67  88 129 186 234 299 351 395
#     4  11  24  41  70  96 133 181 240 278 348 422
#     4  10  21  36  66 102 138 180 228 277 345 420
#     4  11  19  37  67 102 145 182 210 266 351 414
#     4  11  20  37  67 105 141 174 218 281 343 420
#
# _framework density 25.200832999999999
#
# number of rings (size 3 to 8) (size 9 to 14) (size 15 to 20)
#    0.000    1.200    4.000    3.600    0.000    0.000 
#    0.000   19.000    4.400    0.000    0.000    0.000 
#    0.000    0.000    0.000    0.000    0.000    0.000 
#
# Total GULP energy -223348.449720 kJ/mol
# GULP energy per Si atom -5583.711243 kJ/mol
# Density = 2.514347 g / cm^3
# Si number density = 25.200833 Si / 1000 Ang^3
#
#
#
# Elastic Constant Matrix: (Units=GPa)
#
#
# Indices 1 2 3 4 5 6 
#
# 1 130.0925 8.1435 31.0521 0.0000 0.0000 0.0000
# 2 8.1435 56.0557 2.3837 0.0000 0.0000 0.0000
# 3 31.0521 2.3837 152.5157 0.0000 0.0000 0.0000
# 4 0.0000 0.0000 0.0000 20.3598 0.0000 0.0000
# 5 0.0000 0.0000 0.0000 0.0000 60.0472 0.0000
# 6 0.0000 0.0000 0.0000 0.0000 0.0000 16.8099
#
#
#
# Elastic Compliance Matrix: (Units=1/GPa)
#
#
# Indices 1 2 3 4 5 6 
#
# 1 0.008148 -0.001114 -0.001642 0.000000 0.000000 0.000000
# 2 -0.001114 0.018004 -0.000055 0.000000 0.000000 0.000000
# 3 -0.001642 -0.000055 0.006892 0.000000 0.000000 0.000000
# 4 0.000000 0.000000 0.000000 0.049116 0.000000 0.000000
# 5 0.000000 0.000000 0.000000 0.000000 0.016654 0.000000
# 6 0.000000 0.000000 0.000000 0.000000 0.000000 0.059489
#
#
# Mechanical properties :
#
#
# Convention : Reuss Voigt Hill
#
# Bulk Modulus (GPa) = 36.46511 46.86916 41.66714
# Shear Modulus (GPa) = 28.89106 39.24901 34.07004
#
# Velocity S-wave (km/s) = 3.38957 3.95073 3.68086
# Velocity P-wave (km/s) = 5.46078 6.28090 5.88515
#
# Compressibility (1/GPa) = 0.02742347
#
# Stress axis : x y z
#
# Youngs Moduli (GPa) = 122.72337 55.54461 145.10034
#
# Poissons Ratio (x) = 0.06187 0.23820
# Poissons Ratio (y) = 0.13671 0.00792
# Poissons Ratio (z) = 0.20146 0.00303
#
# Static dielectric constant tensor:
#      x y z
#    x 2.033410 0.000000 0.000000 
#    y 0.000000 2.077280 0.000000 
#    z 0.000000 0.000000 1.933890 
# 
# From -- ./inp_files/3969.got.cif
#   From: 2010.05.17/outbox.cif.g08.bks.cpg/sg54_2_cif.got.tgz:3969.got - 2010.06.03 13:09:01.
