data_PCOD9422600
_publ_section_title
;
Structure prediction by ZEFSAII (Michael W. Deem and Ramdas Pophale) SiO2 
 PCOD9422600
Probable space group: P C C A
;
_chemical_formula_sum "Si O2"
_cell_formula_units_Z 48
_cell_length_a 5.187355
_cell_length_b 30.067043
_cell_length_c 13.778359
_cell_angle_alpha 90.000000
_cell_angle_beta 90.000000
_cell_angle_gamma 90.000000
_cell_volume 2148.988964
_symmetry_space_group_name_H-M "P C C A"
_symmetry_group_IT_number 54
_symmetry_cell_setting 'orthorhombic'
loop_
_space_group_symop_operation_xyz
x,y,z
1/2-x,-y,z
1/2+x,-y,1/2-z
-x,y,1/2-z
-x,-y,-z
1/2+x,y,-z
1/2-x,y,1/2+z
x,-y,1/2+z
loop_
_atom_site_type_symbol
_atom_site_label
_atom_site_fract_x
_atom_site_fract_y
_atom_site_fract_z
Si Si1 0.983354 0.412116 0.102412
Si Si2 0.000000 0.236110 0.250000
Si Si3 0.007926 0.928562 0.559273
Si Si4 0.250000 0.500000 0.319272
Si Si5 0.011390 0.375249 0.616092
Si Si6 0.979232 0.824258 0.563075
Si Si7 0.000000 0.295837 0.750000
Si Si8 0.250000 0.000000 0.302200
O O1 0.852168 0.460275 0.110597
O O2 0.774275 0.382425 0.156636
O O3 0.267056 0.409859 0.146059
O O4 0.021767 0.388323 0.997560
O O5 0.036874 0.205183 0.156297
O O6 0.749176 0.266068 0.230820
O O7 0.803965 0.936239 0.471071
O O8 0.986737 0.876860 0.587548
O O9 0.898680 0.962004 0.638087
O O10 0.500000 0.491501 0.250000
O O11 0.074075 0.326921 0.656871
O O12 0.699192 0.815495 0.517190
O O13 0.500000 0.021641 0.250000
#
# Coordination Sequence:
#
# PCOD9422600 Si02
#       8
#     8   4   8   4   8   8   4   4
#     4  10  23  44  66  99 133 176 216 269 326 393
#     4  12  26  48  72 106 144 172 238 306 356 432
#     4  10  21  41  66  90 135 186 235 288 359 430
#     4  12  26  40  68 106 140 180 228 278 322 388
#     4  10  23  43  69  92 130 171 218 266 334 397
#     4  10  23  46  71 103 138 187 233 292 371 436
#     4  12  26  46  70 106 132 176 228 288 352 418
#     4  12  24  36  58 104 136 182 240 296 344 426
#
# _framework density 22.336086000000002
#
# number of rings (size 3 to 8) (size 9 to 14) (size 15 to 20)
#    0.000    1.333    0.000    4.500    4.667    2.667 
#   19.500    0.000    0.000    0.000    0.000    0.000 
#    0.000    0.000    0.000    0.000    0.000    0.000 
#
# Total GULP energy -267659.974551 kJ/mol
# GULP energy per Si atom -5576.249470 kJ/mol
# Density = 2.228525 g / cm^3
# Si number density = 22.336086 Si / 1000 Ang^3
#
#
#
# Elastic Constant Matrix: (Units=GPa)
#
#
# Indices 1 2 3 4 5 6 
#
# 1 131.4814 13.2012 -4.2521 0.0000 0.0000 0.0000
# 2 13.2012 69.9622 46.5787 0.0000 0.0000 0.0000
# 3 -4.2521 46.5787 100.6242 0.0000 0.0000 0.0000
# 4 0.0000 0.0000 0.0000 32.8904 0.0000 0.0000
# 5 0.0000 0.0000 0.0000 0.0000 17.0447 0.0000
# 6 0.0000 0.0000 0.0000 0.0000 0.0000 -54.0910
#
#
#
# Elastic Compliance Matrix: (Units=1/GPa)
#
#
# Indices 1 2 3 4 5 6 
#
# 1 0.007902 -0.002477 0.001480 0.000000 0.000000 0.000000
# 2 -0.002477 0.021437 -0.010028 0.000000 0.000000 0.000000
# 3 0.001480 -0.010028 0.014642 0.000000 0.000000 0.000000
# 4 0.000000 0.000000 0.000000 0.030404 0.000000 0.000000
# 5 0.000000 0.000000 0.000000 0.000000 0.058669 0.000000
# 6 0.000000 0.000000 0.000000 0.000000 0.000000 -0.018487
#
#
# Mechanical properties :
#
#
# Convention : Reuss Voigt Hill
#
# Bulk Modulus (GPa) = 45.59262 45.90258 45.74760
# Shear Modulus (GPa) = 34.73993 15.60482 25.17237
#
# Velocity S-wave (km/s) = 3.94804 2.64604 3.36070
# Velocity P-wave (km/s) = 6.42177 5.47091 5.96532
#
# Compressibility (1/GPa) = 0.02193337
#
# Stress axis : x y z
#
# Youngs Moduli (GPa) = 126.54742 46.64853 68.29513
#
# Poissons Ratio (x) = 0.11553 -0.10110
# Poissons Ratio (y) = 0.31341 0.68485
# Poissons Ratio (z) = -0.18733 0.46778
#
# Static dielectric constant tensor:
#      x y z
#    x 1.889750 0.000000 0.000000 
#    y 0.000000 1.807300 0.000000 
#    z 0.000000 0.000000 1.590400 
# 
# From -- ./inp_files/10950.got.cif
#   From: 2010.05.17/outbox.cif.g08.bks.cpg/sg54_6_cif.got.tgz:10950.got - 2010.06.03 13:09:01.
