data_PCOD9422970
_publ_section_title
;
Structure prediction by ZEFSAII (Michael W. Deem and Ramdas Pophale) SiO2 
 PCOD9422970
Probable space group: P C C A
;
_chemical_formula_sum "Si O2"
_cell_formula_units_Z 48
_cell_length_a 8.463135
_cell_length_b 13.960276
_cell_length_c 18.365658
_cell_angle_alpha 90.000000
_cell_angle_beta 90.000000
_cell_angle_gamma 90.000000
_cell_volume 2169.860259
_symmetry_space_group_name_H-M "P C C A"
_symmetry_group_IT_number 54
_symmetry_cell_setting 'orthorhombic'
loop_
_space_group_symop_operation_xyz
x,y,z
1/2-x,-y,z
1/2+x,-y,1/2-z
-x,y,1/2-z
-x,-y,-z
1/2+x,y,-z
1/2-x,y,1/2+z
x,-y,1/2+z
loop_
_atom_site_type_symbol
_atom_site_label
_atom_site_fract_x
_atom_site_fract_y
_atom_site_fract_z
Si Si1 0.652439 0.403508 0.198521
Si Si2 0.492328 0.722880 0.591159
Si Si3 0.083169 0.095579 0.103117
Si Si4 0.264526 0.215988 0.222118
Si Si5 0.910061 0.949723 0.180267
Si Si6 0.712407 0.182196 0.518986
O O1 0.750000 0.500000 0.193884
O O2 0.500000 0.417086 0.250000
O O3 0.579367 0.371170 0.120959
O O4 0.755921 0.316571 0.234903
O O5 0.396443 0.761640 0.660690
O O6 0.636028 0.790151 0.566522
O O7 0.366514 0.728271 0.525290
O O8 0.133066 0.160193 0.174016
O O9 0.215867 0.112656 0.042223
O O10 0.039150 0.985156 0.121330
O O11 0.925467 0.140470 0.068173
O O12 0.338663 0.144867 0.281487
O O13 0.000000 0.993935 0.250000
O O14 0.750000 0.000000 0.156255
#
# Coordination Sequence:
#
# PCOD9422970 Si02
#       6
#     8   8   8   8   8   8
#     4  10  22  41  66  99 130 162 209 271 340 386
#     4   9  19  38  65  90 128 170 209 268 324 375
#     4  10  22  40  64  94 127 176 222 258 324 381
#     4  10  22  41  66  94 134 166 212 275 327 383
#     4  12  24  39  62  94 131 166 216 260 322 392
#     4   9  20  39  64  91 128 175 222 263 310 383
#
# _framework density 22.121241000000001
#
# number of rings (size 3 to 8) (size 9 to 14) (size 15 to 20)
#    0.000    2.000    1.667    1.500    4.667    1.333 
#    0.000    1.667    0.000    7.000    0.000    0.000 
#    0.000    0.000    0.000    0.000    0.000    0.000 
#
# Total GULP energy -267481.824784 kJ/mol
# GULP energy per Si atom -5572.538016 kJ/mol
# Density = 2.207089 g / cm^3
# Si number density = 22.121241 Si / 1000 Ang^3
#
#
#
# Elastic Constant Matrix: (Units=GPa)
#
#
# Indices 1 2 3 4 5 6 
#
# 1 89.5235 51.6335 34.0701 0.0000 0.0000 0.0000
# 2 51.6335 146.6392 58.3338 0.0000 0.0000 0.0000
# 3 34.0701 58.3338 94.9860 0.0000 0.0000 0.0000
# 4 0.0000 0.0000 0.0000 17.1984 0.0000 0.0000
# 5 0.0000 0.0000 0.0000 0.0000 46.4290 0.0000
# 6 0.0000 0.0000 0.0000 0.0000 0.0000 39.8152
#
#
#
# Elastic Compliance Matrix: (Units=1/GPa)
#
#
# Indices 1 2 3 4 5 6 
#
# 1 0.014536 -0.004028 -0.002740 0.000000 0.000000 0.000000
# 2 -0.004028 0.010140 -0.004783 0.000000 0.000000 0.000000
# 3 -0.002740 -0.004783 0.014448 0.000000 0.000000 0.000000
# 4 0.000000 0.000000 0.000000 0.058145 0.000000 0.000000
# 5 0.000000 0.000000 0.000000 0.000000 0.021538 0.000000
# 6 0.000000 0.000000 0.000000 0.000000 0.000000 0.025116
#
#
# Mechanical properties :
#
#
# Convention : Reuss Voigt Hill
#
# Bulk Modulus (GPa) = 62.41201 68.80262 65.60731
# Shear Modulus (GPa) = 29.00782 33.16259 31.08520
#
# Velocity S-wave (km/s) = 3.62513 3.87606 3.75269
# Velocity P-wave (km/s) = 6.76734 7.15554 6.96415
#
# Compressibility (1/GPa) = 0.01602256
#
# Stress axis : x y z
#
# Youngs Moduli (GPa) = 68.79242 98.61450 69.21460
#
# Poissons Ratio (x) = 0.39727 0.18965
# Poissons Ratio (y) = 0.27713 0.33103
# Poissons Ratio (z) = 0.18849 0.47164
#
# Static dielectric constant tensor:
#      x y z
#    x 1.849100 0.000000 0.000000 
#    y 0.000000 1.884680 0.000000 
#    z 0.000000 0.000000 1.841660 
# 
# From -- ./inp_files/20401.got.cif
#   From: 2010.05.17/outbox.cif.g08.bks.cpg/sg54_11_cif.got.tgz:20401.got - 2010.06.03 13:09:01.
