data_PCOD9422714
_publ_section_title
;
Structure prediction by ZEFSAII (Michael W. Deem and Ramdas Pophale) SiO2 
 PCOD9422714
Probable space group: P C C A
;
_chemical_formula_sum "Si O2"
_cell_formula_units_Z 36
_cell_length_a 5.439376
_cell_length_b 21.666968
_cell_length_c 13.025487
_cell_angle_alpha 90.000000
_cell_angle_beta 90.000000
_cell_angle_gamma 90.000000
_cell_volume 1535.115979
_symmetry_space_group_name_H-M "P C C A"
_symmetry_group_IT_number 54
_symmetry_cell_setting 'orthorhombic'
loop_
_space_group_symop_operation_xyz
x,y,z
1/2-x,-y,z
1/2+x,-y,1/2-z
-x,y,1/2-z
-x,-y,-z
1/2+x,y,-z
1/2-x,y,1/2+z
x,-y,1/2+z
loop_
_atom_site_type_symbol
_atom_site_label
_atom_site_fract_x
_atom_site_fract_y
_atom_site_fract_z
Si Si1 0.750000 0.000000 0.694332
Si Si2 0.142722 0.777708 0.552123
Si Si3 0.833680 0.081712 0.523533
Si Si4 0.500000 0.285479 0.750000
Si Si5 0.832618 0.371950 0.067878
Si Si6 0.750000 0.500000 0.683259
O O1 0.784091 0.935314 0.632353
O O2 0.500000 0.991804 0.750000
O O3 0.388345 0.754210 0.497453
O O4 0.132840 0.850290 0.522457
O O5 0.147354 0.758855 0.671059
O O6 0.605827 0.055083 0.459700
O O7 0.347146 0.328810 0.828839
O O8 0.809372 0.440843 0.113485
O O9 0.592185 0.364826 0.994333
O O10 0.500000 0.511594 0.750000
#
# Coordination Sequence:
#
# PCOD9422714 Si02
#       6
#     4   8   8   4   8   4
#     4  12  24  40  70 112 142 186 242 290 368 444
#     4  10  24  47  70 104 143 187 244 306 362 430
#     4  10  21  44  68  96 145 181 227 302 354 424
#     4  12  26  48  78 106 148 202 254 300 368 454
#     4  12  27  46  75 110 153 195 248 314 377 436
#     4  12  24  48  76 112 150 202 250 306 380 454
#
# _framework density 23.450997999999998
#
# number of rings (size 3 to 8) (size 9 to 14) (size 15 to 20)
#    0.000    0.889    1.111    5.333    0.000    2.667 
#   24.000    0.000    0.000    0.000    0.000    0.000 
#    0.000    0.000    0.000    0.000    0.000    0.000 
#
# Total GULP energy -200440.159019 kJ/mol
# GULP energy per Si atom -5567.782195 kJ/mol
# Density = 2.339762 g / cm^3
# Si number density = 23.450998 Si / 1000 Ang^3
#
#
#
# Elastic Constant Matrix: (Units=GPa)
#
#
# Indices 1 2 3 4 5 6 
#
# 1 186.5474 36.7521 68.6267 0.0000 0.0000 0.0000
# 2 36.7521 150.8446 72.2635 0.0000 0.0000 0.0000
# 3 68.6267 72.2635 167.8559 0.0000 0.0000 0.0000
# 4 0.0000 0.0000 0.0000 61.5762 0.0000 0.0000
# 5 0.0000 0.0000 0.0000 0.0000 58.7984 0.0000
# 6 0.0000 0.0000 0.0000 0.0000 0.0000 30.9141
#
#
#
# Elastic Compliance Matrix: (Units=1/GPa)
#
#
# Indices 1 2 3 4 5 6 
#
# 1 0.006327 -0.000381 -0.002423 0.000000 0.000000 0.000000
# 2 -0.000381 0.008375 -0.003450 0.000000 0.000000 0.000000
# 3 -0.002423 -0.003450 0.008433 0.000000 0.000000 0.000000
# 4 0.000000 0.000000 0.000000 0.016240 0.000000 0.000000
# 5 0.000000 0.000000 0.000000 0.000000 0.017007 0.000000
# 6 0.000000 0.000000 0.000000 0.000000 0.000000 0.032348
#
#
# Mechanical properties :
#
#
# Convention : Reuss Voigt Hill
#
# Bulk Modulus (GPa) = 94.08952 95.61472 94.85212
# Shear Modulus (GPa) = 47.71947 52.09811 49.90879
#
# Velocity S-wave (km/s) = 4.51583 4.71847 4.61826
# Velocity P-wave (km/s) = 8.20970 8.39916 8.30497
#
# Compressibility (1/GPa) = 0.01062818
#
# Stress axis : x y z
#
# Youngs Moduli (GPa) = 158.05600 119.40676 118.57991
#
# Poissons Ratio (x) = 0.04548 0.28729
# Poissons Ratio (y) = 0.06020 0.40906
# Poissons Ratio (z) = 0.38293 0.41192
#
# Static dielectric constant tensor:
#      x y z
#    x 1.937030 0.000000 0.000000 
#    y 0.000000 1.455330 0.000000 
#    z 0.000000 0.000000 1.893910 
# 
# From -- ./inp_files/6384.got.cif
#   From: 2010.05.17/outbox.cif.g08.bks.cpg/sg54_4_cif.got.tgz:6384.got - 2010.06.03 13:09:01.
