data_PCOD9422834
_publ_section_title
;
Structure prediction by ZEFSAII (Michael W. Deem and Ramdas Pophale) SiO2 
 PCOD9422834
Probable space group: P C C A
;
_chemical_formula_sum "Si O2"
_cell_formula_units_Z 40
_cell_length_a 15.213839
_cell_length_b 6.540381
_cell_length_c 15.974134
_cell_angle_alpha 90.000000
_cell_angle_beta 90.000000
_cell_angle_gamma 90.000000
_cell_volume 1589.495078
_symmetry_space_group_name_H-M "P C C A"
_symmetry_group_IT_number 54
_symmetry_cell_setting 'orthorhombic'
loop_
_space_group_symop_operation_xyz
x,y,z
1/2-x,-y,z
1/2+x,-y,1/2-z
-x,y,1/2-z
-x,-y,-z
1/2+x,y,-z
1/2-x,y,1/2+z
x,-y,1/2+z
loop_
_atom_site_type_symbol
_atom_site_label
_atom_site_fract_x
_atom_site_fract_y
_atom_site_fract_z
Si Si1 0.500000 0.025266 0.750000
Si Si2 0.151385 0.999163 0.478246
Si Si3 0.529427 0.328736 0.596645
Si Si4 0.750000 0.500000 0.251386
Si Si5 0.881999 0.274791 0.668468
Si Si6 0.836500 0.372081 0.413050
O O1 0.579846 0.865124 0.741845
O O2 0.501134 0.163152 0.667549
O O3 0.102502 0.844051 0.416806
O O4 0.166930 0.868320 0.563033
O O5 0.250000 0.000000 0.443339
O O6 0.095227 0.205787 0.466789
O O7 0.577635 0.504708 0.648970
O O8 0.437058 0.420282 0.562852
O O9 0.717367 0.319635 0.193492
O O10 0.824603 0.423179 0.315321
O O11 0.750000 0.500000 0.449347
#
# Coordination Sequence:
#
# PCOD9422834 Si02
#       6
#     4   8   8   4   8   8
#     4  10  22  38  68 104 132 178 236 294 346 436
#     4  11  26  44  69 101 136 186 239 296 356 446
#     4  11  23  44  71  98 144 188 240 294 371 430
#     4  10  22  38  70  98 134 188 220 298 364 416
#     4  11  23  43  73  99 140 180 236 289 361 424
#     4  10  25  44  65 101 139 188 234 297 361 430
#
# _framework density 25.165222
#
# number of rings (size 3 to 8) (size 9 to 14) (size 15 to 20)
#    0.600    0.800    0.000    4.800    4.200    4.000 
#    3.600    0.000    0.000    0.000    0.000    0.000 
#    0.000    0.000    0.000    0.000    0.000    0.000 
#
# Total GULP energy -222924.690488 kJ/mol
# GULP energy per Si atom -5573.117262 kJ/mol
# Density = 2.510794 g / cm^3
# Si number density = 25.165222 Si / 1000 Ang^3
#
#
#
# Elastic Constant Matrix: (Units=GPa)
#
#
# Indices 1 2 3 4 5 6 
#
# 1 138.3971 55.7955 13.2856 0.0000 0.0000 0.0000
# 2 55.7955 151.0551 52.1101 0.0000 0.0000 0.0000
# 3 13.2856 52.1101 49.9216 0.0000 0.0000 0.0000
# 4 0.0000 0.0000 0.0000 37.3634 0.0000 0.0000
# 5 0.0000 0.0000 0.0000 0.0000 33.4622 0.0000
# 6 0.0000 0.0000 0.0000 0.0000 0.0000 51.6533
#
#
#
# Elastic Compliance Matrix: (Units=1/GPa)
#
#
# Indices 1 2 3 4 5 6 
#
# 1 0.008571 -0.003718 0.001600 0.000000 0.000000 0.000000
# 2 -0.003718 0.011958 -0.011493 0.000000 0.000000 0.000000
# 3 0.001600 -0.011493 0.031602 0.000000 0.000000 0.000000
# 4 0.000000 0.000000 0.000000 0.026764 0.000000 0.000000
# 5 0.000000 0.000000 0.000000 0.000000 0.029884 0.000000
# 6 0.000000 0.000000 0.000000 0.000000 0.000000 0.019360
#
#
# Mechanical properties :
#
#
# Convention : Reuss Voigt Hill
#
# Bulk Modulus (GPa) = 40.14520 64.63958 52.39239
# Shear Modulus (GPa) = 30.55025 39.04129 34.79577
#
# Velocity S-wave (km/s) = 3.48801 3.94305 3.72249
# Velocity P-wave (km/s) = 5.67529 6.81704 6.27220
#
# Compressibility (1/GPa) = 0.02490958
#
# Stress axis : x y z
#
# Youngs Moduli (GPa) = 116.67499 83.62551 31.64310
#
# Poissons Ratio (x) = 0.31089 -0.05062
# Poissons Ratio (y) = 0.43376 0.36367
# Poissons Ratio (z) = -0.18665 0.96110
#
# Static dielectric constant tensor:
#      x y z
#    x 2.103130 0.000000 0.000000 
#    y 0.000000 2.027520 0.000000 
#    z 0.000000 0.000000 2.054780 
# 
# From -- ./inp_files/21820.got.cif
#   From: 2010.05.17/outbox.cif.g08.bks.cpg/sg54_11_cif.got.tgz:21820.got - 2010.06.03 13:09:01.
