data_PCOD9422272
_publ_section_title
;
Structure prediction by ZEFSAII (Michael W. Deem and Ramdas Pophale) SiO2 
 PCOD9422272
Probable space group: P C C A
;
_chemical_formula_sum "Si O2"
_cell_formula_units_Z 28
_cell_length_a 5.667549
_cell_length_b 8.736406
_cell_length_c 24.849422
_cell_angle_alpha 90.000000
_cell_angle_beta 90.000000
_cell_angle_gamma 90.000000
_cell_volume 1230.394507
_symmetry_space_group_name_H-M "P C C A"
_symmetry_group_IT_number 54
_symmetry_cell_setting 'orthorhombic'
loop_
_space_group_symop_operation_xyz
x,y,z
1/2-x,-y,z
1/2+x,-y,1/2-z
-x,y,1/2-z
-x,-y,-z
1/2+x,y,-z
1/2-x,y,1/2+z
x,-y,1/2+z
loop_
_atom_site_type_symbol
_atom_site_label
_atom_site_fract_x
_atom_site_fract_y
_atom_site_fract_z
Si Si1 0.250000 0.000000 0.653566
Si Si2 0.918592 0.752586 0.104726
Si Si3 0.034931 0.722394 0.810711
Si Si4 0.750000 0.000000 0.031019
Si Si5 0.750000 0.500000 0.389245
O O1 0.431076 0.105113 0.686687
O O2 0.107636 0.116530 0.616956
O O3 0.792624 0.717600 0.161984
O O4 0.050728 0.603098 0.082101
O O5 0.741524 0.842757 0.066021
O O6 0.000000 0.667429 0.750000
O O7 0.883569 0.618072 0.850606
O O8 0.500000 0.000000 0.000000
#
# Coordination Sequence:
#
# PCOD9422272 Si02
#       5
#     4   8   8   4   4
#     4  10  21  37  66  96 138 180 227 289 354 422
#     4  11  23  47  67 103 142 183 236 305 365 441
#     4  11  24  38  67 100 143 189 237 285 356 437
#     4  12  27  47  84 110 138 186 251 319 392 448
#     4  10  26  40  70  94 152 190 234 284 372 428
#
# _framework density 22.756927999999998
#
# number of rings (size 3 to 8) (size 9 to 14) (size 15 to 20)
#    0.000    1.143    2.857    1.714   12.000    2.286 
#    0.000    1.429    0.000    0.000    0.000    0.000 
#    0.000    0.000    0.000    0.000    0.000    0.000 
#
# Total GULP energy -156349.400812 kJ/mol
# GULP energy per Si atom -5583.907172 kJ/mol
# Density = 2.270513 g / cm^3
# Si number density = 22.756928 Si / 1000 Ang^3
#
#
#
# Elastic Constant Matrix: (Units=GPa)
#
#
# Indices 1 2 3 4 5 6 
#
# 1 107.0106 38.2427 29.4037 0.0000 0.0000 0.0000
# 2 38.2427 120.6401 13.4141 0.0000 0.0000 0.0000
# 3 29.4037 13.4141 63.6966 0.0000 0.0000 0.0000
# 4 0.0000 0.0000 0.0000 6.2476 0.0000 0.0000
# 5 0.0000 0.0000 0.0000 0.0000 -66.6990 0.0000
# 6 0.0000 0.0000 0.0000 0.0000 0.0000 55.0075
#
#
#
# Elastic Compliance Matrix: (Units=1/GPa)
#
#
# Indices 1 2 3 4 5 6 
#
# 1 0.011804 -0.003211 -0.004773 0.000000 0.000000 0.000000
# 2 -0.003211 0.009361 -0.000489 0.000000 0.000000 0.000000
# 3 -0.004773 -0.000489 0.018006 0.000000 0.000000 0.000000
# 4 0.000000 0.000000 0.000000 0.160061 0.000000 0.000000
# 5 0.000000 0.000000 0.000000 0.000000 -0.014993 0.000000
# 6 0.000000 0.000000 0.000000 0.000000 0.000000 0.018179
#
#
# Mechanical properties :
#
#
# Convention : Reuss Voigt Hill
#
# Bulk Modulus (GPa) = 44.99433 50.38537 47.68985
# Shear Modulus (GPa) = 22.04851 12.93032 17.48941
#
# Velocity S-wave (km/s) = 3.11604 2.38627 2.77525
# Velocity P-wave (km/s) = 5.72372 5.45721 5.59205
#
# Compressibility (1/GPa) = 0.02222502
#
# Stress axis : x y z
#
# Youngs Moduli (GPa) = 84.71813 106.82131 55.53826
#
# Poissons Ratio (x) = 0.34302 0.26507
# Poissons Ratio (y) = 0.27204 0.02717
# Poissons Ratio (z) = 0.40433 0.05225
#
# Static dielectric constant tensor:
#      x y z
#    x 1.995980 0.000000 0.000000 
#    y 0.000000 1.872820 0.000000 
#    z 0.000000 0.000000 1.863640 
# 
# From -- ./inp_files/25053.got.cif
#   From: 2010.05.17/outbox.cif.g08.bks.cpg/sg54_13_cif.got.tgz:25053.got - 2010.06.03 13:09:01.
