data_PCOD9422069
_publ_section_title
;
Structure prediction by ZEFSAII (Michael W. Deem and Ramdas Pophale) SiO2 
 PCOD9422069
Probable space group: P C C A
;
_chemical_formula_sum "Si O2"
_cell_formula_units_Z 40
_cell_length_a 16.294876
_cell_length_b 12.341808
_cell_length_c 9.836921
_cell_angle_alpha 90.000000
_cell_angle_beta 90.000000
_cell_angle_gamma 90.000000
_cell_volume 1978.285781
_symmetry_space_group_name_H-M "P C C A"
_symmetry_group_IT_number 54
_symmetry_cell_setting 'orthorhombic'
loop_
_space_group_symop_operation_xyz
x,y,z
1/2-x,-y,z
1/2+x,-y,1/2-z
-x,y,1/2-z
-x,-y,-z
1/2+x,y,-z
1/2-x,y,1/2+z
x,-y,1/2+z
loop_
_atom_site_type_symbol
_atom_site_label
_atom_site_fract_x
_atom_site_fract_y
_atom_site_fract_z
Si Si1 0.942038 0.488038 0.371586
Si Si2 0.824768 0.332833 0.970972
Si Si3 0.928413 0.088916 0.361127
Si Si4 0.542454 0.152245 0.393945
Si Si5 0.666500 0.293432 0.788581
O O1 0.862033 0.556827 0.410007
O O2 0.910231 0.368254 0.334757
O O3 0.000000 0.528913 0.250000
O O4 0.000000 0.500000 0.500000
O O5 0.894611 0.243989 0.938350
O O6 0.741724 0.310489 0.890262
O O7 0.813135 0.329059 0.134018
O O8 0.859674 0.168219 0.303057
O O9 0.000000 0.087559 0.250000
O O10 0.969357 0.136316 0.497543
O O11 0.909378 0.962813 0.386339
O O12 0.500000 0.175669 0.250000
#
# Coordination Sequence:
#
# PCOD9422069 Si02
#       5
#     8   8   8   8   8
#     4  12  25  45  73  95 122 170 220 266 318 383
#     4  12  27  44  64  97 135 169 212 264 327 385
#     4  10  20  43  69  92 129 170 219 264 316 372
#     4  10  22  40  69  99 124 170 221 267 310 380
#     4  12  27  44  65  95 137 171 207 268 326 383
#
# _framework density 20.219525999999998
#
# number of rings (size 3 to 8) (size 9 to 14) (size 15 to 20)
#    0.000    0.800    4.000    3.000    5.600    2.400 
#    0.000    2.000    0.000    0.000    0.000    0.000 
#    0.000    0.000    0.000    0.000    0.000    0.000 
#
# Total GULP energy -223580.350716 kJ/mol
# GULP energy per Si atom -5589.508768 kJ/mol
# Density = 2.017351 g / cm^3
# Si number density = 20.219526 Si / 1000 Ang^3
#
#
#
# Elastic Constant Matrix: (Units=GPa)
#
#
# Indices 1 2 3 4 5 6 
#
# 1 40.4540 -1.9969 5.7678 0.0000 0.0000 0.0000
# 2 -1.9969 56.4852 -3.4659 0.0000 0.0000 0.0000
# 3 5.7678 -3.4659 146.6228 0.0000 0.0000 0.0000
# 4 0.0000 0.0000 0.0000 175.9473 0.0000 0.0000
# 5 0.0000 0.0000 0.0000 0.0000 33.1841 0.0000
# 6 0.0000 0.0000 0.0000 0.0000 0.0000 1.2801
#
#
#
# Elastic Compliance Matrix: (Units=1/GPa)
#
#
# Indices 1 2 3 4 5 6 
#
# 1 0.024897 0.000821 -0.000960 0.000000 0.000000 0.000000
# 2 0.000821 0.017757 0.000387 0.000000 0.000000 0.000000
# 3 -0.000960 0.000387 0.006867 0.000000 0.000000 0.000000
# 4 0.000000 0.000000 0.000000 0.005684 0.000000 0.000000
# 5 0.000000 0.000000 0.000000 0.000000 0.030135 0.000000
# 6 0.000000 0.000000 0.000000 0.000000 0.000000 0.781188
#
#
# Mechanical properties :
#
#
# Convention : Reuss Voigt Hill
#
# Bulk Modulus (GPa) = 19.99282 27.13023 23.56153
# Shear Modulus (GPa) = 5.66443 58.29942 31.98192
#
# Velocity S-wave (km/s) = 1.67557 5.37548 3.98142
# Velocity P-wave (km/s) = 3.69496 7.20935 5.72833
#
# Compressibility (1/GPa) = 0.05001795
#
# Stress axis : x y z
#
# Youngs Moduli (GPa) = 40.16575 56.31722 145.62093
#
# Poissons Ratio (x) = -0.04625 0.13979
# Poissons Ratio (y) = -0.03299 -0.05642
# Poissons Ratio (z) = 0.03856 -0.02182
#
# Static dielectric constant tensor:
#      x y z
#    x 1.635250 0.000000 0.000000 
#    y 0.000000 1.781130 0.000000 
#    z 0.000000 0.000000 1.625690 
# 
# From -- ./inp_files/3944.got.cif
#   From: 2010.05.17/outbox.cif.g08.bks.cpg/sg54_2_cif.got.tgz:3944.got - 2010.06.03 13:09:01.
