data_PCOD9422362
_publ_section_title
;
Structure prediction by ZEFSAII (Michael W. Deem and Ramdas Pophale) SiO2 
 PCOD9422362
Probable space group: P C C A
;
_chemical_formula_sum "Si O2"
_cell_formula_units_Z 40
_cell_length_a 8.890538
_cell_length_b 12.809740
_cell_length_c 14.447033
_cell_angle_alpha 90.000000
_cell_angle_beta 90.000000
_cell_angle_gamma 90.000000
_cell_volume 1645.307291
_symmetry_space_group_name_H-M "P C C A"
_symmetry_group_IT_number 54
_symmetry_cell_setting 'orthorhombic'
loop_
_space_group_symop_operation_xyz
x,y,z
1/2-x,-y,z
1/2+x,-y,1/2-z
-x,y,1/2-z
-x,-y,-z
1/2+x,y,-z
1/2-x,y,1/2+z
x,-y,1/2+z
loop_
_atom_site_type_symbol
_atom_site_label
_atom_site_fract_x
_atom_site_fract_y
_atom_site_fract_z
Si Si1 0.840674 0.281863 0.287814
Si Si2 0.664657 0.674137 0.614503
Si Si3 0.622557 0.913650 0.569192
Si Si4 0.326887 0.609265 0.558879
Si Si5 0.403065 0.061037 0.638490
O O1 0.713822 0.330425 0.220997
O O2 0.779965 0.308148 0.389259
O O3 0.868189 0.157103 0.294022
O O4 0.000000 0.324374 0.250000
O O5 0.667719 0.798450 0.597445
O O6 0.501127 0.627298 0.586682
O O7 0.794261 0.624817 0.549869
O O8 0.552911 0.899176 0.465736
O O9 0.750000 0.000000 0.558274
O O10 0.522470 0.967901 0.648288
O O11 0.250000 0.500000 0.585791
O O12 0.250000 0.000000 0.632813
#
# Coordination Sequence:
#
# PCOD9422362 Si02
#       5
#     8   8   8   8   8
#     4  12  26  44  72 109 150 194 253 319 390 476
#     4  12  26  47  78 109 147 201 255 327 398 469
#     4  10  21  38  69 103 145 196 243 298 371 461
#     4  12  28  51  75 105 144 193 262 334 404 472
#     4  10  21  38  64 100 146 192 241 295 366 456
#
# _framework density 24.311567
#
# number of rings (size 3 to 8) (size 9 to 14) (size 15 to 20)
#    0.000    0.800    2.000    4.800    5.600    4.800 
#    0.000    0.000    0.000    0.000    0.000    0.000 
#    0.000    0.000    0.000    0.000    0.000    0.000 
#
# Total GULP energy -223247.910461 kJ/mol
# GULP energy per Si atom -5581.197762 kJ/mol
# Density = 2.425623 g / cm^3
# Si number density = 24.311567 Si / 1000 Ang^3
#
#
#
# Elastic Constant Matrix: (Units=GPa)
#
#
# Indices 1 2 3 4 5 6 
#
# 1 127.9509 39.6118 21.7923 0.0000 0.0000 0.0000
# 2 39.6118 88.1518 -4.1918 0.0000 0.0000 0.0000
# 3 21.7923 -4.1918 87.2218 0.0000 0.0000 0.0000
# 4 0.0000 0.0000 0.0000 9.4554 0.0000 0.0000
# 5 0.0000 0.0000 0.0000 0.0000 104.2397 0.0000
# 6 0.0000 0.0000 0.0000 0.0000 0.0000 30.4719
#
#
#
# Elastic Compliance Matrix: (Units=1/GPa)
#
#
# Indices 1 2 3 4 5 6 
#
# 1 0.009642 -0.004458 -0.002623 0.000000 0.000000 0.000000
# 2 -0.004458 0.013431 0.001759 0.000000 0.000000 0.000000
# 3 -0.002623 0.001759 0.012205 0.000000 0.000000 0.000000
# 4 0.000000 0.000000 0.000000 0.105760 0.000000 0.000000
# 5 0.000000 0.000000 0.000000 0.000000 0.009593 0.000000
# 6 0.000000 0.000000 0.000000 0.000000 0.000000 0.032817
#
#
# Mechanical properties :
#
#
# Convention : Reuss Voigt Hill
#
# Bulk Modulus (GPa) = 40.59332 46.41656 43.50494
# Shear Modulus (GPa) = 24.71532 45.24087 34.97810
#
# Velocity S-wave (km/s) = 3.19189 4.31847 3.79719
# Velocity P-wave (km/s) = 5.50614 6.63320 6.09578
#
# Compressibility (1/GPa) = 0.02463460
#
# Stress axis : x y z
#
# Youngs Moduli (GPa) = 103.70955 74.45577 81.93359
#
# Poissons Ratio (x) = 0.33189 0.21494
# Poissons Ratio (y) = 0.46230 -0.14414
# Poissons Ratio (z) = 0.27207 -0.13098
#
# Static dielectric constant tensor:
#      x y z
#    x 1.928260 0.000000 0.000000 
#    y 0.000000 1.936840 0.000000 
#    z 0.000000 0.000000 2.009920 
# 
# From -- ./inp_files/16328.got.cif
#   From: 2010.05.17/outbox.cif.g08.bks.cpg/sg54_9_cif.got.tgz:16328.got - 2010.06.03 13:09:01.
