data_PCOD9422297
_publ_section_title
;
Structure prediction by ZEFSAII (Michael W. Deem and Ramdas Pophale) SiO2 
 PCOD9422297
Probable space group: P C C A
;
_chemical_formula_sum "Si O2"
_cell_formula_units_Z 28
_cell_length_a 4.895179
_cell_length_b 20.265553
_cell_length_c 10.250573
_cell_angle_alpha 90.000000
_cell_angle_beta 90.000000
_cell_angle_gamma 90.000000
_cell_volume 1016.892816
_symmetry_space_group_name_H-M "P C C A"
_symmetry_group_IT_number 54
_symmetry_cell_setting 'orthorhombic'
loop_
_space_group_symop_operation_xyz
x,y,z
1/2-x,-y,z
1/2+x,-y,1/2-z
-x,y,1/2-z
-x,-y,-z
1/2+x,y,-z
1/2-x,y,1/2+z
x,-y,1/2+z
loop_
_atom_site_type_symbol
_atom_site_label
_atom_site_fract_x
_atom_site_fract_y
_atom_site_fract_z
Si Si1 0.292165 0.652763 0.584731
Si Si2 0.314552 0.930941 0.593390
Si Si3 0.328693 0.793772 0.091686
Si Si4 0.500000 0.457823 0.750000
O O1 0.608818 0.652362 0.547350
O O2 0.231874 0.722898 0.653184
O O3 0.176534 0.589734 0.657645
O O4 0.615285 0.931086 0.533495
O O5 0.246718 0.861872 0.662328
O O6 0.250000 0.000000 0.662792
O O7 0.633432 0.794639 0.036569
O O8 0.750000 0.500000 0.686306
#
# Coordination Sequence:
#
# PCOD9422297 Si02
#       4
#     8   8   8   4
#     4  10  21  38  58  79 108 142 176 219 268 320
#     4   8  12  18  31  55  88 121 155 197 238 281
#     4   8  14  25  42  64  92 128 165 200 244 298
#     4  12  26  40  58  84 108 136 180 224 274 338
#
# _framework density 27.534860999999999
#
# number of rings (size 3 to 8) (size 9 to 14) (size 15 to 20)
#    0.000    2.857    0.000    1.714    0.000    3.429 
#    0.000    0.000    0.000    0.000    0.000    0.000 
#    0.000   50.286    0.000    0.000    0.000   62.857 
#
# Total GULP energy -156629.957616 kJ/mol
# GULP energy per Si atom -5593.927058 kJ/mol
# Density = 2.747219 g / cm^3
# Si number density = 27.534861 Si / 1000 Ang^3
#
#
#
# Elastic Constant Matrix: (Units=GPa)
#
#
# Indices 1 2 3 4 5 6 
#
# 1 137.1358 28.6641 31.2320 0.0000 0.0000 0.0000
# 2 28.6641 215.3383 25.1151 0.0000 0.0000 0.0000
# 3 31.2320 25.1151 53.2964 0.0000 0.0000 0.0000
# 4 0.0000 0.0000 0.0000 196.1929 0.0000 0.0000
# 5 0.0000 0.0000 0.0000 0.0000 48.6128 0.0000
# 6 0.0000 0.0000 0.0000 0.0000 0.0000 51.0321
#
#
#
# Elastic Compliance Matrix: (Units=1/GPa)
#
#
# Indices 1 2 3 4 5 6 
#
# 1 0.008483 -0.000581 -0.004697 0.000000 0.000000 0.000000
# 2 -0.000581 0.004954 -0.001994 0.000000 0.000000 0.000000
# 3 -0.004697 -0.001994 0.022455 0.000000 0.000000 0.000000
# 4 0.000000 0.000000 0.000000 0.005097 0.000000 0.000000
# 5 0.000000 0.000000 0.000000 0.000000 0.020571 0.000000
# 6 0.000000 0.000000 0.000000 0.000000 0.000000 0.019596
#
#
# Mechanical properties :
#
#
# Convention : Reuss Voigt Hill
#
# Bulk Modulus (GPa) = 46.84395 63.97699 55.41047
# Shear Modulus (GPa) = 48.63046 80.55151 64.59098
#
# Velocity S-wave (km/s) = 4.20711 5.41460 4.84859
# Velocity P-wave (km/s) = 6.37567 7.89784 7.17722
#
# Compressibility (1/GPa) = 0.02134747
#
# Stress axis : x y z
#
# Youngs Moduli (GPa) = 117.87788 201.86647 44.53316
#
# Poissons Ratio (x) = 0.11736 0.20919
# Poissons Ratio (y) = 0.06853 0.08879
# Poissons Ratio (z) = 0.55371 0.40246
#
# Static dielectric constant tensor:
#      x y z
#    x 2.017160 0.000000 0.000000 
#    y 0.000000 2.260270 0.000000 
#    z 0.000000 0.000000 2.213350 
# 
# From -- ./inp_files/6227.got.cif
#   From: 2010.05.17/outbox.cif.g08.bks.cpg/sg54_4_cif.got.tgz:6227.got - 2010.06.03 13:09:01.
