data_PCOD9422213
_publ_section_title
;
Structure prediction by ZEFSAII (Michael W. Deem and Ramdas Pophale) SiO2 
 PCOD9422213
Probable space group: P C C A
;
_chemical_formula_sum "Si O2"
_cell_formula_units_Z 48
_cell_length_a 14.372974
_cell_length_b 28.132129
_cell_length_c 5.277327
_cell_angle_alpha 90.000000
_cell_angle_beta 90.000000
_cell_angle_gamma 90.000000
_cell_volume 2133.846847
_symmetry_space_group_name_H-M "P C C A"
_symmetry_group_IT_number 54
_symmetry_cell_setting 'orthorhombic'
loop_
_space_group_symop_operation_xyz
x,y,z
1/2-x,-y,z
1/2+x,-y,1/2-z
-x,y,1/2-z
-x,-y,-z
1/2+x,y,-z
1/2-x,y,1/2+z
x,-y,1/2+z
loop_
_atom_site_type_symbol
_atom_site_label
_atom_site_fract_x
_atom_site_fract_y
_atom_site_fract_z
Si Si1 0.886916 0.627252 0.252567
Si Si2 0.812844 0.115394 0.313206
Si Si3 0.691258 0.780426 0.391069
Si Si4 0.110884 0.320314 0.246757
Si Si5 0.394951 0.019261 0.539833
Si Si6 0.854589 0.519771 0.390767
O O1 0.857087 0.663381 0.475356
O O2 0.853647 0.574673 0.318460
O O3 0.000000 0.625706 0.250000
O O4 0.855178 0.645177 0.977896
O O5 0.735242 0.111784 0.537576
O O6 0.855090 0.168235 0.342837
O O7 0.884125 0.072807 0.364716
O O8 0.725587 0.779491 0.681794
O O9 0.634854 0.733369 0.326382
O O10 0.000000 0.324733 0.250000
O O11 0.500000 0.000000 0.500000
O O12 0.351902 0.012924 0.261999
O O13 0.750000 0.500000 0.423809
O O14 0.899077 0.509728 0.661923
#
# Coordination Sequence:
#
# PCOD9422213 Si02
#       6
#     8   8   8   8   8   8
#     4  10  21  38  61  83 116 157 196 239 294 353
#     4  10  21  37  61  85 120 162 199 244 305 356
#     4  10  21  40  60  91 122 153 201 251 298 361
#     4  10  21  40  61  89 119 153 201 245 297 360
#     4  10  21  37  56  84 123 153 204 250 291 353
#     4  10  21  38  53  80 118 147 192 237 287 350
#
# _framework density 22.494585000000001
#
# number of rings (size 3 to 8) (size 9 to 14) (size 15 to 20)
#    0.000    2.000    0.000    3.000    0.000    2.667 
#   21.000    0.000    7.333    0.000    0.000    0.000 
#    0.000    0.000    0.000    0.000    0.000    0.000 
#
# Total GULP energy -268186.125896 kJ/mol
# GULP energy per Si atom -5587.210956 kJ/mol
# Density = 2.244339 g / cm^3
# Si number density = 22.494585 Si / 1000 Ang^3
#
#
#
# Elastic Constant Matrix: (Units=GPa)
#
#
# Indices 1 2 3 4 5 6 
#
# 1 66.2150 18.4745 4.1483 0.0000 0.0000 0.0000
# 2 18.4745 138.0178 6.0086 0.0000 0.0000 0.0000
# 3 4.1483 6.0086 118.6744 0.0000 0.0000 0.0000
# 4 0.0000 0.0000 0.0000 38.2170 0.0000 0.0000
# 5 0.0000 0.0000 0.0000 0.0000 6.2549 0.0000
# 6 0.0000 0.0000 0.0000 0.0000 0.0000 31.9731
#
#
#
# Elastic Compliance Matrix: (Units=1/GPa)
#
#
# Indices 1 2 3 4 5 6 
#
# 1 0.015711 -0.002084 -0.000444 0.000000 0.000000 0.000000
# 2 -0.002084 0.007538 -0.000309 0.000000 0.000000 0.000000
# 3 -0.000444 -0.000309 0.008458 0.000000 0.000000 0.000000
# 4 0.000000 0.000000 0.000000 0.026166 0.000000 0.000000
# 5 0.000000 0.000000 0.000000 0.000000 0.159875 0.000000
# 6 0.000000 0.000000 0.000000 0.000000 0.000000 0.031276
#
#
# Mechanical properties :
#
#
# Convention : Reuss Voigt Hill
#
# Bulk Modulus (GPa) = 38.41080 42.24111 40.32596
# Shear Modulus (GPa) = 18.98435 34.90740 26.94587
#
# Velocity S-wave (km/s) = 2.90824 3.94358 3.46480
# Velocity P-wave (km/s) = 5.32821 6.28927 5.82858
#
# Compressibility (1/GPa) = 0.02603434
#
# Stress axis : x y z
#
# Youngs Moduli (GPa) = 63.64767 132.66455 118.23739
#
# Poissons Ratio (x) = 0.27644 0.05246
# Poissons Ratio (y) = 0.13263 0.03651
# Poissons Ratio (z) = 0.02824 0.04097
#
# Static dielectric constant tensor:
#      x y z
#    x 1.643200 0.000000 0.000000 
#    y 0.000000 1.807900 0.000000 
#    z 0.000000 0.000000 1.905340 
# 
# From -- ./inp_files/1024.got.cif
#   From: 2010.05.17/outbox.cif.g08.bks.cpg/sg54_1_cif.got.tgz:1024.got - 2010.06.03 13:09:01.
