data_PCOD9422736
_publ_section_title
;
Structure prediction by ZEFSAII (Michael W. Deem and Ramdas Pophale) SiO2 
 PCOD9422736
Probable space group: P C C A
;
_chemical_formula_sum "Si O2"
_cell_formula_units_Z 52
_cell_length_a 13.275071
_cell_length_b 7.275266
_cell_length_c 21.736100
_cell_angle_alpha 90.000000
_cell_angle_beta 90.000000
_cell_angle_gamma 90.000000
_cell_volume 2099.265424
_symmetry_space_group_name_H-M "P C C A"
_symmetry_group_IT_number 54
_symmetry_cell_setting 'orthorhombic'
loop_
_space_group_symop_operation_xyz
x,y,z
1/2-x,-y,z
1/2+x,-y,1/2-z
-x,y,1/2-z
-x,-y,-z
1/2+x,y,-z
1/2-x,y,1/2+z
x,-y,1/2+z
loop_
_atom_site_type_symbol
_atom_site_label
_atom_site_fract_x
_atom_site_fract_y
_atom_site_fract_z
Si Si1 0.750000 0.500000 0.861184
Si Si2 0.718945 0.712316 0.171823
Si Si3 0.065431 0.608967 0.934944
Si Si4 0.559061 0.925957 0.410038
Si Si5 0.398236 0.733742 0.213151
Si Si6 0.793380 0.781450 0.467424
Si Si7 0.875528 0.198050 0.574973
O O1 0.654014 0.441903 0.819873
O O2 0.736352 0.671932 0.906469
O O3 0.750000 0.500000 0.183436
O O4 0.628544 0.693136 0.122313
O O5 0.679959 0.796828 0.234699
O O6 0.810899 0.810058 0.137652
O O7 0.066810 0.392559 0.925372
O O8 0.125869 0.656447 0.996206
O O9 0.962421 0.721922 0.936283
O O10 0.579160 0.887865 0.338219
O O11 0.708781 0.801069 0.521184
O O12 0.542369 0.961336 0.574034
O O13 0.647781 0.040671 0.441301
O O14 0.500000 0.684657 0.250000
#
# Coordination Sequence:
#
# PCOD9422736 Si02
#       7
#     4   8   8   8   8   8   8
#     4  12  28  50  84 114 162 220 256 350 420 474
#     4   9  19  45  82 108 148 218 264 323 394 469
#     4  10  21  47  80 111 159 201 263 330 397 486
#     4  12  28  44  81 123 156 214 268 332 408 485
#     4  12  27  53  75 114 167 211 279 335 391 494
#     4  11  25  52  75 125 160 205 271 338 416 488
#     4  10  24  50  83 115 162 213 267 332 415 498
#
# _framework density 24.770568999999998
#
# number of rings (size 3 to 8) (size 9 to 14) (size 15 to 20)
#    0.000    1.231    3.846    1.385    2.154    7.385 
#    5.538    0.000    0.000    0.000    0.000    0.000 
#    0.000    0.000    0.000    0.000    0.000    0.000 
#
# Total GULP energy -291352.333245 kJ/mol
# GULP energy per Si atom -5602.929485 kJ/mol
# Density = 2.471419 g / cm^3
# Si number density = 24.770569 Si / 1000 Ang^3
#
#
#
# Elastic Constant Matrix: (Units=GPa)
#
#
# Indices 1 2 3 4 5 6 
#
# 1 147.8461 63.4122 82.2226 0.0000 0.0000 0.0000
# 2 63.4122 137.3680 49.4519 0.0000 0.0000 0.0000
# 3 82.2226 49.4519 163.1378 0.0000 0.0000 0.0000
# 4 0.0000 0.0000 0.0000 33.6305 0.0000 0.0000
# 5 0.0000 0.0000 0.0000 0.0000 61.3932 0.0000
# 6 0.0000 0.0000 0.0000 0.0000 0.0000 34.4066
#
#
#
# Elastic Compliance Matrix: (Units=1/GPa)
#
#
# Indices 1 2 3 4 5 6 
#
# 1 0.010604 -0.003335 -0.004334 0.000000 0.000000 0.000000
# 2 -0.003335 0.009220 -0.001114 0.000000 0.000000 0.000000
# 3 -0.004334 -0.001114 0.008652 0.000000 0.000000 0.000000
# 4 0.000000 0.000000 0.000000 0.029735 0.000000 0.000000
# 5 0.000000 0.000000 0.000000 0.000000 0.016288 0.000000
# 6 0.000000 0.000000 0.000000 0.000000 0.000000 0.029064
#
#
# Mechanical properties :
#
#
# Convention : Reuss Voigt Hill
#
# Bulk Modulus (GPa) = 91.65315 93.16948 92.41131
# Shear Modulus (GPa) = 40.07483 42.77041 41.42262
#
# Velocity S-wave (km/s) = 4.02660 4.15982 4.09375
# Velocity P-wave (km/s) = 7.66154 7.79530 7.72871
#
# Compressibility (1/GPa) = 0.01091070
#
# Stress axis : x y z
#
# Youngs Moduli (GPa) = 94.30065 108.45604 115.58412
#
# Poissons Ratio (x) = 0.36171 0.50091
# Poissons Ratio (y) = 0.31450 0.12876
# Poissons Ratio (z) = 0.40867 0.12082
#
# Static dielectric constant tensor:
#      x y z
#    x 2.019560 0.000000 0.000000 
#    y 0.000000 1.980530 0.000000 
#    z 0.000000 0.000000 1.967870 
# 
# From -- ./inp_files/21564.got.cif
#   From: 2010.05.17/outbox.cif.g08.bks.cpg/sg54_11_cif.got.tgz:21564.got - 2010.06.03 13:09:01.
