data_PCOD9422183
_publ_section_title
;
Structure prediction by ZEFSAII (Michael W. Deem and Ramdas Pophale) SiO2 
 PCOD9422183
Probable space group: P C C A
;
_chemical_formula_sum "Si O2"
_cell_formula_units_Z 36
_cell_length_a 5.243659
_cell_length_b 23.791506
_cell_length_c 12.509333
_cell_angle_alpha 90.000000
_cell_angle_beta 90.000000
_cell_angle_gamma 90.000000
_cell_volume 1560.596141
_symmetry_space_group_name_H-M "P C C A"
_symmetry_group_IT_number 54
_symmetry_cell_setting 'orthorhombic'
loop_
_space_group_symop_operation_xyz
x,y,z
1/2-x,-y,z
1/2+x,-y,1/2-z
-x,y,1/2-z
-x,-y,-z
1/2+x,y,-z
1/2-x,y,1/2+z
x,-y,1/2+z
loop_
_atom_site_type_symbol
_atom_site_label
_atom_site_fract_x
_atom_site_fract_y
_atom_site_fract_z
Si Si1 0.500000 0.121198 0.250000
Si Si2 0.953354 0.063176 0.544623
Si Si3 0.170963 0.322656 0.061267
Si Si4 0.729097 0.799640 0.922772
Si Si5 0.249966 0.560528 0.676721
O O1 0.374335 0.077977 0.335553
O O2 0.316446 0.161854 0.182192
O O3 0.732288 0.087691 0.472787
O O4 0.000000 0.000000 0.500000
O O5 0.248285 0.264832 0.119371
O O6 0.236919 0.382445 0.111047
O O7 0.368335 0.320298 0.961040
O O8 0.478767 0.805468 0.000270
O O9 0.250000 0.500000 0.616785
O O10 0.500000 0.562439 0.750000
O O11 0.000000 0.560032 0.750000
#
# Coordination Sequence:
#
# PCOD9422183 Si02
#       5
#     4   8   8   8   8
#     4  12  24  42  72  92 128 184 206 256 342 374
#     4  10  24  43  65  98 133 164 215 267 304 383
#     4  10  21  39  59  84 120 157 203 263 314 368
#     4  10  24  43  61  94 129 161 216 269 309 381
#     4  10  21  36  57  87 121 158 206 259 311 382
#
# _framework density 23.068109
#
# number of rings (size 3 to 8) (size 9 to 14) (size 15 to 20)
#    0.000    1.778    0.000    2.667    1.556    8.000 
#    0.000    0.000    0.000    0.000    0.000    0.000 
#    0.000    0.000    0.000    0.000    0.000    0.000 
#
# Total GULP energy -200526.484240 kJ/mol
# GULP energy per Si atom -5570.180118 kJ/mol
# Density = 2.301561 g / cm^3
# Si number density = 23.068109 Si / 1000 Ang^3
#
#
#
# Elastic Constant Matrix: (Units=GPa)
#
#
# Indices 1 2 3 4 5 6 
#
# 1 142.6282 13.0200 10.6020 0.0000 0.0000 0.0000
# 2 13.0200 178.3364 61.9252 0.0000 0.0000 0.0000
# 3 10.6020 61.9252 78.4616 0.0000 0.0000 0.0000
# 4 0.0000 0.0000 0.0000 51.8464 0.0000 0.0000
# 5 0.0000 0.0000 0.0000 0.0000 20.6384 0.0000
# 6 0.0000 0.0000 0.0000 0.0000 0.0000 10.1083
#
#
#
# Elastic Compliance Matrix: (Units=1/GPa)
#
#
# Indices 1 2 3 4 5 6 
#
# 1 0.007091 -0.000255 -0.000757 0.000000 0.000000 0.000000
# 2 -0.000255 0.007733 -0.006069 0.000000 0.000000 0.000000
# 3 -0.000757 -0.006069 0.017637 0.000000 0.000000 0.000000
# 4 0.000000 0.000000 0.000000 0.019288 0.000000 0.000000
# 5 0.000000 0.000000 0.000000 0.000000 0.048453 0.000000
# 6 0.000000 0.000000 0.000000 0.000000 0.000000 0.098929
#
#
# Mechanical properties :
#
#
# Convention : Reuss Voigt Hill
#
# Bulk Modulus (GPa) = 54.64577 63.39117 59.01847
# Shear Modulus (GPa) = 22.79015 37.44389 30.11702
#
# Velocity S-wave (km/s) = 3.14658 4.03325 3.61719
# Velocity P-wave (km/s) = 6.07796 7.01635 6.56394
#
# Compressibility (1/GPa) = 0.01829968
#
# Stress axis : x y z
#
# Youngs Moduli (GPa) = 141.02846 129.30916 56.69786
#
# Poissons Ratio (x) = 0.03295 0.04292
# Poissons Ratio (y) = 0.03594 0.34410
# Poissons Ratio (z) = 0.10676 0.78479
#
# Static dielectric constant tensor:
#      x y z
#    x 1.886240 0.000000 0.000000 
#    y 0.000000 10.501360 0.000000 
#    z 0.000000 0.000000 1.861010 
# 
# From -- ./inp_files/6379.got.cif
#   From: 2010.05.17/outbox.cif.g08.bks.cpg/sg54_4_cif.got.tgz:6379.got - 2010.06.03 13:09:01.
