data_PCOD9422695
_publ_section_title
;
Structure prediction by ZEFSAII (Michael W. Deem and Ramdas Pophale) SiO2 
 PCOD9422695
Probable space group: P C C A
;
_chemical_formula_sum "Si O2"
_cell_formula_units_Z 64
_cell_length_a 23.572092
_cell_length_b 14.415042
_cell_length_c 9.368284
_cell_angle_alpha 90.000000
_cell_angle_beta 90.000000
_cell_angle_gamma 90.000000
_cell_volume 3183.274479
_symmetry_space_group_name_H-M "P C C A"
_symmetry_group_IT_number 54
_symmetry_cell_setting 'orthorhombic'
loop_
_space_group_symop_operation_xyz
x,y,z
1/2-x,-y,z
1/2+x,-y,1/2-z
-x,y,1/2-z
-x,-y,-z
1/2+x,y,-z
1/2-x,y,1/2+z
x,-y,1/2+z
loop_
_atom_site_type_symbol
_atom_site_label
_atom_site_fract_x
_atom_site_fract_y
_atom_site_fract_z
Si Si1 0.609226 0.907388 0.951696
Si Si2 0.552811 0.581645 0.850337
Si Si3 0.380320 0.761372 0.034496
Si Si4 0.977448 0.626917 0.892127
Si Si5 0.726699 0.778752 0.319478
Si Si6 0.066092 0.076162 0.225280
Si Si7 0.229835 0.094642 0.450179
Si Si8 0.143191 0.268777 0.709939
O O1 0.609986 0.802477 0.893759
O O2 0.575729 0.975803 0.847488
O O3 0.591352 0.917642 0.115785
O O4 0.675630 0.931787 0.955305
O O5 0.500000 0.611230 0.750000
O O6 0.552426 0.469904 0.847005
O O7 0.610167 0.633913 0.806420
O O8 0.531159 0.606181 0.008414
O O9 0.431842 0.689567 0.031341
O O10 0.327773 0.721785 0.128549
O O11 0.404062 0.851302 0.117663
O O12 0.362122 0.771865 0.870082
O O13 0.000000 0.675002 0.750000
O O14 0.717641 0.826787 0.166927
O O15 0.727349 0.860451 0.437673
O O16 0.789161 0.731995 0.324162
O O17 0.000000 0.094060 0.250000
O O18 0.250000 0.000000 0.378675
#
# Coordination Sequence:
#
# PCOD9422695 Si02
#       8
#     8   8   8   8   8   8   8   8
#     4  11  26  41  60  90 126 173 213 271 317 383
#     4  10  21  43  69 101 127 166 209 261 319 392
#     4  12  23  43  65  92 130 174 211 268 332 385
#     4  10  23  40  70 101 131 161 214 264 317 388
#     4  11  23  39  60  92 126 162 219 270 317 389
#     4  12  26  42  60  90 131 171 225 267 325 386
#     4  11  22  37  61  86 116 166 218 271 315 367
#     4  11  25  42  67  92 132 171 212 267 334 384
#
# _framework density 20.105084000000002
#
# number of rings (size 3 to 8) (size 9 to 14) (size 15 to 20)
#    0.000    1.000    3.750    2.625    7.000    0.500 
#    0.000    0.625    0.000    1.500    0.000    0.000 
#    0.000    0.000    0.000    0.000    0.000    0.000 
#
# Total GULP energy -357208.190860 kJ/mol
# GULP energy per Si atom -5581.377982 kJ/mol
# Density = 2.005932 g / cm^3
# Si number density = 20.105084 Si / 1000 Ang^3
#
#
#
# Elastic Constant Matrix: (Units=GPa)
#
#
# Indices 1 2 3 4 5 6 
#
# 1 62.3215 8.4210 -19.5670 0.0000 0.0000 0.0000
# 2 8.4210 32.4788 -9.9173 0.0000 0.0000 0.0000
# 3 -19.5670 -9.9173 71.5252 0.0000 0.0000 0.0000
# 4 0.0000 0.0000 0.0000 22.1668 0.0000 0.0000
# 5 0.0000 0.0000 0.0000 0.0000 29.0048 0.0000
# 6 0.0000 0.0000 0.0000 0.0000 0.0000 -17.9504
#
#
#
# Elastic Compliance Matrix: (Units=1/GPa)
#
#
# Indices 1 2 3 4 5 6 
#
# 1 0.017882 -0.003282 0.004437 0.000000 0.000000 0.000000
# 2 -0.003282 0.032753 0.003644 0.000000 0.000000 0.000000
# 3 0.004437 0.003644 0.015700 0.000000 0.000000 0.000000
# 4 0.000000 0.000000 0.000000 0.045112 0.000000 0.000000
# 5 0.000000 0.000000 0.000000 0.000000 0.034477 0.000000
# 6 0.000000 0.000000 0.000000 0.000000 0.000000 -0.055709
#
#
# Mechanical properties :
#
#
# Convention : Reuss Voigt Hill
#
# Bulk Modulus (GPa) = 13.16948 13.79986 13.48467
# Shear Modulus (GPa) = 47.20158 19.13684 33.16921
#
# Velocity S-wave (km/s) = 4.85061 3.08854 4.06617
# Velocity P-wave (km/s) = 6.15920 4.42691 5.36345
#
# Compressibility (1/GPa) = 0.07593315
#
# Stress axis : x y z
#
# Youngs Moduli (GPa) = 55.92111 30.53177 63.69379
#
# Poissons Ratio (x) = 0.10019 -0.28261
# Poissons Ratio (y) = 0.18351 -0.23207
# Poissons Ratio (z) = -0.24812 -0.11125
#
# Static dielectric constant tensor:
#      x y z
#    x 1.801650 0.000000 0.000000 
#    y 0.000000 1.731900 0.000000 
#    z 0.000000 0.000000 1.736970 
# 
# From -- ./inp_files/5300.got.cif
#   From: 2010.05.17/outbox.cif.g08.bks.cpg/sg54_3_cif.got.tgz:5300.got - 2010.06.03 13:09:01.
