data_PCOD9422425
_publ_section_title
;
Structure prediction by ZEFSAII (Michael W. Deem and Ramdas Pophale) SiO2 
 PCOD9422425
Probable space group: P C C A
;
_chemical_formula_sum "Si O2"
_cell_formula_units_Z 60
_cell_length_a 4.942964
_cell_length_b 17.824208
_cell_length_c 28.355057
_cell_angle_alpha 90.000000
_cell_angle_beta 90.000000
_cell_angle_gamma 90.000000
_cell_volume 2498.205808
_symmetry_space_group_name_H-M "P C C A"
_symmetry_group_IT_number 54
_symmetry_cell_setting 'orthorhombic'
loop_
_space_group_symop_operation_xyz
x,y,z
1/2-x,-y,z
1/2+x,-y,1/2-z
-x,y,1/2-z
-x,-y,-z
1/2+x,y,-z
1/2-x,y,1/2+z
x,-y,1/2+z
loop_
_atom_site_type_symbol
_atom_site_label
_atom_site_fract_x
_atom_site_fract_y
_atom_site_fract_z
Si Si1 0.250000 0.000000 0.623986
Si Si2 0.413602 0.727141 0.199047
Si Si3 0.060882 0.899213 0.802505
Si Si4 0.408958 0.135637 0.385122
Si Si5 0.921257 0.806368 0.533179
Si Si6 0.916027 0.369199 0.029533
Si Si7 0.063745 0.297859 0.857183
Si Si8 0.534719 0.544174 0.600536
O O1 0.443083 0.045029 0.659198
O O2 0.083875 0.065157 0.597846
O O3 0.500000 0.699827 0.250000
O O4 0.428065 0.817480 0.198564
O O5 0.108359 0.705772 0.190070
O O6 0.622057 0.702677 0.157755
O O7 0.344170 0.880737 0.829446
O O8 0.000000 0.929851 0.750000
O O9 0.156344 0.145670 0.420921
O O10 0.518885 0.221187 0.384718
O O11 0.208990 0.819849 0.509352
O O12 0.887064 0.717279 0.545021
O O13 0.769974 0.428976 0.062459
O O14 0.230367 0.378898 0.017420
O O15 0.964678 0.373134 0.881304
O O16 0.750000 0.500000 0.634138
O O17 0.250000 0.500000 0.593407
#
# Coordination Sequence:
#
# PCOD9422425 Si02
#       8
#     4   8   8   8   8   8   8   8
#     4  12  24  40  66 100 140 178 222 272 352 408
#     4  10  21  40  67  96 125 171 224 269 324 397
#     4  10  24  40  64 100 142 178 216 276 351 422
#     4  11  24  43  67  99 135 185 232 279 338 413
#     4  10  23  42  71  97 131 180 239 288 334 391
#     4  10  21  39  62  95 130 170 212 266 333 402
#     4  11  22  42  65  92 132 174 216 273 326 403
#     4  12  25  40  63  97 132 171 212 268 335 403
#
# _framework density 24.017234999999999
#
# number of rings (size 3 to 8) (size 9 to 14) (size 15 to 20)
#    0.000    1.333    2.667    2.400    3.733    1.600 
#    0.000    0.667    0.000    8.000    0.000    0.000 
#    0.000    0.000    0.000    0.000    0.000    0.000 
#
# Total GULP energy -334657.090674 kJ/mol
# GULP energy per Si atom -5577.618178 kJ/mol
# Density = 2.396257 g / cm^3
# Si number density = 24.017235 Si / 1000 Ang^3
#
#
#
# Elastic Constant Matrix: (Units=GPa)
#
#
# Indices 1 2 3 4 5 6 
#
# 1 98.3695 22.3847 3.5646 0.0000 0.0000 0.0000
# 2 22.3847 91.3926 6.8309 0.0000 0.0000 0.0000
# 3 3.5646 6.8309 56.8196 0.0000 0.0000 0.0000
# 4 0.0000 0.0000 0.0000 14.6884 0.0000 0.0000
# 5 0.0000 0.0000 0.0000 0.0000 28.7063 0.0000
# 6 0.0000 0.0000 0.0000 0.0000 0.0000 22.8725
#
#
#
# Elastic Compliance Matrix: (Units=1/GPa)
#
#
# Indices 1 2 3 4 5 6 
#
# 1 0.010773 -0.002612 -0.000362 0.000000 0.000000 0.000000
# 2 -0.002612 0.011674 -0.001240 0.000000 0.000000 0.000000
# 3 -0.000362 -0.001240 0.017771 0.000000 0.000000 0.000000
# 4 0.000000 0.000000 0.000000 0.068081 0.000000 0.000000
# 5 0.000000 0.000000 0.000000 0.000000 0.034836 0.000000
# 6 0.000000 0.000000 0.000000 0.000000 0.000000 0.043721
#
#
# Mechanical properties :
#
#
# Convention : Reuss Voigt Hill
#
# Bulk Modulus (GPa) = 31.45414 34.68246 33.06830
# Shear Modulus (GPa) = 24.28608 27.50688 25.89648
#
# Velocity S-wave (km/s) = 3.18338 3.38790 3.28723
# Velocity P-wave (km/s) = 5.16108 5.45672 5.31096
#
# Compressibility (1/GPa) = 0.03179231
#
# Stress axis : x y z
#
# Youngs Moduli (GPa) = 92.82328 85.65960 56.27049
#
# Poissons Ratio (x) = 0.22371 0.02036
# Poissons Ratio (y) = 0.24242 0.06975
# Poissons Ratio (z) = 0.03359 0.10619
#
# Static dielectric constant tensor:
#      x y z
#    x 2.026520 0.000000 0.000000 
#    y 0.000000 2.038470 0.000000 
#    z 0.000000 0.000000 1.993980 
# 
# From -- ./inp_files/25501.got.cif
#   From: 2010.05.17/outbox.cif.g08.bks.cpg/sg54_13_cif.got.tgz:25501.got - 2010.06.03 13:09:01.
