data_PCOD9422081
_publ_section_title
;
Structure prediction by ZEFSAII (Michael W. Deem and Ramdas Pophale) SiO2 
 PCOD9422081
Probable space group: P C C A
;
_chemical_formula_sum "Si O2"
_cell_formula_units_Z 20
_cell_length_a 10.460815
_cell_length_b 8.148262
_cell_length_c 9.298382
_cell_angle_alpha 90.000000
_cell_angle_beta 90.000000
_cell_angle_gamma 90.000000
_cell_volume 792.570476
_symmetry_space_group_name_H-M "P C C A"
_symmetry_group_IT_number 54
_symmetry_cell_setting 'orthorhombic'
loop_
_space_group_symop_operation_xyz
x,y,z
1/2-x,-y,z
1/2+x,-y,1/2-z
-x,y,1/2-z
-x,-y,-z
1/2+x,y,-z
1/2-x,y,1/2+z
x,-y,1/2+z
loop_
_atom_site_type_symbol
_atom_site_label
_atom_site_fract_x
_atom_site_fract_y
_atom_site_fract_z
Si Si1 0.500000 0.504457 0.750000
Si Si2 0.618864 0.038523 0.141914
Si Si3 0.053510 0.276911 0.514827
O O1 0.406697 0.621238 0.655405
O O2 0.557369 0.390263 0.625366
O O3 0.500000 0.016224 0.250000
O O4 0.588555 0.209475 0.060372
O O5 0.750000 0.000000 0.221852
O O6 0.619754 0.892025 0.025614
#
# Coordination Sequence:
#
# PCOD9422081 Si02
#       3
#     4   8   8
#     4  10  20  44  70  98 138 178 238 292 360 410
#     4  11  24  45  74 106 145 191 244 294 352 429
#     4  10  22  44  70  98 136 186 234 294 348 420
#
# _framework density 25.234348000000001
#
# number of rings (size 3 to 8) (size 9 to 14) (size 15 to 20)
#    0.000    1.600    4.000    0.000    0.000    6.400 
#    0.000   12.000    0.000    0.000    0.000    0.000 
#    0.000    0.000    0.000    0.000    0.000    0.000 
#
# Total GULP energy -111481.603912 kJ/mol
# GULP energy per Si atom -5574.080196 kJ/mol
# Density = 2.517691 g / cm^3
# Si number density = 25.234348 Si / 1000 Ang^3
#
#
#
# Elastic Constant Matrix: (Units=GPa)
#
#
# Indices 1 2 3 4 5 6 
#
# 1 107.0991 4.7919 26.3432 0.0000 0.0000 0.0000
# 2 4.7919 141.2032 78.6783 0.0000 0.0000 0.0000
# 3 26.3432 78.6783 212.4615 0.0000 0.0000 0.0000
# 4 0.0000 0.0000 0.0000 46.4313 0.0000 0.0000
# 5 0.0000 0.0000 0.0000 0.0000 26.0127 0.0000
# 6 0.0000 0.0000 0.0000 0.0000 0.0000 12.8071
#
#
#
# Elastic Compliance Matrix: (Units=1/GPa)
#
#
# Indices 1 2 3 4 5 6 
#
# 1 0.009651 0.000427 -0.001355 0.000000 0.000000 0.000000
# 2 0.000427 0.008942 -0.003364 0.000000 0.000000 0.000000
# 3 -0.001355 -0.003364 0.006121 0.000000 0.000000 0.000000
# 4 0.000000 0.000000 0.000000 0.021537 0.000000 0.000000
# 5 0.000000 0.000000 0.000000 0.000000 0.038443 0.000000
# 6 0.000000 0.000000 0.000000 0.000000 0.000000 0.078082
#
#
# Mechanical properties :
#
#
# Convention : Reuss Voigt Hill
#
# Bulk Modulus (GPa) = 61.99547 75.59896 68.79722
# Shear Modulus (GPa) = 28.29073 40.44692 34.36883
#
# Velocity S-wave (km/s) = 3.35195 4.00791 3.69451
# Velocity P-wave (km/s) = 6.29301 7.17228 6.74698
#
# Compressibility (1/GPa) = 0.01613021
#
# Stress axis : x y z
#
# Youngs Moduli (GPa) = 103.61292 111.82996 163.38132
#
# Poissons Ratio (x) = -0.04780 0.22138
# Poissons Ratio (y) = -0.04429 0.54969
# Poissons Ratio (z) = 0.14039 0.37625
#
# Static dielectric constant tensor:
#      x y z
#    x 2.195960 0.000000 0.000000 
#    y 0.000000 2.061170 0.000000 
#    z 0.000000 0.000000 2.025070 
# 
# From -- ./inp_files/2618.got.cif
#   From: 2010.05.17/outbox.cif.g08.bks.cpg/sg54_2_cif.got.tgz:2618.got - 2010.06.03 13:09:01.
