data_PCOD9422240
_publ_section_title
;
Structure prediction by ZEFSAII (Michael W. Deem and Ramdas Pophale) SiO2 
 PCOD9422240
Probable space group: P C C A
;
_chemical_formula_sum "Si O2"
_cell_formula_units_Z 32
_cell_length_a 30.536188
_cell_length_b 7.967552
_cell_length_c 5.512197
_cell_angle_alpha 90.000000
_cell_angle_beta 90.000000
_cell_angle_gamma 90.000000
_cell_volume 1341.110176
_symmetry_space_group_name_H-M "P C C A"
_symmetry_group_IT_number 54
_symmetry_cell_setting 'orthorhombic'
loop_
_space_group_symop_operation_xyz
x,y,z
1/2-x,-y,z
1/2+x,-y,1/2-z
-x,y,1/2-z
-x,-y,-z
1/2+x,y,-z
1/2-x,y,1/2+z
x,-y,1/2+z
loop_
_atom_site_type_symbol
_atom_site_label
_atom_site_fract_x
_atom_site_fract_y
_atom_site_fract_z
Si Si1 0.946958 0.090801 0.751774
Si Si2 0.839419 0.589919 0.864354
Si Si3 0.232644 0.191528 0.263406
Si Si4 0.564099 0.461930 0.351641
O O1 0.925163 0.267518 0.813710
O O2 0.000000 0.115362 0.750000
O O3 0.936194 0.027851 0.481170
O O4 0.826024 0.475204 0.631654
O O5 0.817639 0.769566 0.805659
O O6 0.891898 0.574177 0.862443
O O7 0.242387 0.264826 0.528991
O O8 0.250000 0.000000 0.281027
O O9 0.541204 0.479970 0.608003
#
# Coordination Sequence:
#
# PCOD9422240 Si02
#       4
#     8   8   8   8
#     4  10  21  38  63  94 130 167 206 253 305 363
#     4  10  21  37  61  84 117 158 195 248 306 357
#     4  10  21  37  60  87 115 151 196 252 304 364
#     4  10  21  38  63  89 126 165 207 257 305 368
#
# _framework density 23.860828000000001
#
# number of rings (size 3 to 8) (size 9 to 14) (size 15 to 20)
#    0.000    2.000    0.000    3.000    0.000    4.000 
#    0.000    0.000  132.000    0.000    0.000    0.000 
#    0.000    0.000    0.000    0.000    0.000    0.000 
#
# Total GULP energy -178415.196491 kJ/mol
# GULP energy per Si atom -5575.474890 kJ/mol
# Density = 2.380652 g / cm^3
# Si number density = 23.860828 Si / 1000 Ang^3
#
#
#
# Elastic Constant Matrix: (Units=GPa)
#
#
# Indices 1 2 3 4 5 6 
#
# 1 81.9376 36.8025 30.3177 0.0000 0.0000 0.0000
# 2 36.8025 74.0511 32.4934 0.0000 0.0000 0.0000
# 3 30.3177 32.4934 248.9251 0.0000 0.0000 0.0000
# 4 0.0000 0.0000 0.0000 26.5762 0.0000 0.0000
# 5 0.0000 0.0000 0.0000 0.0000 31.9320 0.0000
# 6 0.0000 0.0000 0.0000 0.0000 0.0000 41.4079
#
#
#
# Elastic Compliance Matrix: (Units=1/GPa)
#
#
# Indices 1 2 3 4 5 6 
#
# 1 0.015926 -0.007493 -0.000962 0.000000 0.000000 0.000000
# 2 -0.007493 0.017850 -0.001417 0.000000 0.000000 0.000000
# 3 -0.000962 -0.001417 0.004319 0.000000 0.000000 0.000000
# 4 0.000000 0.000000 0.000000 0.037628 0.000000 0.000000
# 5 0.000000 0.000000 0.000000 0.000000 0.031317 0.000000
# 6 0.000000 0.000000 0.000000 0.000000 0.000000 0.024150
#
#
# Mechanical properties :
#
#
# Convention : Reuss Voigt Hill
#
# Bulk Modulus (GPa) = 54.49227 67.12679 60.80953
# Shear Modulus (GPa) = 31.83692 40.33656 36.08674
#
# Velocity S-wave (km/s) = 3.65674 4.11602 3.89316
# Velocity P-wave (km/s) = 6.38092 7.12619 6.76382
#
# Compressibility (1/GPa) = 0.01835123
#
# Stress axis : x y z
#
# Youngs Moduli (GPa) = 62.79169 56.02221 231.51288
#
# Poissons Ratio (x) = 0.41977 0.22262
# Poissons Ratio (y) = 0.47049 0.32816
# Poissons Ratio (z) = 0.06038 0.07941
#
# Static dielectric constant tensor:
#      x y z
#    x 2.100110 0.000000 0.000000 
#    y 0.000000 1.974560 0.000000 
#    z 0.000000 0.000000 2.064140 
# 
# From -- ./inp_files/2066.got.cif
#   From: 2010.05.17/outbox.cif.g08.bks.cpg/sg54_2_cif.got.tgz:2066.got - 2010.06.03 13:09:01.
