data_PCOD9422729
_publ_section_title
;
Structure prediction by ZEFSAII (Michael W. Deem and Ramdas Pophale) SiO2 
 PCOD9422729
Probable space group: P C C A
;
_chemical_formula_sum "Si O2"
_cell_formula_units_Z 24
_cell_length_a 9.484883
_cell_length_b 5.680170
_cell_length_c 17.538740
_cell_angle_alpha 90.000000
_cell_angle_beta 90.000000
_cell_angle_gamma 90.000000
_cell_volume 944.912734
_symmetry_space_group_name_H-M "P C C A"
_symmetry_group_IT_number 54
_symmetry_cell_setting 'orthorhombic'
loop_
_space_group_symop_operation_xyz
x,y,z
1/2-x,-y,z
1/2+x,-y,1/2-z
-x,y,1/2-z
-x,-y,-z
1/2+x,y,-z
1/2-x,y,1/2+z
x,-y,1/2+z
loop_
_atom_site_type_symbol
_atom_site_label
_atom_site_fract_x
_atom_site_fract_y
_atom_site_fract_z
Si Si1 0.126390 0.692856 0.453565
Si Si2 0.109028 0.372724 0.116013
Si Si3 0.094589 0.997819 0.809345
O O1 0.250000 0.500000 0.440592
O O2 0.142726 0.781697 0.540147
O O3 0.125821 0.893075 0.390923
O O4 0.980618 0.570221 0.428241
O O5 0.250000 0.500000 0.147069
O O6 0.005565 0.228158 0.171438
O O7 0.000000 0.144947 0.750000
O O8 0.250000 0.000000 0.772343
#
# Coordination Sequence:
#
# PCOD9422729 Si02
#       3
#     8   8   8
#     4  10  21  45  72  99 132 181 236 299 354 422
#     4  10  23  43  74 102 130 176 242 298 357 418
#     4  12  27  45  64 101 146 191 234 290 362 434
#
# _framework density 25.399169000000001
#
# number of rings (size 3 to 8) (size 9 to 14) (size 15 to 20)
#    0.000    1.333    3.333    1.000    4.667    1.333 
#    0.000    0.000    0.000    0.000    0.000    0.000 
#    0.000    0.000    0.000    0.000    0.000    0.000 
#
# Total GULP energy -133738.852160 kJ/mol
# GULP energy per Si atom -5572.452173 kJ/mol
# Density = 2.534136 g / cm^3
# Si number density = 25.399169 Si / 1000 Ang^3
#
#
#
# Elastic Constant Matrix: (Units=GPa)
#
#
# Indices 1 2 3 4 5 6 
#
# 1 220.0257 53.8033 42.9176 0.0000 0.0000 0.0000
# 2 53.8033 53.2322 33.2883 0.0000 0.0000 0.0000
# 3 42.9176 33.2883 126.6172 0.0000 0.0000 0.0000
# 4 0.0000 0.0000 0.0000 25.1333 0.0000 0.0000
# 5 0.0000 0.0000 0.0000 0.0000 28.7621 0.0000
# 6 0.0000 0.0000 0.0000 0.0000 0.0000 50.5765
#
#
#
# Elastic Compliance Matrix: (Units=1/GPa)
#
#
# Indices 1 2 3 4 5 6 
#
# 1 0.006067 -0.005799 -0.000532 0.000000 0.000000 0.000000
# 2 -0.005799 0.028026 -0.005402 0.000000 0.000000 0.000000
# 3 -0.000532 -0.005402 0.009498 0.000000 0.000000 0.000000
# 4 0.000000 0.000000 0.000000 0.039788 0.000000 0.000000
# 5 0.000000 0.000000 0.000000 0.000000 0.034768 0.000000
# 6 0.000000 0.000000 0.000000 0.000000 0.000000 0.019772
#
#
# Mechanical properties :
#
#
# Convention : Reuss Voigt Hill
#
# Bulk Modulus (GPa) = 49.69226 73.32152 61.50689
# Shear Modulus (GPa) = 29.74541 38.88544 34.31543
#
# Velocity S-wave (km/s) = 3.42587 3.91701 3.67964
# Velocity P-wave (km/s) = 5.93766 7.02763 6.50551
#
# Compressibility (1/GPa) = 0.02012386
#
# Stress axis : x y z
#
# Youngs Moduli (GPa) = 164.83262 35.68178 105.28160
#
# Poissons Ratio (x) = 0.20693 0.05598
# Poissons Ratio (y) = 0.95592 0.56877
# Poissons Ratio (z) = 0.08764 0.19276
#
# Static dielectric constant tensor:
#      x y z
#    x 1.739540 0.000000 0.000000 
#    y 0.000000 2.274150 0.000000 
#    z 0.000000 0.000000 2.188790 
# 
# From -- ./inp_files/16094.got.cif
#   From: 2010.05.17/outbox.cif.g08.bks.cpg/sg54_9_cif.got.tgz:16094.got - 2010.06.03 13:09:01.
