data_PCOD9422606
_publ_section_title
;
Structure prediction by ZEFSAII (Michael W. Deem and Ramdas Pophale) SiO2 
 PCOD9422606
Probable space group: P C C A
;
_chemical_formula_sum "Si O2"
_cell_formula_units_Z 48
_cell_length_a 25.756655
_cell_length_b 8.917364
_cell_length_c 9.068091
_cell_angle_alpha 90.000000
_cell_angle_beta 90.000000
_cell_angle_gamma 90.000000
_cell_volume 2082.772453
_symmetry_space_group_name_H-M "P C C A"
_symmetry_group_IT_number 54
_symmetry_cell_setting 'orthorhombic'
loop_
_space_group_symop_operation_xyz
x,y,z
1/2-x,-y,z
1/2+x,-y,1/2-z
-x,y,1/2-z
-x,-y,-z
1/2+x,y,-z
1/2-x,y,1/2+z
x,-y,1/2+z
loop_
_atom_site_type_symbol
_atom_site_label
_atom_site_fract_x
_atom_site_fract_y
_atom_site_fract_z
Si Si1 0.294371 0.881046 0.015486
Si Si2 0.840498 0.407746 0.541085
Si Si3 0.146357 0.004001 0.751336
Si Si4 0.368248 0.324071 0.133255
Si Si5 0.972577 0.343619 0.038271
Si Si6 0.428198 0.754682 0.158315
O O1 0.291730 0.705366 0.976531
O O2 0.342772 0.939764 0.915284
O O3 0.250000 0.000000 0.982408
O O4 0.308523 0.897860 0.187046
O O5 0.836810 0.576740 0.484295
O O6 0.859575 0.399621 0.708216
O O7 0.885131 0.333088 0.436749
O O8 0.149914 0.154626 0.654998
O O9 0.094823 0.908918 0.722755
O O10 0.427873 0.316393 0.080586
O O11 0.944852 0.341040 0.198140
O O12 0.020397 0.228452 0.058383
O O13 0.000000 0.500000 0.000000
#
# Coordination Sequence:
#
# PCOD9422606 Si02
#       6
#     8   8   8   8   8   8
#     4  10  21  41  68  96 122 165 216 269 340 407
#     4  10  22  38  62  93 128 169 217 268 329 399
#     4  10  22  41  65  93 130 172 211 277 338 396
#     4  11  22  38  61  91 129 175 216 270 334 381
#     4  11  22  35  63  90 129 177 227 279 312 381
#     4  10  22  39  59  91 128 173 226 267 328 383
#
# _framework density 23.046206000000002
#
# number of rings (size 3 to 8) (size 9 to 14) (size 15 to 20)
#    0.000    1.667    1.667    2.500    2.333    2.667 
#    0.000    4.167    0.000    4.000    0.000    0.000 
#    0.000    0.000    0.000    0.000    0.000    0.000 
#
# Total GULP energy -267980.605354 kJ/mol
# GULP energy per Si atom -5582.929278 kJ/mol
# Density = 2.299375 g / cm^3
# Si number density = 23.046206 Si / 1000 Ang^3
#
#
#
# Elastic Constant Matrix: (Units=GPa)
#
#
# Indices 1 2 3 4 5 6 
#
# 1 61.5666 25.1516 3.3396 0.0000 0.0000 0.0000
# 2 25.1516 90.3862 26.3867 0.0000 0.0000 0.0000
# 3 3.3396 26.3867 93.5937 0.0000 0.0000 0.0000
# 4 0.0000 0.0000 0.0000 42.8085 0.0000 0.0000
# 5 0.0000 0.0000 0.0000 0.0000 21.5069 0.0000
# 6 0.0000 0.0000 0.0000 0.0000 0.0000 37.9072
#
#
#
# Elastic Compliance Matrix: (Units=1/GPa)
#
#
# Indices 1 2 3 4 5 6 
#
# 1 0.018389 -0.005367 0.000857 0.000000 0.000000 0.000000
# 2 -0.005367 0.013622 -0.003649 0.000000 0.000000 0.000000
# 3 0.000857 -0.003649 0.011683 0.000000 0.000000 0.000000
# 4 0.000000 0.000000 0.000000 0.023360 0.000000 0.000000
# 5 0.000000 0.000000 0.000000 0.000000 0.046497 0.000000
# 6 0.000000 0.000000 0.000000 0.000000 0.000000 0.026380
#
#
# Mechanical properties :
#
#
# Convention : Reuss Voigt Hill
#
# Bulk Modulus (GPa) = 36.52915 39.47805 38.00360
# Shear Modulus (GPa) = 30.23449 33.15576 31.69512
#
# Velocity S-wave (km/s) = 3.62596 3.79709 3.71251
# Velocity P-wave (km/s) = 5.78056 6.03249 5.90787
#
# Compressibility (1/GPa) = 0.02737540
#
# Stress axis : x y z
#
# Youngs Moduli (GPa) = 54.38111 73.40830 85.59690
#
# Poissons Ratio (x) = 0.39400 -0.07336
# Poissons Ratio (y) = 0.29187 0.31235
# Poissons Ratio (z) = -0.04661 0.26787
#
# Static dielectric constant tensor:
#      x y z
#    x 1.922430 0.000000 0.000000 
#    y 0.000000 1.881650 0.000000 
#    z 0.000000 0.000000 1.850650 
# 
# From -- ./inp_files/5835.got.cif
#   From: 2010.05.17/outbox.cif.g08.bks.cpg/sg54_3_cif.got.tgz:5835.got - 2010.06.03 13:09:01.
