data_PCOD9422805
_publ_section_title
;
Structure prediction by ZEFSAII (Michael W. Deem and Ramdas Pophale) SiO2 
 PCOD9422805
Probable space group: P C C A
;
_chemical_formula_sum "Si O2"
_cell_formula_units_Z 40
_cell_length_a 15.161081
_cell_length_b 5.028353
_cell_length_c 21.783254
_cell_angle_alpha 90.000000
_cell_angle_beta 90.000000
_cell_angle_gamma 90.000000
_cell_volume 1660.652188
_symmetry_space_group_name_H-M "P C C A"
_symmetry_group_IT_number 54
_symmetry_cell_setting 'orthorhombic'
loop_
_space_group_symop_operation_xyz
x,y,z
1/2-x,-y,z
1/2+x,-y,1/2-z
-x,y,1/2-z
-x,-y,-z
1/2+x,y,-z
1/2-x,y,1/2+z
x,-y,1/2+z
loop_
_atom_site_type_symbol
_atom_site_label
_atom_site_fract_x
_atom_site_fract_y
_atom_site_fract_z
Si Si1 0.969138 0.509002 0.819349
Si Si2 0.750000 0.500000 0.066433
Si Si3 0.750000 0.000000 0.152071
Si Si4 0.059783 0.994205 0.367221
Si Si5 0.418454 0.298412 0.494754
Si Si6 0.812020 0.252101 0.386077
O O1 0.872371 0.627507 0.831642
O O2 0.000000 0.532080 0.750000
O O3 0.985635 0.208628 0.841678
O O4 0.032591 0.702487 0.858449
O O5 0.735953 0.748634 0.109411
O O6 0.836213 0.528947 0.027066
O O7 0.850754 0.949521 0.174336
O O8 0.070000 0.912119 0.438967
O O9 0.500000 0.500000 0.500000
O O10 0.380517 0.181136 0.558637
O O11 0.750000 0.500000 0.404021
O O12 0.750000 0.000000 0.372027
#
# Coordination Sequence:
#
# PCOD9422805 Si02
#       6
#     8   4   4   8   8   8
#     4  12  27  51  74 100 144 198 262 303 359 441
#     4  10  22  38  58 100 144 184 220 290 356 458
#     4  10  22  40  64  98 142 170 228 290 366 418
#     4  11  24  44  72 106 140 188 238 308 369 440
#     4  11  23  42  72 108 147 189 236 300 386 453
#     4  12  28  48  74 107 150 194 241 311 381 460
#
# _framework density 24.086922999999999
#
# number of rings (size 3 to 8) (size 9 to 14) (size 15 to 20)
#    0.000    0.800    3.000    4.200    5.600    2.400 
#    5.400    0.000    0.000    0.000    0.000    0.000 
#    0.000    0.000    0.000    0.000    0.000    0.000 
#
# Total GULP energy -223607.825735 kJ/mol
# GULP energy per Si atom -5590.195643 kJ/mol
# Density = 2.403210 g / cm^3
# Si number density = 24.086923 Si / 1000 Ang^3
#
#
#
# Elastic Constant Matrix: (Units=GPa)
#
#
# Indices 1 2 3 4 5 6 
#
# 1 131.0728 22.8638 18.2805 0.0000 0.0000 0.0000
# 2 22.8638 105.0032 12.5156 0.0000 0.0000 0.0000
# 3 18.2805 12.5156 99.9169 0.0000 0.0000 0.0000
# 4 0.0000 0.0000 0.0000 11.7852 0.0000 0.0000
# 5 0.0000 0.0000 0.0000 0.0000 14.4089 0.0000
# 6 0.0000 0.0000 0.0000 0.0000 0.0000 56.7260
#
#
#
# Elastic Compliance Matrix: (Units=1/GPa)
#
#
# Indices 1 2 3 4 5 6 
#
# 1 0.008088 -0.001609 -0.001278 0.000000 0.000000 0.000000
# 2 -0.001609 0.009988 -0.000957 0.000000 0.000000 0.000000
# 3 -0.001278 -0.000957 0.010362 0.000000 0.000000 0.000000
# 4 0.000000 0.000000 0.000000 0.084852 0.000000 0.000000
# 5 0.000000 0.000000 0.000000 0.000000 0.069402 0.000000
# 6 0.000000 0.000000 0.000000 0.000000 0.000000 0.017629
#
#
# Mechanical properties :
#
#
# Convention : Reuss Voigt Hill
#
# Bulk Modulus (GPa) = 48.19162 49.25697 48.72429
# Shear Modulus (GPa) = 23.26390 35.40621 29.33506
#
# Velocity S-wave (km/s) = 3.11115 3.83813 3.49360
# Velocity P-wave (km/s) = 5.74078 6.33528 6.04534
#
# Compressibility (1/GPa) = 0.02075050
#
# Stress axis : x y z
#
# Youngs Moduli (GPa) = 123.63599 100.12152 96.50620
#
# Poissons Ratio (x) = 0.16108 0.12336
# Poissons Ratio (y) = 0.19891 0.09233
# Poissons Ratio (z) = 0.15804 0.09579
#
# Static dielectric constant tensor:
#      x y z
#    x 2.050550 0.000000 0.000000 
#    y 0.000000 1.888560 0.000000 
#    z 0.000000 0.000000 1.935470 
# 
# From -- ./inp_files/24359.got.cif
#   From: 2010.05.17/outbox.cif.g08.bks.cpg/sg54_13_cif.got.tgz:24359.got - 2010.06.03 13:09:01.
