data_PCOD9422299
_publ_section_title
;
Structure prediction by ZEFSAII (Michael W. Deem and Ramdas Pophale) SiO2 
 PCOD9422299
Probable space group: P C C A
;
_chemical_formula_sum "Si O2"
_cell_formula_units_Z 40
_cell_length_a 11.678897
_cell_length_b 12.548615
_cell_length_c 13.356313
_cell_angle_alpha 90.000000
_cell_angle_beta 90.000000
_cell_angle_gamma 90.000000
_cell_volume 1957.420856
_symmetry_space_group_name_H-M "P C C A"
_symmetry_group_IT_number 54
_symmetry_cell_setting 'orthorhombic'
loop_
_space_group_symop_operation_xyz
x,y,z
1/2-x,-y,z
1/2+x,-y,1/2-z
-x,y,1/2-z
-x,-y,-z
1/2+x,y,-z
1/2-x,y,1/2+z
x,-y,1/2+z
loop_
_atom_site_type_symbol
_atom_site_label
_atom_site_fract_x
_atom_site_fract_y
_atom_site_fract_z
Si Si1 0.043532 0.246428 0.145736
Si Si2 0.210035 0.880630 0.507928
Si Si3 0.761576 0.616527 0.305074
Si Si4 0.599526 0.299753 0.469560
Si Si5 0.906924 0.783853 0.174112
O O1 0.139307 0.333358 0.171167
O O2 0.000000 0.200489 0.250000
O O3 0.104655 0.156402 0.078156
O O4 0.943203 0.304083 0.083060
O O5 0.314657 0.801280 0.533167
O O6 0.169962 0.861162 0.393304
O O7 0.250000 0.000000 0.524709
O O8 0.750000 0.500000 0.259452
O O9 0.831329 0.609798 0.410537
O O10 0.830296 0.700685 0.236406
O O11 0.485311 0.279814 0.405119
O O12 0.000000 0.834706 0.250000
#
# Coordination Sequence:
#
# PCOD9422299 Si02
#       5
#     8   8   8   8   8
#     4  10  21  38  58  85 121 156 201 251 293 351
#     4  10  21  40  62  86 120 159 199 244 298 356
#     4  10  21  38  61  88 117 157 201 242 296 358
#     4   9  20  39  57  82 121 155 192 245 296 349
#     4   9  19  38  59  85 121 154 193 244 293 351
#
# _framework density 20.435053
#
# number of rings (size 3 to 8) (size 9 to 14) (size 15 to 20)
#    0.000    2.400    0.000    1.200    0.000    6.400 
#    0.000   38.000    0.000    0.000    0.000    0.000 
#    0.000    0.000    0.000    0.000    0.000    0.000 
#
# Total GULP energy -223095.452068 kJ/mol
# GULP energy per Si atom -5577.386302 kJ/mol
# Density = 2.038854 g / cm^3
# Si number density = 20.435053 Si / 1000 Ang^3
#
#
#
# Elastic Constant Matrix: (Units=GPa)
#
#
# Indices 1 2 3 4 5 6 
#
# 1 72.2104 22.1560 33.5939 0.0000 0.0000 0.0000
# 2 22.1560 54.3322 20.4906 0.0000 0.0000 0.0000
# 3 33.5939 20.4906 121.8437 0.0000 0.0000 0.0000
# 4 0.0000 0.0000 0.0000 11.0845 0.0000 0.0000
# 5 0.0000 0.0000 0.0000 0.0000 -596.7038 0.0000
# 6 0.0000 0.0000 0.0000 0.0000 0.0000 5.6531
#
#
#
# Elastic Compliance Matrix: (Units=1/GPa)
#
#
# Indices 1 2 3 4 5 6 
#
# 1 0.017363 -0.005632 -0.003840 0.000000 0.000000 0.000000
# 2 -0.005632 0.021479 -0.002059 0.000000 0.000000 0.000000
# 3 -0.003840 -0.002059 0.009612 0.000000 0.000000 0.000000
# 4 0.000000 0.000000 0.000000 0.090216 0.000000 0.000000
# 5 0.000000 0.000000 0.000000 0.000000 -0.001676 0.000000
# 6 0.000000 0.000000 0.000000 0.000000 0.000000 0.176894
#
#
# Mechanical properties :
#
#
# Convention : Reuss Voigt Hill
#
# Bulk Modulus (GPa) = 39.38400 44.54080 41.96240
# Shear Modulus (GPa) = 14.47536 -104.51685 -45.02074
#
# Velocity S-wave (km/s) = 2.66439 -7.15939 -4.69883
# Velocity P-wave (km/s) = 5.36469 6.81901 2.97649
#
# Compressibility (1/GPa) = 0.02539102
#
# Stress axis : x y z
#
# Youngs Moduli (GPa) = 57.59385 46.55793 104.03360
#
# Poissons Ratio (x) = 0.26222 0.39949
# Poissons Ratio (y) = 0.32438 0.21423
# Poissons Ratio (z) = 0.22116 0.09587
#
# Static dielectric constant tensor:
#      x y z
#    x 1.738300 0.000000 0.000000 
#    y 0.000000 1.673840 0.000000 
#    z 0.000000 0.000000 1.796390 
# 
# From -- ./inp_files/12480.got.cif
#   From: 2010.05.17/outbox.cif.g08.bks.cpg/sg54_7_cif.got.tgz:12480.got - 2010.06.03 13:09:01.
