data_PCOD9422463
_publ_section_title
;
Structure prediction by ZEFSAII (Michael W. Deem and Ramdas Pophale) SiO2 
 PCOD9422463
Probable space group: P C C A
;
_chemical_formula_sum "Si O2"
_cell_formula_units_Z 20
_cell_length_a 13.397993
_cell_length_b 12.707326
_cell_length_c 5.239004
_cell_angle_alpha 90.000000
_cell_angle_beta 90.000000
_cell_angle_gamma 90.000000
_cell_volume 891.954392
_symmetry_space_group_name_H-M "P C C A"
_symmetry_group_IT_number 54
_symmetry_cell_setting 'orthorhombic'
loop_
_space_group_symop_operation_xyz
x,y,z
1/2-x,-y,z
1/2+x,-y,1/2-z
-x,y,1/2-z
-x,-y,-z
1/2+x,y,-z
1/2-x,y,1/2+z
x,-y,1/2+z
loop_
_atom_site_type_symbol
_atom_site_label
_atom_site_fract_x
_atom_site_fract_y
_atom_site_fract_z
Si Si1 0.681159 0.264362 0.228294
Si Si2 0.000000 0.427718 0.750000
Si Si3 0.612060 0.039997 0.059714
O O1 0.744399 0.271626 0.487693
O O2 0.597545 0.354209 0.235057
O O3 0.624426 0.153115 0.187199
O O4 0.000000 0.500000 0.500000
O O5 0.654922 0.040277 0.771962
O O6 0.500000 0.000000 0.000000
#
# Coordination Sequence:
#
# PCOD9422463 Si02
#       3
#     8   4   8
#     4  12  27  46  72 107 144 186 240 297 358 430
#     4  12  28  50  76 102 136 184 238 306 374 428
#     4  10  21  39  65  97 141 185 225 274 333 409
#
# _framework density 22.422671999999999
#
# number of rings (size 3 to 8) (size 9 to 14) (size 15 to 20)
#    0.000    0.800    0.000    7.200    0.000   16.000 
#    0.000    0.000    0.000    0.000    0.000    0.000 
#    0.000    0.000    0.000    0.000    0.000    0.000 
#
# Total GULP energy -111829.486301 kJ/mol
# GULP energy per Si atom -5591.474315 kJ/mol
# Density = 2.237164 g / cm^3
# Si number density = 22.422672 Si / 1000 Ang^3
#
#
#
# Elastic Constant Matrix: (Units=GPa)
#
#
# Indices 1 2 3 4 5 6 
#
# 1 160.9085 69.3541 41.2603 0.0000 0.0000 0.0000
# 2 69.3541 163.6058 67.0111 0.0000 0.0000 0.0000
# 3 41.2603 67.0111 222.6905 0.0000 0.0000 0.0000
# 4 0.0000 0.0000 0.0000 37.8485 0.0000 0.0000
# 5 0.0000 0.0000 0.0000 0.0000 38.9961 0.0000
# 6 0.0000 0.0000 0.0000 0.0000 0.0000 41.5707
#
#
#
# Elastic Compliance Matrix: (Units=1/GPa)
#
#
# Indices 1 2 3 4 5 6 
#
# 1 0.007653 -0.003038 -0.000504 0.000000 0.000000 0.000000
# 2 -0.003038 0.008177 -0.001898 0.000000 0.000000 0.000000
# 3 -0.000504 -0.001898 0.005155 0.000000 0.000000 0.000000
# 4 0.000000 0.000000 0.000000 0.026421 0.000000 0.000000
# 5 0.000000 0.000000 0.000000 0.000000 0.025644 0.000000
# 6 0.000000 0.000000 0.000000 0.000000 0.000000 0.024055
#
#
# Mechanical properties :
#
#
# Convention : Reuss Voigt Hill
#
# Bulk Modulus (GPa) = 98.94686 100.27288 99.60987
# Shear Modulus (GPa) = 44.90188 48.32166 46.61177
#
# Velocity S-wave (km/s) = 4.47981 4.64727 4.56431
# Velocity P-wave (km/s) = 8.42509 8.57978 8.50279
#
# Compressibility (1/GPa) = 0.01010644
#
# Stress axis : x y z
#
# Youngs Moduli (GPa) = 130.66239 122.28823 193.98714
#
# Poissons Ratio (x) = 0.37150 0.09774
# Poissons Ratio (y) = 0.39695 0.36816
# Poissons Ratio (z) = 0.06583 0.23208
#
# Static dielectric constant tensor:
#      x y z
#    x 2.026090 0.000000 0.000000 
#    y 0.000000 1.813470 0.000000 
#    z 0.000000 0.000000 1.935740 
# 
# From -- ./inp_files/271.got.cif
#   From: 2010.05.17/outbox.cif.g08.bks.cpg/sg54_1_cif.got.tgz:271.got - 2010.06.03 13:09:01.
