data_PCOD9422363
_publ_section_title
;
Structure prediction by ZEFSAII (Michael W. Deem and Ramdas Pophale) SiO2 
 PCOD9422363
Probable space group: P C C A
;
_chemical_formula_sum "Si O2"
_cell_formula_units_Z 52
_cell_length_a 19.972460
_cell_length_b 14.905328
_cell_length_c 8.714527
_cell_angle_alpha 90.000000
_cell_angle_beta 90.000000
_cell_angle_gamma 90.000000
_cell_volume 2594.280416
_symmetry_space_group_name_H-M "P C C A"
_symmetry_group_IT_number 54
_symmetry_cell_setting 'orthorhombic'
loop_
_space_group_symop_operation_xyz
x,y,z
1/2-x,-y,z
1/2+x,-y,1/2-z
-x,y,1/2-z
-x,-y,-z
1/2+x,y,-z
1/2-x,y,1/2+z
x,-y,1/2+z
loop_
_atom_site_type_symbol
_atom_site_label
_atom_site_fract_x
_atom_site_fract_y
_atom_site_fract_z
Si Si1 0.838134 0.420337 0.074885
Si Si2 0.250000 0.500000 0.688938
Si Si3 0.419026 0.245943 0.912282
Si Si4 0.951625 0.443836 0.611432
Si Si5 0.320848 0.107822 0.514689
Si Si6 0.322815 0.910859 0.381878
Si Si7 0.927993 0.260712 0.456766
O O1 0.778978 0.421690 0.201019
O O2 0.873516 0.327864 0.031623
O O3 0.893878 0.485354 0.148802
O O4 0.807015 0.463258 0.923099
O O5 0.382238 0.152643 0.935697
O O6 0.421868 0.263326 0.728187
O O7 0.493076 0.242094 0.981421
O O8 0.918195 0.358041 0.531257
O O9 0.000000 0.415997 0.750000
O O10 0.000000 0.500000 0.500000
O O11 0.246342 0.126966 0.452491
O O12 0.317736 0.093105 0.697841
O O13 0.375874 0.185304 0.485835
O O14 0.335953 0.012130 0.436249
#
# Coordination Sequence:
#
# PCOD9422363 Si02
#       7
#     8   4   8   8   8   8   8
#     4  11  22  39  59  87 122 161 204 256 307 381
#     4  10  24  38  56  86 126 162 204 256 320 360
#     4  10  21  38  64  87 123 159 206 250 322 363
#     4  12  23  40  64  90 121 167 212 257 315 380
#     4  10  21  41  64  90 125 158 216 252 319 379
#     4  10  21  39  63  90 117 170 197 260 311 380
#     4  10  22  40  60  94 122 160 205 262 308 379
#
# _framework density 20.044093
#
# number of rings (size 3 to 8) (size 9 to 14) (size 15 to 20)
#    0.000    1.538    1.538    4.615    0.000    5.538 
#    5.538    0.000    0.000    0.000    0.000    0.000 
#    0.000    0.000    0.000    0.000    0.000    0.000 
#
# Total GULP energy -290393.459461 kJ/mol
# GULP energy per Si atom -5584.489605 kJ/mol
# Density = 1.999847 g / cm^3
# Si number density = 20.044093 Si / 1000 Ang^3
#
#
#
# Elastic Constant Matrix: (Units=GPa)
#
#
# Indices 1 2 3 4 5 6 
#
# 1 54.0827 29.5594 18.9820 0.0000 0.0000 0.0000
# 2 29.5594 72.2071 18.6195 0.0000 0.0000 0.0000
# 3 18.9820 18.6195 54.3893 0.0000 0.0000 0.0000
# 4 0.0000 0.0000 0.0000 1.0646 0.0000 0.0000
# 5 0.0000 0.0000 0.0000 0.0000 23.5364 0.0000
# 6 0.0000 0.0000 0.0000 0.0000 0.0000 44.4430
#
#
#
# Elastic Compliance Matrix: (Units=1/GPa)
#
#
# Indices 1 2 3 4 5 6 
#
# 1 0.025394 -0.008895 -0.005817 0.000000 0.000000 0.000000
# 2 -0.008895 0.018306 -0.003162 0.000000 0.000000 0.000000
# 3 -0.005817 -0.003162 0.021499 0.000000 0.000000 0.000000
# 4 0.000000 0.000000 0.000000 0.939344 0.000000 0.000000
# 5 0.000000 0.000000 0.000000 0.000000 0.042487 0.000000
# 6 0.000000 0.000000 0.000000 0.000000 0.000000 0.022501
#
#
# Mechanical properties :
#
#
# Convention : Reuss Voigt Hill
#
# Bulk Modulus (GPa) = 33.95745 35.00011 34.47878
# Shear Modulus (GPa) = 4.48391 21.37669 12.93030
#
# Velocity S-wave (km/s) = 1.49729 3.26925 2.54262
# Velocity P-wave (km/s) = 4.46848 5.63472 5.08515
#
# Compressibility (1/GPa) = 0.02944862
#
# Stress axis : x y z
#
# Youngs Moduli (GPa) = 39.37965 54.62685 46.51424
#
# Poissons Ratio (x) = 0.48593 0.27059
# Poissons Ratio (y) = 0.35030 0.14709
# Poissons Ratio (z) = 0.22908 0.17275
#
# Static dielectric constant tensor:
#      x y z
#    x 1.754670 0.000000 0.000000 
#    y 0.000000 1.687720 0.000000 
#    z 0.000000 0.000000 1.725570 
# 
# From -- ./inp_files/4768.got.cif
#   From: 2010.05.17/outbox.cif.g08.bks.cpg/sg54_3_cif.got.tgz:4768.got - 2010.06.03 13:09:01.
