data_PCOD9422865
_publ_section_title
;
Structure prediction by ZEFSAII (Michael W. Deem and Ramdas Pophale) SiO2 
 PCOD9422865
Probable space group: P C C A
;
_chemical_formula_sum "Si O2"
_cell_formula_units_Z 40
_cell_length_a 29.409530
_cell_length_b 5.465752
_cell_length_c 10.182023
_cell_angle_alpha 90.000000
_cell_angle_beta 90.000000
_cell_angle_gamma 90.000000
_cell_volume 1636.711297
_symmetry_space_group_name_H-M "P C C A"
_symmetry_group_IT_number 54
_symmetry_cell_setting 'orthorhombic'
loop_
_space_group_symop_operation_xyz
x,y,z
1/2-x,-y,z
1/2+x,-y,1/2-z
-x,y,1/2-z
-x,-y,-z
1/2+x,y,-z
1/2-x,y,1/2+z
x,-y,1/2+z
loop_
_atom_site_type_symbol
_atom_site_label
_atom_site_fract_x
_atom_site_fract_y
_atom_site_fract_z
Si Si1 0.182526 0.565286 0.858556
Si Si2 0.446413 0.435209 0.789298
Si Si3 0.032056 0.943609 0.377624
Si Si4 0.296628 0.931235 0.980741
Si Si5 0.866167 0.388538 0.405024
O O1 0.167637 0.518996 0.710215
O O2 0.210988 0.330281 0.908363
O O3 0.141096 0.536806 0.962185
O O4 0.197272 0.843853 0.881249
O O5 0.500000 0.427924 0.750000
O O6 0.437088 0.180994 0.862574
O O7 0.415039 0.419542 0.660721
O O8 0.442103 0.686130 0.871230
O O9 0.000000 0.932235 0.250000
O O10 0.000000 0.000000 0.500000
O O11 0.343327 0.876522 0.060699
O O12 0.250000 0.000000 0.056886
#
# Coordination Sequence:
#
# PCOD9422865 Si02
#       5
#     8   8   8   8   8
#     4  10  25  43  69 102 139 177 227 286 348 419
#     4  10  23  42  66  98 134 184 227 284 341 405
#     4  10  22  39  60  89 126 170 228 273 327 392
#     4  10  24  46  70 102 137 180 226 285 356 423
#     4  10  26  43  72 102 144 179 237 288 352 421
#
# _framework density 24.439250999999999
#
# number of rings (size 3 to 8) (size 9 to 14) (size 15 to 20)
#    1.200    0.800    0.000    1.200    5.600    7.200 
#    7.200    0.000    0.000    0.000    0.000    0.000 
#    0.000    0.000    0.000    0.000    0.000    0.000 
#
# Total GULP energy -222904.744018 kJ/mol
# GULP energy per Si atom -5572.618600 kJ/mol
# Density = 2.438363 g / cm^3
# Si number density = 24.439251 Si / 1000 Ang^3
#
#
#
# Elastic Constant Matrix: (Units=GPa)
#
#
# Indices 1 2 3 4 5 6 
#
# 1 89.7607 46.2428 0.0879 0.0000 0.0000 0.0000
# 2 46.2428 202.8691 13.6349 0.0000 0.0000 0.0000
# 3 0.0879 13.6349 69.7785 0.0000 0.0000 0.0000
# 4 0.0000 0.0000 0.0000 31.5351 0.0000 0.0000
# 5 0.0000 0.0000 0.0000 0.0000 21.9393 0.0000
# 6 0.0000 0.0000 0.0000 0.0000 0.0000 -22.8094
#
#
#
# Elastic Compliance Matrix: (Units=1/GPa)
#
#
# Indices 1 2 3 4 5 6 
#
# 1 0.012644 -0.002919 0.000555 0.000000 0.000000 0.000000
# 2 -0.002919 0.005669 -0.001104 0.000000 0.000000 0.000000
# 3 0.000555 -0.001104 0.014546 0.000000 0.000000 0.000000
# 4 0.000000 0.000000 0.000000 0.031711 0.000000 0.000000
# 5 0.000000 0.000000 0.000000 0.000000 0.045580 0.000000
# 6 0.000000 0.000000 0.000000 0.000000 0.000000 -0.043842
#
#
# Mechanical properties :
#
#
# Convention : Reuss Voigt Hill
#
# Bulk Modulus (GPa) = 38.57824 53.59329 46.08577
# Shear Modulus (GPa) = 61.05975 26.29585 43.67780
#
# Velocity S-wave (km/s) = 5.00385 3.28375 4.23211
# Velocity P-wave (km/s) = 7.01458 6.02944 6.54059
#
# Compressibility (1/GPa) = 0.02592135
#
# Stress axis : x y z
#
# Youngs Moduli (GPa) = 79.08748 176.39922 68.74701
#
# Poissons Ratio (x) = 0.51499 -0.03812
# Poissons Ratio (y) = 0.23089 0.07590
# Poissons Ratio (z) = -0.04386 0.19475
#
# Static dielectric constant tensor:
#      x y z
#    x 2.279480 0.000000 0.000000 
#    y 0.000000 2.023610 0.000000 
#    z 0.000000 0.000000 1.914020 
# 
# From -- ./inp_files/10431.got.cif
#   From: 2010.05.17/outbox.cif.g08.bks.cpg/sg54_6_cif.got.tgz:10431.got - 2010.06.03 13:09:01.
