data_PCOD9422431
_publ_section_title
;
Structure prediction by ZEFSAII (Michael W. Deem and Ramdas Pophale) SiO2 
 PCOD9422431
Probable space group: P C C A
;
_chemical_formula_sum "Si O2"
_cell_formula_units_Z 48
_cell_length_a 14.847886
_cell_length_b 16.639597
_cell_length_c 9.383590
_cell_angle_alpha 90.000000
_cell_angle_beta 90.000000
_cell_angle_gamma 90.000000
_cell_volume 2318.336389
_symmetry_space_group_name_H-M "P C C A"
_symmetry_group_IT_number 54
_symmetry_cell_setting 'orthorhombic'
loop_
_space_group_symop_operation_xyz
x,y,z
1/2-x,-y,z
1/2+x,-y,1/2-z
-x,y,1/2-z
-x,-y,-z
1/2+x,y,-z
1/2-x,y,1/2+z
x,-y,1/2+z
loop_
_atom_site_type_symbol
_atom_site_label
_atom_site_fract_x
_atom_site_fract_y
_atom_site_fract_z
Si Si1 0.089668 0.944356 0.340159
Si Si2 0.764379 0.305733 0.284319
Si Si3 0.169292 0.943032 0.039974
Si Si4 0.796118 0.194756 0.531043
Si Si5 0.087885 0.406176 0.669019
Si Si6 0.343418 0.457328 0.881548
O O1 0.124813 0.868904 0.433531
O O2 0.000000 0.926448 0.250000
O O3 0.089435 0.024154 0.439269
O O4 0.155180 0.958117 0.205947
O O5 0.816760 0.261780 0.412117
O O6 0.733624 0.239130 0.172882
O O7 0.671640 0.345174 0.338539
O O8 0.817196 0.376254 0.202442
O O9 0.207546 0.854560 0.018773
O O10 0.250000 0.000000 0.989959
O O11 0.116514 0.479816 0.770168
O O12 0.086532 0.438689 0.507664
O O13 0.000000 0.371745 0.750000
O O14 0.250000 0.500000 0.937860
#
# Coordination Sequence:
#
# PCOD9422431 Si02
#       6
#     8   8   8   8   8   8
#     4  11  23  39  64  94 130 162 212 265 321 368
#     4  11  22  40  65  91 125 171 218 258 317 392
#     4  10  21  39  63  90 118 168 214 254 302 389
#     4  11  22  40  65  90 125 168 218 257 316 388
#     4  11  23  39  64  93 128 162 213 270 321 372
#     4  10  21  39  64  92 122 170 219 258 314 394
#
# _framework density 20.704502000000002
#
# number of rings (size 3 to 8) (size 9 to 14) (size 15 to 20)
#    0.000    1.333    3.333    4.000    4.667    0.667 
#    0.000    0.000    0.000    0.000    0.000    0.000 
#    0.000    0.000    0.000    0.000    0.000    0.000 
#
# Total GULP energy -267734.689249 kJ/mol
# GULP energy per Si atom -5577.806026 kJ/mol
# Density = 2.065738 g / cm^3
# Si number density = 20.704502 Si / 1000 Ang^3
#
#
#
# Elastic Constant Matrix: (Units=GPa)
#
#
# Indices 1 2 3 4 5 6 
#
# 1 59.9334 18.1269 19.5945 0.0000 0.0000 0.0000
# 2 18.1269 60.8479 41.1890 0.0000 0.0000 0.0000
# 3 19.5945 41.1890 117.1287 0.0000 0.0000 0.0000
# 4 0.0000 0.0000 0.0000 25.5246 0.0000 0.0000
# 5 0.0000 0.0000 0.0000 0.0000 30.4112 0.0000
# 6 0.0000 0.0000 0.0000 0.0000 0.0000 17.2131
#
#
#
# Elastic Compliance Matrix: (Units=1/GPa)
#
#
# Indices 1 2 3 4 5 6 
#
# 1 0.018542 -0.004494 -0.001522 0.000000 0.000000 0.000000
# 2 -0.004494 0.022658 -0.007216 0.000000 0.000000 0.000000
# 3 -0.001522 -0.007216 0.011330 0.000000 0.000000 0.000000
# 4 0.000000 0.000000 0.000000 0.039178 0.000000 0.000000
# 5 0.000000 0.000000 0.000000 0.000000 0.032883 0.000000
# 6 0.000000 0.000000 0.000000 0.000000 0.000000 0.058095
#
#
# Mechanical properties :
#
#
# Convention : Reuss Voigt Hill
#
# Bulk Modulus (GPa) = 38.36318 43.97009 41.16664
# Shear Modulus (GPa) = 22.95299 25.22974 24.09136
#
# Velocity S-wave (km/s) = 3.33317 3.49458 3.41483
# Velocity P-wave (km/s) = 5.77776 6.12910 5.95602
#
# Compressibility (1/GPa) = 0.02606666
#
# Stress axis : x y z
#
# Youngs Moduli (GPa) = 53.93221 44.13504 88.26350
#
# Poissons Ratio (x) = 0.19833 0.13430
# Poissons Ratio (y) = 0.24235 0.63691
# Poissons Ratio (z) = 0.08206 0.31848
#
# Static dielectric constant tensor:
#      x y z
#    x 1.905600 0.000000 0.000000 
#    y 0.000000 1.775720 0.000000 
#    z 0.000000 0.000000 1.760300 
# 
# From -- ./inp_files/3592.got.cif
#   From: 2010.05.17/outbox.cif.g08.bks.cpg/sg54_2_cif.got.tgz:3592.got - 2010.06.03 13:09:01.
