data_PCOD9422958
_publ_section_title
;
Structure prediction by ZEFSAII (Michael W. Deem and Ramdas Pophale) SiO2 
 PCOD9422958
Probable space group: P C C A
;
_chemical_formula_sum "Si O2"
_cell_formula_units_Z 20
_cell_length_a 5.036129
_cell_length_b 11.680195
_cell_length_c 14.749613
_cell_angle_alpha 90.000000
_cell_angle_beta 90.000000
_cell_angle_gamma 90.000000
_cell_volume 867.616025
_symmetry_space_group_name_H-M "P C C A"
_symmetry_group_IT_number 54
_symmetry_cell_setting 'orthorhombic'
loop_
_space_group_symop_operation_xyz
x,y,z
1/2-x,-y,z
1/2+x,-y,1/2-z
-x,y,1/2-z
-x,-y,-z
1/2+x,y,-z
1/2-x,y,1/2+z
x,-y,1/2+z
loop_
_atom_site_type_symbol
_atom_site_label
_atom_site_fract_x
_atom_site_fract_y
_atom_site_fract_z
Si Si1 0.016508 0.327455 0.056155
Si Si2 0.000501 0.079675 0.357887
Si Si3 0.250000 0.500000 0.805094
O O1 0.899197 0.405252 0.135205
O O2 0.995563 0.195849 0.085910
O O3 0.819318 0.350824 0.971641
O O4 0.000000 0.108300 0.250000
O O5 0.750000 0.000000 0.377205
O O6 0.250000 0.000000 0.377076
O O7 0.500000 0.552487 0.750000
#
# Coordination Sequence:
#
# PCOD9422958 Si02
#       3
#     8   8   4
#     4  12  25  42  66  97 133 167 213 274 332 385
#     4  10  22  40  63  92 128 172 220 265 317 388
#     4  12  26  46  70  94 128 176 226 268 324 398
#
# _framework density 23.051673000000001
#
# number of rings (size 3 to 8) (size 9 to 14) (size 15 to 20)
#    0.000    0.800    0.000    7.200    0.000    9.600 
#    0.000    0.000    0.000    0.000    0.000    0.000 
#    0.000    0.000    0.000    0.000    0.000    0.000 
#
# Total GULP energy -112113.863047 kJ/mol
# GULP energy per Si atom -5605.693152 kJ/mol
# Density = 2.299921 g / cm^3
# Si number density = 23.051673 Si / 1000 Ang^3
#
#
#
# Elastic Constant Matrix: (Units=GPa)
#
#
# Indices 1 2 3 4 5 6 
#
# 1 148.0029 20.3003 22.1021 0.0000 0.0000 0.0000
# 2 20.3003 85.4636 26.9790 0.0000 0.0000 0.0000
# 3 22.1021 26.9790 62.0970 0.0000 0.0000 0.0000
# 4 0.0000 0.0000 0.0000 25.4779 0.0000 0.0000
# 5 0.0000 0.0000 0.0000 0.0000 7.9888 0.0000
# 6 0.0000 0.0000 0.0000 0.0000 0.0000 46.3103
#
#
#
# Elastic Compliance Matrix: (Units=1/GPa)
#
#
# Indices 1 2 3 4 5 6 
#
# 1 0.007216 -0.001047 -0.002114 0.000000 0.000000 0.000000
# 2 -0.001047 0.013713 -0.005585 0.000000 0.000000 0.000000
# 3 -0.002114 -0.005585 0.019283 0.000000 0.000000 0.000000
# 4 0.000000 0.000000 0.000000 0.039250 0.000000 0.000000
# 5 0.000000 0.000000 0.000000 0.000000 0.125175 0.000000
# 6 0.000000 0.000000 0.000000 0.000000 0.000000 0.021593
#
#
# Mechanical properties :
#
#
# Convention : Reuss Voigt Hill
#
# Bulk Modulus (GPa) = 44.01351 48.25846 46.13598
# Shear Modulus (GPa) = 19.89709 31.03424 25.46566
#
# Velocity S-wave (km/s) = 2.94113 3.67316 3.32734
# Velocity P-wave (km/s) = 5.53792 6.24258 5.90078
#
# Compressibility (1/GPa) = 0.02272030
#
# Stress axis : x y z
#
# Youngs Moduli (GPa) = 138.58428 72.92551 51.86017
#
# Poissons Ratio (x) = 0.07634 0.10961
# Poissons Ratio (y) = 0.14507 0.28964
# Poissons Ratio (z) = 0.29290 0.40729
#
# Static dielectric constant tensor:
#      x y z
#    x 1.784340 0.000000 0.000000 
#    y 0.000000 1.768560 0.000000 
#    z 0.000000 0.000000 1.946640 
# 
# From -- ./inp_files/10603.got.cif
#   From: 2010.05.17/outbox.cif.g08.bks.cpg/sg54_6_cif.got.tgz:10603.got - 2010.06.03 13:09:01.
