data_PCOD9422624
_publ_section_title
;
Structure prediction by ZEFSAII (Michael W. Deem and Ramdas Pophale) SiO2 
 PCOD9422624
Probable space group: P C C A
;
_chemical_formula_sum "Si O2"
_cell_formula_units_Z 60
_cell_length_a 9.120066
_cell_length_b 11.351717
_cell_length_c 26.872660
_cell_angle_alpha 90.000000
_cell_angle_beta 90.000000
_cell_angle_gamma 90.000000
_cell_volume 2782.083715
_symmetry_space_group_name_H-M "P C C A"
_symmetry_group_IT_number 54
_symmetry_cell_setting 'orthorhombic'
loop_
_space_group_symop_operation_xyz
x,y,z
1/2-x,-y,z
1/2+x,-y,1/2-z
-x,y,1/2-z
-x,-y,-z
1/2+x,y,-z
1/2-x,y,1/2+z
x,-y,1/2+z
loop_
_atom_site_type_symbol
_atom_site_label
_atom_site_fract_x
_atom_site_fract_y
_atom_site_fract_z
Si Si1 0.074285 0.993864 0.848083
Si Si2 0.370199 0.583649 0.479155
Si Si3 0.931642 0.751222 0.122436
Si Si4 0.000000 0.152520 0.250000
Si Si5 0.113407 0.220247 0.403835
Si Si6 0.908661 0.558228 0.205123
Si Si7 0.780769 0.637577 0.416091
Si Si8 0.427913 0.324948 0.674407
O O1 0.043738 0.908733 0.895887
O O2 0.031857 0.933229 0.796192
O O3 0.250000 0.000000 0.846344
O O4 0.014253 0.124733 0.855086
O O5 0.250000 0.500000 0.451626
O O6 0.500000 0.500000 0.500000
O O7 0.437021 0.684779 0.444322
O O8 0.276377 0.643239 0.523789
O O9 0.788242 0.783804 0.090533
O O10 0.887896 0.656829 0.163899
O O11 0.057242 0.685755 0.092691
O O12 0.109694 0.247671 0.223160
O O13 0.077043 0.274735 0.349872
O O14 0.750000 0.500000 0.216942
O O15 0.000000 0.614793 0.250000
O O16 0.025317 0.457113 0.187658
O O17 0.750000 0.500000 0.407203
O O18 0.684566 0.692186 0.371227
#
# Coordination Sequence:
#
# PCOD9422624 Si02
#       8
#     8   8   8   4   8   8   8   8
#     4   9  22  41  62  89 118 173 232 260 311 388
#     4  11  23  37  64  99 130 164 212 267 340 400
#     4  11  23  40  65  89 128 170 216 266 322 391
#     4  10  22  40  60  82 122 172 212 264 318 380
#     4  10  21  42  64  84 125 168 217 269 313 400
#     4  12  26  38  60  94 130 173 214 264 343 399
#     4  11  23  38  59  99 131 162 205 275 334 400
#     4  11  22  39  60  88 132 168 207 265 339 389
#
# _framework density 21.566569000000001
#
# number of rings (size 3 to 8) (size 9 to 14) (size 15 to 20)
#    0.000    1.333    3.333    2.400    4.667    1.067 
#    0.000    2.667    0.000    4.800    0.000    0.000 
#    0.000    0.000    0.000    0.000    0.000    0.000 
#
# Total GULP energy -334043.710491 kJ/mol
# GULP energy per Si atom -5567.395175 kJ/mol
# Density = 2.151748 g / cm^3
# Si number density = 21.566569 Si / 1000 Ang^3
#
#
#
# Elastic Constant Matrix: (Units=GPa)
#
#
# Indices 1 2 3 4 5 6 
#
# 1 43.2804 11.2867 12.6293 0.0000 0.0000 0.0000
# 2 11.2867 114.6747 30.9060 0.0000 0.0000 0.0000
# 3 12.6293 30.9060 71.5624 0.0000 0.0000 0.0000
# 4 0.0000 0.0000 0.0000 265.1902 0.0000 0.0000
# 5 0.0000 0.0000 0.0000 0.0000 24.7668 0.0000
# 6 0.0000 0.0000 0.0000 0.0000 0.0000 20.1644
#
#
#
# Elastic Compliance Matrix: (Units=1/GPa)
#
#
# Indices 1 2 3 4 5 6 
#
# 1 0.024560 -0.001414 -0.003724 0.000000 0.000000 0.000000
# 2 -0.001414 0.009950 -0.004048 0.000000 0.000000 0.000000
# 3 -0.003724 -0.004048 0.016379 0.000000 0.000000 0.000000
# 4 0.000000 0.000000 0.000000 0.003771 0.000000 0.000000
# 5 0.000000 0.000000 0.000000 0.000000 0.040377 0.000000
# 6 0.000000 0.000000 0.000000 0.000000 0.000000 0.049592
#
#
# Mechanical properties :
#
#
# Convention : Reuss Voigt Hill
#
# Bulk Modulus (GPa) = 30.75109 37.68462 34.21786
# Shear Modulus (GPa) = 28.76202 73.67065 51.21634
#
# Velocity S-wave (km/s) = 3.65586 5.85097 4.87848
# Velocity P-wave (km/s) = 5.66658 7.94712 6.90169
#
# Compressibility (1/GPa) = 0.03251917
#
# Stress axis : x y z
#
# Youngs Moduli (GPa) = 40.71586 100.49855 61.05319
#
# Poissons Ratio (x) = 0.14207 0.22736
# Poissons Ratio (y) = 0.05756 0.24713
# Poissons Ratio (z) = 0.15162 0.40680
#
# Static dielectric constant tensor:
#      x y z
#    x 1.857270 0.000000 0.000000 
#    y 0.000000 1.871830 0.000000 
#    z 0.000000 0.000000 1.812090 
# 
# From -- ./inp_files/25951.got.cif
#   From: 2010.05.17/outbox.cif.g08.bks.cpg/sg54_13_cif.got.tgz:25951.got - 2010.06.03 13:09:01.
