data_PCOD9422750
_publ_section_title
;
Structure prediction by ZEFSAII (Michael W. Deem and Ramdas Pophale) SiO2 
 PCOD9422750
Probable space group: P C C A
;
_chemical_formula_sum "Si O2"
_cell_formula_units_Z 48
_cell_length_a 8.602666
_cell_length_b 15.544459
_cell_length_c 17.259696
_cell_angle_alpha 90.000000
_cell_angle_beta 90.000000
_cell_angle_gamma 90.000000
_cell_volume 2308.031945
_symmetry_space_group_name_H-M "P C C A"
_symmetry_group_IT_number 54
_symmetry_cell_setting 'orthorhombic'
loop_
_space_group_symop_operation_xyz
x,y,z
1/2-x,-y,z
1/2+x,-y,1/2-z
-x,y,1/2-z
-x,-y,-z
1/2+x,y,-z
1/2-x,y,1/2+z
x,-y,1/2+z
loop_
_atom_site_type_symbol
_atom_site_label
_atom_site_fract_x
_atom_site_fract_y
_atom_site_fract_z
Si Si1 0.250000 0.500000 0.865920
Si Si2 0.369405 0.750056 0.075566
Si Si3 0.860740 0.635589 0.521312
Si Si4 0.588427 0.449612 0.358094
Si Si5 0.402353 0.249995 0.175983
Si Si6 0.250000 0.000000 0.982745
Si Si7 0.996745 0.125044 0.544747
O O1 0.255650 0.415550 0.919073
O O2 0.425627 0.506328 0.832025
O O3 0.495712 0.674198 0.069544
O O4 0.280369 0.767280 0.156092
O O5 0.235926 0.712973 0.017691
O O6 0.448777 0.832618 0.037272
O O7 0.907609 0.570935 0.451400
O O8 0.750000 0.500000 0.340621
O O9 0.591680 0.353256 0.325052
O O10 0.500000 0.220623 0.250000
O O11 0.486457 0.201692 0.105049
O O12 0.362277 0.940789 0.932809
O O13 0.147227 0.934251 0.033376
#
# Coordination Sequence:
#
# PCOD9422750 Si02
#       7
#     4   8   8   8   8   4   8
#     4  12  18  30  54  86 128 158 218 290 332 376
#     4  11  19  35  62  90 125 173 223 270 320 406
#     4  11  18  29  54  94 123 159 224 278 323 377
#     4  11  22  36  58  92 129 173 226 281 340 396
#     4  11  24  42  62  92 134 181 218 277 344 409
#     4  10  22  34  68 108 130 152 224 276 324 398
#     4  11  19  39  65 100 129 169 212 267 333 403
#
# _framework density 20.796937
#
# number of rings (size 3 to 8) (size 9 to 14) (size 15 to 20)
#    0.000    1.000    7.500    2.500    0.000    0.000 
#    1.500    0.833    0.000    9.000    0.000    0.000 
#    0.000    0.000    0.000    0.000    0.000    0.000 
#
# Total GULP energy -267496.477001 kJ/mol
# GULP energy per Si atom -5572.843271 kJ/mol
# Density = 2.074960 g / cm^3
# Si number density = 20.796937 Si / 1000 Ang^3
#
#
#
# Elastic Constant Matrix: (Units=GPa)
#
#
# Indices 1 2 3 4 5 6 
#
# 1 162.3514 48.6094 41.0774 0.0000 0.0000 0.0000
# 2 48.6094 91.7558 26.6287 0.0000 0.0000 0.0000
# 3 41.0774 26.6287 51.2244 0.0000 0.0000 0.0000
# 4 0.0000 0.0000 0.0000 -3.1073 0.0000 0.0000
# 5 0.0000 0.0000 0.0000 0.0000 19.5705 0.0000
# 6 0.0000 0.0000 0.0000 0.0000 0.0000 60.5167
#
#
#
# Elastic Compliance Matrix: (Units=1/GPa)
#
#
# Indices 1 2 3 4 5 6 
#
# 1 0.008342 -0.002918 -0.005172 0.000000 0.000000 0.000000
# 2 -0.002918 0.013856 -0.004863 0.000000 0.000000 0.000000
# 3 -0.005172 -0.004863 0.026198 0.000000 0.000000 0.000000
# 4 0.000000 0.000000 0.000000 -0.321820 0.000000 0.000000
# 5 0.000000 0.000000 0.000000 0.000000 0.051097 0.000000
# 6 0.000000 0.000000 0.000000 0.000000 0.000000 0.016524
#
#
# Mechanical properties :
#
#
# Convention : Reuss Voigt Hill
#
# Bulk Modulus (GPa) = 44.46701 59.77362 52.12032
# Shear Modulus (GPa) = -29.00223 27.99705 -0.50259
#
# Velocity S-wave (km/s) = -3.73841 3.67305 -0.49213
# Velocity P-wave (km/s) = 1.67142 6.84050 4.97926
#
# Compressibility (1/GPa) = 0.02248858
#
# Stress axis : x y z
#
# Youngs Moduli (GPa) = 119.87648 72.17264 38.17136
#
# Poissons Ratio (x) = 0.21061 0.19744
# Poissons Ratio (y) = 0.34982 0.18561
# Poissons Ratio (z) = 0.62006 0.35095
#
# Static dielectric constant tensor:
#      x y z
#    x 1.856540 0.000000 0.000000 
#    y 0.000000 1.760960 0.000000 
#    z 0.000000 0.000000 1.788200 
# 
# From -- ./inp_files/20424.got.cif
#   From: 2010.05.17/outbox.cif.g08.bks.cpg/sg54_11_cif.got.tgz:20424.got - 2010.06.03 13:09:01.
