data_PCOD9422474
_publ_section_title
;
Structure prediction by ZEFSAII (Michael W. Deem and Ramdas Pophale) SiO2 
 PCOD9422474
Probable space group: P C C A
;
_chemical_formula_sum "Si O2"
_cell_formula_units_Z 56
_cell_length_a 28.449560
_cell_length_b 14.204067
_cell_length_c 5.283019
_cell_angle_alpha 90.000000
_cell_angle_beta 90.000000
_cell_angle_gamma 90.000000
_cell_volume 2134.865106
_symmetry_space_group_name_H-M "P C C A"
_symmetry_group_IT_number 54
_symmetry_cell_setting 'orthorhombic'
loop_
_space_group_symop_operation_xyz
x,y,z
1/2-x,-y,z
1/2+x,-y,1/2-z
-x,y,1/2-z
-x,-y,-z
1/2+x,y,-z
1/2-x,y,1/2+z
x,-y,1/2+z
loop_
_atom_site_type_symbol
_atom_site_label
_atom_site_fract_x
_atom_site_fract_y
_atom_site_fract_z
Si Si1 0.098857 0.563679 0.122213
Si Si2 0.000000 0.901671 0.250000
Si Si3 0.779800 0.771407 0.816960
Si Si4 0.096194 0.096680 0.578378
Si Si5 0.453061 0.766923 0.171585
Si Si6 0.000000 0.435622 0.750000
Si Si7 0.184678 0.970783 0.530598
Si Si8 0.365919 0.723882 0.886694
O O1 0.102354 0.488720 0.354484
O O2 0.135356 0.647700 0.164223
O O3 0.048596 0.614951 0.183108
O O4 0.047486 0.953475 0.166144
O O5 0.022215 0.834814 0.465154
O O6 0.738974 0.763182 0.031561
O O7 0.806597 0.871718 0.838493
O O8 0.821053 0.708942 0.936197
O O9 0.074482 0.167097 0.369755
O O10 0.122918 0.171080 0.769049
O O11 0.133489 0.019078 0.484593
O O12 0.500000 0.710710 0.250000
O O13 0.411117 0.706489 0.062323
O O14 0.000000 0.500000 0.500000
O O15 0.205369 0.038406 0.749115
#
# Coordination Sequence:
#
# PCOD9422474 Si02
#       8
#     8   4   8   8   8   4   8   8
#     4  10  23  41  67 105 144 190 229 282 347 414
#     4   8  18  37  56  96 133 182 248 290 327 406
#     4  12  29  50  74 105 136 179 234 299 371 430
#     4  10  21  39  66  96 132 192 236 289 350 411
#     4   9  19  37  66  99 140 187 245 285 344 415
#     4   8  16  35  56  94 143 174 218 266 327 408
#     4  12  25  45  68  98 139 174 231 288 360 427
#     4  11  24  44  72  99 144 184 243 299 353 438
#
# _framework density 26.231166000000002
#
# number of rings (size 3 to 8) (size 9 to 14) (size 15 to 20)
#    0.000    1.714    1.429    1.714    6.000    5.143 
#    5.143    0.714    1.571    2.571    0.000    0.000 
#    0.000    0.000    0.000    0.000    0.000    0.000 
#
# Total GULP energy -312608.144922 kJ/mol
# GULP energy per Si atom -5582.288302 kJ/mol
# Density = 2.617146 g / cm^3
# Si number density = 26.231166 Si / 1000 Ang^3
#
#
#
# Elastic Constant Matrix: (Units=GPa)
#
#
# Indices 1 2 3 4 5 6 
#
# 1 151.8464 21.8853 12.3558 0.0000 0.0000 0.0000
# 2 21.8853 69.8454 12.3767 0.0000 0.0000 0.0000
# 3 12.3558 12.3767 128.5587 0.0000 0.0000 0.0000
# 4 0.0000 0.0000 0.0000 33.6245 0.0000 0.0000
# 5 0.0000 0.0000 0.0000 0.0000 47.9285 0.0000
# 6 0.0000 0.0000 0.0000 0.0000 0.0000 25.0123
#
#
#
# Elastic Compliance Matrix: (Units=1/GPa)
#
#
# Indices 1 2 3 4 5 6 
#
# 1 0.006924 -0.002087 -0.000465 0.000000 0.000000 0.000000
# 2 -0.002087 0.015195 -0.001262 0.000000 0.000000 0.000000
# 3 -0.000465 -0.001262 0.007945 0.000000 0.000000 0.000000
# 4 0.000000 0.000000 0.000000 0.029740 0.000000 0.000000
# 5 0.000000 0.000000 0.000000 0.000000 0.020864 0.000000
# 6 0.000000 0.000000 0.000000 0.000000 0.000000 0.039980
#
#
# Mechanical properties :
#
#
# Convention : Reuss Voigt Hill
#
# Bulk Modulus (GPa) = 44.57167 49.27623 46.92395
# Shear Modulus (GPa) = 36.83085 41.55524 39.19304
#
# Velocity S-wave (km/s) = 3.75118 3.98451 3.86960
# Velocity P-wave (km/s) = 5.98252 6.32413 6.15569
#
# Compressibility (1/GPa) = 0.02243577
#
# Stress axis : x y z
#
# Youngs Moduli (GPa) = 144.42011 65.81093 125.86980
#
# Poissons Ratio (x) = 0.13737 0.05847
# Poissons Ratio (y) = 0.30145 0.15888
# Poissons Ratio (z) = 0.06709 0.08307
#
# Static dielectric constant tensor:
#      x y z
#    x 1.712490 0.000000 0.000000 
#    y 0.000000 2.072610 0.000000 
#    z 0.000000 0.000000 2.369510 
# 
# From -- ./inp_files/2188.got.cif
#   From: 2010.05.17/outbox.cif.g08.bks.cpg/sg54_2_cif.got.tgz:2188.got - 2010.06.03 13:09:01.
