data_PCOD9422591
_publ_section_title
;
Structure prediction by ZEFSAII (Michael W. Deem and Ramdas Pophale) SiO2 
 PCOD9422591
Probable space group: P C C A
;
_chemical_formula_sum "Si O2"
_cell_formula_units_Z 52
_cell_length_a 20.691543
_cell_length_b 8.472810
_cell_length_c 15.518193
_cell_angle_alpha 90.000000
_cell_angle_beta 90.000000
_cell_angle_gamma 90.000000
_cell_volume 2720.579958
_symmetry_space_group_name_H-M "P C C A"
_symmetry_group_IT_number 54
_symmetry_cell_setting 'orthorhombic'
loop_
_space_group_symop_operation_xyz
x,y,z
1/2-x,-y,z
1/2+x,-y,1/2-z
-x,y,1/2-z
-x,-y,-z
1/2+x,y,-z
1/2-x,y,1/2+z
x,-y,1/2+z
loop_
_atom_site_type_symbol
_atom_site_label
_atom_site_fract_x
_atom_site_fract_y
_atom_site_fract_z
Si Si1 0.250000 0.000000 0.616252
Si Si2 0.664757 0.782021 0.503305
Si Si3 0.000000 0.091255 0.250000
Si Si4 0.034698 0.682527 0.082716
Si Si5 0.090719 0.172405 0.825938
Si Si6 0.750000 0.500000 0.443622
Si Si7 0.465475 0.319839 0.593016
Si Si8 0.660473 0.730591 0.835261
O O1 0.299172 0.089490 0.553748
O O2 0.210924 0.126853 0.671390
O O3 0.641584 0.845664 0.596025
O O4 0.712052 0.629067 0.501062
O O5 0.600174 0.732231 0.453122
O O6 0.981728 0.203466 0.329684
O O7 0.938825 0.981479 0.222072
O O8 0.042088 0.503523 0.116260
O O9 0.100742 0.772281 0.102069
O O10 0.973692 0.754113 0.132005
O O11 0.019993 0.683786 0.981385
O O12 0.125047 0.285824 0.756274
O O13 0.800911 0.588757 0.380780
#
# Coordination Sequence:
#
# PCOD9422591 Si02
#       8
#     4   8   4   8   8   4   8   8
#     4  10  24  38  64  82 122 176 196 252 300 374
#     4  10  22  41  60  88 123 163 211 247 309 375
#     4  12  24  36  60 100 124 156 198 256 326 376
#     4  10  21  41  65  89 122 160 202 258 317 368
#     4  11  24  39  63  93 126 158 202 265 319 365
#     4  10  22  40  64  84 118 176 214 252 298 368
#     4  10  23  38  63  92 122 160 202 259 314 368
#     4  11  21  41  62  89 123 160 211 252 306 366
#
# _framework density 19.113571
#
# number of rings (size 3 to 8) (size 9 to 14) (size 15 to 20)
#    0.000    1.538    3.077    0.923    4.308    2.462 
#    0.000    0.000    0.000    0.000    0.000    0.000 
#    0.000    0.000    0.000    0.000    0.000    0.000 
#
# Total GULP energy -290111.033592 kJ/mol
# GULP energy per Si atom -5579.058338 kJ/mol
# Density = 1.907007 g / cm^3
# Si number density = 19.113571 Si / 1000 Ang^3
#
#
#
# Elastic Constant Matrix: (Units=GPa)
#
#
# Indices 1 2 3 4 5 6 
#
# 1 74.9857 7.1019 24.1351 0.0000 0.0000 0.0000
# 2 7.1019 66.5269 28.3493 0.0000 0.0000 0.0000
# 3 24.1351 28.3493 83.5421 0.0000 0.0000 0.0000
# 4 0.0000 0.0000 0.0000 46.0957 0.0000 0.0000
# 5 0.0000 0.0000 0.0000 0.0000 16.2539 0.0000
# 6 0.0000 0.0000 0.0000 0.0000 0.0000 24.3611
#
#
#
# Elastic Compliance Matrix: (Units=1/GPa)
#
#
# Indices 1 2 3 4 5 6 
#
# 1 0.014708 0.000281 -0.004344 0.000000 0.000000 0.000000
# 2 0.000281 0.017578 -0.006046 0.000000 0.000000 0.000000
# 3 -0.004344 -0.006046 0.015277 0.000000 0.000000 0.000000
# 4 0.000000 0.000000 0.000000 0.021694 0.000000 0.000000
# 5 0.000000 0.000000 0.000000 0.000000 0.061524 0.000000
# 6 0.000000 0.000000 0.000000 0.000000 0.000000 0.041049
#
#
# Mechanical properties :
#
#
# Convention : Reuss Voigt Hill
#
# Bulk Modulus (GPa) = 36.57162 38.24750 37.40956
# Shear Modulus (GPa) = 24.85557 28.37338 26.61448
#
# Velocity S-wave (km/s) = 3.61004 3.85705 3.73559
# Velocity P-wave (km/s) = 6.04582 6.31584 6.18230
#
# Compressibility (1/GPa) = 0.02734361
#
# Stress axis : x y z
#
# Youngs Moduli (GPa) = 67.99235 56.88941 65.45864
#
# Poissons Ratio (x) = -0.01600 0.28438
# Poissons Ratio (y) = -0.01912 0.39578
# Poissons Ratio (z) = 0.29539 0.34396
#
# Static dielectric constant tensor:
#      x y z
#    x 1.672180 0.000000 0.000000 
#    y 0.000000 1.688190 0.000000 
#    z 0.000000 0.000000 1.655820 
# 
# From -- ./inp_files/14645.got.cif
#   From: 2010.05.17/outbox.cif.g08.bks.cpg/sg54_8_cif.got.tgz:14645.got - 2010.06.03 13:09:01.
