data_PCOD9422184
_publ_section_title
;
Structure prediction by ZEFSAII (Michael W. Deem and Ramdas Pophale) SiO2 
 PCOD9422184
Probable space group: P C C A
;
_chemical_formula_sum "Si O2"
_cell_formula_units_Z 32
_cell_length_a 5.219437
_cell_length_b 22.789763
_cell_length_c 11.736033
_cell_angle_alpha 90.000000
_cell_angle_beta 90.000000
_cell_angle_gamma 90.000000
_cell_volume 1395.997983
_symmetry_space_group_name_H-M "P C C A"
_symmetry_group_IT_number 54
_symmetry_cell_setting 'orthorhombic'
loop_
_space_group_symop_operation_xyz
x,y,z
1/2-x,-y,z
1/2+x,-y,1/2-z
-x,y,1/2-z
-x,-y,-z
1/2+x,y,-z
1/2-x,y,1/2+z
x,-y,1/2+z
loop_
_atom_site_type_symbol
_atom_site_label
_atom_site_fract_x
_atom_site_fract_y
_atom_site_fract_z
Si Si1 0.250000 0.500000 0.582119
Si Si2 0.241225 0.192275 0.424236
Si Si3 0.749282 0.061757 0.672838
Si Si4 0.000000 0.408083 0.250000
Si Si5 0.749479 0.319199 0.580120
O O1 0.500000 0.500000 0.500000
O O2 0.318636 0.446825 0.667796
O O3 0.494867 0.195434 0.497618
O O4 0.239638 0.126808 0.376405
O O5 0.237530 0.254575 0.359240
O O6 0.500000 0.057829 0.750000
O O7 0.000000 0.061284 0.750000
O O8 0.750000 0.000000 0.602021
O O9 0.183121 0.368307 0.328476
O O10 0.521708 0.323950 0.484850
#
# Coordination Sequence:
#
# PCOD9422184 Si02
#       5
#     4   8   8   4   8
#     4  12  28  48  74 110 146 178 238 290 326 426
#     4  10  21  39  60  89 126 166 214 275 333 384
#     4  10  21  36  57  87 123 166 217 270 323 394
#     4  12  26  48  78 104 138 200 220 270 376 390
#     4  10  24  44  66 101 140 173 230 287 327 413
#
# _framework density 22.92267
#
# number of rings (size 3 to 8) (size 9 to 14) (size 15 to 20)
#    0.000    1.500    0.000    3.750    1.750    6.000 
#    0.000    0.000    0.000    0.000    0.000    0.000 
#    0.000    0.000    0.000    0.000    0.000    0.000 
#
# Total GULP energy -178582.856508 kJ/mol
# GULP energy per Si atom -5580.714266 kJ/mol
# Density = 2.287050 g / cm^3
# Si number density = 22.922670 Si / 1000 Ang^3
#
#
#
# Elastic Constant Matrix: (Units=GPa)
#
#
# Indices 1 2 3 4 5 6 
#
# 1 170.9496 31.3802 31.7185 0.0000 0.0000 0.0000
# 2 31.3802 239.6416 79.1561 0.0000 0.0000 0.0000
# 3 31.7185 79.1561 66.6182 0.0000 0.0000 0.0000
# 4 0.0000 0.0000 0.0000 56.1641 0.0000 0.0000
# 5 0.0000 0.0000 0.0000 0.0000 22.4322 0.0000
# 6 0.0000 0.0000 0.0000 0.0000 0.0000 38.0553
#
#
#
# Elastic Compliance Matrix: (Units=1/GPa)
#
#
# Indices 1 2 3 4 5 6 
#
# 1 0.006428 0.000278 -0.003391 0.000000 0.000000 0.000000
# 2 0.000278 0.006881 -0.008308 0.000000 0.000000 0.000000
# 3 -0.003391 -0.008308 0.026498 0.000000 0.000000 0.000000
# 4 0.000000 0.000000 0.000000 0.017805 0.000000 0.000000
# 5 0.000000 0.000000 0.000000 0.000000 0.044579 0.000000
# 6 0.000000 0.000000 0.000000 0.000000 0.000000 0.026278
#
#
# Mechanical properties :
#
#
# Convention : Reuss Voigt Hill
#
# Bulk Modulus (GPa) = 58.94900 84.63542 71.79221
# Shear Modulus (GPa) = 31.85435 45.66064 38.75750
#
# Velocity S-wave (km/s) = 3.73184 4.46796 4.11639
# Velocity P-wave (km/s) = 6.65891 7.97616 7.34712
#
# Compressibility (1/GPa) = 0.01696382
#
# Stress axis : x y z
#
# Youngs Moduli (GPa) = 155.57439 145.33261 37.73918
#
# Poissons Ratio (x) = -0.04047 0.12799
# Poissons Ratio (y) = -0.04333 0.31355
# Poissons Ratio (z) = 0.52760 1.20748
#
# Static dielectric constant tensor:
#      x y z
#    x 1.784680 0.000000 0.000000 
#    y 0.000000 2.053110 0.000000 
#    z 0.000000 0.000000 1.866090 
# 
# From -- ./inp_files/6295.got.cif
#   From: 2010.05.17/outbox.cif.g08.bks.cpg/sg54_4_cif.got.tgz:6295.got - 2010.06.03 13:09:01.
