data_PCOD9422881
_publ_section_title
;
Structure prediction by ZEFSAII (Michael W. Deem and Ramdas Pophale) SiO2 
 PCOD9422881
Probable space group: P C C A
;
_chemical_formula_sum "Si O2"
_cell_formula_units_Z 48
_cell_length_a 9.501197
_cell_length_b 8.221819
_cell_length_c 30.545253
_cell_angle_alpha 90.000000
_cell_angle_beta 90.000000
_cell_angle_gamma 90.000000
_cell_volume 2386.107256
_symmetry_space_group_name_H-M "P C C A"
_symmetry_group_IT_number 54
_symmetry_cell_setting 'orthorhombic'
loop_
_space_group_symop_operation_xyz
x,y,z
1/2-x,-y,z
1/2+x,-y,1/2-z
-x,y,1/2-z
-x,-y,-z
1/2+x,y,-z
1/2-x,y,1/2+z
x,-y,1/2+z
loop_
_atom_site_type_symbol
_atom_site_label
_atom_site_fract_x
_atom_site_fract_y
_atom_site_fract_z
Si Si1 0.099786 0.281087 0.709472
Si Si2 0.919288 0.672698 0.792834
Si Si3 0.934275 0.844175 0.127238
Si Si4 0.666259 0.668619 0.032552
Si Si5 0.879998 0.228327 0.128742
Si Si6 0.955506 0.834523 0.025451
O O1 0.266045 0.245226 0.709618
O O2 0.094265 0.477482 0.710078
O O3 0.000000 0.225087 0.750000
O O4 0.039416 0.212758 0.664360
O O5 0.000000 0.732010 0.750000
O O6 0.014157 0.702400 0.835506
O O7 0.787550 0.748373 0.135981
O O8 0.985436 0.825267 0.077320
O O9 0.903746 0.035422 0.130094
O O10 0.750000 0.500000 0.032406
O O11 0.598838 0.702651 0.080050
O O12 0.788376 0.802227 0.023137
O O13 0.544612 0.692892 0.997462
O O14 0.000000 0.000000 0.000000
#
# Coordination Sequence:
#
# PCOD9422881 Si02
#       6
#     8   8   8   8   8   8
#     4  10  22  41  64  94 128 164 209 261 315 377
#     4  10  22  40  63  94 126 165 209 258 320 377
#     4  10  22  40  62  91 122 169 212 256 315 380
#     4  11  24  41  64  95 126 170 218 273 323 383
#     4  10  22  39  63  90 124 164 214 257 317 381
#     4  11  22  43  64  90 130 171 216 262 326 386
#
# _framework density 20.116447000000001
#
# number of rings (size 3 to 8) (size 9 to 14) (size 15 to 20)
#    0.000    1.667    1.667    2.000    4.667    4.000 
#    6.000    0.000    0.000    0.000    0.000    0.000 
#    0.000    0.000    0.000    0.000    0.000    0.000 
#
# Total GULP energy -267950.344602 kJ/mol
# GULP energy per Si atom -5582.298846 kJ/mol
# Density = 2.007066 g / cm^3
# Si number density = 20.116447 Si / 1000 Ang^3
#
#
#
# Elastic Constant Matrix: (Units=GPa)
#
#
# Indices 1 2 3 4 5 6 
#
# 1 138.6394 28.2094 130.7117 0.0000 0.0000 0.0000
# 2 28.2094 37.2633 20.7517 0.0000 0.0000 0.0000
# 3 130.7117 20.7517 165.2930 0.0000 0.0000 0.0000
# 4 0.0000 0.0000 0.0000 28.2707 0.0000 0.0000
# 5 0.0000 0.0000 0.0000 0.0000 45.9579 0.0000
# 6 0.0000 0.0000 0.0000 0.0000 0.0000 28.2595
#
#
#
# Elastic Compliance Matrix: (Units=1/GPa)
#
#
# Indices 1 2 3 4 5 6 
#
# 1 0.031993 -0.010892 -0.023932 0.000000 0.000000 0.000000
# 2 -0.010892 0.032561 0.004525 0.000000 0.000000 0.000000
# 3 -0.023932 0.004525 0.024407 0.000000 0.000000 0.000000
# 4 0.000000 0.000000 0.000000 0.035372 0.000000 0.000000
# 5 0.000000 0.000000 0.000000 0.000000 0.021759 0.000000
# 6 0.000000 0.000000 0.000000 0.000000 0.000000 0.035386
#
#
# Mechanical properties :
#
#
# Convention : Reuss Voigt Hill
#
# Bulk Modulus (GPa) = 35.25627 77.83790 56.54709
# Shear Modulus (GPa) = 19.87831 31.26580 25.57206
#
# Velocity S-wave (km/s) = 3.14691 3.94666 3.56926
# Velocity P-wave (km/s) = 5.54691 7.71660 6.71990
#
# Compressibility (1/GPa) = 0.02836375
#
# Stress axis : x y z
#
# Youngs Moduli (GPa) = 31.25720 30.71117 40.97208
#
# Poissons Ratio (x) = 0.33450 0.98054
# Poissons Ratio (y) = 0.34045 -0.18541
# Poissons Ratio (z) = 0.74805 -0.13897
#
# Static dielectric constant tensor:
#      x y z
#    x 1.718170 0.000000 0.000000 
#    y 0.000000 1.754190 0.000000 
#    z 0.000000 0.000000 1.681850 
# 
# From -- ./inp_files/27763.got.cif
#   From: 2010.05.17/outbox.cif.g08.bks.cpg/sg54_14_cif.got.tgz:27763.got - 2010.06.03 13:09:01.
