data_PCOD9422949
_publ_section_title
;
Structure prediction by ZEFSAII (Michael W. Deem and Ramdas Pophale) SiO2 
 PCOD9422949
Probable space group: P C C A
;
_chemical_formula_sum "Si O2"
_cell_formula_units_Z 40
_cell_length_a 9.454040
_cell_length_b 13.733574
_cell_length_c 12.834158
_cell_angle_alpha 90.000000
_cell_angle_beta 90.000000
_cell_angle_gamma 90.000000
_cell_volume 1666.358300
_symmetry_space_group_name_H-M "P C C A"
_symmetry_group_IT_number 54
_symmetry_cell_setting 'orthorhombic'
loop_
_space_group_symop_operation_xyz
x,y,z
1/2-x,-y,z
1/2+x,-y,1/2-z
-x,y,1/2-z
-x,-y,-z
1/2+x,y,-z
1/2-x,y,1/2+z
x,-y,1/2+z
loop_
_atom_site_type_symbol
_atom_site_label
_atom_site_fract_x
_atom_site_fract_y
_atom_site_fract_z
Si Si1 0.000000 0.071892 0.250000
Si Si2 0.750000 0.000000 0.615567
Si Si3 0.285658 0.385575 0.381576
Si Si4 0.573080 0.105320 0.975052
Si Si5 0.527732 0.313143 0.497612
Si Si6 0.137135 0.582729 0.685215
O O1 0.120276 0.011640 0.306929
O O2 0.073799 0.122232 0.149751
O O3 0.718688 0.909805 0.538251
O O4 0.250000 0.500000 0.387348
O O5 0.449946 0.366320 0.402013
O O6 0.226238 0.353916 0.268991
O O7 0.187177 0.335609 0.469317
O O8 0.496444 0.199460 0.018835
O O9 0.500000 0.000000 0.000000
O O10 0.435619 0.356615 0.594054
O O11 0.250000 0.500000 0.650777
O O12 0.000000 0.543740 0.750000
#
# Coordination Sequence:
#
# PCOD9422949 Si02
#       6
#     4   4   8   8   8   8
#     4  10  22  42  72  92 134 182 226 288 360 402
#     4  10  22  44  68 100 132 182 230 292 356 412
#     4  10  22  40  62  95 129 167 210 274 331 401
#     4  10  24  40  66  97 136 176 231 284 339 413
#     4  11  23  38  66  92 128 171 222 261 337 405
#     4   9  20  38  63  92 127 167 211 263 328 395
#
# _framework density 24.004442000000001
#
# number of rings (size 3 to 8) (size 9 to 14) (size 15 to 20)
#    0.000    2.000    0.000    1.800    9.800    3.200 
#    0.000    0.000    0.000    0.000    0.000    0.000 
#    0.000    0.000    0.000    0.000    0.000    0.000 
#
# Total GULP energy -223115.765423 kJ/mol
# GULP energy per Si atom -5577.894136 kJ/mol
# Density = 2.394981 g / cm^3
# Si number density = 24.004442 Si / 1000 Ang^3
#
#
#
# Elastic Constant Matrix: (Units=GPa)
#
#
# Indices 1 2 3 4 5 6 
#
# 1 99.8413 14.1299 20.2136 0.0000 0.0000 0.0000
# 2 14.1299 100.8748 -8.0236 0.0000 0.0000 0.0000
# 3 20.2136 -8.0236 87.4686 0.0000 0.0000 0.0000
# 4 0.0000 0.0000 0.0000 16.2457 0.0000 0.0000
# 5 0.0000 0.0000 0.0000 0.0000 53.5773 0.0000
# 6 0.0000 0.0000 0.0000 0.0000 0.0000 34.0334
#
#
#
# Elastic Compliance Matrix: (Units=1/GPa)
#
#
# Indices 1 2 3 4 5 6 
#
# 1 0.010797 -0.001723 -0.002653 0.000000 0.000000 0.000000
# 2 -0.001723 0.010261 0.001340 0.000000 0.000000 0.000000
# 3 -0.002653 0.001340 0.012169 0.000000 0.000000 0.000000
# 4 0.000000 0.000000 0.000000 0.061555 0.000000 0.000000
# 5 0.000000 0.000000 0.000000 0.000000 0.018665 0.000000
# 6 0.000000 0.000000 0.000000 0.000000 0.000000 0.029383
#
#
# Mechanical properties :
#
#
# Convention : Reuss Voigt Hill
#
# Bulk Modulus (GPa) = 36.82871 37.86939 37.34905
# Shear Modulus (GPa) = 31.65472 38.22893 34.94182
#
# Velocity S-wave (km/s) = 3.63533 3.99504 3.81942
# Velocity P-wave (km/s) = 5.74427 6.09021 5.91977
#
# Compressibility (1/GPa) = 0.02715273
#
# Stress axis : x y z
#
# Youngs Moduli (GPa) = 92.61865 97.45421 82.17801
#
# Poissons Ratio (x) = 0.16795 0.21804
# Poissons Ratio (y) = 0.15962 -0.11008
# Poissons Ratio (z) = 0.24574 -0.13054
#
# Static dielectric constant tensor:
#      x y z
#    x 2.060430 0.000000 0.000000 
#    y 0.000000 1.902870 0.000000 
#    z 0.000000 0.000000 1.974860 
# 
# From -- ./inp_files/11570.got.cif
#   From: 2010.05.17/outbox.cif.g08.bks.cpg/sg54_6_cif.got.tgz:11570.got - 2010.06.03 13:09:01.
