data_PCOD9422062
_publ_section_title
;
Structure prediction by ZEFSAII (Michael W. Deem and Ramdas Pophale) SiO2 
 PCOD9422062
Probable space group: P C C A
;
_chemical_formula_sum "Si O2"
_cell_formula_units_Z 56
_cell_length_a 12.500637
_cell_length_b 13.934563
_cell_length_c 16.031673
_cell_angle_alpha 90.000000
_cell_angle_beta 90.000000
_cell_angle_gamma 90.000000
_cell_volume 2792.571770
_symmetry_space_group_name_H-M "P C C A"
_symmetry_group_IT_number 54
_symmetry_cell_setting 'orthorhombic'
loop_
_space_group_symop_operation_xyz
x,y,z
1/2-x,-y,z
1/2+x,-y,1/2-z
-x,y,1/2-z
-x,-y,-z
1/2+x,y,-z
1/2-x,y,1/2+z
x,-y,1/2+z
loop_
_atom_site_type_symbol
_atom_site_label
_atom_site_fract_x
_atom_site_fract_y
_atom_site_fract_z
Si Si1 0.291972 0.172594 0.526983
Si Si2 0.965599 0.966148 0.905696
Si Si3 0.000000 0.101910 0.750000
Si Si4 0.683241 0.251016 0.217091
Si Si5 0.694890 0.900890 0.146617
Si Si6 0.750000 0.500000 0.982294
Si Si7 0.106554 0.348249 0.941740
Si Si8 0.139779 0.321029 0.603892
O O1 0.358524 0.096144 0.580732
O O2 0.257207 0.125261 0.439311
O O3 0.368705 0.263660 0.508014
O O4 0.186523 0.221664 0.565889
O O5 0.071074 0.910884 0.874282
O O6 0.954217 0.042607 0.829490
O O7 0.000000 0.000000 0.000000
O O8 0.910483 0.171651 0.712195
O O9 0.787562 0.185099 0.211517
O O10 0.677217 0.318605 0.137744
O O11 0.661955 0.310594 0.298907
O O12 0.750000 0.000000 0.176223
O O13 0.703989 0.588857 0.931154
O O14 0.849343 0.548516 0.031076
O O15 0.983457 0.339141 0.917027
#
# Coordination Sequence:
#
# PCOD9422062 Si02
#       8
#     8   8   4   8   8   4   8   8
#     4  10  23  36  61  90 120 174 215 262 328 382
#     4  12  24  40  59  90 135 177 229 286 321 380
#     4  12  24  38  60  92 128 178 230 268 324 396
#     4  11  23  39  60  90 123 170 212 265 333 393
#     4  11  21  38  57  86 128 167 224 274 315 384
#     4  10  24  40  66 100 114 152 212 268 338 418
#     4  10  20  43  64  90 123 159 207 264 334 408
#     4  11  22  39  66  89 124 158 206 264 336 418
#
# _framework density 20.0532
#
# number of rings (size 3 to 8) (size 9 to 14) (size 15 to 20)
#    0.000    1.143    4.286    2.143    4.000    0.571 
#    0.000    0.000    0.000    0.000    0.000    0.000 
#    0.000    0.000    0.000    0.000    0.000    0.000 
#
# Total GULP energy -312605.414477 kJ/mol
# GULP energy per Si atom -5582.239544 kJ/mol
# Density = 2.000756 g / cm^3
# Si number density = 20.053200 Si / 1000 Ang^3
#
#
#
# Elastic Constant Matrix: (Units=GPa)
#
#
# Indices 1 2 3 4 5 6 
#
# 1 74.4935 28.9728 4.3016 0.0000 0.0000 0.0000
# 2 28.9728 100.2880 43.6011 0.0000 0.0000 0.0000
# 3 4.3016 43.6011 67.0740 0.0000 0.0000 0.0000
# 4 0.0000 0.0000 0.0000 24.8099 0.0000 0.0000
# 5 0.0000 0.0000 0.0000 0.0000 -1.2252 0.0000
# 6 0.0000 0.0000 0.0000 0.0000 0.0000 29.5059
#
#
#
# Elastic Compliance Matrix: (Units=1/GPa)
#
#
# Indices 1 2 3 4 5 6 
#
# 1 0.015457 -0.005624 0.002665 0.000000 0.000000 0.000000
# 2 -0.005624 0.015946 -0.010005 0.000000 0.000000 0.000000
# 3 0.002665 -0.010005 0.021242 0.000000 0.000000 0.000000
# 4 0.000000 0.000000 0.000000 0.040306 0.000000 0.000000
# 5 0.000000 0.000000 0.000000 0.000000 -0.816176 0.000000
# 6 0.000000 0.000000 0.000000 0.000000 0.000000 0.033892
#
#
# Mechanical properties :
#
#
# Convention : Reuss Voigt Hill
#
# Bulk Modulus (GPa) = 37.43033 43.95628 40.69331
# Shear Modulus (GPa) = -7.63943 21.61679 6.98868
#
# Velocity S-wave (km/s) = -1.95393 3.28681 1.86886
# Velocity P-wave (km/s) = 3.68993 6.03089 4.99936
#
# Compressibility (1/GPa) = 0.02671630
#
# Stress axis : x y z
#
# Youngs Moduli (GPa) = 64.69356 62.71281 47.07751
#
# Poissons Ratio (x) = 0.35270 -0.12544
# Poissons Ratio (y) = 0.36384 0.47100
# Poissons Ratio (z) = -0.17238 0.62743
#
# Static dielectric constant tensor:
#      x y z
#    x 1.747270 0.000000 0.000000 
#    y 0.000000 1.711670 0.000000 
#    z 0.000000 0.000000 1.739590 
# 
# From -- ./inp_files/12763.got.cif
#   From: 2010.05.17/outbox.cif.g08.bks.cpg/sg54_7_cif.got.tgz:12763.got - 2010.06.03 13:09:01.
