data_PCOD9422559
_publ_section_title
;
Structure prediction by ZEFSAII (Michael W. Deem and Ramdas Pophale) SiO2 
 PCOD9422559
Probable space group: P C C A
;
_chemical_formula_sum "Si O2"
_cell_formula_units_Z 36
_cell_length_a 4.952752
_cell_length_b 24.677766
_cell_length_c 13.056873
_cell_angle_alpha 90.000000
_cell_angle_beta 90.000000
_cell_angle_gamma 90.000000
_cell_volume 1595.848294
_symmetry_space_group_name_H-M "P C C A"
_symmetry_group_IT_number 54
_symmetry_cell_setting 'orthorhombic'
loop_
_space_group_symop_operation_xyz
x,y,z
1/2-x,-y,z
1/2+x,-y,1/2-z
-x,y,1/2-z
-x,-y,-z
1/2+x,y,-z
1/2-x,y,1/2+z
x,-y,1/2+z
loop_
_atom_site_type_symbol
_atom_site_label
_atom_site_fract_x
_atom_site_fract_y
_atom_site_fract_z
Si Si1 0.750000 0.000000 0.311346
Si Si2 0.249097 0.439137 0.826648
Si Si3 0.235656 0.671537 0.436957
Si Si4 0.500000 0.817566 0.250000
Si Si5 0.947922 0.904094 0.570121
Si Si6 0.000000 0.259581 0.750000
O O1 0.929961 0.042703 0.374388
O O2 0.500000 0.028579 0.250000
O O3 0.250000 0.500000 0.870957
O O4 0.500000 0.431135 0.750000
O O5 0.230396 0.392062 0.909539
O O6 0.000000 0.435368 0.750000
O O7 0.541017 0.684549 0.467649
O O8 0.115812 0.703233 0.340739
O O9 0.465033 0.855967 0.348342
O O10 0.752846 0.779689 0.275968
O O11 0.644169 0.902041 0.528294
#
# Coordination Sequence:
#
# PCOD9422559 Si02
#       6
#     4   8   8   4   8   4
#     4  12  24  44  76 106 152 194 230 280 356 430
#     4  10  21  40  68  99 140 184 224 284 358 425
#     4  12  26  43  72 103 134 182 236 286 354 425
#     4  12  28  48  73 101 138 190 234 298 348 414
#     4  12  26  46  74 108 144 184 235 289 351 417
#     4  12  28  48  71  97 142 182 238 300 350 400
#
# _framework density 22.558533000000001
#
# number of rings (size 3 to 8) (size 9 to 14) (size 15 to 20)
#    0.000    0.444    2.222    6.000    3.111    6.222 
#    0.000    0.000    0.000    0.000    0.000    0.000 
#    0.000    0.000    0.000    0.000    0.000    0.000 
#
# Total GULP energy -201383.360414 kJ/mol
# GULP energy per Si atom -5593.982234 kJ/mol
# Density = 2.250719 g / cm^3
# Si number density = 22.558533 Si / 1000 Ang^3
#
#
#
# Elastic Constant Matrix: (Units=GPa)
#
#
# Indices 1 2 3 4 5 6 
#
# 1 102.8343 1.5365 -4.7035 0.0000 0.0000 0.0000
# 2 1.5365 93.3682 30.6163 0.0000 0.0000 0.0000
# 3 -4.7035 30.6163 60.9496 0.0000 0.0000 0.0000
# 4 0.0000 0.0000 0.0000 -27.8738 0.0000 0.0000
# 5 0.0000 0.0000 0.0000 0.0000 37.4782 0.0000
# 6 0.0000 0.0000 0.0000 0.0000 0.0000 150.2514
#
#
#
# Elastic Compliance Matrix: (Units=1/GPa)
#
#
# Indices 1 2 3 4 5 6 
#
# 1 0.009777 -0.000489 0.001000 0.000000 0.000000 0.000000
# 2 -0.000489 0.012847 -0.006491 0.000000 0.000000 0.000000
# 3 0.001000 -0.006491 0.019745 0.000000 0.000000 0.000000
# 4 0.000000 0.000000 0.000000 -0.035876 0.000000 0.000000
# 5 0.000000 0.000000 0.000000 0.000000 0.026682 0.000000
# 6 0.000000 0.000000 0.000000 0.000000 0.000000 0.006656
#
#
# Mechanical properties :
#
#
# Convention : Reuss Voigt Hill
#
# Bulk Modulus (GPa) = 32.88443 34.67230 33.77837
# Shear Modulus (GPa) = 80.74090 47.28468 64.01279
#
# Velocity S-wave (km/s) = 5.98911 4.58327 5.33272
# Velocity P-wave (km/s) = 7.90158 6.58876 7.27485
#
# Compressibility (1/GPa) = 0.03040953
#
# Stress axis : x y z
#
# Youngs Moduli (GPa) = 102.27640 77.84058 50.64646
#
# Poissons Ratio (x) = 0.03805 -0.05065
# Poissons Ratio (y) = 0.05000 0.32874
# Poissons Ratio (z) = -0.10228 0.50526
#
# Static dielectric constant tensor:
#      x y z
#    x 1.793870 0.000000 0.000000 
#    y 0.000000 1.845390 0.000000 
#    z 0.000000 0.000000 1.862190 
# 
# From -- ./inp_files/10832.got.cif
#   From: 2010.05.17/outbox.cif.g08.bks.cpg/sg54_6_cif.got.tgz:10832.got - 2010.06.03 13:09:01.
