data_PCOD9422855
_publ_section_title
;
Structure prediction by ZEFSAII (Michael W. Deem and Ramdas Pophale) SiO2 
 PCOD9422855
Probable space group: P C C A
;
_chemical_formula_sum "Si O2"
_cell_formula_units_Z 40
_cell_length_a 15.197308
_cell_length_b 11.464432
_cell_length_c 8.903515
_cell_angle_alpha 90.000000
_cell_angle_beta 90.000000
_cell_angle_gamma 90.000000
_cell_volume 1551.246100
_symmetry_space_group_name_H-M "P C C A"
_symmetry_group_IT_number 54
_symmetry_cell_setting 'orthorhombic'
loop_
_space_group_symop_operation_xyz
x,y,z
1/2-x,-y,z
1/2+x,-y,1/2-z
-x,y,1/2-z
-x,-y,-z
1/2+x,y,-z
1/2-x,y,1/2+z
x,-y,1/2+z
loop_
_atom_site_type_symbol
_atom_site_label
_atom_site_fract_x
_atom_site_fract_y
_atom_site_fract_z
Si Si1 0.672740 0.907009 0.894931
Si Si2 0.000000 0.456750 0.250000
Si Si3 0.191571 0.394478 0.047750
Si Si4 0.004616 0.351373 0.949096
Si Si5 0.000000 0.873347 0.250000
Si Si6 0.796483 0.239289 0.179221
O O1 0.582465 0.945818 0.813615
O O2 0.715304 0.822024 0.768696
O O3 0.750000 0.000000 0.917756
O O4 0.658547 0.849925 0.060319
O O5 0.029787 0.371200 0.383529
O O6 0.051328 0.559018 0.154617
O O7 0.250000 0.500000 0.109859
O O8 0.161227 0.307889 0.181271
O O9 0.103020 0.404221 0.951382
O O10 0.258392 0.332649 0.935432
O O11 0.012008 0.221720 0.885297
#
# Coordination Sequence:
#
# PCOD9422855 Si02
#       6
#     8   4   8   8   4   8
#     4  11  24  49  77 106 143 192 254 332 392 456
#     4   9  22  34  60  91 150 196 241 298 339 428
#     4  11  23  37  65 104 146 201 249 293 361 447
#     4  10  22  39  60 101 149 199 248 300 356 440
#     4  11  24  46  76 109 150 200 253 324 395 454
#     4  10  24  42  68  99 149 192 247 308 370 452
#
# _framework density 25.785719
#
# number of rings (size 3 to 8) (size 9 to 14) (size 15 to 20)
#    0.000    1.600    2.000    1.200    8.400    3.200 
#    0.000    4.000    0.000    0.000    0.000    0.000 
#    0.000    0.000    0.000    0.000    0.000    0.000 
#
# Total GULP energy -222727.153953 kJ/mol
# GULP energy per Si atom -5568.178849 kJ/mol
# Density = 2.572703 g / cm^3
# Si number density = 25.785719 Si / 1000 Ang^3
#
#
#
# Elastic Constant Matrix: (Units=GPa)
#
#
# Indices 1 2 3 4 5 6 
#
# 1 117.0503 24.3738 36.6492 0.0000 0.0000 0.0000
# 2 24.3738 53.5158 26.2963 0.0000 0.0000 0.0000
# 3 36.6492 26.2963 213.6565 0.0000 0.0000 0.0000
# 4 0.0000 0.0000 0.0000 46.8661 0.0000 0.0000
# 5 0.0000 0.0000 0.0000 0.0000 33.0067 0.0000
# 6 0.0000 0.0000 0.0000 0.0000 0.0000 -0.4053
#
#
#
# Elastic Compliance Matrix: (Units=1/GPa)
#
#
# Indices 1 2 3 4 5 6 
#
# 1 0.009717 -0.003839 -0.001194 0.000000 0.000000 0.000000
# 2 -0.003839 0.021405 -0.001976 0.000000 0.000000 0.000000
# 3 -0.001194 -0.001976 0.005128 0.000000 0.000000 0.000000
# 4 0.000000 0.000000 0.000000 0.021337 0.000000 0.000000
# 5 0.000000 0.000000 0.000000 0.000000 0.030297 0.000000
# 6 0.000000 0.000000 0.000000 0.000000 0.000000 -2.467078
#
#
# Mechanical properties :
#
#
# Convention : Reuss Voigt Hill
#
# Bulk Modulus (GPa) = 44.97911 62.09570 53.53741
# Shear Modulus (GPa) = -2.12065 35.68705 16.78320
#
# Velocity S-wave (km/s) = -0.90785 3.72423 2.55399
# Velocity P-wave (km/s) = 4.04751 6.52893 5.43182
#
# Compressibility (1/GPa) = 0.02223254
#
# Stress axis : x y z
#
# Youngs Moduli (GPa) = 102.91673 46.71727 194.98971
#
# Poissons Ratio (x) = 0.17933 0.23287
# Poissons Ratio (y) = 0.39506 0.38531
# Poissons Ratio (z) = 0.12291 0.09232
#
# Static dielectric constant tensor:
#      x y z
#    x 2.098560 0.000000 0.000000 
#    y 0.000000 2.124230 0.000000 
#    z 0.000000 0.000000 2.116370 
# 
# From -- ./inp_files/3996.got.cif
#   From: 2010.05.17/outbox.cif.g08.bks.cpg/sg54_2_cif.got.tgz:3996.got - 2010.06.03 13:09:01.
