data_PCOD9422410
_publ_section_title
;
Structure prediction by ZEFSAII (Michael W. Deem and Ramdas Pophale) SiO2 
 PCOD9422410
Probable space group: P C C A
;
_chemical_formula_sum "Si O2"
_cell_formula_units_Z 44
_cell_length_a 9.816190
_cell_length_b 13.119989
_cell_length_c 16.148061
_cell_angle_alpha 90.000000
_cell_angle_beta 90.000000
_cell_angle_gamma 90.000000
_cell_volume 2079.681402
_symmetry_space_group_name_H-M "P C C A"
_symmetry_group_IT_number 54
_symmetry_cell_setting 'orthorhombic'
loop_
_space_group_symop_operation_xyz
x,y,z
1/2-x,-y,z
1/2+x,-y,1/2-z
-x,y,1/2-z
-x,-y,-z
1/2+x,y,-z
1/2-x,y,1/2+z
x,-y,1/2+z
loop_
_atom_site_type_symbol
_atom_site_label
_atom_site_fract_x
_atom_site_fract_y
_atom_site_fract_z
Si Si1 0.034166 0.361346 0.886378
Si Si2 0.244321 0.113045 0.533724
Si Si3 0.876154 0.171419 0.800598
Si Si4 0.486182 0.248680 0.953346
Si Si5 0.185670 0.306509 0.307354
Si Si6 0.000000 0.529708 0.750000
O O1 0.193683 0.342406 0.868485
O O2 0.948720 0.270297 0.842472
O O3 0.998194 0.460774 0.833013
O O4 0.005735 0.344165 0.983702
O O5 0.181272 0.105013 0.625475
O O6 0.384838 0.174484 0.539061
O O7 0.142239 0.183247 0.482991
O O8 0.250000 0.000000 0.497191
O O9 0.754699 0.215322 0.744060
O O10 0.000000 0.121236 0.750000
O O11 0.447208 0.278834 0.860698
O O12 0.134997 0.400637 0.252633
#
# Coordination Sequence:
#
# PCOD9422410 Si02
#       6
#     8   8   8   8   8   4
#     4  10  21  39  61  91 127 170 207 267 323 381
#     4  11  23  42  66  98 126 169 225 268 325 395
#     4   9  20  41  64  85 132 173 203 271 336 372
#     4  11  23  43  67  92 136 173 208 272 337 383
#     4  11  21  40  63  92 126 168 219 255 326 387
#     4  12  22  36  66  90 122 168 222 262 300 390
#
# _framework density 21.157087000000001
#
# number of rings (size 3 to 8) (size 9 to 14) (size 15 to 20)
#    0.000    1.455    4.545    2.182    0.000    0.727 
#    3.273    0.000    0.000    0.000    0.000    0.000 
#    0.000    0.000    0.000    0.000    0.000    0.000 
#
# Total GULP energy -245670.931776 kJ/mol
# GULP energy per Si atom -5583.430268 kJ/mol
# Density = 2.110893 g / cm^3
# Si number density = 21.157087 Si / 1000 Ang^3
#
#
#
# Elastic Constant Matrix: (Units=GPa)
#
#
# Indices 1 2 3 4 5 6 
#
# 1 102.6642 26.8121 5.4921 0.0000 0.0000 0.0000
# 2 26.8121 62.3247 12.6773 0.0000 0.0000 0.0000
# 3 5.4921 12.6773 41.6384 0.0000 0.0000 0.0000
# 4 0.0000 0.0000 0.0000 7.7791 0.0000 0.0000
# 5 0.0000 0.0000 0.0000 0.0000 24.3152 0.0000
# 6 0.0000 0.0000 0.0000 0.0000 0.0000 -61.9910
#
#
#
# Elastic Compliance Matrix: (Units=1/GPa)
#
#
# Indices 1 2 3 4 5 6 
#
# 1 0.010973 -0.004719 -0.000011 0.000000 0.000000 0.000000
# 2 -0.004719 0.019133 -0.005203 0.000000 0.000000 0.000000
# 3 -0.000011 -0.005203 0.025602 0.000000 0.000000 0.000000
# 4 0.000000 0.000000 0.000000 0.128549 0.000000 0.000000
# 5 0.000000 0.000000 0.000000 0.000000 0.041127 0.000000
# 6 0.000000 0.000000 0.000000 0.000000 0.000000 -0.016131
#
#
# Mechanical properties :
#
#
# Convention : Reuss Voigt Hill
#
# Bulk Modulus (GPa) = 27.89876 32.95447 30.42662
# Shear Modulus (GPa) = 20.74123 4.79703 12.76913
#
# Velocity S-wave (km/s) = 3.13444 1.50740 2.45937
# Velocity P-wave (km/s) = 5.12979 4.31736 4.74101
#
# Compressibility (1/GPa) = 0.03584388
#
# Stress axis : x y z
#
# Youngs Moduli (GPa) = 91.12961 52.26499 39.05970
#
# Poissons Ratio (x) = 0.24662 0.00042
# Poissons Ratio (y) = 0.43000 0.20323
# Poissons Ratio (z) = 0.00098 0.27193
#
# Static dielectric constant tensor:
#      x y z
#    x 1.763230 0.000000 0.000000 
#    y 0.000000 1.766610 0.000000 
#    z 0.000000 0.000000 1.807600 
# 
# From -- ./inp_files/16547.got.cif
#   From: 2010.05.17/outbox.cif.g08.bks.cpg/sg54_9_cif.got.tgz:16547.got - 2010.06.03 13:09:01.
