data_PCOD9422800
_publ_section_title
;
Structure prediction by ZEFSAII (Michael W. Deem and Ramdas Pophale) SiO2 
 PCOD9422800
Probable space group: P C C A
;
_chemical_formula_sum "Si O2"
_cell_formula_units_Z 48
_cell_length_a 19.359313
_cell_length_b 11.893155
_cell_length_c 9.252151
_cell_angle_alpha 90.000000
_cell_angle_beta 90.000000
_cell_angle_gamma 90.000000
_cell_volume 2130.245873
_symmetry_space_group_name_H-M "P C C A"
_symmetry_group_IT_number 54
_symmetry_cell_setting 'orthorhombic'
loop_
_space_group_symop_operation_xyz
x,y,z
1/2-x,-y,z
1/2+x,-y,1/2-z
-x,y,1/2-z
-x,-y,-z
1/2+x,y,-z
1/2-x,y,1/2+z
x,-y,1/2+z
loop_
_atom_site_type_symbol
_atom_site_label
_atom_site_fract_x
_atom_site_fract_y
_atom_site_fract_z
Si Si1 0.209810 0.880965 0.222822
Si Si2 0.062686 0.157043 0.165125
Si Si3 0.793340 0.738358 0.549486
Si Si4 0.934125 0.059601 0.649933
Si Si5 0.849556 0.358712 0.457413
Si Si6 0.833295 0.480255 0.183732
O O1 0.187031 0.832201 0.067474
O O2 0.261702 0.800634 0.311107
O O3 0.139555 0.883994 0.315494
O O4 0.250000 0.000000 0.205377
O O5 0.111919 0.252105 0.104853
O O6 0.000000 0.215707 0.250000
O O7 0.082085 0.066608 0.289536
O O8 0.049962 0.083800 0.018646
O O9 0.730201 0.674610 0.471479
O O10 0.843590 0.639064 0.600742
O O11 0.000000 0.095501 0.750000
O O12 0.856525 0.459626 0.345061
O O13 0.868507 0.412747 0.610519
O O14 0.750000 0.500000 0.184524
#
# Coordination Sequence:
#
# PCOD9422800 Si02
#       6
#     8   8   8   8   8   8
#     4  12  25  39  65 104 146 177 223 285 344 414
#     4  11  24  44  67  95 132 179 233 281 335 413
#     4  11  22  39  62  97 140 175 215 279 353 400
#     4  11  25  44  67  98 140 189 232 268 344 432
#     4  11  22  41  62  96 128 172 226 283 339 406
#     4  10  22  37  64  91 129 171 220 273 348 414
#
# _framework density 22.532609999999998
#
# number of rings (size 3 to 8) (size 9 to 14) (size 15 to 20)
#    0.000    1.000    3.333    5.000    4.667    1.333 
#    0.000    0.833    0.000    1.000    0.000    0.000 
#    0.000    0.000    0.000    0.000    0.000    0.000 
#
# Total GULP energy -267777.070498 kJ/mol
# GULP energy per Si atom -5578.688969 kJ/mol
# Density = 2.248132 g / cm^3
# Si number density = 22.532610 Si / 1000 Ang^3
#
#
#
# Elastic Constant Matrix: (Units=GPa)
#
#
# Indices 1 2 3 4 5 6 
#
# 1 39.9971 12.6607 0.5171 0.0000 0.0000 0.0000
# 2 12.6607 71.0937 35.1409 0.0000 0.0000 0.0000
# 3 0.5171 35.1409 109.3720 0.0000 0.0000 0.0000
# 4 0.0000 0.0000 0.0000 44.0475 0.0000 0.0000
# 5 0.0000 0.0000 0.0000 0.0000 20.8490 0.0000
# 6 0.0000 0.0000 0.0000 0.0000 0.0000 23.2513
#
#
#
# Elastic Compliance Matrix: (Units=1/GPa)
#
#
# Indices 1 2 3 4 5 6 
#
# 1 0.026749 -0.005589 0.001669 0.000000 0.000000 0.000000
# 2 -0.005589 0.017889 -0.005721 0.000000 0.000000 0.000000
# 3 0.001669 -0.005721 0.010973 0.000000 0.000000 0.000000
# 4 0.000000 0.000000 0.000000 0.022703 0.000000 0.000000
# 5 0.000000 0.000000 0.000000 0.000000 0.047964 0.000000
# 6 0.000000 0.000000 0.000000 0.000000 0.000000 0.043008
#
#
# Mechanical properties :
#
#
# Convention : Reuss Voigt Hill
#
# Bulk Modulus (GPa) = 27.52530 35.23336 31.37933
# Shear Modulus (GPa) = 24.91545 29.10583 27.01064
#
# Velocity S-wave (km/s) = 3.32889 3.59795 3.46603
# Velocity P-wave (km/s) = 5.19785 5.73854 5.47487
#
# Compressibility (1/GPa) = 0.03633021
#
# Stress axis : x y z
#
# Youngs Moduli (GPa) = 37.38425 55.89976 91.12904
#
# Poissons Ratio (x) = 0.31240 -0.15211
# Poissons Ratio (y) = 0.20893 0.52138
# Poissons Ratio (z) = -0.06240 0.31982
#
# Static dielectric constant tensor:
#      x y z
#    x 1.920100 0.000000 0.000000 
#    y 0.000000 1.906850 0.000000 
#    z 0.000000 0.000000 1.865660 
# 
# From -- ./inp_files/5157.got.cif
#   From: 2010.05.17/outbox.cif.g08.bks.cpg/sg54_3_cif.got.tgz:5157.got - 2010.06.03 13:09:01.
