data_PCOD9422100
_publ_section_title
;
Structure prediction by ZEFSAII (Michael W. Deem and Ramdas Pophale) SiO2 
 PCOD9422100
Probable space group: P C C A
;
_chemical_formula_sum "Si O2"
_cell_formula_units_Z 52
_cell_length_a 7.890027
_cell_length_b 15.147440
_cell_length_c 18.196144
_cell_angle_alpha 90.000000
_cell_angle_beta 90.000000
_cell_angle_gamma 90.000000
_cell_volume 2174.688688
_symmetry_space_group_name_H-M "P C C A"
_symmetry_group_IT_number 54
_symmetry_cell_setting 'orthorhombic'
loop_
_space_group_symop_operation_xyz
x,y,z
1/2-x,-y,z
1/2+x,-y,1/2-z
-x,y,1/2-z
-x,-y,-z
1/2+x,y,-z
1/2-x,y,1/2+z
x,-y,1/2+z
loop_
_atom_site_type_symbol
_atom_site_label
_atom_site_fract_x
_atom_site_fract_y
_atom_site_fract_z
Si Si1 0.348212 0.821923 0.116041
Si Si2 0.750000 0.000000 0.133394
Si Si3 0.000000 0.919772 0.750000
Si Si4 0.268629 0.357517 0.454204
Si Si5 0.000000 0.610857 0.750000
Si Si6 0.295281 0.156117 0.970375
Si Si7 0.391041 0.381215 0.602457
Si Si8 0.838700 0.596673 0.197829
O O1 0.374877 0.863075 0.196789
O O2 0.521088 0.836837 0.068392
O O3 0.328244 0.716660 0.124993
O O4 0.209455 0.859980 0.058477
O O5 0.899617 0.024471 0.189402
O O6 0.708434 0.080619 0.078368
O O7 0.290416 0.252464 0.462903
O O8 0.287490 0.405564 0.531384
O O9 0.384918 0.388181 0.387017
O O10 0.078083 0.373064 0.429953
O O11 0.083292 0.566009 0.677576
O O12 0.171049 0.656581 0.782517
O O13 0.750000 0.500000 0.201229
O O14 0.000000 0.609148 0.250000
#
# Coordination Sequence:
#
# PCOD9422100 Si02
#       8
#     8   4   4   8   4   8   8   8
#     4   9  18  34  56  78 110 150 194 240 291 349
#     4  10  22  36  52  78 118 150 196 248 294 352
#     4  10  21  34  50  77 108 146 192 246 294 345
#     4   9  20  37  59  88 118 153 202 249 294 367
#     4  10  21  38  62  89 124 164 198 252 308 365
#     4   9  19  36  55  80 114 151 194 242 293 354
#     4   9  18  35  59  86 117 154 198 246 299 353
#     4  11  23  42  64  90 126 162 203 250 308 369
#
# _framework density 23.911469
#
# number of rings (size 3 to 8) (size 9 to 14) (size 15 to 20)
#    0.000    2.462    0.769    0.462    2.154    5.538 
#    1.385    3.846    0.000    0.000    0.000    0.000 
#    0.000    0.000    0.000    0.000    0.000    0.000 
#
# Total GULP energy -289774.834713 kJ/mol
# GULP energy per Si atom -5572.592975 kJ/mol
# Density = 2.385705 g / cm^3
# Si number density = 23.911469 Si / 1000 Ang^3
#
#
#
# Elastic Constant Matrix: (Units=GPa)
#
#
# Indices 1 2 3 4 5 6 
#
# 1 51.1512 13.5950 21.6926 0.0000 0.0000 0.0000
# 2 13.5950 85.3816 39.8524 0.0000 0.0000 0.0000
# 3 21.6926 39.8524 177.3088 0.0000 0.0000 0.0000
# 4 0.0000 0.0000 0.0000 18.1173 0.0000 0.0000
# 5 0.0000 0.0000 0.0000 0.0000 48.8376 0.0000
# 6 0.0000 0.0000 0.0000 0.0000 0.0000 16.2893
#
#
#
# Elastic Compliance Matrix: (Units=1/GPa)
#
#
# Indices 1 2 3 4 5 6 
#
# 1 0.021052 -0.002402 -0.002036 0.000000 0.000000 0.000000
# 2 -0.002402 0.013359 -0.002709 0.000000 0.000000 0.000000
# 3 -0.002036 -0.002709 0.006498 0.000000 0.000000 0.000000
# 4 0.000000 0.000000 0.000000 0.055196 0.000000 0.000000
# 5 0.000000 0.000000 0.000000 0.000000 0.020476 0.000000
# 6 0.000000 0.000000 0.000000 0.000000 0.000000 0.061390
#
#
# Mechanical properties :
#
#
# Convention : Reuss Voigt Hill
#
# Bulk Modulus (GPa) = 37.57174 51.56905 44.57040
# Shear Modulus (GPa) = 24.85898 32.56227 28.71063
#
# Velocity S-wave (km/s) = 3.22782 3.69424 3.46888
# Velocity P-wave (km/s) = 5.44415 6.30952 5.89274
#
# Compressibility (1/GPa) = 0.02661575
#
# Stress axis : x y z
#
# Youngs Moduli (GPa) = 47.50251 74.85663 153.89934
#
# Poissons Ratio (x) = 0.17979 0.31329
# Poissons Ratio (y) = 0.11409 0.41687
# Poissons Ratio (z) = 0.09670 0.20277
#
# Static dielectric constant tensor:
#      x y z
#    x 2.065450 0.000000 0.000000 
#    y 0.000000 2.022280 0.000000 
#    z 0.000000 0.000000 2.005650 
# 
# From -- ./inp_files/16798.got.cif
#   From: 2010.05.17/outbox.cif.g08.bks.cpg/sg54_9_cif.got.tgz:16798.got - 2010.06.03 13:09:01.
