data_PCOD9422393
_publ_section_title
;
Structure prediction by ZEFSAII (Michael W. Deem and Ramdas Pophale) SiO2 
 PCOD9422393
Probable space group: P C C A
;
_chemical_formula_sum "Si O2"
_cell_formula_units_Z 64
_cell_length_a 14.226423
_cell_length_b 23.001897
_cell_length_c 8.501326
_cell_angle_alpha 90.000000
_cell_angle_beta 90.000000
_cell_angle_gamma 90.000000
_cell_volume 2781.929004
_symmetry_space_group_name_H-M "P C C A"
_symmetry_group_IT_number 54
_symmetry_cell_setting 'orthorhombic'
loop_
_space_group_symop_operation_xyz
x,y,z
1/2-x,-y,z
1/2+x,-y,1/2-z
-x,y,1/2-z
-x,-y,-z
1/2+x,y,-z
1/2-x,y,1/2+z
x,-y,1/2+z
loop_
_atom_site_type_symbol
_atom_site_label
_atom_site_fract_x
_atom_site_fract_y
_atom_site_fract_z
Si Si1 0.717765 0.935733 0.287079
Si Si2 0.357672 0.108182 0.018083
Si Si3 0.547285 0.863047 0.423312
Si Si4 0.494194 0.260863 0.066059
Si Si5 0.613411 0.470353 0.223261
Si Si6 0.299247 0.428716 0.614546
Si Si7 0.809140 0.763378 0.596417
Si Si8 0.842339 0.297893 0.414055
O O1 0.811570 0.898108 0.312971
O O2 0.680249 0.936718 0.110804
O O3 0.640043 0.900990 0.391736
O O4 0.750000 0.000000 0.332191
O O5 0.468727 0.102236 0.020367
O O6 0.321043 0.169062 0.944350
O O7 0.500000 0.854426 0.250000
O O8 0.540922 0.800479 0.508187
O O9 0.500000 0.266192 0.250000
O O10 0.387173 0.264011 0.015911
O O11 0.552206 0.308012 0.970637
O O12 0.500000 0.459964 0.250000
O O13 0.637702 0.538527 0.252970
O O14 0.689456 0.445154 0.351720
O O15 0.654379 0.447385 0.054832
O O16 0.301827 0.359627 0.630928
O O17 0.712380 0.732671 0.556701
O O18 0.835484 0.747953 0.772846
#
# Coordination Sequence:
#
# PCOD9422393 Si02
#       8
#     8   8   8   8   8   8   8   8
#     4  11  22  37  59  86 117 156 210 267 321 383
#     4  10  21  39  60  83 118 163 205 255 322 395
#     4   9  20  40  62  84 122 168 206 257 327 400
#     4  11  23  40  63  97 132 171 220 267 334 414
#     4  11  24  46  70  97 138 186 235 285 346 416
#     4  11  25  43  68 101 135 180 236 289 343 412
#     4  11  23  40  64  93 129 175 216 265 338 407
#     4  12  24  41  65  98 136 168 218 285 333 390
#
# _framework density 23.00562
#
# number of rings (size 3 to 8) (size 9 to 14) (size 15 to 20)
#    0.000    1.250    0.000    7.875    0.000    6.000 
#    0.000    1.250    0.000    0.000    0.000    0.000 
#    0.000    0.000    0.000    0.000    0.000    0.000 
#
# Total GULP energy -357099.868891 kJ/mol
# GULP energy per Si atom -5579.685451 kJ/mol
# Density = 2.295326 g / cm^3
# Si number density = 23.005620 Si / 1000 Ang^3
#
#
#
# Elastic Constant Matrix: (Units=GPa)
#
#
# Indices 1 2 3 4 5 6 
#
# 1 105.8102 5.2968 1.1367 0.0000 0.0000 0.0000
# 2 5.2968 51.9182 -18.0696 0.0000 0.0000 0.0000
# 3 1.1367 -18.0696 63.9107 0.0000 0.0000 0.0000
# 4 0.0000 0.0000 0.0000 20.2886 0.0000 0.0000
# 5 0.0000 0.0000 0.0000 0.0000 36.1619 0.0000
# 6 0.0000 0.0000 0.0000 0.0000 0.0000 -35.2841
#
#
#
# Elastic Compliance Matrix: (Units=1/GPa)
#
#
# Indices 1 2 3 4 5 6 
#
# 1 0.009513 -0.001142 -0.000492 0.000000 0.000000 0.000000
# 2 -0.001142 0.021500 0.006099 0.000000 0.000000 0.000000
# 3 -0.000492 0.006099 0.017380 0.000000 0.000000 0.000000
# 4 0.000000 0.000000 0.000000 0.049289 0.000000 0.000000
# 5 0.000000 0.000000 0.000000 0.000000 0.027653 0.000000
# 6 0.000000 0.000000 0.000000 0.000000 0.000000 -0.028341
#
#
# Mechanical properties :
#
#
# Convention : Reuss Voigt Hill
#
# Bulk Modulus (GPa) = 17.44465 22.04077 19.74271
# Shear Modulus (GPa) = 46.65400 19.78496 33.21948
#
# Velocity S-wave (km/s) = 4.50815 2.93577 3.80409
# Velocity P-wave (km/s) = 5.89043 4.59272 5.28158
#
# Compressibility (1/GPa) = 0.05732416
#
# Stress axis : x y z
#
# Youngs Moduli (GPa) = 105.11567 46.51103 57.53745
#
# Poissons Ratio (x) = 0.05311 0.02831
# Poissons Ratio (y) = 0.12002 -0.35093
# Poissons Ratio (z) = 0.05172 -0.28368
#
# Static dielectric constant tensor:
#      x y z
#    x 1.948700 0.000000 0.000000 
#    y 0.000000 1.922400 0.000000 
#    z 0.000000 0.000000 1.859470 
# 
# From -- ./inp_files/3737.got.cif
#   From: 2010.05.17/outbox.cif.g08.bks.cpg/sg54_2_cif.got.tgz:3737.got - 2010.06.03 13:09:01.
