data_PCOD9422825
_publ_section_title
;
Structure prediction by ZEFSAII (Michael W. Deem and Ramdas Pophale) SiO2 
 PCOD9422825
Probable space group: P C C A
;
_chemical_formula_sum "Si O2"
_cell_formula_units_Z 36
_cell_length_a 21.813781
_cell_length_b 5.058893
_cell_length_c 16.555161
_cell_angle_alpha 90.000000
_cell_angle_beta 90.000000
_cell_angle_gamma 90.000000
_cell_volume 1826.921350
_symmetry_space_group_name_H-M "P C C A"
_symmetry_group_IT_number 54
_symmetry_cell_setting 'orthorhombic'
loop_
_space_group_symop_operation_xyz
x,y,z
1/2-x,-y,z
1/2+x,-y,1/2-z
-x,y,1/2-z
-x,-y,-z
1/2+x,y,-z
1/2-x,y,1/2+z
x,-y,1/2+z
loop_
_atom_site_type_symbol
_atom_site_label
_atom_site_fract_x
_atom_site_fract_y
_atom_site_fract_z
Si Si1 0.089069 0.578419 0.621596
Si Si2 0.322150 0.540176 0.265425
Si Si3 0.500000 0.188374 0.750000
Si Si4 0.883646 0.040452 0.662849
Si Si5 0.928736 0.930645 0.485351
O O1 0.146259 0.505518 0.678046
O O2 0.032103 0.630676 0.682212
O O3 0.075793 0.354669 0.555894
O O4 0.098169 0.855444 0.576633
O O5 0.250000 0.500000 0.263908
O O6 0.337727 0.832441 0.296313
O O7 0.357085 0.331245 0.323225
O O8 0.552166 0.008592 0.709368
O O9 0.894893 0.962780 0.570411
O O10 0.000000 0.000000 0.500000
#
# Coordination Sequence:
#
# PCOD9422825 Si02
#       5
#     8   8   4   8   8
#     4  11  24  39  65  93 131 166 212 253 322 375
#     4  11  25  46  66  89 124 175 224 261 297 371
#     4  10  22  38  64 100 124 176 202 268 316 386
#     4  11  24  40  68  93 131 162 215 258 324 374
#     4  12  24  39  61 100 136 161 195 263 332 390
#
# _framework density 19.705280999999999
#
# number of rings (size 3 to 8) (size 9 to 14) (size 15 to 20)
#    0.000    0.889    2.222    5.333    6.222    1.778 
#    0.000    6.667    0.000    0.000    0.000    0.000 
#    0.000    0.000    0.000    0.000    0.000    0.000 
#
# Total GULP energy -201458.400478 kJ/mol
# GULP energy per Si atom -5596.066680 kJ/mol
# Density = 1.966043 g / cm^3
# Si number density = 19.705281 Si / 1000 Ang^3
#
#
#
# Elastic Constant Matrix: (Units=GPa)
#
#
# Indices 1 2 3 4 5 6 
#
# 1 101.4901 -11.9188 20.4620 0.0000 0.0000 0.0000
# 2 -11.9188 54.7245 -8.0779 0.0000 0.0000 0.0000
# 3 20.4620 -8.0779 84.0975 0.0000 0.0000 0.0000
# 4 0.0000 0.0000 0.0000 44.9083 0.0000 0.0000
# 5 0.0000 0.0000 0.0000 0.0000 9.0639 0.0000
# 6 0.0000 0.0000 0.0000 0.0000 0.0000 11.9868
#
#
#
# Elastic Compliance Matrix: (Units=1/GPa)
#
#
# Indices 1 2 3 4 5 6 
#
# 1 0.010562 0.001949 -0.002383 0.000000 0.000000 0.000000
# 2 0.001949 0.018896 0.001341 0.000000 0.000000 0.000000
# 3 -0.002383 0.001341 0.012600 0.000000 0.000000 0.000000
# 4 0.000000 0.000000 0.000000 0.022268 0.000000 0.000000
# 5 0.000000 0.000000 0.000000 0.000000 0.110327 0.000000
# 6 0.000000 0.000000 0.000000 0.000000 0.000000 0.083425
#
#
# Mechanical properties :
#
#
# Convention : Reuss Voigt Hill
#
# Bulk Modulus (GPa) = 22.79398 26.80475 24.79936
# Shear Modulus (GPa) = 18.45782 29.18159 23.81971
#
# Velocity S-wave (km/s) = 3.06387 3.85242 3.48055
# Velocity P-wave (km/s) = 4.91008 5.78105 5.36328
#
# Compressibility (1/GPa) = 0.04387124
#
# Stress axis : x y z
#
# Youngs Moduli (GPa) = 94.67507 52.92213 79.36807
#
# Poissons Ratio (x) = -0.10313 0.18912
# Poissons Ratio (y) = -0.18450 -0.10642
# Poissons Ratio (z) = 0.22559 -0.07096
#
# Static dielectric constant tensor:
#      x y z
#    x 1.667410 0.000000 0.000000 
#    y 0.000000 1.680270 0.000000 
#    z 0.000000 0.000000 1.709450 
# 
# From -- ./inp_files/14430.got.cif
#   From: 2010.05.17/outbox.cif.g08.bks.cpg/sg54_8_cif.got.tgz:14430.got - 2010.06.03 13:09:01.
