data_PCOD9422478
_publ_section_title
;
Structure prediction by ZEFSAII (Michael W. Deem and Ramdas Pophale) SiO2 
 PCOD9422478
Probable space group: P C C A
;
_chemical_formula_sum "Si O2"
_cell_formula_units_Z 40
_cell_length_a 12.256682
_cell_length_b 7.153446
_cell_length_c 19.143012
_cell_angle_alpha 90.000000
_cell_angle_beta 90.000000
_cell_angle_gamma 90.000000
_cell_volume 1678.411680
_symmetry_space_group_name_H-M "P C C A"
_symmetry_group_IT_number 54
_symmetry_cell_setting 'orthorhombic'
loop_
_space_group_symop_operation_xyz
x,y,z
1/2-x,-y,z
1/2+x,-y,1/2-z
-x,y,1/2-z
-x,-y,-z
1/2+x,y,-z
1/2-x,y,1/2+z
x,-y,1/2+z
loop_
_atom_site_type_symbol
_atom_site_label
_atom_site_fract_x
_atom_site_fract_y
_atom_site_fract_z
Si Si1 0.214709 0.284943 0.566240
Si Si2 0.433396 0.232218 0.638704
Si Si3 0.284696 0.785280 0.265463
Si Si4 0.421124 0.653620 0.685690
Si Si5 0.833395 0.173257 0.087756
O O1 0.250000 0.500000 0.579177
O O2 0.328966 0.189793 0.588747
O O3 0.114464 0.229133 0.617199
O O4 0.177707 0.268489 0.486931
O O5 0.390146 0.192975 0.716606
O O6 0.456418 0.456163 0.650958
O O7 0.540617 0.134968 0.608158
O O8 0.194838 0.666564 0.225120
O O9 0.298628 0.711928 0.343491
O O10 0.250000 0.000000 0.273036
O O11 0.500000 0.707198 0.750000
O O12 0.750000 0.000000 0.082356
#
# Coordination Sequence:
#
# PCOD9422478 Si02
#       5
#     8   8   8   8   8
#     4   9  22  40  59  92 128 162 213 274 331 392
#     4  10  22  42  63  88 127 166 216 279 328 386
#     4  10  22  39  61  91 126 166 216 266 323 397
#     4  10  21  39  67  94 122 167 216 267 327 384
#     4  11  24  39  61  93 130 175 216 263 334 404
#
# _framework density 23.832055
#
# number of rings (size 3 to 8) (size 9 to 14) (size 15 to 20)
#    0.000    2.000    0.000    3.600    0.000   15.200 
#    0.000    0.000    0.000    0.000    0.000    0.000 
#    0.000    0.000    0.000    0.000    0.000    0.000 
#
# Total GULP energy -222843.927104 kJ/mol
# GULP energy per Si atom -5571.098178 kJ/mol
# Density = 2.377781 g / cm^3
# Si number density = 23.832055 Si / 1000 Ang^3
#
#
#
# Elastic Constant Matrix: (Units=GPa)
#
#
# Indices 1 2 3 4 5 6 
#
# 1 161.9828 47.1888 78.3817 0.0000 0.0000 0.0000
# 2 47.1888 49.7099 6.5873 0.0000 0.0000 0.0000
# 3 78.3817 6.5873 213.6253 0.0000 0.0000 0.0000
# 4 0.0000 0.0000 0.0000 138.6641 0.0000 0.0000
# 5 0.0000 0.0000 0.0000 0.0000 39.9100 0.0000
# 6 0.0000 0.0000 0.0000 0.0000 0.0000 28.4205
#
#
#
# Elastic Compliance Matrix: (Units=1/GPa)
#
#
# Indices 1 2 3 4 5 6 
#
# 1 0.010784 -0.009752 -0.003656 0.000000 0.000000 0.000000
# 2 -0.009752 0.029019 0.002683 0.000000 0.000000 0.000000
# 3 -0.003656 0.002683 0.005940 0.000000 0.000000 0.000000
# 4 0.000000 0.000000 0.000000 0.007212 0.000000 0.000000
# 5 0.000000 0.000000 0.000000 0.000000 0.025056 0.000000
# 6 0.000000 0.000000 0.000000 0.000000 0.000000 0.035186
#
#
# Mechanical properties :
#
#
# Convention : Reuss Voigt Hill
#
# Bulk Modulus (GPa) = 41.16482 76.62597 58.89540
# Shear Modulus (GPa) = 35.02803 60.94293 47.98548
#
# Velocity S-wave (km/s) = 3.83794 5.06235 4.49205
# Velocity P-wave (km/s) = 6.07866 8.14813 7.18826
#
# Compressibility (1/GPa) = 0.02429259
#
# Stress axis : x y z
#
# Youngs Moduli (GPa) = 92.73386 34.46055 168.35748
#
# Poissons Ratio (x) = 0.33607 0.61550
# Poissons Ratio (y) = 0.90436 -0.45177
# Poissons Ratio (z) = 0.33903 -0.09247
#
# Static dielectric constant tensor:
#      x y z
#    x 1.956960 0.000000 0.000000 
#    y 0.000000 2.009340 0.000000 
#    z 0.000000 0.000000 1.913830 
# 
# From -- ./inp_files/17082.got.cif
#   From: 2010.05.17/outbox.cif.g08.bks.cpg/sg54_9_cif.got.tgz:17082.got - 2010.06.03 13:09:01.
