data_PCOD9422939
_publ_section_title
;
Structure prediction by ZEFSAII (Michael W. Deem and Ramdas Pophale) SiO2 
 PCOD9422939
Probable space group: P C C A
;
_chemical_formula_sum "Si O2"
_cell_formula_units_Z 44
_cell_length_a 8.856163
_cell_length_b 12.259925
_cell_length_c 20.728992
_cell_angle_alpha 90.000000
_cell_angle_beta 90.000000
_cell_angle_gamma 90.000000
_cell_volume 2250.668842
_symmetry_space_group_name_H-M "P C C A"
_symmetry_group_IT_number 54
_symmetry_cell_setting 'orthorhombic'
loop_
_space_group_symop_operation_xyz
x,y,z
1/2-x,-y,z
1/2+x,-y,1/2-z
-x,y,1/2-z
-x,-y,-z
1/2+x,y,-z
1/2-x,y,1/2+z
x,-y,1/2+z
loop_
_atom_site_type_symbol
_atom_site_label
_atom_site_fract_x
_atom_site_fract_y
_atom_site_fract_z
Si Si1 0.785305 0.124829 0.923571
Si Si2 0.735809 0.347390 0.717011
Si Si3 0.326001 0.884021 0.729753
Si Si4 0.000000 0.502512 0.250000
Si Si5 0.305209 0.622383 0.427131
Si Si6 0.546019 0.748573 0.504110
O O1 0.810042 0.132393 0.847083
O O2 0.643315 0.194652 0.948163
O O3 0.750000 0.000000 0.940042
O O4 0.932277 0.168772 0.960779
O O5 0.755705 0.222844 0.736725
O O6 0.632890 0.415795 0.767543
O O7 0.657149 0.359395 0.647766
O O8 0.896877 0.410900 0.710078
O O9 0.500000 0.888889 0.750000
O O10 0.250000 0.000000 0.746820
O O11 0.250000 0.500000 0.437172
O O12 0.443728 0.654637 0.472594
O O13 0.166206 0.700897 0.445657
#
# Coordination Sequence:
#
# PCOD9422939 Si02
#       6
#     8   8   8   4   8   8
#     4  10  22  41  64  88 120 156 204 248 299 357
#     4  11  23  40  64  91 126 158 209 248 316 362
#     4  11  25  41  62  93 127 162 202 255 308 370
#     4  10  22  40  62  90 118 166 200 256 300 380
#     4  11  22  41  60  89 123 158 202 249 301 364
#     4  10  23  39  62  88 119 162 199 250 295 358
#
# _framework density 19.549744
#
# number of rings (size 3 to 8) (size 9 to 14) (size 15 to 20)
#    0.000    1.455    2.727    2.182    3.818    1.455 
#    0.000    4.545    0.000    0.000    0.000    0.000 
#    0.000    0.000    0.000    0.000    0.000    0.000 
#
# Total GULP energy -245322.183247 kJ/mol
# GULP energy per Si atom -5575.504165 kJ/mol
# Density = 1.950525 g / cm^3
# Si number density = 19.549744 Si / 1000 Ang^3
#
#
#
# Elastic Constant Matrix: (Units=GPa)
#
#
# Indices 1 2 3 4 5 6 
#
# 1 73.9457 41.3721 12.3939 0.0000 0.0000 0.0000
# 2 41.3721 147.7471 36.0856 0.0000 0.0000 0.0000
# 3 12.3939 36.0856 46.5122 0.0000 0.0000 0.0000
# 4 0.0000 0.0000 0.0000 25.1569 0.0000 0.0000
# 5 0.0000 0.0000 0.0000 0.0000 3.6913 0.0000
# 6 0.0000 0.0000 0.0000 0.0000 0.0000 20.2686
#
#
#
# Elastic Compliance Matrix: (Units=1/GPa)
#
#
# Indices 1 2 3 4 5 6 
#
# 1 0.016072 -0.004262 -0.000976 0.000000 0.000000 0.000000
# 2 -0.004262 0.009481 -0.006220 0.000000 0.000000 0.000000
# 3 -0.000976 -0.006220 0.026585 0.000000 0.000000 0.000000
# 4 0.000000 0.000000 0.000000 0.039751 0.000000 0.000000
# 5 0.000000 0.000000 0.000000 0.000000 0.270910 0.000000
# 6 0.000000 0.000000 0.000000 0.000000 0.000000 0.049337
#
#
# Mechanical properties :
#
#
# Convention : Reuss Voigt Hill
#
# Bulk Modulus (GPa) = 34.22057 49.76758 41.99407
# Shear Modulus (GPa) = 11.24119 21.71357 16.47738
#
# Velocity S-wave (km/s) = 2.40053 3.33631 2.90633
# Velocity P-wave (km/s) = 5.02252 6.35243 5.72622
#
# Compressibility (1/GPa) = 0.02922219
#
# Stress axis : x y z
#
# Youngs Moduli (GPa) = 62.22170 105.47519 37.61468
#
# Poissons Ratio (x) = 0.44953 0.03671
# Poissons Ratio (y) = 0.26519 0.23396
# Poissons Ratio (z) = 0.06072 0.65604
#
# Static dielectric constant tensor:
#      x y z
#    x 1.681250 0.000000 0.000000 
#    y 0.000000 1.678670 0.000000 
#    z 0.000000 0.000000 1.665600 
# 
# From -- ./inp_files/23412.got.cif
#   From: 2010.05.17/outbox.cif.g08.bks.cpg/sg54_12_cif.got.tgz:23412.got - 2010.06.03 13:09:01.
