data_PCOD9422461
_publ_section_title
;
Structure prediction by ZEFSAII (Michael W. Deem and Ramdas Pophale) SiO2 
 PCOD9422461
Probable space group: P C C A
;
_chemical_formula_sum "Si O2"
_cell_formula_units_Z 40
_cell_length_a 8.862913
_cell_length_b 9.765995
_cell_length_c 22.408338
_cell_angle_alpha 90.000000
_cell_angle_beta 90.000000
_cell_angle_gamma 90.000000
_cell_volume 1939.557372
_symmetry_space_group_name_H-M "P C C A"
_symmetry_group_IT_number 54
_symmetry_cell_setting 'orthorhombic'
loop_
_space_group_symop_operation_xyz
x,y,z
1/2-x,-y,z
1/2+x,-y,1/2-z
-x,y,1/2-z
-x,-y,-z
1/2+x,y,-z
1/2-x,y,1/2+z
x,-y,1/2+z
loop_
_atom_site_type_symbol
_atom_site_label
_atom_site_fract_x
_atom_site_fract_y
_atom_site_fract_z
Si Si1 0.932902 0.510872 0.183470
Si Si2 0.250000 0.000000 0.388273
Si Si3 0.002497 0.168618 0.682174
Si Si4 0.750000 0.000000 0.866526
Si Si5 0.583273 0.430132 0.943675
Si Si6 0.004402 0.121701 0.047780
O O1 0.750000 0.500000 0.184647
O O2 0.973249 0.671051 0.176176
O O3 0.000000 0.468138 0.250000
O O4 0.003108 0.442716 0.122552
O O5 0.125566 0.918258 0.351044
O O6 0.335068 0.884003 0.426838
O O7 0.000000 0.126408 0.750000
O O8 0.170948 0.127432 0.664507
O O9 0.882389 0.935821 0.903864
O O10 0.750000 0.500000 0.938763
O O11 0.569461 0.271242 0.964001
O O12 0.500000 0.500000 0.000000
O O13 0.000000 0.000000 0.000000
#
# Coordination Sequence:
#
# PCOD9422461 Si02
#       6
#     8   4   8   4   8   8
#     4  11  24  45  71 101 145 190 238 292 358 434
#     4  10  22  38  66  92 134 174 234 278 356 412
#     4  10  21  39  65  97 133 177 227 284 342 414
#     4  10  22  40  64  90 132 170 228 276 344 406
#     4  12  28  44  70 104 142 185 239 297 362 430
#     4  11  25  41  67  93 132 179 226 286 350 421
#
# _framework density 20.623262
#
# number of rings (size 3 to 8) (size 9 to 14) (size 15 to 20)
#    0.000    1.200    0.000    4.800   11.200    1.600 
#    0.000    5.000    0.000    0.000    0.000    0.000 
#    0.000    0.000    0.000    0.000    0.000    0.000 
#
# Total GULP energy -222765.747570 kJ/mol
# GULP energy per Si atom -5569.143689 kJ/mol
# Density = 2.057632 g / cm^3
# Si number density = 20.623262 Si / 1000 Ang^3
#
#
#
# Elastic Constant Matrix: (Units=GPa)
#
#
# Indices 1 2 3 4 5 6 
#
# 1 146.2519 47.6262 66.4375 0.0000 0.0000 0.0000
# 2 47.6262 102.5837 40.0064 0.0000 0.0000 0.0000
# 3 66.4375 40.0064 124.7418 0.0000 0.0000 0.0000
# 4 0.0000 0.0000 0.0000 31.5995 0.0000 0.0000
# 5 0.0000 0.0000 0.0000 0.0000 293.4902 0.0000
# 6 0.0000 0.0000 0.0000 0.0000 0.0000 39.1009
#
#
#
# Elastic Compliance Matrix: (Units=1/GPa)
#
#
# Indices 1 2 3 4 5 6 
#
# 1 0.009695 -0.002843 -0.004252 0.000000 0.000000 0.000000
# 2 -0.002843 0.011975 -0.002327 0.000000 0.000000 0.000000
# 3 -0.004252 -0.002327 0.011027 0.000000 0.000000 0.000000
# 4 0.000000 0.000000 0.000000 0.031646 0.000000 0.000000
# 5 0.000000 0.000000 0.000000 0.000000 0.003407 0.000000
# 6 0.000000 0.000000 0.000000 0.000000 0.000000 0.025575
#
#
# Mechanical properties :
#
#
# Convention : Reuss Voigt Hill
#
# Bulk Modulus (GPa) = 72.17583 75.74641 73.96112
# Shear Modulus (GPa) = 42.81347 87.47193 65.14270
#
# Velocity S-wave (km/s) = 4.56123 6.51968 5.62633
# Velocity P-wave (km/s) = 7.92547 9.66868 8.84015
#
# Compressibility (1/GPa) = 0.01385505
#
# Stress axis : x y z
#
# Youngs Moduli (GPa) = 103.14969 83.50526 90.68534
#
# Poissons Ratio (x) = 0.23739 0.38556
# Poissons Ratio (y) = 0.29324 0.21098
# Poissons Ratio (z) = 0.43856 0.19428
#
# Static dielectric constant tensor:
#      x y z
#    x 1.805220 0.000000 0.000000 
#    y 0.000000 1.903900 0.000000 
#    z 0.000000 0.000000 1.815250 
# 
# From -- ./inp_files/23321.got.cif
#   From: 2010.05.17/outbox.cif.g08.bks.cpg/sg54_12_cif.got.tgz:23321.got - 2010.06.03 13:09:01.
