data_PCOD9422662
_publ_section_title
;
Structure prediction by ZEFSAII (Michael W. Deem and Ramdas Pophale) SiO2 
 PCOD9422662
Probable space group: P C C A
;
_chemical_formula_sum "Si O2"
_cell_formula_units_Z 40
_cell_length_a 15.742185
_cell_length_b 7.638062
_cell_length_c 14.827230
_cell_angle_alpha 90.000000
_cell_angle_beta 90.000000
_cell_angle_gamma 90.000000
_cell_volume 1782.822948
_symmetry_space_group_name_H-M "P C C A"
_symmetry_group_IT_number 54
_symmetry_cell_setting 'orthorhombic'
loop_
_space_group_symop_operation_xyz
x,y,z
1/2-x,-y,z
1/2+x,-y,1/2-z
-x,y,1/2-z
-x,-y,-z
1/2+x,y,-z
1/2-x,y,1/2+z
x,-y,1/2+z
loop_
_atom_site_type_symbol
_atom_site_label
_atom_site_fract_x
_atom_site_fract_y
_atom_site_fract_z
Si Si1 0.599708 0.507653 0.517999
Si Si2 0.318688 0.335736 0.158626
Si Si3 0.408090 0.996245 0.209509
Si Si4 0.820372 0.145660 0.455384
Si Si5 0.599897 0.623572 0.218123
O O1 0.500000 0.500000 0.500000
O O2 0.637776 0.397007 0.435251
O O3 0.638470 0.705231 0.518191
O O4 0.613052 0.421182 0.614448
O O5 0.232370 0.258958 0.117341
O O6 0.340676 0.495495 0.224565
O O7 0.354975 0.171382 0.213302
O O8 0.500000 0.035848 0.250000
O O9 0.396192 0.942809 0.103529
O O10 0.379656 0.826420 0.264862
O O11 0.750000 0.000000 0.487552
O O12 0.500000 0.600207 0.250000
#
# Coordination Sequence:
#
# PCOD9422662 Si02
#       5
#     8   8   8   8   8
#     4  12  23  43  76 107 144 202 258 314 383 470
#     4  11  23  45  72  98 149 194 239 315 388 445
#     4  10  21  42  70 101 140 189 246 301 375 450
#     4  10  23  47  70 104 153 197 245 324 386 445
#     4  11  22  43  69 103 144 189 252 312 378 457
#
# _framework density 22.436326999999999
#
# number of rings (size 3 to 8) (size 9 to 14) (size 15 to 20)
#    0.000    1.200    4.000    2.400    0.000    0.000 
#   14.400    9.000    0.000    0.000    0.000    0.000 
#    0.000    0.000    0.000    0.000    0.000    0.000 
#
# Total GULP energy -223030.437090 kJ/mol
# GULP energy per Si atom -5575.760927 kJ/mol
# Density = 2.238526 g / cm^3
# Si number density = 22.436327 Si / 1000 Ang^3
#
#
#
# Elastic Constant Matrix: (Units=GPa)
#
#
# Indices 1 2 3 4 5 6 
#
# 1 84.0007 28.8927 8.5484 0.0000 0.0000 0.0000
# 2 28.8927 162.9481 29.3967 0.0000 0.0000 0.0000
# 3 8.5484 29.3967 92.6651 0.0000 0.0000 0.0000
# 4 0.0000 0.0000 0.0000 -9.3292 0.0000 0.0000
# 5 0.0000 0.0000 0.0000 0.0000 25.3361 0.0000
# 6 0.0000 0.0000 0.0000 0.0000 0.0000 28.6371
#
#
#
# Elastic Compliance Matrix: (Units=1/GPa)
#
#
# Indices 1 2 3 4 5 6 
#
# 1 0.012698 -0.002164 -0.000485 0.000000 0.000000 0.000000
# 2 -0.002164 0.006878 -0.001982 0.000000 0.000000 0.000000
# 3 -0.000485 -0.001982 0.011465 0.000000 0.000000 0.000000
# 4 0.000000 0.000000 0.000000 -0.107190 0.000000 0.000000
# 5 0.000000 0.000000 0.000000 0.000000 0.039469 0.000000
# 6 0.000000 0.000000 0.000000 0.000000 0.000000 0.034920
#
#
# Mechanical properties :
#
#
# Convention : Reuss Voigt Hill
#
# Bulk Modulus (GPa) = 45.91573 52.58771 49.25172
# Shear Modulus (GPa) = 338.68405 27.11389 182.89897
#
# Velocity S-wave (km/s) = 12.29964 3.48009 9.03859
# Velocity P-wave (km/s) = 14.90696 6.29584 11.44236
#
# Compressibility (1/GPa) = 0.02177903
#
# Stress axis : x y z
#
# Youngs Moduli (GPa) = 78.75025 145.38525 87.22065
#
# Poissons Ratio (x) = 0.31463 0.04229
# Poissons Ratio (y) = 0.17042 0.17291
# Poissons Ratio (z) = 0.03819 0.28821
#
# Static dielectric constant tensor:
#      x y z
#    x 2.011620 0.000000 0.000000 
#    y 0.000000 1.973680 0.000000 
#    z 0.000000 0.000000 1.713500 
# 
# From -- ./inp_files/13237.got.cif
#   From: 2010.05.17/outbox.cif.g08.bks.cpg/sg54_7_cif.got.tgz:13237.got - 2010.06.03 13:09:01.
