data_PCOD9422760
_publ_section_title
;
Structure prediction by ZEFSAII (Michael W. Deem and Ramdas Pophale) SiO2 
 PCOD9422760
Probable space group: P C C A
;
_chemical_formula_sum "Si O2"
_cell_formula_units_Z 56
_cell_length_a 19.644158
_cell_length_b 11.174577
_cell_length_c 13.523316
_cell_angle_alpha 90.000000
_cell_angle_beta 90.000000
_cell_angle_gamma 90.000000
_cell_volume 2968.572824
_symmetry_space_group_name_H-M "P C C A"
_symmetry_group_IT_number 54
_symmetry_cell_setting 'orthorhombic'
loop_
_space_group_symop_operation_xyz
x,y,z
1/2-x,-y,z
1/2+x,-y,1/2-z
-x,y,1/2-z
-x,-y,-z
1/2+x,y,-z
1/2-x,y,1/2+z
x,-y,1/2+z
loop_
_atom_site_type_symbol
_atom_site_label
_atom_site_fract_x
_atom_site_fract_y
_atom_site_fract_z
Si Si1 0.821804 0.043975 0.122146
Si Si2 0.650466 0.087447 0.317154
Si Si3 0.783574 0.763814 0.489285
Si Si4 0.070993 0.059562 0.023528
Si Si5 0.373116 0.306511 0.495962
Si Si6 0.172298 0.530699 0.122267
Si Si7 0.580943 0.675496 0.727827
O O1 0.821693 0.180240 0.084577
O O2 0.750000 0.000000 0.079295
O O3 0.822577 0.004271 0.235067
O O4 0.881553 0.973908 0.068987
O O5 0.703255 0.148910 0.394442
O O6 0.611053 0.196225 0.263616
O O7 0.600350 0.010081 0.383436
O O8 0.703971 0.746062 0.511723
O O9 0.815703 0.637926 0.456331
O O10 0.077963 0.201529 0.036627
O O11 0.000000 0.000000 0.000000
O O12 0.362779 0.418948 0.567997
O O13 0.401612 0.339177 0.387847
O O14 0.250000 0.500000 0.156379
O O15 0.124137 0.579766 0.208712
O O16 0.500000 0.669623 0.750000
#
# Coordination Sequence:
#
# PCOD9422760 Si02
#       7
#     8   8   8   8   8   8   8
#     4  11  20  35  59  92 122 160 208 259 328 377
#     4  10  22  35  63  89 125 159 207 261 325 390
#     4   9  20  39  60  96 126 161 213 269 324 372
#     4  11  23  38  59  89 127 166 204 259 319 388
#     4  11  21  42  64  88 130 168 219 263 321 389
#     4   9  22  42  66  94 124 169 220 274 315 374
#     4  11  22  41  65  91 124 172 214 256 326 392
#
# _framework density 18.864284000000001
#
# number of rings (size 3 to 8) (size 9 to 14) (size 15 to 20)
#    0.000    1.714    2.857    0.857    2.000    2.286 
#    5.143    0.000    0.000    0.000    0.000    0.000 
#    0.000    0.000    0.000    0.000    0.000    0.000 
#
# Total GULP energy -312333.071231 kJ/mol
# GULP energy per Si atom -5577.376272 kJ/mol
# Density = 1.882135 g / cm^3
# Si number density = 18.864284 Si / 1000 Ang^3
#
#
#
# Elastic Constant Matrix: (Units=GPa)
#
#
# Indices 1 2 3 4 5 6 
#
# 1 103.4644 28.1741 42.8039 0.0000 0.0000 0.0000
# 2 28.1741 106.3690 36.7230 0.0000 0.0000 0.0000
# 3 42.8039 36.7230 68.8160 0.0000 0.0000 0.0000
# 4 0.0000 0.0000 0.0000 19.7233 0.0000 0.0000
# 5 0.0000 0.0000 0.0000 0.0000 -3.6741 0.0000
# 6 0.0000 0.0000 0.0000 0.0000 0.0000 19.1013
#
#
#
# Elastic Compliance Matrix: (Units=1/GPa)
#
#
# Indices 1 2 3 4 5 6 
#
# 1 0.013070 -0.000803 -0.007701 0.000000 0.000000 0.000000
# 2 -0.000803 0.011574 -0.005677 0.000000 0.000000 0.000000
# 3 -0.007701 -0.005677 0.022351 0.000000 0.000000 0.000000
# 4 0.000000 0.000000 0.000000 0.050701 0.000000 0.000000
# 5 0.000000 0.000000 0.000000 0.000000 -0.272178 0.000000
# 6 0.000000 0.000000 0.000000 0.000000 0.000000 0.052352
#
#
# Mechanical properties :
#
#
# Convention : Reuss Voigt Hill
#
# Bulk Modulus (GPa) = 53.66836 54.89460 54.28148
# Shear Modulus (GPa) = -57.10567 18.42666 -19.33950
#
# Velocity S-wave (km/s) = -5.50795 3.12877 -3.20533
# Velocity P-wave (km/s) = 3.45523 6.49732 3.89080
#
# Compressibility (1/GPa) = 0.01863295
#
# Stress axis : x y z
#
# Youngs Moduli (GPa) = 76.51253 86.40209 44.74115
#
# Poissons Ratio (x) = 0.06939 0.34455
# Poissons Ratio (y) = 0.06145 0.25398
# Poissons Ratio (z) = 0.58921 0.49048
#
# Static dielectric constant tensor:
#      x y z
#    x 1.704300 0.000000 0.000000 
#    y 0.000000 1.706150 0.000000 
#    z 0.000000 0.000000 1.651530 
# 
# From -- ./inp_files/9562.got.cif
#   From: 2010.05.17/outbox.cif.g08.bks.cpg/sg54_5_cif.got.tgz:9562.got - 2010.06.03 13:09:01.
