data_PCOD9422625
_publ_section_title
;
Structure prediction by ZEFSAII (Michael W. Deem and Ramdas Pophale) SiO2 
 PCOD9422625
Probable space group: P C C A
;
_chemical_formula_sum "Si O2"
_cell_formula_units_Z 28
_cell_length_a 10.378953
_cell_length_b 6.039364
_cell_length_c 19.965327
_cell_angle_alpha 90.000000
_cell_angle_beta 90.000000
_cell_angle_gamma 90.000000
_cell_volume 1251.472120
_symmetry_space_group_name_H-M "P C C A"
_symmetry_group_IT_number 54
_symmetry_cell_setting 'orthorhombic'
loop_
_space_group_symop_operation_xyz
x,y,z
1/2-x,-y,z
1/2+x,-y,1/2-z
-x,y,1/2-z
-x,-y,-z
1/2+x,y,-z
1/2-x,y,1/2+z
x,-y,1/2+z
loop_
_atom_site_type_symbol
_atom_site_label
_atom_site_fract_x
_atom_site_fract_y
_atom_site_fract_z
Si Si1 0.866988 0.171740 0.272893
Si Si2 0.628981 0.169308 0.066031
Si Si3 0.381044 0.141207 0.580929
Si Si4 0.250000 0.500000 0.831584
O O1 0.881053 0.265696 0.348267
O O2 0.835823 0.352209 0.217362
O O3 0.000000 0.059337 0.250000
O O4 0.750000 0.000000 0.272676
O O5 0.660618 0.352865 0.120444
O O6 0.750000 0.000000 0.067015
O O7 0.501765 0.027034 0.081217
O O8 0.614925 0.264427 0.990387
O O9 0.250000 0.000000 0.579788
#
# Coordination Sequence:
#
# PCOD9422625 Si02
#       4
#     8   8   8   4
#     4  11  24  42  63  91 126 163 203 254 312 371
#     4  10  21  42  64  87 121 165 209 254 305 364
#     4   9  20  40  64  86 120 164 207 253 303 363
#     4  12  24  36  64  96 126 162 204 256 316 370
#
# _framework density 22.373650000000001
#
# number of rings (size 3 to 8) (size 9 to 14) (size 15 to 20)
#    0.000    1.714    0.000    4.286    0.000    6.857 
#    0.000   20.000    0.000    0.000    0.000    0.000 
#    0.000    0.000    0.000    0.000    0.000    0.000 
#
# Total GULP energy -156545.824982 kJ/mol
# GULP energy per Si atom -5590.922321 kJ/mol
# Density = 2.232273 g / cm^3
# Si number density = 22.373650 Si / 1000 Ang^3
#
#
#
# Elastic Constant Matrix: (Units=GPa)
#
#
# Indices 1 2 3 4 5 6 
#
# 1 171.0642 27.5149 44.4617 0.0000 0.0000 0.0000
# 2 27.5149 51.1842 73.1299 0.0000 0.0000 0.0000
# 3 44.4617 73.1299 266.8172 0.0000 0.0000 0.0000
# 4 0.0000 0.0000 0.0000 811.2642 0.0000 0.0000
# 5 0.0000 0.0000 0.0000 0.0000 28.4895 0.0000
# 6 0.0000 0.0000 0.0000 0.0000 0.0000 13.2341
#
#
#
# Elastic Compliance Matrix: (Units=1/GPa)
#
#
# Indices 1 2 3 4 5 6 
#
# 1 0.006406 -0.003153 -0.000203 0.000000 0.000000 0.000000
# 2 -0.003153 0.033665 -0.008701 0.000000 0.000000 0.000000
# 3 -0.000203 -0.008701 0.006167 0.000000 0.000000 0.000000
# 4 0.000000 0.000000 0.000000 0.001233 0.000000 0.000000
# 5 0.000000 0.000000 0.000000 0.000000 0.035101 0.000000
# 6 0.000000 0.000000 0.000000 0.000000 0.000000 0.075562
#
#
# Mechanical properties :
#
#
# Convention : Reuss Voigt Hill
#
# Bulk Modulus (GPa) = 45.20523 86.58651 65.89587
# Shear Modulus (GPa) = 26.36825 193.52818 109.94821
#
# Velocity S-wave (km/s) = 3.43671 9.31053 7.01773
# Velocity P-wave (km/s) = 5.99971 12.42440 9.75608
#
# Compressibility (1/GPa) = 0.02212133
#
# Stress axis : x y z
#
# Youngs Moduli (GPa) = 156.10978 29.70483 162.16260
#
# Poissons Ratio (x) = 0.09367 0.03295
# Poissons Ratio (y) = 0.49224 1.41104
# Poissons Ratio (z) = 0.03172 0.25847
#
# Static dielectric constant tensor:
#      x y z
#    x 1.813990 0.000000 0.000000 
#    y 0.000000 1.902980 0.000000 
#    z 0.000000 0.000000 1.886250 
# 
# From -- ./inp_files/20779.got.cif
#   From: 2010.05.17/outbox.cif.g08.bks.cpg/sg54_11_cif.got.tgz:20779.got - 2010.06.03 13:09:01.
