data_PCOD9422816
_publ_section_title
;
Structure prediction by ZEFSAII (Michael W. Deem and Ramdas Pophale) SiO2 
 PCOD9422816
Probable space group: P C C A
;
_chemical_formula_sum "Si O2"
_cell_formula_units_Z 28
_cell_length_a 7.574824
_cell_length_b 5.433458
_cell_length_c 29.483111
_cell_angle_alpha 90.000000
_cell_angle_beta 90.000000
_cell_angle_gamma 90.000000
_cell_volume 1213.450789
_symmetry_space_group_name_H-M "P C C A"
_symmetry_group_IT_number 54
_symmetry_cell_setting 'orthorhombic'
loop_
_space_group_symop_operation_xyz
x,y,z
1/2-x,-y,z
1/2+x,-y,1/2-z
-x,y,1/2-z
-x,-y,-z
1/2+x,y,-z
1/2-x,y,1/2+z
x,-y,1/2+z
loop_
_atom_site_type_symbol
_atom_site_label
_atom_site_fract_x
_atom_site_fract_y
_atom_site_fract_z
Si Si1 0.750000 0.500000 0.319425
Si Si2 0.965159 0.497486 0.103895
Si Si3 0.540063 0.000357 0.553200
Si Si4 0.700078 0.249583 0.734247
O O1 0.579674 0.533594 0.350516
O O2 0.703456 0.282838 0.283260
O O3 0.750000 0.500000 0.108210
O O4 0.019081 0.258729 0.074482
O O5 0.020749 0.753558 0.079360
O O6 0.750000 0.000000 0.558154
O O7 0.500000 0.000000 0.500000
O O8 0.750000 0.500000 0.709556
O O9 0.500000 0.246752 0.750000
O O10 0.750000 0.000000 0.710094
#
# Coordination Sequence:
#
# PCOD9422816 Si02
#       4
#     4   8   8   8
#     4  10  26  40  72  92 130 170 212 258 338 370
#     4  10  23  40  59  92 127 163 213 265 313 375
#     4  10  22  38  60  89 124 166 214 261 317 369
#     4  10  23  43  66  99 131 166 219 260 331 399
#
# _framework density 23.074691000000001
#
# number of rings (size 3 to 8) (size 9 to 14) (size 15 to 20)
#    0.857    1.143    0.000    1.714    8.000    1.143 
#    0.000    0.000    0.000    0.000    0.000    0.000 
#    0.000    0.000    0.000    0.000    0.000    0.000 
#
# Total GULP energy -156269.414782 kJ/mol
# GULP energy per Si atom -5581.050528 kJ/mol
# Density = 2.302217 g / cm^3
# Si number density = 23.074691 Si / 1000 Ang^3
#
#
#
# Elastic Constant Matrix: (Units=GPa)
#
#
# Indices 1 2 3 4 5 6 
#
# 1 69.7113 23.2474 -1.5122 0.0000 0.0000 0.0000
# 2 23.2474 200.9945 33.3062 0.0000 0.0000 0.0000
# 3 -1.5122 33.3062 115.6233 0.0000 0.0000 0.0000
# 4 0.0000 0.0000 0.0000 -10.4372 0.0000 0.0000
# 5 0.0000 0.0000 0.0000 0.0000 41.5361 0.0000
# 6 0.0000 0.0000 0.0000 0.0000 0.0000 7.6930
#
#
#
# Elastic Compliance Matrix: (Units=1/GPa)
#
#
# Indices 1 2 3 4 5 6 
#
# 1 0.014979 -0.001853 0.000730 0.000000 0.000000 0.000000
# 2 -0.001853 0.005454 -0.001595 0.000000 0.000000 0.000000
# 3 0.000730 -0.001595 0.009118 0.000000 0.000000 0.000000
# 4 0.000000 0.000000 0.000000 -0.095812 0.000000 0.000000
# 5 0.000000 0.000000 0.000000 0.000000 0.024075 0.000000
# 6 0.000000 0.000000 0.000000 0.000000 0.000000 0.129989
#
#
# Mechanical properties :
#
#
# Convention : Reuss Voigt Hill
#
# Bulk Modulus (GPa) = 41.47174 55.15685 48.31430
# Shear Modulus (GPa) = 49.36870 29.84423 39.60647
#
# Velocity S-wave (km/s) = 4.63051 3.60025 4.14750
# Velocity P-wave (km/s) = 6.82647 6.42168 6.62716
#
# Compressibility (1/GPa) = 0.02411280
#
# Stress axis : x y z
#
# Youngs Moduli (GPa) = 66.76107 183.35229 109.67489
#
# Poissons Ratio (x) = 0.33983 -0.08004
# Poissons Ratio (y) = 0.12374 0.17496
# Poissons Ratio (z) = -0.04872 0.29250
#
# Static dielectric constant tensor:
#      x y z
#    x 1.843110 0.000000 0.000000 
#    y 0.000000 2.170750 0.000000 
#    z 0.000000 0.000000 1.866830 
# 
# From -- ./inp_files/27344.got.cif
#   From: 2010.05.17/outbox.cif.g08.bks.cpg/sg54_14_cif.got.tgz:27344.got - 2010.06.03 13:09:01.
