data_PCOD9422243
_publ_section_title
;
Structure prediction by ZEFSAII (Michael W. Deem and Ramdas Pophale) SiO2 
 PCOD9422243
Probable space group: P C C A
;
_chemical_formula_sum "Si O2"
_cell_formula_units_Z 56
_cell_length_a 21.158670
_cell_length_b 13.449062
_cell_length_c 8.160925
_cell_angle_alpha 90.000000
_cell_angle_beta 90.000000
_cell_angle_gamma 90.000000
_cell_volume 2322.307622
_symmetry_space_group_name_H-M "P C C A"
_symmetry_group_IT_number 54
_symmetry_cell_setting 'orthorhombic'
loop_
_space_group_symop_operation_xyz
x,y,z
1/2-x,-y,z
1/2+x,-y,1/2-z
-x,y,1/2-z
-x,-y,-z
1/2+x,y,-z
1/2-x,y,1/2+z
x,-y,1/2+z
loop_
_atom_site_type_symbol
_atom_site_label
_atom_site_fract_x
_atom_site_fract_y
_atom_site_fract_z
Si Si1 0.666163 0.317059 0.318288
Si Si2 0.478652 0.862474 0.071690
Si Si3 0.067525 0.535177 0.317023
Si Si4 0.152123 0.926482 0.661331
Si Si5 0.077608 0.652802 0.646967
Si Si6 0.706062 0.739557 0.453938
Si Si7 0.613087 0.877997 0.965118
O O1 0.625421 0.414812 0.281701
O O2 0.731170 0.322214 0.418153
O O3 0.625667 0.233671 0.409487
O O4 0.686088 0.273907 0.140960
O O5 0.500000 0.900898 0.250000
O O6 0.408404 0.902051 0.042714
O O7 0.467164 0.744480 0.097257
O O8 0.536718 0.889528 0.955889
O O9 0.073623 0.574361 0.499946
O O10 0.066962 0.415713 0.304429
O O11 0.000000 0.570890 0.250000
O O12 0.208171 0.856152 0.596137
O O13 0.135210 0.895086 0.846852
O O14 0.152817 0.044635 0.644177
O O15 0.147799 0.697454 0.652094
#
# Coordination Sequence:
#
# PCOD9422243 Si02
#       7
#     8   8   8   8   8   8   8
#     4  11  24  41  64  89 125 167 211 267 318 389
#     4   9  19  36  59  89 125 165 207 258 316 373
#     4  11  23  39  63  95 124 161 207 258 320 379
#     4  10  21  37  60  89 124 163 208 259 308 377
#     4  10  22  39  62  89 125 161 205 261 312 379
#     4  10  23  43  60  88 121 163 213 258 320 379
#     4  11  21  37  61  91 123 164 207 256 317 370
#
# _framework density 24.113944
#
# number of rings (size 3 to 8) (size 9 to 14) (size 15 to 20)
#    0.000    1.714    0.000    3.857    0.000    5.714 
#    0.000   12.143    0.000    0.000    0.000    0.000 
#    0.000    0.000    0.000    0.000    0.000    0.000 
#
# Total GULP energy -313124.340655 kJ/mol
# GULP energy per Si atom -5591.506083 kJ/mol
# Density = 2.405906 g / cm^3
# Si number density = 24.113944 Si / 1000 Ang^3
#
#
#
# Elastic Constant Matrix: (Units=GPa)
#
#
# Indices 1 2 3 4 5 6 
#
# 1 102.5306 16.4612 13.0312 0.0000 0.0000 0.0000
# 2 16.4612 97.7704 12.8879 0.0000 0.0000 0.0000
# 3 13.0312 12.8879 55.3616 0.0000 0.0000 0.0000
# 4 0.0000 0.0000 0.0000 41.2231 0.0000 0.0000
# 5 0.0000 0.0000 0.0000 0.0000 20.2653 0.0000
# 6 0.0000 0.0000 0.0000 0.0000 0.0000 22.1708
#
#
#
# Elastic Compliance Matrix: (Units=1/GPa)
#
#
# Indices 1 2 3 4 5 6 
#
# 1 0.010250 -0.001452 -0.002075 0.000000 0.000000 0.000000
# 2 -0.001452 0.010758 -0.002162 0.000000 0.000000 0.000000
# 3 -0.002075 -0.002162 0.019055 0.000000 0.000000 0.000000
# 4 0.000000 0.000000 0.000000 0.024258 0.000000 0.000000
# 5 0.000000 0.000000 0.000000 0.000000 0.049345 0.000000
# 6 0.000000 0.000000 0.000000 0.000000 0.000000 0.045104
#
#
# Mechanical properties :
#
#
# Convention : Reuss Voigt Hill
#
# Bulk Modulus (GPa) = 34.86298 37.82480 36.34389
# Shear Modulus (GPa) = 27.82253 30.95065 29.38659
#
# Velocity S-wave (km/s) = 3.40044 3.58651 3.49471
# Velocity P-wave (km/s) = 5.46867 5.73329 5.60254
#
# Compressibility (1/GPa) = 0.02868372
#
# Stress axis : x y z
#
# Youngs Moduli (GPa) = 97.56076 92.95740 52.48019
#
# Poissons Ratio (x) = 0.13500 0.10888
# Poissons Ratio (y) = 0.14169 0.11349
# Poissons Ratio (z) = 0.20240 0.20102
#
# Static dielectric constant tensor:
#      x y z
#    x 1.979680 0.000000 0.000000 
#    y 0.000000 1.950490 0.000000 
#    z 0.000000 0.000000 1.918100 
# 
# From -- ./inp_files/4816.got.cif
#   From: 2010.05.17/outbox.cif.g08.bks.cpg/sg54_3_cif.got.tgz:4816.got - 2010.06.03 13:09:01.
