data_PCOD9422296
_publ_section_title
;
Structure prediction by ZEFSAII (Michael W. Deem and Ramdas Pophale) SiO2 
 PCOD9422296
Probable space group: P C C A
;
_chemical_formula_sum "Si O2"
_cell_formula_units_Z 48
_cell_length_a 5.205860
_cell_length_b 15.604679
_cell_length_c 25.292928
_cell_angle_alpha 90.000000
_cell_angle_beta 90.000000
_cell_angle_gamma 90.000000
_cell_volume 2054.690588
_symmetry_space_group_name_H-M "P C C A"
_symmetry_group_IT_number 54
_symmetry_cell_setting 'orthorhombic'
loop_
_space_group_symop_operation_xyz
x,y,z
1/2-x,-y,z
1/2+x,-y,1/2-z
-x,y,1/2-z
-x,-y,-z
1/2+x,y,-z
1/2-x,y,1/2+z
x,-y,1/2+z
loop_
_atom_site_type_symbol
_atom_site_label
_atom_site_fract_x
_atom_site_fract_y
_atom_site_fract_z
Si Si1 0.649741 0.914394 0.535973
Si Si2 0.494267 0.247469 0.686303
Si Si3 0.159243 0.273831 0.965669
Si Si4 0.501947 0.550604 0.586660
Si Si5 0.995004 0.358288 0.686975
Si Si6 0.001531 0.946686 0.685634
O O1 0.363973 0.916169 0.511285
O O2 0.650721 0.820099 0.561210
O O3 0.750000 0.000000 0.565270
O O4 0.500000 0.240099 0.750000
O O5 0.239572 0.299669 0.672898
O O6 0.494725 0.150637 0.665293
O O7 0.740979 0.304113 0.673438
O O8 0.053144 0.353010 0.932447
O O9 0.454803 0.277701 0.985427
O O10 0.250000 0.500000 0.568403
O O11 0.495661 0.558641 0.650302
O O12 0.750000 0.500000 0.568433
O O13 0.000000 0.375816 0.750000
O O14 0.000000 0.941646 0.750000
O O15 0.250000 0.000000 0.668450
O O16 0.750000 0.000000 0.673426
#
# Coordination Sequence:
#
# PCOD9422296 Si02
#       6
#     8   8   8   8   8   8
#     4   8  14  27  51  83 114 146 185 225 271 331
#     4   9  17  31  52  76 103 141 187 235 292 348
#     4  10  21  38  61  89 122 158 192 234 291 352
#     4  12  26  41  60  87 116 153 201 248 300 363
#     4  10  21  38  58  79 107 147 197 253 305 352
#     4   9  15  23  40  70 104 136 177 228 278 338
#
# _framework density 23.361183
#
# number of rings (size 3 to 8) (size 9 to 14) (size 15 to 20)
#    0.000    2.333    0.000    3.000    0.000    6.667 
#    0.000    0.000    0.000    3.000    0.000    9.333 
#    0.000    0.000    0.000    1.500    0.000    0.167 
#
# Total GULP energy -267983.975526 kJ/mol
# GULP energy per Si atom -5582.999490 kJ/mol
# Density = 2.330801 g / cm^3
# Si number density = 23.361183 Si / 1000 Ang^3
#
#
#
# Elastic Constant Matrix: (Units=GPa)
#
#
# Indices 1 2 3 4 5 6 
#
# 1 177.5684 42.6441 5.8526 0.0000 0.0000 0.0000
# 2 42.6441 135.8592 29.6877 0.0000 0.0000 0.0000
# 3 5.8526 29.6877 50.8836 0.0000 0.0000 0.0000
# 4 0.0000 0.0000 0.0000 8.3965 0.0000 0.0000
# 5 0.0000 0.0000 0.0000 0.0000 3.0317 0.0000
# 6 0.0000 0.0000 0.0000 0.0000 0.0000 36.8647
#
#
#
# Elastic Compliance Matrix: (Units=1/GPa)
#
#
# Indices 1 2 3 4 5 6 
#
# 1 0.006101 -0.002019 0.000476 0.000000 0.000000 0.000000
# 2 -0.002019 0.009104 -0.005080 0.000000 0.000000 0.000000
# 3 0.000476 -0.005080 0.022562 0.000000 0.000000 0.000000
# 4 0.000000 0.000000 0.000000 0.119097 0.000000 0.000000
# 5 0.000000 0.000000 0.000000 0.000000 0.329851 0.000000
# 6 0.000000 0.000000 0.000000 0.000000 0.000000 0.027126
#
#
# Mechanical properties :
#
#
# Convention : Reuss Voigt Hill
#
# Bulk Modulus (GPa) = 40.77973 57.85332 49.31653
# Shear Modulus (GPa) = 9.34126 28.73369 19.03748
#
# Velocity S-wave (km/s) = 2.00183 3.51091 2.85778
# Velocity P-wave (km/s) = 4.77882 6.42291 5.66087
#
# Compressibility (1/GPa) = 0.02452198
#
# Stress axis : x y z
#
# Youngs Moduli (GPa) = 163.91252 109.83835 44.32310
#
# Poissons Ratio (x) = 0.22177 -0.02111
# Poissons Ratio (y) = 0.33094 0.22514
# Poissons Ratio (z) = -0.07807 0.55794
#
# Static dielectric constant tensor:
#      x y z
#    x 1.812420 0.000000 0.000000 
#    y 0.000000 1.899990 0.000000 
#    z 0.000000 0.000000 1.924160 
# 
# From -- ./inp_files/25360.got.cif
#   From: 2010.05.17/outbox.cif.g08.bks.cpg/sg54_13_cif.got.tgz:25360.got - 2010.06.03 13:09:01.
