data_PCOD9422203
_publ_section_title
;
Structure prediction by ZEFSAII (Michael W. Deem and Ramdas Pophale) SiO2 
 PCOD9422203
Probable space group: P C C A
;
_chemical_formula_sum "Si O2"
_cell_formula_units_Z 64
_cell_length_a 16.470866
_cell_length_b 15.587082
_cell_length_c 12.020751
_cell_angle_alpha 90.000000
_cell_angle_beta 90.000000
_cell_angle_gamma 90.000000
_cell_volume 3086.120329
_symmetry_space_group_name_H-M "P C C A"
_symmetry_group_IT_number 54
_symmetry_cell_setting 'orthorhombic'
loop_
_space_group_symop_operation_xyz
x,y,z
1/2-x,-y,z
1/2+x,-y,1/2-z
-x,y,1/2-z
-x,-y,-z
1/2+x,y,-z
1/2-x,y,1/2+z
x,-y,1/2+z
loop_
_atom_site_type_symbol
_atom_site_label
_atom_site_fract_x
_atom_site_fract_y
_atom_site_fract_z
Si Si1 0.584200 0.353381 0.811517
Si Si2 0.132698 0.642154 0.108704
Si Si3 0.906529 0.837256 0.729544
Si Si4 0.333932 0.511784 0.788494
Si Si5 0.244848 0.098198 0.658456
Si Si6 0.057053 0.357299 0.928670
Si Si7 0.802263 0.775795 0.542839
Si Si8 0.149864 0.219120 0.800900
O O1 0.500000 0.371506 0.750000
O O2 0.601567 0.254520 0.789392
O O3 0.642352 0.417461 0.748688
O O4 0.579985 0.366449 0.942870
O O5 0.173390 0.563867 0.172180
O O6 0.137541 0.720771 0.195183
O O7 0.038388 0.625914 0.085281
O O8 0.175519 0.682237 0.002536
O O9 0.832016 0.889774 0.781119
O O10 0.881354 0.818406 0.601344
O O11 0.000000 0.866431 0.750000
O O12 0.250000 0.500000 0.851413
O O13 0.396288 0.569841 0.858035
O O14 0.232597 0.161675 0.553338
O O15 0.171935 0.125758 0.745605
O O16 0.250000 0.000000 0.621240
O O17 0.081368 0.261055 0.883207
O O18 0.732859 0.763434 0.633937
#
# Coordination Sequence:
#
# PCOD9422203 Si02
#       8
#     8   8   8   8   8   8   8   8
#     4  11  24  41  63  90 124 167 214 267 316 368
#     4  10  21  41  61  88 125 163 216 266 306 376
#     4  10  22  41  64  93 127 163 213 262 315 381
#     4  11  26  38  58  90 131 166 215 263 313 368
#     4  10  22  41  64  96 130 165 208 257 314 387
#     4  11  23  43  66  89 122 170 214 262 320 368
#     4  10  21  36  66  90 124 167 207 257 325 371
#     4   9  20  37  64  89 120 160 208 253 311 371
#
# _framework density 20.738011
#
# number of rings (size 3 to 8) (size 9 to 14) (size 15 to 20)
#    0.000    1.750    0.000    4.500   10.500    5.500 
#    0.000    3.125    0.000    0.000    0.000    0.000 
#    0.000    0.000    0.000    0.000    0.000    0.000 
#
# Total GULP energy -356772.850638 kJ/mol
# GULP energy per Si atom -5574.575791 kJ/mol
# Density = 2.069081 g / cm^3
# Si number density = 20.738011 Si / 1000 Ang^3
#
#
#
# Elastic Constant Matrix: (Units=GPa)
#
#
# Indices 1 2 3 4 5 6 
#
# 1 70.2042 -45.5395 9.9729 0.0000 0.0000 0.0000
# 2 -45.5395 138.6734 -14.6391 0.0000 0.0000 0.0000
# 3 9.9729 -14.6391 85.5247 0.0000 0.0000 0.0000
# 4 0.0000 0.0000 0.0000 203.4342 0.0000 0.0000
# 5 0.0000 0.0000 0.0000 0.0000 34.7475 0.0000
# 6 0.0000 0.0000 0.0000 0.0000 0.0000 14.3640
#
#
#
# Elastic Compliance Matrix: (Units=1/GPa)
#
#
# Indices 1 2 3 4 5 6 
#
# 1 0.018204 0.005860 -0.001120 0.000000 0.000000 0.000000
# 2 0.005860 0.009230 0.000897 0.000000 0.000000 0.000000
# 3 -0.001120 0.000897 0.011977 0.000000 0.000000 0.000000
# 4 0.000000 0.000000 0.000000 0.004916 0.000000 0.000000
# 5 0.000000 0.000000 0.000000 0.000000 0.028779 0.000000
# 6 0.000000 0.000000 0.000000 0.000000 0.000000 0.069618
#
#
# Mechanical properties :
#
#
# Convention : Reuss Voigt Hill
#
# Bulk Modulus (GPa) = 19.72967 21.55452 20.64209
# Shear Modulus (GPa) = 33.70507 73.48300 53.59403
#
# Velocity S-wave (km/s) = 4.03585 5.95910 5.08915
# Velocity P-wave (km/s) = 5.59034 7.60027 6.67143
#
# Compressibility (1/GPa) = 0.05068510
#
# Stress axis : x y z
#
# Youngs Moduli (GPa) = 54.93154 108.33952 83.49633
#
# Poissons Ratio (x) = -0.63487 0.09349
# Poissons Ratio (y) = -0.32190 -0.07486
# Poissons Ratio (z) = 0.06151 -0.09714
#
# Static dielectric constant tensor:
#      x y z
#    x 1.822780 0.000000 0.000000 
#    y 0.000000 1.647560 0.000000 
#    z 0.000000 0.000000 1.775750 
# 
# From -- ./inp_files/9084.got.cif
#   From: 2010.05.17/outbox.cif.g08.bks.cpg/sg54_5_cif.got.tgz:9084.got - 2010.06.03 13:09:01.
