data_PCOD9422332
_publ_section_title
;
Structure prediction by ZEFSAII (Michael W. Deem and Ramdas Pophale) SiO2 
 PCOD9422332
Probable space group: P C C A
;
_chemical_formula_sum "Si O2"
_cell_formula_units_Z 28
_cell_length_a 18.879939
_cell_length_b 12.548992
_cell_length_c 5.398612
_cell_angle_alpha 90.000000
_cell_angle_beta 90.000000
_cell_angle_gamma 90.000000
_cell_volume 1279.061848
_symmetry_space_group_name_H-M "P C C A"
_symmetry_group_IT_number 54
_symmetry_cell_setting 'orthorhombic'
loop_
_space_group_symop_operation_xyz
x,y,z
1/2-x,-y,z
1/2+x,-y,1/2-z
-x,y,1/2-z
-x,-y,-z
1/2+x,y,-z
1/2-x,y,1/2+z
x,-y,1/2+z
loop_
_atom_site_type_symbol
_atom_site_label
_atom_site_fract_x
_atom_site_fract_y
_atom_site_fract_z
Si Si1 0.643683 0.567921 0.660313
Si Si2 0.075295 0.719488 0.665767
Si Si3 0.000000 0.069283 0.250000
Si Si4 0.228422 0.727730 0.847217
O O1 0.632655 0.495896 0.413560
O O2 0.593149 0.669877 0.602637
O O3 0.721759 0.621734 0.657221
O O4 0.063028 0.845621 0.698250
O O5 0.146375 0.700208 0.823494
O O6 0.000000 0.671342 0.750000
O O7 0.000000 0.000000 0.500000
O O8 0.251756 0.786058 0.597861
#
# Coordination Sequence:
#
# PCOD9422332 Si02
#       4
#     8   8   4   8
#     4  11  23  39  61  93 137 182 213 249 320 399
#     4   9  23  44  66 103 129 180 225 292 322 404
#     4  10  24  46  72  96 128 174 224 288 368 404
#     4  10  21  38  61  88 130 174 219 256 319 389
#
# _framework density 21.891044000000001
#
# number of rings (size 3 to 8) (size 9 to 14) (size 15 to 20)
#    0.857    1.143    0.000    3.429    0.000   21.714 
#    0.000    0.000    0.000   20.571    0.000    0.000 
#    0.000    0.000    0.000    0.000    0.000    0.000 
#
# Total GULP energy -155895.045497 kJ/mol
# GULP energy per Si atom -5567.680196 kJ/mol
# Density = 2.184122 g / cm^3
# Si number density = 21.891044 Si / 1000 Ang^3
#
#
#
# Elastic Constant Matrix: (Units=GPa)
#
#
# Indices 1 2 3 4 5 6 
#
# 1 115.3975 0.7735 13.8827 0.0000 0.0000 0.0000
# 2 0.7735 87.3228 32.0293 0.0000 0.0000 0.0000
# 3 13.8827 32.0293 163.0503 0.0000 0.0000 0.0000
# 4 0.0000 0.0000 0.0000 22.7563 0.0000 0.0000
# 5 0.0000 0.0000 0.0000 0.0000 34.0693 0.0000
# 6 0.0000 0.0000 0.0000 0.0000 0.0000 -3.5951
#
#
#
# Elastic Compliance Matrix: (Units=1/GPa)
#
#
# Indices 1 2 3 4 5 6 
#
# 1 0.008759 0.000211 -0.000787 0.000000 0.000000 0.000000
# 2 0.000211 0.012346 -0.002443 0.000000 0.000000 0.000000
# 3 -0.000787 -0.002443 0.006680 0.000000 0.000000 0.000000
# 4 0.000000 0.000000 0.000000 0.043944 0.000000 0.000000
# 5 0.000000 0.000000 0.000000 0.000000 0.029352 0.000000
# 6 0.000000 0.000000 0.000000 0.000000 0.000000 -0.278158
#
#
# Mechanical properties :
#
#
# Convention : Reuss Voigt Hill
#
# Bulk Modulus (GPa) = 45.98442 51.01572 48.50007
# Shear Modulus (GPa) = -30.52698 31.91844 0.69573
#
# Velocity S-wave (km/s) = -3.73835 3.82260 0.56436
# Velocity P-wave (km/s) = 1.55499 6.54507 4.75689
#
# Compressibility (1/GPa) = 0.02174650
#
# Stress axis : x y z
#
# Youngs Moduli (GPa) = 114.16836 80.99760 149.69955
#
# Poissons Ratio (x) = -0.01710 0.11785
# Poissons Ratio (y) = -0.02411 0.36575
# Poissons Ratio (z) = 0.08988 0.19789
#
# Static dielectric constant tensor:
#      x y z
#    x 1.852270 0.000000 0.000000 
#    y 0.000000 1.843070 0.000000 
#    z 0.000000 0.000000 1.929290 
# 
# From -- ./inp_files/839.got.cif
#   From: 2010.05.17/outbox.cif.g08.bks.cpg/sg54_1_cif.got.tgz:839.got - 2010.06.03 13:09:01.
