data_PCOD9422530
_publ_section_title
;
Structure prediction by ZEFSAII (Michael W. Deem and Ramdas Pophale) SiO2 
 PCOD9422530
Probable space group: P C C A
;
_chemical_formula_sum "Si O2"
_cell_formula_units_Z 32
_cell_length_a 4.942193
_cell_length_b 22.945727
_cell_length_c 12.319686
_cell_angle_alpha 90.000000
_cell_angle_beta 90.000000
_cell_angle_gamma 90.000000
_cell_volume 1397.079636
_symmetry_space_group_name_H-M "P C C A"
_symmetry_group_IT_number 54
_symmetry_cell_setting 'orthorhombic'
loop_
_space_group_symop_operation_xyz
x,y,z
1/2-x,-y,z
1/2+x,-y,1/2-z
-x,y,1/2-z
-x,-y,-z
1/2+x,y,-z
1/2-x,y,1/2+z
x,-y,1/2+z
loop_
_atom_site_type_symbol
_atom_site_label
_atom_site_fract_x
_atom_site_fract_y
_atom_site_fract_z
Si Si1 0.000000 0.284881 0.250000
Si Si2 0.268723 0.876527 0.566901
Si Si3 0.000000 0.207683 0.750000
Si Si4 0.750000 0.000000 0.326980
Si Si5 0.247879 0.626813 0.577722
Si Si6 0.250000 0.500000 0.581394
O O1 0.750378 0.246236 0.205824
O O2 0.853511 0.324466 0.340175
O O3 0.456699 0.867485 0.461929
O O4 0.369748 0.832909 0.658358
O O5 0.315518 0.943051 0.603561
O O6 0.500000 0.984801 0.250000
O O7 0.545605 0.630634 0.525897
O O8 0.236285 0.563121 0.636454
O O9 0.500000 0.500000 0.500000
#
# Coordination Sequence:
#
# PCOD9422530 Si02
#       6
#     4   8   4   4   8   4
#     4  12  26  42  66  96 130 182 230 268 330 396
#     4  12  26  46  72 101 133 180 224 274 342 404
#     4  12  28  46  64  96 138 176 230 282 318 390
#     4  12  24  44  76 104 142 172 210 286 348 396
#     4  10  21  40  65  93 129 168 214 273 330 391
#     4   8  16  34  60  90 122 158 202 264 332 386
#
# _framework density 22.904921999999999
#
# number of rings (size 3 to 8) (size 9 to 14) (size 15 to 20)
#    0.000    1.000    1.250    5.250    1.750    6.000 
#    0.000    8.750    0.000    0.000    0.000    0.000 
#    0.000    0.000    0.000    0.000    0.000    0.000 
#
# Total GULP energy -179019.343396 kJ/mol
# GULP energy per Si atom -5594.354481 kJ/mol
# Density = 2.285279 g / cm^3
# Si number density = 22.904922 Si / 1000 Ang^3
#
#
#
# Elastic Constant Matrix: (Units=GPa)
#
#
# Indices 1 2 3 4 5 6 
#
# 1 117.1106 22.9329 -2.0199 0.0000 0.0000 0.0000
# 2 22.9329 144.5902 33.7195 0.0000 0.0000 0.0000
# 3 -2.0199 33.7195 40.9919 0.0000 0.0000 0.0000
# 4 0.0000 0.0000 0.0000 -8.8004 0.0000 0.0000
# 5 0.0000 0.0000 0.0000 0.0000 34.6328 0.0000
# 6 0.0000 0.0000 0.0000 0.0000 0.0000 25.3262
#
#
#
# Elastic Compliance Matrix: (Units=1/GPa)
#
#
# Indices 1 2 3 4 5 6 
#
# 1 0.008942 -0.001882 0.001989 0.000000 0.000000 0.000000
# 2 -0.001882 0.008954 -0.007458 0.000000 0.000000 0.000000
# 3 0.001989 -0.007458 0.030628 0.000000 0.000000 0.000000
# 4 0.000000 0.000000 0.000000 -0.113632 0.000000 0.000000
# 5 0.000000 0.000000 0.000000 0.000000 0.028874 0.000000
# 6 0.000000 0.000000 0.000000 0.000000 0.000000 0.039485
#
#
# Mechanical properties :
#
#
# Convention : Reuss Voigt Hill
#
# Bulk Modulus (GPa) = 29.56753 45.77308 37.67030
# Shear Modulus (GPa) = 171.07179 26.76908 98.92043
#
# Velocity S-wave (km/s) = 8.65159 3.42234 6.57884
# Velocity P-wave (km/s) = 10.61776 5.97025 8.61338
#
# Compressibility (1/GPa) = 0.03382088
#
# Stress axis : x y z
#
# Youngs Moduli (GPa) = 111.83463 111.68347 32.64989
#
# Poissons Ratio (x) = 0.21019 -0.06493
# Poissons Ratio (y) = 0.21047 0.24351
# Poissons Ratio (z) = -0.22241 0.83295
#
# Static dielectric constant tensor:
#      x y z
#    x 1.792370 0.000000 0.000000 
#    y 0.000000 1.914900 0.000000 
#    z 0.000000 0.000000 1.813510 
# 
# From -- ./inp_files/6310.got.cif
#   From: 2010.05.17/outbox.cif.g08.bks.cpg/sg54_4_cif.got.tgz:6310.got - 2010.06.03 13:09:01.
