data_PCOD9422842
_publ_section_title
;
Structure prediction by ZEFSAII (Michael W. Deem and Ramdas Pophale) SiO2 
 PCOD9422842
Probable space group: P C C A
;
_chemical_formula_sum "Si O2"
_cell_formula_units_Z 40
_cell_length_a 27.850072
_cell_length_b 7.867196
_cell_length_c 7.941722
_cell_angle_alpha 90.000000
_cell_angle_beta 90.000000
_cell_angle_gamma 90.000000
_cell_volume 1740.046975
_symmetry_space_group_name_H-M "P C C A"
_symmetry_group_IT_number 54
_symmetry_cell_setting 'orthorhombic'
loop_
_space_group_symop_operation_xyz
x,y,z
1/2-x,-y,z
1/2+x,-y,1/2-z
-x,y,1/2-z
-x,-y,-z
1/2+x,y,-z
1/2-x,y,1/2+z
x,-y,1/2+z
loop_
_atom_site_type_symbol
_atom_site_label
_atom_site_fract_x
_atom_site_fract_y
_atom_site_fract_z
Si Si1 0.849249 0.852854 0.853978
Si Si2 0.850910 0.394330 0.030971
Si Si3 0.250000 0.500000 0.839331
Si Si4 0.432955 0.668926 0.029141
Si Si5 0.687616 0.208676 0.225029
Si Si6 0.500000 0.434640 0.250000
O O1 0.853754 0.729847 0.691481
O O2 0.905224 0.840893 0.917416
O O3 0.820838 0.018383 0.791219
O O4 0.822275 0.804102 0.026466
O O5 0.891312 0.537058 0.028044
O O6 0.849719 0.307101 0.847938
O O7 0.797958 0.469474 0.056804
O O8 0.263334 0.681491 0.751820
O O9 0.461138 0.563312 0.170935
O O10 0.472237 0.681637 0.883251
#
# Coordination Sequence:
#
# PCOD9422842 Si02
#       6
#     8   8   4   8   8   4
#     4  12  25  47  73 107 155 207 250 322 396 456
#     4  12  25  47  75 109 151 204 262 316 394 467
#     4  12  28  48  78 110 146 210 262 314 382 492
#     4  11  21  44  75 114 151 202 261 335 388 469
#     4  12  27  47  72 109 153 201 261 316 387 467
#     4  10  22  38  78 120 146 196 284 322 394 476
#
# _framework density 22.987886
#
# number of rings (size 3 to 8) (size 9 to 14) (size 15 to 20)
#    0.000    0.400    6.000    3.000    2.800    0.800 
#    0.000    0.000    0.000   20.400    0.000    0.000 
#    0.000    0.000    0.000    0.000    0.000    0.000 
#
# Total GULP energy -222917.378192 kJ/mol
# GULP energy per Si atom -5572.934455 kJ/mol
# Density = 2.293556 g / cm^3
# Si number density = 22.987886 Si / 1000 Ang^3
#
#
#
# Elastic Constant Matrix: (Units=GPa)
#
#
# Indices 1 2 3 4 5 6 
#
# 1 105.8967 45.2218 36.0880 0.0000 0.0000 0.0000
# 2 45.2218 120.7669 48.2953 0.0000 0.0000 0.0000
# 3 36.0880 48.2953 134.6588 0.0000 0.0000 0.0000
# 4 0.0000 0.0000 0.0000 9.1636 0.0000 0.0000
# 5 0.0000 0.0000 0.0000 0.0000 49.2488 0.0000
# 6 0.0000 0.0000 0.0000 0.0000 0.0000 26.1658
#
#
#
# Elastic Compliance Matrix: (Units=1/GPa)
#
#
# Indices 1 2 3 4 5 6 
#
# 1 0.011607 -0.003622 -0.001812 0.000000 0.000000 0.000000
# 2 -0.003622 0.010797 -0.002902 0.000000 0.000000 0.000000
# 3 -0.001812 -0.002902 0.008952 0.000000 0.000000 0.000000
# 4 0.000000 0.000000 0.000000 0.109127 0.000000 0.000000
# 5 0.000000 0.000000 0.000000 0.000000 0.020305 0.000000
# 6 0.000000 0.000000 0.000000 0.000000 0.000000 0.038218
#
#
# Mechanical properties :
#
#
# Convention : Reuss Voigt Hill
#
# Bulk Modulus (GPa) = 68.09157 68.94807 68.51982
# Shear Modulus (GPa) = 22.66826 32.36346 27.51586
#
# Velocity S-wave (km/s) = 3.14362 3.75620 3.46348
# Velocity P-wave (km/s) = 6.54686 6.99074 6.77244
#
# Compressibility (1/GPa) = 0.01468611
#
# Stress axis : x y z
#
# Youngs Moduli (GPa) = 86.15302 92.61778 111.70186
#
# Poissons Ratio (x) = 0.33545 0.20237
# Poissons Ratio (y) = 0.31204 0.32413
# Poissons Ratio (z) = 0.15608 0.26875
#
# Static dielectric constant tensor:
#      x y z
#    x 1.860790 0.000000 0.000000 
#    y 0.000000 1.959540 0.000000 
#    z 0.000000 0.000000 1.944240 
# 
# From -- ./inp_files/5459.got.cif
#   From: 2010.05.17/outbox.cif.g08.bks.cpg/sg54_3_cif.got.tgz:5459.got - 2010.06.03 13:09:01.
