data_PCOD9422312
_publ_section_title
;
Structure prediction by ZEFSAII (Michael W. Deem and Ramdas Pophale) SiO2 
 PCOD9422312
Probable space group: P C C A
;
_chemical_formula_sum "Si O2"
_cell_formula_units_Z 40
_cell_length_a 4.801438
_cell_length_b 29.740592
_cell_length_c 11.449122
_cell_angle_alpha 90.000000
_cell_angle_beta 90.000000
_cell_angle_gamma 90.000000
_cell_volume 1634.907242
_symmetry_space_group_name_H-M "P C C A"
_symmetry_group_IT_number 54
_symmetry_cell_setting 'orthorhombic'
loop_
_space_group_symop_operation_xyz
x,y,z
1/2-x,-y,z
1/2+x,-y,1/2-z
-x,y,1/2-z
-x,-y,-z
1/2+x,y,-z
1/2-x,y,1/2+z
x,-y,1/2+z
loop_
_atom_site_type_symbol
_atom_site_label
_atom_site_fract_x
_atom_site_fract_y
_atom_site_fract_z
Si Si1 0.750000 0.000000 0.088470
Si Si2 0.000000 0.865643 0.750000
Si Si3 0.000000 0.529963 0.750000
Si Si4 0.134199 0.302105 0.418285
Si Si5 0.769289 0.601626 0.080490
Si Si6 0.270113 0.794085 0.919437
Si Si7 0.000000 0.924547 0.250000
O O1 0.681958 0.042847 0.168114
O O2 0.500000 0.000000 0.000000
O O3 0.835708 0.834345 0.659361
O O4 0.252774 0.894689 0.693437
O O5 0.250000 0.500000 0.696109
O O6 0.837187 0.561429 0.659263
O O7 0.317949 0.302091 0.538217
O O8 0.210023 0.349624 0.361818
O O9 0.210407 0.254631 0.361611
O O10 0.086162 0.599753 0.038641
O O11 0.086738 0.795889 0.038473
#
# Coordination Sequence:
#
# PCOD9422312 Si02
#       7
#     4   4   4   8   8   8   4
#     4  12  26  48  76  96 126 176 216 274 342 366
#     4  12  25  39  64  96 134 172 199 251 320 370
#     4  12  26  39  56  85 113 146 195 244 304 382
#     4   8  16  33  57  83 113 152 201 246 285 349
#     4  10  21  39  61  83 112 152 195 248 304 351
#     4  10  21  38  59  89 128 166 204 244 295 365
#     4  12  27  46  66 103 133 156 226 275 298 398
#
# _framework density 24.46622
#
# number of rings (size 3 to 8) (size 9 to 14) (size 15 to 20)
#    0.000    1.600    0.000    4.800    0.000    8.000 
#    0.000    0.000    0.000   16.800    0.000    0.000 
#    0.000    0.000    0.000    0.000    0.000    0.000 
#
# Total GULP energy -223653.716355 kJ/mol
# GULP energy per Si atom -5591.342909 kJ/mol
# Density = 2.441053 g / cm^3
# Si number density = 24.466220 Si / 1000 Ang^3
#
#
#
# Elastic Constant Matrix: (Units=GPa)
#
#
# Indices 1 2 3 4 5 6 
#
# 1 120.4504 32.9564 2.8741 0.0000 0.0000 0.0000
# 2 32.9564 144.5707 25.1718 0.0000 0.0000 0.0000
# 3 2.8741 25.1718 31.9104 0.0000 0.0000 0.0000
# 4 0.0000 0.0000 0.0000 -34.4759 0.0000 0.0000
# 5 0.0000 0.0000 0.0000 0.0000 31.0266 0.0000
# 6 0.0000 0.0000 0.0000 0.0000 0.0000 -45.4019
#
#
#
# Elastic Compliance Matrix: (Units=1/GPa)
#
#
# Indices 1 2 3 4 5 6 
#
# 1 0.008878 -0.002185 0.000924 0.000000 0.000000 0.000000
# 2 -0.002185 0.008556 -0.006552 0.000000 0.000000 0.000000
# 3 0.000924 -0.006552 0.036423 0.000000 0.000000 0.000000
# 4 0.000000 0.000000 0.000000 -0.029006 0.000000 0.000000
# 5 0.000000 0.000000 0.000000 0.000000 0.032230 0.000000
# 6 0.000000 0.000000 0.000000 0.000000 0.000000 -0.022025
#
#
# Mechanical properties :
#
#
# Convention : Reuss Voigt Hill
#
# Bulk Modulus (GPa) = 26.15716 46.54845 36.35280
# Shear Modulus (GPa) = 78.83165 5.95837 42.39501
#
# Velocity S-wave (km/s) = 5.68248 1.56225 4.16720
# Velocity P-wave (km/s) = 7.33270 4.72452 6.16804
#
# Compressibility (1/GPa) = 0.03823045
#
# Stress axis : x y z
#
# Youngs Moduli (GPa) = 112.63967 116.87845 27.45496
#
# Poissons Ratio (x) = 0.25534 -0.02536
# Poissons Ratio (y) = 0.24608 0.17990
# Poissons Ratio (z) = -0.10405 0.76583
#
# Static dielectric constant tensor:
#      x y z
#    x 2.021330 0.000000 0.000000 
#    y 0.000000 2.023780 0.000000 
#    z 0.000000 0.000000 1.895850 
# 
# From -- ./inp_files/6493.got.cif
#   From: 2010.05.17/outbox.cif.g08.bks.cpg/sg54_4_cif.got.tgz:6493.got - 2010.06.03 13:09:01.
