data_PCOD9422058
_publ_section_title
;
Structure prediction by ZEFSAII (Michael W. Deem and Ramdas Pophale) SiO2 
 PCOD9422058
Probable space group: P C C A
;
_chemical_formula_sum "Si O2"
_cell_formula_units_Z 32
_cell_length_a 8.094988
_cell_length_b 12.335491
_cell_length_c 11.994019
_cell_angle_alpha 90.000000
_cell_angle_beta 90.000000
_cell_angle_gamma 90.000000
_cell_volume 1197.670583
_symmetry_space_group_name_H-M "P C C A"
_symmetry_group_IT_number 54
_symmetry_cell_setting 'orthorhombic'
loop_
_space_group_symop_operation_xyz
x,y,z
1/2-x,-y,z
1/2+x,-y,1/2-z
-x,y,1/2-z
-x,-y,-z
1/2+x,y,-z
1/2-x,y,1/2+z
x,-y,1/2+z
loop_
_atom_site_type_symbol
_atom_site_label
_atom_site_fract_x
_atom_site_fract_y
_atom_site_fract_z
Si Si1 0.756827 0.672933 0.578094
Si Si2 0.250000 0.500000 0.100224
Si Si3 0.017829 0.150423 0.086400
Si Si4 0.250000 0.000000 0.933264
Si Si5 0.000000 0.359639 0.750000
Si Si6 0.000000 0.319553 0.250000
O O1 0.688833 0.592532 0.485838
O O2 0.881910 0.765245 0.532839
O O3 0.610141 0.707439 0.661191
O O4 0.882428 0.617459 0.667031
O O5 0.118062 0.564365 0.174165
O O6 0.100434 0.232495 0.174052
O O7 0.142377 0.082455 0.010826
O O8 0.888354 0.063455 0.135528
#
# Coordination Sequence:
#
# PCOD9422058 Si02
#       6
#     8   4   8   4   4   4
#     4  10  25  48  74 109 154 207 261 325 390 466
#     4  12  28  50  78 106 154 210 266 326 398 478
#     4   9  22  43  71 108 150 197 263 325 389 474
#     4  10  20  42  74 108 146 212 262 320 408 466
#     4  12  28  47  73 114 148 212 272 325 389 486
#     4   8  22  47  69 112 150 194 268 313 389 474
#
# _framework density 26.718533999999998
#
# number of rings (size 3 to 8) (size 9 to 14) (size 15 to 20)
#    1.500    0.500    0.000    1.500    3.500    9.000 
#    4.500    0.000    0.000    0.000    0.000    0.000 
#    0.000    0.000    0.000    0.000    0.000    0.000 
#
# Total GULP energy -178196.726894 kJ/mol
# GULP energy per Si atom -5568.647715 kJ/mol
# Density = 2.665772 g / cm^3
# Si number density = 26.718534 Si / 1000 Ang^3
#
#
#
# Elastic Constant Matrix: (Units=GPa)
#
#
# Indices 1 2 3 4 5 6 
#
# 1 120.7467 50.4416 68.6671 0.0000 0.0000 0.0000
# 2 50.4416 94.0968 52.8241 0.0000 0.0000 0.0000
# 3 68.6671 52.8241 103.9066 0.0000 0.0000 0.0000
# 4 0.0000 0.0000 0.0000 -93.8833 0.0000 0.0000
# 5 0.0000 0.0000 0.0000 0.0000 56.2153 0.0000
# 6 0.0000 0.0000 0.0000 0.0000 0.0000 75.1198
#
#
#
# Elastic Compliance Matrix: (Units=1/GPa)
#
#
# Indices 1 2 3 4 5 6 
#
# 1 0.013932 -0.003218 -0.007571 0.000000 0.000000 0.000000
# 2 -0.003218 0.015615 -0.005812 0.000000 0.000000 0.000000
# 3 -0.007571 -0.005812 0.017582 0.000000 0.000000 0.000000
# 4 0.000000 0.000000 0.000000 -0.010652 0.000000 0.000000
# 5 0.000000 0.000000 0.000000 0.000000 0.017789 0.000000
# 6 0.000000 0.000000 0.000000 0.000000 0.000000 0.013312
#
#
# Mechanical properties :
#
#
# Convention : Reuss Voigt Hill
#
# Bulk Modulus (GPa) = 71.80145 73.62398 72.71272
# Shear Modulus (GPa) = 47.42894 17.27816 32.35355
#
# Velocity S-wave (km/s) = 4.21780 2.54574 3.48358
# Velocity P-wave (km/s) = 7.11698 6.02132 6.59195
#
# Compressibility (1/GPa) = 0.01392730
#
# Stress axis : x y z
#
# Youngs Moduli (GPa) = 71.77974 64.04094 56.87738
#
# Poissons Ratio (x) = 0.20609 0.43060
# Poissons Ratio (y) = 0.23099 0.33055
# Poissons Ratio (z) = 0.54342 0.37218
#
# Static dielectric constant tensor:
#      x y z
#    x 2.112540 0.000000 0.000000 
#    y 0.000000 2.159680 0.000000 
#    z 0.000000 0.000000 2.102740 
# 
# From -- ./inp_files/6781.got.cif
#   From: 2010.05.17/outbox.cif.g08.bks.cpg/sg54_4_cif.got.tgz:6781.got - 2010.06.03 13:09:01.
