data_PCOD9422637
_publ_section_title
;
Structure prediction by ZEFSAII (Michael W. Deem and Ramdas Pophale) SiO2 
 PCOD9422637
Probable space group: P C C A
;
_chemical_formula_sum "Si O2"
_cell_formula_units_Z 60
_cell_length_a 11.003649
_cell_length_b 9.220799
_cell_length_c 25.084566
_cell_angle_alpha 90.000000
_cell_angle_beta 90.000000
_cell_angle_gamma 90.000000
_cell_volume 2545.141165
_symmetry_space_group_name_H-M "P C C A"
_symmetry_group_IT_number 54
_symmetry_cell_setting 'orthorhombic'
loop_
_space_group_symop_operation_xyz
x,y,z
1/2-x,-y,z
1/2+x,-y,1/2-z
-x,y,1/2-z
-x,-y,-z
1/2+x,y,-z
1/2-x,y,1/2+z
x,-y,1/2+z
loop_
_atom_site_type_symbol
_atom_site_label
_atom_site_fract_x
_atom_site_fract_y
_atom_site_fract_z
Si Si1 0.323997 0.852244 0.482984
Si Si2 0.001603 0.499895 0.909767
Si Si3 0.294961 0.734526 0.248604
Si Si4 0.000000 0.490538 0.750000
Si Si5 0.443660 0.012035 0.694403
Si Si6 0.867554 0.226508 0.138159
Si Si7 0.584685 0.302052 0.331292
Si Si8 0.418897 0.704131 0.995123
O O1 0.325758 0.834364 0.418633
O O2 0.463745 0.818012 0.502537
O O3 0.250000 0.000000 0.495343
O O4 0.278685 0.255688 0.504977
O O5 0.897663 0.407483 0.880650
O O6 0.074505 0.616235 0.874344
O O7 0.080904 0.374413 0.937712
O O8 0.952021 0.594465 0.958093
O O9 0.392207 0.606696 0.243491
O O10 0.341981 0.879957 0.218297
O O11 0.277317 0.765529 0.311339
O O12 0.184190 0.685356 0.213867
O O13 0.023291 0.385778 0.800620
O O14 0.500000 0.952817 0.750000
O O15 0.530071 0.118963 0.661629
O O16 0.423054 0.869190 0.658906
#
# Coordination Sequence:
#
# PCOD9422637 Si02
#       8
#     8   8   8   4   8   8   8   8
#     4  11  25  48  79 111 148 190 249 313 389 456
#     4  10  23  47  74 103 143 193 251 318 376 452
#     4  11  22  44  64 100 154 194 239 301 366 433
#     4  12  22  42  60  96 144 190 236 296 344 438
#     4  10  21  42  66  96 151 188 236 305 358 428
#     4  10  22  43  74 101 144 196 236 303 374 448
#     4  12  24  39  70 104 136 193 251 297 364 445
#     4  10  25  50  75 110 146 193 250 326 386 435
#
# _framework density 23.57433
#
# number of rings (size 3 to 8) (size 9 to 14) (size 15 to 20)
#    0.000    1.333    4.000    1.200    1.867    8.000 
#   14.400    0.000    0.000    0.000    0.000    0.000 
#    0.000    0.000    0.000    0.000    0.000    0.000 
#
# Total GULP energy -334439.580857 kJ/mol
# GULP energy per Si atom -5573.993014 kJ/mol
# Density = 2.352067 g / cm^3
# Si number density = 23.574330 Si / 1000 Ang^3
#
#
#
# Elastic Constant Matrix: (Units=GPa)
#
#
# Indices 1 2 3 4 5 6 
#
# 1 59.8226 13.6555 8.0537 0.0000 0.0000 0.0000
# 2 13.6555 115.6404 19.7300 0.0000 0.0000 0.0000
# 3 8.0537 19.7300 43.2005 0.0000 0.0000 0.0000
# 4 0.0000 0.0000 0.0000 -195.2246 0.0000 0.0000
# 5 0.0000 0.0000 0.0000 0.0000 21.5188 0.0000
# 6 0.0000 0.0000 0.0000 0.0000 0.0000 23.6147
#
#
#
# Elastic Compliance Matrix: (Units=1/GPa)
#
#
# Indices 1 2 3 4 5 6 
#
# 1 0.017425 -0.001630 -0.002504 0.000000 0.000000 0.000000
# 2 -0.001630 0.009531 -0.004049 0.000000 0.000000 0.000000
# 3 -0.002504 -0.004049 0.025464 0.000000 0.000000 0.000000
# 4 0.000000 0.000000 0.000000 -0.005122 0.000000 0.000000
# 5 0.000000 0.000000 0.000000 0.000000 0.046471 0.000000
# 6 0.000000 0.000000 0.000000 0.000000 0.000000 0.042347
#
#
# Mechanical properties :
#
#
# Convention : Reuss Voigt Hill
#
# Bulk Modulus (GPa) = 27.73651 33.50466 30.62059
# Shear Modulus (GPa) = 30.39520 -18.20329 6.09595
#
# Velocity S-wave (km/s) = 3.59463 -2.78180 1.60980
# Velocity P-wave (km/s) = 5.38698 1.98124 4.05862
#
# Compressibility (1/GPa) = 0.03605356
#
# Stress axis : x y z
#
# Youngs Moduli (GPa) = 57.38763 104.92265 39.27140
#
# Poissons Ratio (x) = 0.17108 0.09833
# Poissons Ratio (y) = 0.09357 0.15900
# Poissons Ratio (z) = 0.14369 0.42481
#
# Static dielectric constant tensor:
#      x y z
#    x 2.065900 0.000000 0.000000 
#    y 0.000000 2.001870 0.000000 
#    z 0.000000 0.000000 1.938450 
# 
# From -- ./inp_files/26307.got.cif
#   From: 2010.05.17/outbox.cif.g08.bks.cpg/sg54_14_cif.got.tgz:26307.got - 2010.06.03 13:09:01.
