data_PCOD9422557
_publ_section_title
;
Structure prediction by ZEFSAII (Michael W. Deem and Ramdas Pophale) SiO2 
 PCOD9422557
Probable space group: P C C A
;
_chemical_formula_sum "Si O2"
_cell_formula_units_Z 44
_cell_length_a 8.269372
_cell_length_b 8.129761
_cell_length_c 30.518792
_cell_angle_alpha 90.000000
_cell_angle_beta 90.000000
_cell_angle_gamma 90.000000
_cell_volume 2051.717897
_symmetry_space_group_name_H-M "P C C A"
_symmetry_group_IT_number 54
_symmetry_cell_setting 'orthorhombic'
loop_
_space_group_symop_operation_xyz
x,y,z
1/2-x,-y,z
1/2+x,-y,1/2-z
-x,y,1/2-z
-x,-y,-z
1/2+x,y,-z
1/2-x,y,1/2+z
x,-y,1/2+z
loop_
_atom_site_type_symbol
_atom_site_label
_atom_site_fract_x
_atom_site_fract_y
_atom_site_fract_z
Si Si1 0.750000 0.500000 0.861918
Si Si2 0.943880 0.967513 0.797411
Si Si3 0.126202 0.849719 0.881705
Si Si4 0.983321 0.658715 0.300537
Si Si5 0.552128 0.343554 0.940556
Si Si6 0.250000 0.500000 0.357114
Si Si7 0.750000 0.500000 0.010374
O O1 0.681478 0.635225 0.828066
O O2 0.619044 0.429710 0.896307
O O3 0.025137 0.148729 0.801852
O O4 0.000000 0.899640 0.750000
O O5 0.750000 0.000000 0.797674
O O6 0.017350 0.868485 0.838062
O O7 0.219471 0.674367 0.880700
O O8 0.010407 0.832213 0.923989
O O9 0.250000 0.000000 0.884422
O O10 0.000000 0.611781 0.250000
O O11 0.101254 0.539912 0.326062
O O12 0.402381 0.443970 0.961218
O O13 0.690440 0.355969 0.977339
#
# Coordination Sequence:
#
# PCOD9422557 Si02
#       7
#     4   8   8   8   8   4   4
#     4  11  21  38  66 104 132 178 239 275 330 416
#     4  11  25  42  64  93 141 187 229 284 331 384
#     4  12  24  44  68 102 137 177 230 276 337 412
#     4  11  24  40  62 100 140 185 236 278 332 385
#     4  10  21  40  68  98 133 171 219 283 355 416
#     4  12  24  42  66  94 134 184 226 284 328 390
#     4   9  21  42  70 102 130 168 217 287 362 430
#
# _framework density 21.445443000000001
#
# number of rings (size 3 to 8) (size 9 to 14) (size 15 to 20)
#    0.000    1.091    3.636    2.727    2.545    0.727 
#    0.000    0.909    0.000    0.000    0.000    0.000 
#    0.000    0.000    0.000    0.000    0.000    0.000 
#
# Total GULP energy -245437.413149 kJ/mol
# GULP energy per Si atom -5578.123026 kJ/mol
# Density = 2.139663 g / cm^3
# Si number density = 21.445443 Si / 1000 Ang^3
#
#
#
# Elastic Constant Matrix: (Units=GPa)
#
#
# Indices 1 2 3 4 5 6 
#
# 1 93.9837 29.1411 54.5846 0.0000 0.0000 0.0000
# 2 29.1411 83.7233 37.4934 0.0000 0.0000 0.0000
# 3 54.5846 37.4934 147.4734 0.0000 0.0000 0.0000
# 4 0.0000 0.0000 0.0000 26.5978 0.0000 0.0000
# 5 0.0000 0.0000 0.0000 0.0000 25.7424 0.0000
# 6 0.0000 0.0000 0.0000 0.0000 0.0000 34.1330
#
#
#
# Elastic Compliance Matrix: (Units=1/GPa)
#
#
# Indices 1 2 3 4 5 6 
#
# 1 0.014156 -0.002912 -0.004499 0.000000 0.000000 0.000000
# 2 -0.002912 0.014078 -0.002501 0.000000 0.000000 0.000000
# 3 -0.004499 -0.002501 0.009082 0.000000 0.000000 0.000000
# 4 0.000000 0.000000 0.000000 0.037597 0.000000 0.000000
# 5 0.000000 0.000000 0.000000 0.000000 0.038846 0.000000
# 6 0.000000 0.000000 0.000000 0.000000 0.000000 0.029297
#
#
# Mechanical properties :
#
#
# Convention : Reuss Voigt Hill
#
# Bulk Modulus (GPa) = 57.17350 63.06873 60.12111
# Shear Modulus (GPa) = 29.63615 30.89205 30.26410
#
# Velocity S-wave (km/s) = 3.72147 3.79950 3.76069
# Velocity P-wave (km/s) = 6.72188 6.98005 6.85218
#
# Compressibility (1/GPa) = 0.01749062
#
# Stress axis : x y z
#
# Youngs Moduli (GPa) = 70.64006 71.03331 110.10686
#
# Poissons Ratio (x) = 0.20688 0.49540
# Poissons Ratio (y) = 0.20573 0.27540
# Poissons Ratio (z) = 0.31783 0.17767
#
# Static dielectric constant tensor:
#      x y z
#    x 1.974020 0.000000 0.000000 
#    y 0.000000 1.776700 0.000000 
#    z 0.000000 0.000000 1.816610 
# 
# From -- ./inp_files/27646.got.cif
#   From: 2010.05.17/outbox.cif.g08.bks.cpg/sg54_14_cif.got.tgz:27646.got - 2010.06.03 13:09:01.
