data_PCOD9422333
_publ_section_title
;
Structure prediction by ZEFSAII (Michael W. Deem and Ramdas Pophale) SiO2 
 PCOD9422333
Probable space group: P C C A
;
_chemical_formula_sum "Si O2"
_cell_formula_units_Z 32
_cell_length_a 15.658041
_cell_length_b 7.308807
_cell_length_c 10.933316
_cell_angle_alpha 90.000000
_cell_angle_beta 90.000000
_cell_angle_gamma 90.000000
_cell_volume 1251.226173
_symmetry_space_group_name_H-M "P C C A"
_symmetry_group_IT_number 54
_symmetry_cell_setting 'orthorhombic'
loop_
_space_group_symop_operation_xyz
x,y,z
1/2-x,-y,z
1/2+x,-y,1/2-z
-x,y,1/2-z
-x,-y,-z
1/2+x,y,-z
1/2-x,y,1/2+z
x,-y,1/2+z
loop_
_atom_site_type_symbol
_atom_site_label
_atom_site_fract_x
_atom_site_fract_y
_atom_site_fract_z
Si Si1 0.103987 0.480390 0.487405
Si Si2 0.157041 0.936874 0.938643
Si Si3 0.084771 0.998509 0.183966
Si Si4 0.094511 0.425301 0.734087
O O1 0.134384 0.276004 0.455159
O O2 0.138960 0.529580 0.622216
O O3 0.133752 0.589631 0.368005
O O4 0.000000 0.500000 0.500000
O O5 0.250000 0.000000 0.979677
O O6 0.151302 0.965492 0.792737
O O7 0.097922 0.043406 0.040714
O O8 0.079073 0.778053 0.185152
O O9 0.000000 0.072346 0.250000
O O10 0.000000 0.509496 0.750000
#
# Coordination Sequence:
#
# PCOD9422333 Si02
#       4
#     8   8   8   8
#     4   9  18  34  57  87 121 163 213 266 325 399
#     4  11  23  39  61  94 135 175 218 282 348 396
#     4  10  21  38  61  90 125 174 230 276 326 409
#     4   8  16  31  53  83 117 154 209 266 311 372
#
# _framework density 25.574912000000001
#
# number of rings (size 3 to 8) (size 9 to 14) (size 15 to 20)
#    0.000    2.500    0.000    3.000    0.000    5.000 
#    0.000    1.250    0.000    6.000    0.000    0.000 
#    0.000    0.000    0.000    0.000    0.000    0.000 
#
# Total GULP energy -178190.417497 kJ/mol
# GULP energy per Si atom -5568.450547 kJ/mol
# Density = 2.551670 g / cm^3
# Si number density = 25.574912 Si / 1000 Ang^3
#
#
#
# Elastic Constant Matrix: (Units=GPa)
#
#
# Indices 1 2 3 4 5 6 
#
# 1 77.4262 10.0273 -8.2582 0.0000 0.0000 0.0000
# 2 10.0273 70.9661 -9.5454 0.0000 0.0000 0.0000
# 3 -8.2582 -9.5454 201.6417 0.0000 0.0000 0.0000
# 4 0.0000 0.0000 0.0000 17.2730 0.0000 0.0000
# 5 0.0000 0.0000 0.0000 0.0000 20.5159 0.0000
# 6 0.0000 0.0000 0.0000 0.0000 0.0000 5.2423
#
#
#
# Elastic Compliance Matrix: (Units=1/GPa)
#
#
# Indices 1 2 3 4 5 6 
#
# 1 0.013198 -0.001804 0.000455 0.000000 0.000000 0.000000
# 2 -0.001804 0.014428 0.000609 0.000000 0.000000 0.000000
# 3 0.000455 0.000609 0.005007 0.000000 0.000000 0.000000
# 4 0.000000 0.000000 0.000000 0.057894 0.000000 0.000000
# 5 0.000000 0.000000 0.000000 0.000000 0.048743 0.000000
# 6 0.000000 0.000000 0.000000 0.000000 0.000000 0.190757
#
#
# Mechanical properties :
#
#
# Convention : Reuss Voigt Hill
#
# Bulk Modulus (GPa) = 32.09882 37.16462 34.63172
# Shear Modulus (GPa) = 14.62463 32.46026 23.54245
#
# Velocity S-wave (km/s) = 2.39390 3.56648 3.03731
# Velocity P-wave (km/s) = 4.49657 5.61453 5.08636
#
# Compressibility (1/GPa) = 0.03115379
#
# Stress axis : x y z
#
# Youngs Moduli (GPa) = 75.77111 69.30963 199.72973
#
# Poissons Ratio (x) = 0.12500 -0.09090
# Poissons Ratio (y) = 0.13666 -0.12166
# Poissons Ratio (z) = -0.03449 -0.04222
#
# Static dielectric constant tensor:
#      x y z
#    x 2.053180 0.000000 0.000000 
#    y 0.000000 2.035920 0.000000 
#    z 0.000000 0.000000 1.768040 
# 
# From -- ./inp_files/7934.got.cif
#   From: 2010.05.17/outbox.cif.g08.bks.cpg/sg54_4_cif.got.tgz:7934.got - 2010.06.03 13:09:01.
