data_PCOD9422343
_publ_section_title
;
Structure prediction by ZEFSAII (Michael W. Deem and Ramdas Pophale) SiO2 
 PCOD9422343
Probable space group: P C C A
;
_chemical_formula_sum "Si O2"
_cell_formula_units_Z 48
_cell_length_a 11.949719
_cell_length_b 16.746560
_cell_length_c 11.210259
_cell_angle_alpha 90.000000
_cell_angle_beta 90.000000
_cell_angle_gamma 90.000000
_cell_volume 2243.359883
_symmetry_space_group_name_H-M "P C C A"
_symmetry_group_IT_number 54
_symmetry_cell_setting 'orthorhombic'
loop_
_space_group_symop_operation_xyz
x,y,z
1/2-x,-y,z
1/2+x,-y,1/2-z
-x,y,1/2-z
-x,-y,-z
1/2+x,y,-z
1/2-x,y,1/2+z
x,-y,1/2+z
loop_
_atom_site_type_symbol
_atom_site_label
_atom_site_fract_x
_atom_site_fract_y
_atom_site_fract_z
Si Si1 0.477147 0.085888 0.441145
Si Si2 0.190765 0.085115 0.719519
Si Si3 0.722326 0.360150 0.861777
Si Si4 0.897433 0.194500 0.341042
Si Si5 0.477947 0.471537 0.632291
Si Si6 0.707440 0.407407 0.615032
O O1 0.594425 0.106983 0.376404
O O2 0.378294 0.079671 0.343041
O O3 0.438659 0.147358 0.542033
O O4 0.500000 0.000000 0.500000
O O5 0.291267 0.148186 0.715846
O O6 0.250000 0.000000 0.693715
O O7 0.645845 0.282403 0.870785
O O8 0.645901 0.439160 0.868108
O O9 0.769869 0.364573 0.726381
O O10 0.788659 0.366999 0.985318
O O11 0.000000 0.196222 0.250000
O O12 0.500000 0.525231 0.750000
O O13 0.500000 0.500000 0.500000
O O14 0.576147 0.406646 0.648494
O O15 0.750000 0.500000 0.610470
#
# Coordination Sequence:
#
# PCOD9422343 Si02
#       6
#     8   8   8   8   8   8
#     4  11  25  45  70 103 137 181 237 286 348 418
#     4  11  25  43  71 105 136 181 236 287 348 417
#     4  11  26  42  66 101 134 179 222 289 347 408
#     4  12  27  44  73  99 144 185 230 292 356 417
#     4  10  21  38  62  91 127 166 219 273 331 401
#     4  11  22  41  69  96 131 175 230 273 341 413
#
# _framework density 21.396477000000001
#
# number of rings (size 3 to 8) (size 9 to 14) (size 15 to 20)
#    0.000    1.000    3.333    3.000    9.333    1.333 
#    0.000    0.000    3.667    0.000    0.000    0.000 
#    0.000    0.000    0.000    0.000    0.000    0.000 
#
# Total GULP energy -267763.170800 kJ/mol
# GULP energy per Si atom -5578.399392 kJ/mol
# Density = 2.134778 g / cm^3
# Si number density = 21.396477 Si / 1000 Ang^3
#
#
#
# Elastic Constant Matrix: (Units=GPa)
#
#
# Indices 1 2 3 4 5 6 
#
# 1 122.8281 23.9704 32.3329 0.0000 0.0000 0.0000
# 2 23.9704 72.8779 31.4170 0.0000 0.0000 0.0000
# 3 32.3329 31.4170 164.6258 0.0000 0.0000 0.0000
# 4 0.0000 0.0000 0.0000 23.9592 0.0000 0.0000
# 5 0.0000 0.0000 0.0000 0.0000 27.3391 0.0000
# 6 0.0000 0.0000 0.0000 0.0000 0.0000 28.7674
#
#
#
# Elastic Compliance Matrix: (Units=1/GPa)
#
#
# Indices 1 2 3 4 5 6 
#
# 1 0.008949 -0.002382 -0.001303 0.000000 0.000000 0.000000
# 2 -0.002382 0.015586 -0.002507 0.000000 0.000000 0.000000
# 3 -0.001303 -0.002507 0.006809 0.000000 0.000000 0.000000
# 4 0.000000 0.000000 0.000000 0.041738 0.000000 0.000000
# 5 0.000000 0.000000 0.000000 0.000000 0.036578 0.000000
# 6 0.000000 0.000000 0.000000 0.000000 0.000000 0.034762
#
#
# Mechanical properties :
#
#
# Convention : Reuss Voigt Hill
#
# Bulk Modulus (GPa) = 52.74087 59.53025 56.13556
# Shear Modulus (GPa) = 30.65166 34.18725 32.41945
#
# Velocity S-wave (km/s) = 3.78902 4.00158 3.89675
# Velocity P-wave (km/s) = 6.62156 7.01663 6.82195
#
# Compressibility (1/GPa) = 0.01896063
#
# Stress axis : x y z
#
# Youngs Moduli (GPa) = 111.74058 64.16210 146.87167
#
# Poissons Ratio (x) = 0.15282 0.19139
# Poissons Ratio (y) = 0.26614 0.36814
# Poissons Ratio (z) = 0.14561 0.16082
#
# Static dielectric constant tensor:
#      x y z
#    x 1.804990 0.000000 0.000000 
#    y 0.000000 1.799940 0.000000 
#    z 0.000000 0.000000 1.921050 
# 
# From -- ./inp_files/7575.got.cif
#   From: 2010.05.17/outbox.cif.g08.bks.cpg/sg54_4_cif.got.tgz:7575.got - 2010.06.03 13:09:01.
