data_PCOD9422569
_publ_section_title
;
Structure prediction by ZEFSAII (Michael W. Deem and Ramdas Pophale) SiO2 
 PCOD9422569
Probable space group: P C C A
;
_chemical_formula_sum "Si O2"
_cell_formula_units_Z 32
_cell_length_a 4.906369
_cell_length_b 22.567241
_cell_length_c 13.032267
_cell_angle_alpha 90.000000
_cell_angle_beta 90.000000
_cell_angle_gamma 90.000000
_cell_volume 1442.974457
_symmetry_space_group_name_H-M "P C C A"
_symmetry_group_IT_number 54
_symmetry_cell_setting 'orthorhombic'
loop_
_space_group_symop_operation_xyz
x,y,z
1/2-x,-y,z
1/2+x,-y,1/2-z
-x,y,1/2-z
-x,-y,-z
1/2+x,y,-z
1/2-x,y,1/2+z
x,-y,1/2+z
loop_
_atom_site_type_symbol
_atom_site_label
_atom_site_fract_x
_atom_site_fract_y
_atom_site_fract_z
Si Si1 0.516961 0.611211 0.066256
Si Si2 0.750000 0.000000 0.080195
Si Si3 0.000000 0.088673 0.750000
Si Si4 0.422569 0.257940 0.926019
Si Si5 0.750000 0.500000 0.685994
Si Si6 0.500000 0.167549 0.750000
O O1 0.589867 0.674491 0.115805
O O2 0.609285 0.552862 0.124183
O O3 0.199730 0.610220 0.037508
O O4 0.850994 0.949412 0.161014
O O5 0.500000 0.000000 0.000000
O O6 0.750504 0.128335 0.791691
O O7 0.385173 0.209659 0.839000
O O8 0.710536 0.251401 0.981826
O O9 0.500000 0.526570 0.750000
#
# Coordination Sequence:
#
# PCOD9422569 Si02
#       6
#     8   4   4   8   4   4
#     4  10  21  41  62  83 123 169 214 272 337 405
#     4  12  26  48  76 104 146 192 224 286 342 396
#     4  12  27  46  70 112 143 178 244 270 336 414
#     4  10  23  42  64  95 131 178 229 274 342 410
#     4  12  24  36  58  96 120 156 218 280 336 408
#     4  12  25  42  70 102 143 182 220 296 326 398
#
# _framework density 22.176416
#
# number of rings (size 3 to 8) (size 9 to 14) (size 15 to 20)
#    0.000    1.000    0.000    6.750    1.750    6.000 
#    2.250    0.000    0.000    0.000    0.000    0.000 
#    0.000    0.000    0.000    0.000    0.000    0.000 
#
# Total GULP energy -178686.746424 kJ/mol
# GULP energy per Si atom -5583.960826 kJ/mol
# Density = 2.212594 g / cm^3
# Si number density = 22.176416 Si / 1000 Ang^3
#
#
#
# Elastic Constant Matrix: (Units=GPa)
#
#
# Indices 1 2 3 4 5 6 
#
# 1 55.8957 23.0383 6.8279 0.0000 0.0000 0.0000
# 2 23.0383 126.3886 50.6855 0.0000 0.0000 0.0000
# 3 6.8279 50.6855 66.4592 0.0000 0.0000 0.0000
# 4 0.0000 0.0000 0.0000 17.9008 0.0000 0.0000
# 5 0.0000 0.0000 0.0000 0.0000 24.1257 0.0000
# 6 0.0000 0.0000 0.0000 0.0000 0.0000 51.2234
#
#
#
# Elastic Compliance Matrix: (Units=1/GPa)
#
#
# Indices 1 2 3 4 5 6 
#
# 1 0.019391 -0.003941 0.001013 0.000000 0.000000 0.000000
# 2 -0.003941 0.012199 -0.008899 0.000000 0.000000 0.000000
# 3 0.001013 -0.008899 0.021730 0.000000 0.000000 0.000000
# 4 0.000000 0.000000 0.000000 0.055863 0.000000 0.000000
# 5 0.000000 0.000000 0.000000 0.000000 0.041450 0.000000
# 6 0.000000 0.000000 0.000000 0.000000 0.000000 0.019522
#
#
# Mechanical properties :
#
#
# Convention : Reuss Voigt Hill
#
# Bulk Modulus (GPa) = 33.70776 45.53855 39.62315
# Shear Modulus (GPa) = 24.54627 29.86277 27.20452
#
# Velocity S-wave (km/s) = 3.33057 3.67359 3.50627
# Velocity P-wave (km/s) = 5.47933 6.21071 5.85645
#
# Compressibility (1/GPa) = 0.02966676
#
# Stress axis : x y z
#
# Youngs Moduli (GPa) = 51.57021 81.97254 46.02035
#
# Poissons Ratio (x) = 0.32306 -0.04664
# Poissons Ratio (y) = 0.20324 0.40953
# Poissons Ratio (z) = -0.05226 0.72947
#
# Static dielectric constant tensor:
#      x y z
#    x 2.333670 0.000000 0.000000 
#    y 0.000000 1.799780 0.000000 
#    z 0.000000 0.000000 1.937100 
# 
# From -- ./inp_files/6305.got.cif
#   From: 2010.05.17/outbox.cif.g08.bks.cpg/sg54_4_cif.got.tgz:6305.got - 2010.06.03 13:09:01.
