data_PCOD9422675
_publ_section_title
;
Structure prediction by ZEFSAII (Michael W. Deem and Ramdas Pophale) SiO2 
 PCOD9422675
Probable space group: P C C A
;
_chemical_formula_sum "Si O2"
_cell_formula_units_Z 48
_cell_length_a 29.651396
_cell_length_b 5.267493
_cell_length_c 14.207531
_cell_angle_alpha 90.000000
_cell_angle_beta 90.000000
_cell_angle_gamma 90.000000
_cell_volume 2219.053252
_symmetry_space_group_name_H-M "P C C A"
_symmetry_group_IT_number 54
_symmetry_cell_setting 'orthorhombic'
loop_
_space_group_symop_operation_xyz
x,y,z
1/2-x,-y,z
1/2+x,-y,1/2-z
-x,y,1/2-z
-x,-y,-z
1/2+x,y,-z
1/2-x,y,1/2+z
x,-y,1/2+z
loop_
_atom_site_type_symbol
_atom_site_label
_atom_site_fract_x
_atom_site_fract_y
_atom_site_fract_z
Si Si1 0.526573 0.985353 0.833556
Si Si2 0.533836 0.713463 0.533085
Si Si3 0.120471 0.744962 0.145900
Si Si4 0.375673 0.245032 0.531680
Si Si5 0.278383 0.248126 0.227412
Si Si6 0.223297 0.748445 0.453840
O O1 0.500000 0.131800 0.750000
O O2 0.574022 0.851158 0.806924
O O3 0.534373 0.118200 0.935929
O O4 0.487611 0.796176 0.868881
O O5 0.500000 0.500000 0.500000
O O6 0.586921 0.675890 0.544868
O O7 0.115011 0.451506 0.114574
O O8 0.169581 0.761152 0.194149
O O9 0.123088 0.948087 0.060111
O O10 0.325786 0.280784 0.495686
O O11 0.250000 0.500000 0.200019
O O12 0.280064 0.245445 0.340799
O O13 0.250000 0.000000 0.197752
O O14 0.250000 0.500000 0.481970
O O15 0.250000 0.000000 0.483129
#
# Coordination Sequence:
#
# PCOD9422675 Si02
#       6
#     8   8   8   8   8   8
#     4  10  23  41  64  94 127 171 215 261 322 394
#     4  10  21  43  62  91 134 164 210 274 317 376
#     4  11  23  40  61  93 122 157 212 253 310 380
#     4  11  23  39  64  90 121 163 206 256 316 371
#     4  10  22  40  59  86 124 159 198 258 310 365
#     4  10  22  40  60  89 121 160 209 251 312 385
#
# _framework density 21.630846999999999
#
# number of rings (size 3 to 8) (size 9 to 14) (size 15 to 20)
#    0.000    1.667    1.667    2.000    2.333    4.667 
#    0.000    1.667    0.000    0.000    0.000    0.000 
#    0.000    0.000    0.000    0.000    0.000    0.000 
#
# Total GULP energy -267234.190167 kJ/mol
# GULP energy per Si atom -5567.378962 kJ/mol
# Density = 2.158161 g / cm^3
# Si number density = 21.630847 Si / 1000 Ang^3
#
#
#
# Elastic Constant Matrix: (Units=GPa)
#
#
# Indices 1 2 3 4 5 6 
#
# 1 197.9851 25.5910 19.6310 0.0000 0.0000 0.0000
# 2 25.5910 84.3110 -5.6136 0.0000 0.0000 0.0000
# 3 19.6310 -5.6136 42.5024 0.0000 0.0000 0.0000
# 4 0.0000 0.0000 0.0000 17.6972 0.0000 0.0000
# 5 0.0000 0.0000 0.0000 0.0000 44.1242 0.0000
# 6 0.0000 0.0000 0.0000 0.0000 0.0000 34.5439
#
#
#
# Elastic Compliance Matrix: (Units=1/GPa)
#
#
# Indices 1 2 3 4 5 6 
#
# 1 0.005574 -0.001880 -0.002823 0.000000 0.000000 0.000000
# 2 -0.001880 0.012600 0.002532 0.000000 0.000000 0.000000
# 3 -0.002823 0.002532 0.025166 0.000000 0.000000 0.000000
# 4 0.000000 0.000000 0.000000 0.056506 0.000000 0.000000
# 5 0.000000 0.000000 0.000000 0.000000 0.022663 0.000000
# 6 0.000000 0.000000 0.000000 0.000000 0.000000 0.028949
#
#
# Mechanical properties :
#
#
# Convention : Reuss Voigt Hill
#
# Bulk Modulus (GPa) = 25.64104 44.89059 35.26581
# Shear Modulus (GPa) = 29.62119 38.28574 33.95347
#
# Velocity S-wave (km/s) = 3.70455 4.21165 3.96621
# Velocity P-wave (km/s) = 5.49344 6.66699 6.10847
#
# Compressibility (1/GPa) = 0.03899998
#
# Stress axis : x y z
#
# Youngs Moduli (GPa) = 179.41300 79.36498 39.73571
#
# Poissons Ratio (x) = 0.14919 0.11216
# Poissons Ratio (y) = 0.33725 -0.10063
# Poissons Ratio (z) = 0.50642 -0.20098
#
# Static dielectric constant tensor:
#      x y z
#    x 1.786600 0.000000 0.000000 
#    y 0.000000 1.831500 0.000000 
#    z 0.000000 0.000000 2.058710 
# 
# From -- ./inp_files/15129.got.cif
#   From: 2010.05.17/outbox.cif.g08.bks.cpg/sg54_8_cif.got.tgz:15129.got - 2010.06.03 13:09:01.
