data_PCOD9422814
_publ_section_title
;
Structure prediction by ZEFSAII (Michael W. Deem and Ramdas Pophale) SiO2 
 PCOD9422814
Probable space group: P C C A
;
_chemical_formula_sum "Si O2"
_cell_formula_units_Z 36
_cell_length_a 11.685491
_cell_length_b 9.688849
_cell_length_c 15.795841
_cell_angle_alpha 90.000000
_cell_angle_beta 90.000000
_cell_angle_gamma 90.000000
_cell_volume 1788.388655
_symmetry_space_group_name_H-M "P C C A"
_symmetry_group_IT_number 54
_symmetry_cell_setting 'orthorhombic'
loop_
_space_group_symop_operation_xyz
x,y,z
1/2-x,-y,z
1/2+x,-y,1/2-z
-x,y,1/2-z
-x,-y,-z
1/2+x,y,-z
1/2-x,y,1/2+z
x,-y,1/2+z
loop_
_atom_site_type_symbol
_atom_site_label
_atom_site_fract_x
_atom_site_fract_y
_atom_site_fract_z
Si Si1 0.845289 0.677757 0.159928
Si Si2 0.580838 0.365340 0.671896
Si Si3 0.500000 0.895489 0.750000
Si Si4 0.620168 0.023456 0.410828
Si Si5 0.483112 0.760860 0.002064
O O1 0.887939 0.526362 0.187611
O O2 0.708780 0.696674 0.163569
O O3 0.899897 0.794861 0.218468
O O4 0.901514 0.690284 0.066755
O O5 0.500000 0.319896 0.750000
O O6 0.517768 0.330659 0.582901
O O7 0.459406 0.982826 0.671038
O O8 0.593568 0.171275 0.454853
O O9 0.750000 0.000000 0.386677
O O10 0.584857 0.897358 0.469808
#
# Coordination Sequence:
#
# PCOD9422814 Si02
#       5
#     8   8   4   8   8
#     4  10  22  43  59  92 127 161 200 263 309 367
#     4  11  23  39  66  95 121 161 213 251 310 374
#     4  10  22  38  60  86 132 162 202 260 308 350
#     4  10  22  38  60  90 121 166 206 248 305 358
#     4  10  22  40  62  89 126 162 206 251 306 373
#
# _framework density 20.129852
#
# number of rings (size 3 to 8) (size 9 to 14) (size 15 to 20)
#    0.000    1.778    1.111    2.000    4.667    0.000 
#    0.000    4.444    0.000    0.000    0.000    0.000 
#    0.000    0.000    0.000    0.000    0.000    0.000 
#
# Total GULP energy -200856.744884 kJ/mol
# GULP energy per Si atom -5579.354025 kJ/mol
# Density = 2.008404 g / cm^3
# Si number density = 20.129852 Si / 1000 Ang^3
#
#
#
# Elastic Constant Matrix: (Units=GPa)
#
#
# Indices 1 2 3 4 5 6 
#
# 1 109.9753 17.8398 27.4558 0.0000 0.0000 0.0000
# 2 17.8398 23.3783 0.2017 0.0000 0.0000 0.0000
# 3 27.4558 0.2017 86.0320 0.0000 0.0000 0.0000
# 4 0.0000 0.0000 0.0000 225.0968 0.0000 0.0000
# 5 0.0000 0.0000 0.0000 0.0000 10.3242 0.0000
# 6 0.0000 0.0000 0.0000 0.0000 0.0000 22.5992
#
#
#
# Elastic Compliance Matrix: (Units=1/GPa)
#
#
# Indices 1 2 3 4 5 6 
#
# 1 0.011403 -0.008670 -0.003619 0.000000 0.000000 0.000000
# 2 -0.008670 0.049368 0.002651 0.000000 0.000000 0.000000
# 3 -0.003619 0.002651 0.012772 0.000000 0.000000 0.000000
# 4 0.000000 0.000000 0.000000 0.004443 0.000000 0.000000
# 5 0.000000 0.000000 0.000000 0.000000 0.096860 0.000000
# 6 0.000000 0.000000 0.000000 0.000000 0.000000 0.044249
#
#
# Mechanical properties :
#
#
# Convention : Reuss Voigt Hill
#
# Bulk Modulus (GPa) = 18.42716 34.48669 26.45693
# Shear Modulus (GPa) = 19.49628 63.19660 41.34644
#
# Velocity S-wave (km/s) = 3.11549 5.60916 4.53701
# Velocity P-wave (km/s) = 4.70274 7.68892 6.37319
#
# Compressibility (1/GPa) = 0.05426771
#
# Stress axis : x y z
#
# Youngs Moduli (GPa) = 87.69756 20.25599 78.29495
#
# Poissons Ratio (x) = 0.17562 0.28333
# Poissons Ratio (y) = 0.76036 -0.20758
# Poissons Ratio (z) = 0.31735 -0.05370
#
# Static dielectric constant tensor:
#      x y z
#    x 1.698610 0.000000 0.000000 
#    y 0.000000 1.707930 0.000000 
#    z 0.000000 0.000000 1.752680 
# 
# From -- ./inp_files/12397.got.cif
#   From: 2010.05.17/outbox.cif.g08.bks.cpg/sg54_7_cif.got.tgz:12397.got - 2010.06.03 13:09:01.
