data_PCOD9422663
_publ_section_title
;
Structure prediction by ZEFSAII (Michael W. Deem and Ramdas Pophale) SiO2 
 PCOD9422663
Probable space group: P C C A
;
_chemical_formula_sum "Si O2"
_cell_formula_units_Z 56
_cell_length_a 13.880745
_cell_length_b 18.975059
_cell_length_c 9.242758
_cell_angle_alpha 90.000000
_cell_angle_beta 90.000000
_cell_angle_gamma 90.000000
_cell_volume 2434.431131
_symmetry_space_group_name_H-M "P C C A"
_symmetry_group_IT_number 54
_symmetry_cell_setting 'orthorhombic'
loop_
_space_group_symop_operation_xyz
x,y,z
1/2-x,-y,z
1/2+x,-y,1/2-z
-x,y,1/2-z
-x,-y,-z
1/2+x,y,-z
1/2-x,y,1/2+z
x,-y,1/2+z
loop_
_atom_site_type_symbol
_atom_site_label
_atom_site_fract_x
_atom_site_fract_y
_atom_site_fract_z
Si Si1 0.750000 0.000000 0.362714
Si Si2 0.837381 0.202200 0.688495
Si Si3 0.831080 0.907406 0.620975
Si Si4 0.187247 0.357642 0.877893
Si Si5 0.922519 0.550775 0.352710
Si Si6 0.250000 0.500000 0.990491
Si Si7 0.015344 0.649069 0.583587
Si Si8 0.038043 0.199236 0.520142
O O1 0.804849 0.947651 0.472153
O O2 0.673748 0.961938 0.254942
O O3 0.757210 0.144617 0.658271
O O4 0.786710 0.278615 0.666043
O O5 0.886123 0.199054 0.846629
O O6 0.929565 0.190414 0.582573
O O7 0.925360 0.860286 0.590632
O O8 0.254612 0.425610 0.906189
O O9 0.124276 0.346331 0.023236
O O10 0.120999 0.387055 0.747314
O O11 0.842048 0.498815 0.407548
O O12 0.970715 0.586973 0.488654
O O13 0.000000 0.515730 0.250000
O O14 0.963363 0.722577 0.544948
O O15 0.000000 0.638280 0.750000
#
# Coordination Sequence:
#
# PCOD9422663 Si02
#       8
#     4   8   8   8   8   4   8   8
#     4  10  24  42  64 106 150 178 230 290 356 410
#     4  10  21  42  73 101 134 187 237 287 359 417
#     4  11  22  43  69 100 143 190 225 290 348 422
#     4  10  23  42  64  95 135 178 234 299 352 425
#     4  10  23  45  68  90 140 186 229 299 369 422
#     4  12  26  40  68 106 134 190 258 294 362 440
#     4  10  22  41  67  98 132 174 227 297 353 419
#     4  10  21  42  70 103 138 181 233 286 353 421
#
# _framework density 23.003319999999999
#
# number of rings (size 3 to 8) (size 9 to 14) (size 15 to 20)
#    0.000    1.714    2.857    0.429    2.000    7.429 
#    0.000    4.286    0.000    0.000    0.000    0.000 
#    0.000    0.000    0.000    0.000    0.000    0.000 
#
# Total GULP energy -313151.755229 kJ/mol
# GULP energy per Si atom -5591.995629 kJ/mol
# Density = 2.295096 g / cm^3
# Si number density = 23.003320 Si / 1000 Ang^3
#
#
#
# Elastic Constant Matrix: (Units=GPa)
#
#
# Indices 1 2 3 4 5 6 
#
# 1 43.3713 28.2025 15.7094 0.0000 0.0000 0.0000
# 2 28.2025 136.2124 41.6334 0.0000 0.0000 0.0000
# 3 15.7094 41.6334 130.2561 0.0000 0.0000 0.0000
# 4 0.0000 0.0000 0.0000 31.9837 0.0000 0.0000
# 5 0.0000 0.0000 0.0000 0.0000 16.5460 0.0000
# 6 0.0000 0.0000 0.0000 0.0000 0.0000 21.6722
#
#
#
# Elastic Compliance Matrix: (Units=1/GPa)
#
#
# Indices 1 2 3 4 5 6 
#
# 1 0.026951 -0.005083 -0.001626 0.000000 0.000000 0.000000
# 2 -0.005083 0.009095 -0.002294 0.000000 0.000000 0.000000
# 3 -0.001626 -0.002294 0.008606 0.000000 0.000000 0.000000
# 4 0.000000 0.000000 0.000000 0.031266 0.000000 0.000000
# 5 0.000000 0.000000 0.000000 0.000000 0.060438 0.000000
# 6 0.000000 0.000000 0.000000 0.000000 0.000000 0.046142
#
#
# Mechanical properties :
#
#
# Convention : Reuss Voigt Hill
#
# Bulk Modulus (GPa) = 37.52799 53.43670 45.48235
# Shear Modulus (GPa) = 23.87931 28.99334 26.43632
#
# Velocity S-wave (km/s) = 3.22542 3.55406 3.39372
# Velocity P-wave (km/s) = 5.49734 6.33421 5.93055
#
# Compressibility (1/GPa) = 0.02664678
#
# Stress axis : x y z
#
# Youngs Moduli (GPa) = 37.10438 109.94920 116.19170
#
# Poissons Ratio (x) = 0.55890 0.18889
# Poissons Ratio (y) = 0.18861 0.26654
# Poissons Ratio (z) = 0.06032 0.25222
#
# Static dielectric constant tensor:
#      x y z
#    x 1.902550 0.000000 0.000000 
#    y 0.000000 1.863030 0.000000 
#    z 0.000000 0.000000 1.853810 
# 
# From -- ./inp_files/3705.got.cif
#   From: 2010.05.17/outbox.cif.g08.bks.cpg/sg54_2_cif.got.tgz:3705.got - 2010.06.03 13:09:01.
