data_PCOD9422876
_publ_section_title
;
Structure prediction by ZEFSAII (Michael W. Deem and Ramdas Pophale) SiO2 
 PCOD9422876
Probable space group: P C C A
;
_chemical_formula_sum "Si O2"
_cell_formula_units_Z 56
_cell_length_a 13.353130
_cell_length_b 14.159605
_cell_length_c 12.950451
_cell_angle_alpha 90.000000
_cell_angle_beta 90.000000
_cell_angle_gamma 90.000000
_cell_volume 2448.607123
_symmetry_space_group_name_H-M "P C C A"
_symmetry_group_IT_number 54
_symmetry_cell_setting 'orthorhombic'
loop_
_space_group_symop_operation_xyz
x,y,z
1/2-x,-y,z
1/2+x,-y,1/2-z
-x,y,1/2-z
-x,-y,-z
1/2+x,y,-z
1/2-x,y,1/2+z
x,-y,1/2+z
loop_
_atom_site_type_symbol
_atom_site_label
_atom_site_fract_x
_atom_site_fract_y
_atom_site_fract_z
Si Si1 0.217074 0.107018 0.280128
Si Si2 0.386705 0.410476 0.721047
Si Si3 0.160997 0.375952 0.784639
Si Si4 0.846590 0.307581 0.481858
Si Si5 0.580973 0.110020 0.905820
Si Si6 0.846825 0.231807 0.866051
Si Si7 0.126033 0.928227 0.983904
O O1 0.120033 0.123921 0.209510
O O2 0.296469 0.175504 0.229031
O O3 0.203310 0.114829 0.401865
O O4 0.250000 0.000000 0.262388
O O5 0.500000 0.377714 0.750000
O O6 0.282768 0.364356 0.765013
O O7 0.371695 0.516877 0.761836
O O8 0.378553 0.389643 0.598634
O O9 0.104245 0.316983 0.695115
O O10 0.144378 0.342422 0.901391
O O11 0.909317 0.211903 0.459381
O O12 0.735080 0.277166 0.443930
O O13 0.472513 0.064236 0.913608
O O14 0.646349 0.029333 0.964028
O O15 0.898469 0.149159 0.929675
#
# Coordination Sequence:
#
# PCOD9422876 Si02
#       7
#     8   8   8   8   8   8   8
#     4  11  22  36  62  86 124 172 220 259 313 392
#     4  10  24  45  70  97 134 172 225 283 352 421
#     4  10  23  43  68 102 131 172 228 285 344 419
#     4  10  23  41  66  96 130 171 224 278 341 410
#     4  10  24  41  58  95 129 166 224 264 326 394
#     4  10  22  39  62  96 126 170 219 269 323 400
#     4  11  23  39  62  90 133 175 210 275 325 382
#
# _framework density 22.870146999999999
#
# number of rings (size 3 to 8) (size 9 to 14) (size 15 to 20)
#    0.000    1.714    1.429    1.286    6.000   10.857 
#    0.000    0.000    0.000    0.000    0.000    0.000 
#    0.000    0.000    0.000    0.000    0.000    0.000 
#
# Total GULP energy -312370.105402 kJ/mol
# GULP energy per Si atom -5578.037596 kJ/mol
# Density = 2.281809 g / cm^3
# Si number density = 22.870147 Si / 1000 Ang^3
#
#
#
# Elastic Constant Matrix: (Units=GPa)
#
#
# Indices 1 2 3 4 5 6 
#
# 1 49.6120 -11.8784 6.7842 0.0000 0.0000 0.0000
# 2 -11.8784 112.7169 58.5890 0.0000 0.0000 0.0000
# 3 6.7842 58.5890 159.4414 0.0000 0.0000 0.0000
# 4 0.0000 0.0000 0.0000 49.0593 0.0000 0.0000
# 5 0.0000 0.0000 0.0000 0.0000 17.4414 0.0000
# 6 0.0000 0.0000 0.0000 0.0000 0.0000 10.2381
#
#
#
# Elastic Compliance Matrix: (Units=1/GPa)
#
#
# Indices 1 2 3 4 5 6 
#
# 1 0.021250 0.003349 -0.002135 0.000000 0.000000 0.000000
# 2 0.003349 0.011494 -0.004366 0.000000 0.000000 0.000000
# 3 -0.002135 -0.004366 0.007967 0.000000 0.000000 0.000000
# 4 0.000000 0.000000 0.000000 0.020383 0.000000 0.000000
# 5 0.000000 0.000000 0.000000 0.000000 0.057335 0.000000
# 6 0.000000 0.000000 0.000000 0.000000 0.000000 0.097675
#
#
# Mechanical properties :
#
#
# Convention : Reuss Voigt Hill
#
# Bulk Modulus (GPa) = 29.06334 47.63998 38.35166
# Shear Modulus (GPa) = 21.37870 33.23280 27.30575
#
# Velocity S-wave (km/s) = 3.06074 3.81610 3.45910
# Velocity P-wave (km/s) = 5.02259 6.34765 5.72360
#
# Compressibility (1/GPa) = 0.03440761
#
# Stress axis : x y z
#
# Youngs Moduli (GPa) = 47.05836 87.00015 125.51515
#
# Poissons Ratio (x) = -0.29137 0.26796
# Poissons Ratio (y) = -0.15760 0.54803
# Poissons Ratio (z) = 0.10046 0.37986
#
# Static dielectric constant tensor:
#      x y z
#    x 1.990800 0.000000 0.000000 
#    y 0.000000 1.877810 0.000000 
#    z 0.000000 0.000000 1.816060 
# 
# From -- ./inp_files/8425.got.cif
#   From: 2010.05.17/outbox.cif.g08.bks.cpg/sg54_5_cif.got.tgz:8425.got - 2010.06.03 13:09:01.
