data_PCOD9422797
_publ_section_title
;
Structure prediction by ZEFSAII (Michael W. Deem and Ramdas Pophale) SiO2 
 PCOD9422797
Probable space group: P C C A
;
_chemical_formula_sum "Si O2"
_cell_formula_units_Z 64
_cell_length_a 17.895130
_cell_length_b 9.324798
_cell_length_c 19.436167
_cell_angle_alpha 90.000000
_cell_angle_beta 90.000000
_cell_angle_gamma 90.000000
_cell_volume 3243.283497
_symmetry_space_group_name_H-M "P C C A"
_symmetry_group_IT_number 54
_symmetry_cell_setting 'orthorhombic'
loop_
_space_group_symop_operation_xyz
x,y,z
1/2-x,-y,z
1/2+x,-y,1/2-z
-x,y,1/2-z
-x,-y,-z
1/2+x,y,-z
1/2-x,y,1/2+z
x,-y,1/2+z
loop_
_atom_site_type_symbol
_atom_site_label
_atom_site_fract_x
_atom_site_fract_y
_atom_site_fract_z
Si Si1 0.335306 0.003736 0.390103
Si Si2 0.604431 0.328413 0.296058
Si Si3 0.442120 0.233929 0.342142
Si Si4 0.075719 0.558564 0.468202
Si Si5 0.322665 0.602739 0.227894
Si Si6 0.828801 0.676305 0.609783
Si Si7 0.745213 0.170810 0.360207
Si Si8 0.701631 0.251354 0.007397
O O1 0.401902 0.080809 0.348993
O O2 0.326046 0.102259 0.458216
O O3 0.250000 0.000000 0.358702
O O4 0.354749 0.839667 0.401544
O O5 0.526861 0.255425 0.317875
O O6 0.609689 0.312146 0.213796
O O7 0.612398 0.500311 0.303662
O O8 0.668710 0.238436 0.332235
O O9 0.440092 0.316741 0.413471
O O10 0.116628 0.431025 0.428608
O O11 0.137038 0.638134 0.515398
O O12 0.000000 0.500000 0.500000
O O13 0.250000 0.500000 0.220345
O O14 0.327356 0.641907 0.308875
O O15 0.308405 0.745569 0.183829
O O16 0.749090 0.675239 0.569433
O O17 0.751817 0.212344 0.440285
O O18 0.750000 0.000000 0.351705
#
# Coordination Sequence:
#
# PCOD9422797 Si02
#       8
#     8   8   8   8   8   8   8   8
#     4   9  21  38  70  92 125 163 221 265 324 387
#     4  10  23  41  63  85 136 170 211 264 336 388
#     4  10  22  43  61  91 129 176 209 264 329 397
#     4  11  24  39  65  93 125 171 222 265 328 389
#     4  10  22  37  62  94 121 166 221 270 324 395
#     4  11  21  39  69  95 123 165 223 273 325 390
#     4  11  25  40  65  98 132 171 219 277 335 391
#     4  10  23  43  62  94 133 165 217 278 327 387
#
# _framework density 19.733090000000001
#
# number of rings (size 3 to 8) (size 9 to 14) (size 15 to 20)
#    0.000    1.750    1.250    2.250   14.000    2.000 
#    2.250    1.250    0.000    0.000    0.000    0.000 
#    0.000    0.000    0.000    0.000    0.000    0.000 
#
# Total GULP energy -356764.045222 kJ/mol
# GULP energy per Si atom -5574.438207 kJ/mol
# Density = 1.968818 g / cm^3
# Si number density = 19.733090 Si / 1000 Ang^3
#
#
#
# Elastic Constant Matrix: (Units=GPa)
#
#
# Indices 1 2 3 4 5 6 
#
# 1 89.6178 54.8310 31.9139 0.0000 0.0000 0.0000
# 2 54.8310 124.6269 25.1781 0.0000 0.0000 0.0000
# 3 31.9139 25.1781 71.8012 0.0000 0.0000 0.0000
# 4 0.0000 0.0000 0.0000 23.8364 0.0000 0.0000
# 5 0.0000 0.0000 0.0000 0.0000 28.6935 0.0000
# 6 0.0000 0.0000 0.0000 0.0000 0.0000 34.2511
#
#
#
# Elastic Compliance Matrix: (Units=1/GPa)
#
#
# Indices 1 2 3 4 5 6 
#
# 1 0.016953 -0.006389 -0.005295 0.000000 0.000000 0.000000
# 2 -0.006389 0.011043 -0.001033 0.000000 0.000000 0.000000
# 3 -0.005295 -0.001033 0.016643 0.000000 0.000000 0.000000
# 4 0.000000 0.000000 0.000000 0.041953 0.000000 0.000000
# 5 0.000000 0.000000 0.000000 0.000000 0.034851 0.000000
# 6 0.000000 0.000000 0.000000 0.000000 0.000000 0.029196
#
#
# Mechanical properties :
#
#
# Convention : Reuss Voigt Hill
#
# Bulk Modulus (GPa) = 52.06641 56.65465 54.36053
# Shear Modulus (GPa) = 27.40107 28.96440 28.18274
#
# Velocity S-wave (km/s) = 3.73041 3.83536 3.78325
# Velocity P-wave (km/s) = 6.70800 6.95601 6.83313
#
# Compressibility (1/GPa) = 0.01920624
#
# Stress axis : x y z
#
# Youngs Moduli (GPa) = 58.98663 90.55104 60.08553
#
# Poissons Ratio (x) = 0.57853 0.31814
# Poissons Ratio (y) = 0.37686 0.06206
# Poissons Ratio (z) = 0.31232 0.09352
#
# Static dielectric constant tensor:
#      x y z
#    x 1.787400 0.000000 0.000000 
#    y 0.000000 1.726200 0.000000 
#    z 0.000000 0.000000 1.731090 
# 
# From -- ./inp_files/21990.got.cif
#   From: 2010.05.17/outbox.cif.g08.bks.cpg/sg54_11_cif.got.tgz:21990.got - 2010.06.03 13:09:01.
