data_PCOD9422473
_publ_section_title
;
Structure prediction by ZEFSAII (Michael W. Deem and Ramdas Pophale) SiO2 
 PCOD9422473
Probable space group: P C C A
;
_chemical_formula_sum "Si O2"
_cell_formula_units_Z 64
_cell_length_a 14.129077
_cell_length_b 9.661305
_cell_length_c 23.252055
_cell_angle_alpha 90.000000
_cell_angle_beta 90.000000
_cell_angle_gamma 90.000000
_cell_volume 3174.029261
_symmetry_space_group_name_H-M "P C C A"
_symmetry_group_IT_number 54
_symmetry_cell_setting 'orthorhombic'
loop_
_space_group_symop_operation_xyz
x,y,z
1/2-x,-y,z
1/2+x,-y,1/2-z
-x,y,1/2-z
-x,-y,-z
1/2+x,y,-z
1/2-x,y,1/2+z
x,-y,1/2+z
loop_
_atom_site_type_symbol
_atom_site_label
_atom_site_fract_x
_atom_site_fract_y
_atom_site_fract_z
Si Si1 0.363597 0.859806 0.976767
Si Si2 0.806131 0.358054 0.996725
Si Si3 0.331486 0.918109 0.373324
Si Si4 0.537225 0.266807 0.408698
Si Si5 0.009335 0.500415 0.315947
Si Si6 0.326254 0.614762 0.383538
Si Si7 0.525922 0.191817 0.816827
Si Si8 0.862378 0.981982 0.898851
O O1 0.444893 0.766392 0.947474
O O2 0.346788 0.986871 0.930869
O O3 0.271302 0.764008 0.991360
O O4 0.393921 0.922529 0.038562
O O5 0.750000 0.500000 0.985846
O O6 0.876465 0.325026 0.945915
O O7 0.873350 0.371522 0.053622
O O8 0.284771 0.765908 0.375404
O O9 0.434160 0.873642 0.349560
O O10 0.250000 0.000000 0.338765
O O11 0.512908 0.375679 0.358950
O O12 0.578699 0.121080 0.387199
O O13 0.112867 0.441461 0.331529
O O14 0.000000 0.542699 0.250000
O O15 0.954629 0.355621 0.325801
O O16 0.250000 0.500000 0.394155
O O17 0.500000 0.173491 0.750000
O O18 0.613662 0.116238 0.845574
O O19 0.750000 0.000000 0.903619
#
# Coordination Sequence:
#
# PCOD9422473 Si02
#       8
#     8   8   8   8   8   8   8   8
#     4  12  24  41  67 106 141 176 217 277 349 413
#     4  11  24  39  63 103 142 172 222 278 334 420
#     4  11  21  38  70  97 132 175 217 273 338 404
#     4  12  25  41  70 100 133 187 219 274 348 410
#     4  10  25  47  66  92 131 180 233 282 331 391
#     4  10  21  39  66  96 129 169 221 273 331 393
#     4  10  25  47  68  95 135 182 233 283 332 396
#     4  12  25  43  69 102 142 175 221 282 347 415
#
# _framework density 20.163644000000001
#
# number of rings (size 3 to 8) (size 9 to 14) (size 15 to 20)
#    0.000    1.000    3.750    3.000    5.250    2.000 
#    0.000    4.375    0.000    0.000    0.000    0.000 
#    0.000    0.000    0.000    0.000    0.000    0.000 
#
# Total GULP energy -356568.819582 kJ/mol
# GULP energy per Si atom -5571.387806 kJ/mol
# Density = 2.011775 g / cm^3
# Si number density = 20.163644 Si / 1000 Ang^3
#
#
#
# Elastic Constant Matrix: (Units=GPa)
#
#
# Indices 1 2 3 4 5 6 
#
# 1 67.2309 52.6027 38.1511 0.0000 0.0000 0.0000
# 2 52.6027 154.1471 87.5243 0.0000 0.0000 0.0000
# 3 38.1511 87.5243 103.4317 0.0000 0.0000 0.0000
# 4 0.0000 0.0000 0.0000 179.7714 0.0000 0.0000
# 5 0.0000 0.0000 0.0000 0.0000 9.9330 0.0000
# 6 0.0000 0.0000 0.0000 0.0000 0.0000 25.2901
#
#
#
# Elastic Compliance Matrix: (Units=1/GPa)
#
#
# Indices 1 2 3 4 5 6 
#
# 1 0.020832 -0.005286 -0.003211 0.000000 0.000000 0.000000
# 2 -0.005286 0.013828 -0.009752 0.000000 0.000000 0.000000
# 3 -0.003211 -0.009752 0.019105 0.000000 0.000000 0.000000
# 4 0.000000 0.000000 0.000000 0.005563 0.000000 0.000000
# 5 0.000000 0.000000 0.000000 0.000000 0.100675 0.000000
# 6 0.000000 0.000000 0.000000 0.000000 0.000000 0.039541
#
#
# Mechanical properties :
#
#
# Convention : Reuss Voigt Hill
#
# Bulk Modulus (GPa) = 57.91229 75.70733 66.80981
# Shear Modulus (GPa) = 20.67861 52.76768 36.72315
#
# Velocity S-wave (km/s) = 3.20588 5.12118 4.27225
# Velocity P-wave (km/s) = 6.51821 8.52037 7.58563
#
# Compressibility (1/GPa) = 0.01726749
#
# Stress axis : x y z
#
# Youngs Moduli (GPa) = 48.00337 72.31700 52.34326
#
# Poissons Ratio (x) = 0.38223 0.16809
# Poissons Ratio (y) = 0.25372 0.51044
# Poissons Ratio (z) = 0.15415 0.70522
#
# Static dielectric constant tensor:
#      x y z
#    x 1.935650 0.000000 0.000000 
#    y 0.000000 1.825100 0.000000 
#    z 0.000000 0.000000 1.737820 
# 
# From -- ./inp_files/24521.got.cif
#   From: 2010.05.17/outbox.cif.g08.bks.cpg/sg54_13_cif.got.tgz:24521.got - 2010.06.03 13:09:01.
