data_PCOD9422256
_publ_section_title
;
Structure prediction by ZEFSAII (Michael W. Deem and Ramdas Pophale) SiO2 
 PCOD9422256
Probable space group: P C C A
;
_chemical_formula_sum "Si O2"
_cell_formula_units_Z 36
_cell_length_a 5.401088
_cell_length_b 11.067596
_cell_length_c 26.424085
_cell_angle_alpha 90.000000
_cell_angle_beta 90.000000
_cell_angle_gamma 90.000000
_cell_volume 1579.554113
_symmetry_space_group_name_H-M "P C C A"
_symmetry_group_IT_number 54
_symmetry_cell_setting 'orthorhombic'
loop_
_space_group_symop_operation_xyz
x,y,z
1/2-x,-y,z
1/2+x,-y,1/2-z
-x,y,1/2-z
-x,-y,-z
1/2+x,y,-z
1/2-x,y,1/2+z
x,-y,1/2+z
loop_
_atom_site_type_symbol
_atom_site_label
_atom_site_fract_x
_atom_site_fract_y
_atom_site_fract_z
Si Si1 0.124733 0.381077 0.204351
Si Si2 0.451796 0.274104 0.118879
Si Si3 0.993394 0.921100 0.193693
Si Si4 0.709766 0.138943 0.968418
Si Si5 0.250000 0.500000 0.873935
O O1 0.250000 0.500000 0.228317
O O2 0.322026 0.314375 0.170841
O O3 0.000000 0.310473 0.250000
O O4 0.934077 0.428437 0.162793
O O5 0.575450 0.155566 0.142771
O O6 0.260761 0.230600 0.076892
O O7 0.604583 0.390282 0.099218
O O8 0.000000 0.858808 0.250000
O O9 0.250000 0.000000 0.186102
O O10 0.750000 0.000000 0.199939
O O11 0.750000 0.000000 0.951400
O O12 0.436892 0.155843 0.991695
#
# Coordination Sequence:
#
# PCOD9422256 Si02
#       5
#     8   8   8   8   4
#     4  10  21  37  61  94 139 184 228 271 322 395
#     4  11  25  40  69  97 136 178 230 284 341 414
#     4  10  24  41  62  96 135 177 222 275 342 406
#     4  10  24  47  74 101 129 172 231 294 359 417
#     4  10  24  40  62  98 140 180 230 268 340 404
#
# _framework density 22.791243000000001
#
# number of rings (size 3 to 8) (size 9 to 14) (size 15 to 20)
#    0.000    1.778    1.111    0.667    9.333    3.556 
#    0.000    1.111    0.000    0.000    0.000    0.000 
#    0.000    0.000    0.000    0.000    0.000    0.000 
#
# Total GULP energy -200691.781954 kJ/mol
# GULP energy per Si atom -5574.771721 kJ/mol
# Density = 2.273937 g / cm^3
# Si number density = 22.791243 Si / 1000 Ang^3
#
#
#
# Elastic Constant Matrix: (Units=GPa)
#
#
# Indices 1 2 3 4 5 6 
#
# 1 75.2213 20.4600 -4.8839 0.0000 0.0000 0.0000
# 2 20.4600 67.2612 36.9843 0.0000 0.0000 0.0000
# 3 -4.8839 36.9843 37.4107 0.0000 0.0000 0.0000
# 4 0.0000 0.0000 0.0000 -22.2639 0.0000 0.0000
# 5 0.0000 0.0000 0.0000 0.0000 83.3013 0.0000
# 6 0.0000 0.0000 0.0000 0.0000 0.0000 27.7959
#
#
#
# Elastic Compliance Matrix: (Units=1/GPa)
#
#
# Indices 1 2 3 4 5 6 
#
# 1 0.018604 -0.015325 0.017579 0.000000 0.000000 0.000000
# 2 -0.015325 0.045199 -0.046685 0.000000 0.000000 0.000000
# 3 0.017579 -0.046685 0.075178 0.000000 0.000000 0.000000
# 4 0.000000 0.000000 0.000000 -0.044916 0.000000 0.000000
# 5 0.000000 0.000000 0.000000 0.000000 0.012005 0.000000
# 6 0.000000 0.000000 0.000000 0.000000 0.000000 0.035976
#
#
# Mechanical properties :
#
#
# Convention : Reuss Voigt Hill
#
# Bulk Modulus (GPa) = 19.95230 31.66824 25.81027
# Shear Modulus (GPa) = 20.19265 26.25552 23.22408
#
# Velocity S-wave (km/s) = 2.97978 3.39780 3.19563
# Velocity P-wave (km/s) = 4.54006 5.41465 4.99653
#
# Compressibility (1/GPa) = 0.05011954
#
# Stress axis : x y z
#
# Youngs Moduli (GPa) = 53.75228 22.12419 13.30175
#
# Poissons Ratio (x) = 0.33906 -0.23383
# Poissons Ratio (y) = 0.82376 0.62099
# Poissons Ratio (z) = -0.94492 1.03287
#
# Static dielectric constant tensor:
#      x y z
#    x 1.816450 0.000000 0.000000 
#    y 0.000000 2.028270 0.000000 
#    z 0.000000 0.000000 1.852150 
# 
# From -- ./inp_files/22690.got.cif
#   From: 2010.05.17/outbox.cif.g08.bks.cpg/sg54_12_cif.got.tgz:22690.got - 2010.06.03 13:09:01.
