data_PCOD9422003
_publ_section_title
;
Structure prediction by ZEFSAII (Michael W. Deem and Ramdas Pophale) SiO2 
 PCOD9422003
Probable space group: P C C A
;
_chemical_formula_sum "Si O2"
_cell_formula_units_Z 56
_cell_length_a 11.533211
_cell_length_b 14.637933
_cell_length_c 16.000911
_cell_angle_alpha 90.000000
_cell_angle_beta 90.000000
_cell_angle_gamma 90.000000
_cell_volume 2701.311715
_symmetry_space_group_name_H-M "P C C A"
_symmetry_group_IT_number 54
_symmetry_cell_setting 'orthorhombic'
loop_
_space_group_symop_operation_xyz
x,y,z
1/2-x,-y,z
1/2+x,-y,1/2-z
-x,y,1/2-z
-x,-y,-z
1/2+x,y,-z
1/2-x,y,1/2+z
x,-y,1/2+z
loop_
_atom_site_type_symbol
_atom_site_label
_atom_site_fract_x
_atom_site_fract_y
_atom_site_fract_z
Si Si1 0.500000 0.624779 0.250000
Si Si2 0.525865 0.935540 0.842843
Si Si3 0.082736 0.239148 0.122955
Si Si4 0.366939 0.896656 0.375134
Si Si5 0.750000 0.000000 0.261126
Si Si6 0.613795 0.499350 0.609094
Si Si7 0.679740 0.811720 0.950113
Si Si8 0.469885 0.641706 0.523463
O O1 0.411648 0.691096 0.200402
O O2 0.441602 0.559711 0.317373
O O3 0.500000 0.896360 0.750000
O O4 0.571311 0.862957 0.907781
O O5 0.428415 0.003223 0.878870
O O6 0.638970 0.993776 0.819147
O O7 0.201097 0.187199 0.101277
O O8 0.973447 0.172556 0.140621
O O9 0.047587 0.299309 0.041436
O O10 0.277100 0.913353 0.299548
O O11 0.307362 0.859279 0.459118
O O12 0.750000 0.500000 0.622756
O O13 0.550877 0.596764 0.594407
O O14 0.589261 0.441563 0.525509
O O15 0.635305 0.708046 0.952825
#
# Coordination Sequence:
#
# PCOD9422003 Si02
#       8
#     4   8   8   8   4   8   8   8
#     4  10  24  38  58  96 120 156 202 258 314 398
#     4  10  22  38  55  87 125 163 203 257 313 367
#     4  10  22  38  62  89 123 157 209 257 313 373
#     4  10  23  40  62  86 125 168 220 257 304 387
#     4  10  22  38  62  88 120 178 202 258 322 360
#     4  10  20  41  65  87 121 161 202 252 326 383
#     4  11  22  39  62  92 120 168 207 264 316 370
#     4   9  21  40  62  89 120 155 205 259 304 388
#
# _framework density 20.730668999999999
#
# number of rings (size 3 to 8) (size 9 to 14) (size 15 to 20)
#    0.000    2.000    0.000    2.143    5.000    7.429 
#    3.857    1.429    0.000    0.000    0.000    0.000 
#    0.000    0.000    0.000    0.000    0.000    0.000 
#
# Total GULP energy -312375.421316 kJ/mol
# GULP energy per Si atom -5578.132523 kJ/mol
# Density = 2.068349 g / cm^3
# Si number density = 20.730669 Si / 1000 Ang^3
#
#
#
# Elastic Constant Matrix: (Units=GPa)
#
#
# Indices 1 2 3 4 5 6 
#
# 1 78.7938 19.4297 11.7426 0.0000 0.0000 0.0000
# 2 19.4297 79.2584 26.1866 0.0000 0.0000 0.0000
# 3 11.7426 26.1866 49.6977 0.0000 0.0000 0.0000
# 4 0.0000 0.0000 0.0000 -6.2662 0.0000 0.0000
# 5 0.0000 0.0000 0.0000 0.0000 20.2606 0.0000
# 6 0.0000 0.0000 0.0000 0.0000 0.0000 25.6579
#
#
#
# Elastic Compliance Matrix: (Units=1/GPa)
#
#
# Indices 1 2 3 4 5 6 
#
# 1 0.013635 -0.002758 -0.001768 0.000000 0.000000 0.000000
# 2 -0.002758 0.015834 -0.007692 0.000000 0.000000 0.000000
# 3 -0.001768 -0.007692 0.024592 0.000000 0.000000 0.000000
# 4 0.000000 0.000000 0.000000 -0.159587 0.000000 0.000000
# 5 0.000000 0.000000 0.000000 0.000000 0.049357 0.000000
# 6 0.000000 0.000000 0.000000 0.000000 0.000000 0.038974
#
#
# Mechanical properties :
#
#
# Convention : Reuss Voigt Hill
#
# Bulk Modulus (GPa) = 33.75500 35.82972 34.79236
# Shear Modulus (GPa) = 292.09160 17.95654 155.02407
#
# Velocity S-wave (km/s) = 11.88294 2.94629 8.65693
# Velocity P-wave (km/s) = 14.30350 5.37542 10.80475
#
# Compressibility (1/GPa) = 0.02962524
#
# Stress axis : x y z
#
# Youngs Moduli (GPa) = 73.34044 63.15340 40.66300
#
# Poissons Ratio (x) = 0.17420 0.07190
# Poissons Ratio (y) = 0.20230 0.31277
# Poissons Ratio (z) = 0.12969 0.48576
#
# Static dielectric constant tensor:
#      x y z
#    x 1.763360 0.000000 0.000000 
#    y 0.000000 3.373660 0.000000 
#    z 0.000000 0.000000 1.775660 
# 
# From -- ./inp_files/12781.got.cif
#   From: 2010.05.17/outbox.cif.g08.bks.cpg/sg54_7_cif.got.tgz:12781.got - 2010.06.03 13:09:01.
