data_PCOD9422186
_publ_section_title
;
Structure prediction by ZEFSAII (Michael W. Deem and Ramdas Pophale) SiO2 
 PCOD9422186
Probable space group: P C C A
;
_chemical_formula_sum "Si O2"
_cell_formula_units_Z 40
_cell_length_a 12.616870
_cell_length_b 9.547405
_cell_length_c 17.433597
_cell_angle_alpha 90.000000
_cell_angle_beta 90.000000
_cell_angle_gamma 90.000000
_cell_volume 2100.022638
_symmetry_space_group_name_H-M "P C C A"
_symmetry_group_IT_number 54
_symmetry_cell_setting 'orthorhombic'
loop_
_space_group_symop_operation_xyz
x,y,z
1/2-x,-y,z
1/2+x,-y,1/2-z
-x,y,1/2-z
-x,-y,-z
1/2+x,y,-z
1/2-x,y,1/2+z
x,-y,1/2+z
loop_
_atom_site_type_symbol
_atom_site_label
_atom_site_fract_x
_atom_site_fract_y
_atom_site_fract_z
Si Si1 0.000000 0.269749 0.750000
Si Si2 0.131339 0.046444 0.824182
Si Si3 0.457212 0.847362 0.981028
Si Si4 0.393202 0.364938 0.102630
Si Si5 0.500000 0.196961 0.750000
Si Si6 0.853661 0.316685 0.382649
O O1 0.903096 0.163404 0.736660
O O2 0.969700 0.357194 0.823620
O O3 0.111199 0.122563 0.904908
O O4 0.250000 0.000000 0.815455
O O5 0.060439 0.908758 0.808345
O O6 0.550552 0.737118 0.958882
O O7 0.391068 0.790872 0.052414
O O8 0.500000 0.000000 0.000000
O O9 0.383127 0.529055 0.084927
O O10 0.274088 0.314664 0.123579
O O11 0.416518 0.283011 0.696908
#
# Coordination Sequence:
#
# PCOD9422186 Si02
#       6
#     4   8   8   8   4   8
#     4   9  19  40  60  84 128 158 194 252 300 354
#     4  10  21  36  57  89 118 153 200 247 301 356
#     4  11  23  40  59  87 122 158 200 252 296 356
#     4  10  23  41  61  91 123 163 202 246 307 357
#     4  11  21  38  60  90 120 156 202 250 300 360
#     4  11  23  39  64  90 122 161 204 250 301 364
#
# _framework density 19.047412999999999
#
# number of rings (size 3 to 8) (size 9 to 14) (size 15 to 20)
#    0.000    1.600    2.000    2.400    2.800    0.000 
#    0.000    0.000    0.000    9.600    0.000    0.000 
#    0.000    0.000    0.000    0.000    0.000    0.000 
#
# Total GULP energy -223008.596788 kJ/mol
# GULP energy per Si atom -5575.214920 kJ/mol
# Density = 1.900406 g / cm^3
# Si number density = 19.047413 Si / 1000 Ang^3
#
#
#
# Elastic Constant Matrix: (Units=GPa)
#
#
# Indices 1 2 3 4 5 6 
#
# 1 96.2492 28.2465 13.6980 0.0000 0.0000 0.0000
# 2 28.2465 90.9694 22.0153 0.0000 0.0000 0.0000
# 3 13.6980 22.0153 60.0449 0.0000 0.0000 0.0000
# 4 0.0000 0.0000 0.0000 21.8497 0.0000 0.0000
# 5 0.0000 0.0000 0.0000 0.0000 20.3440 0.0000
# 6 0.0000 0.0000 0.0000 0.0000 0.0000 16.5260
#
#
#
# Elastic Compliance Matrix: (Units=1/GPa)
#
#
# Indices 1 2 3 4 5 6 
#
# 1 0.011545 -0.003234 -0.001448 0.000000 0.000000 0.000000
# 2 -0.003234 0.012969 -0.004017 0.000000 0.000000 0.000000
# 3 -0.001448 -0.004017 0.018457 0.000000 0.000000 0.000000
# 4 0.000000 0.000000 0.000000 0.045767 0.000000 0.000000
# 5 0.000000 0.000000 0.000000 0.000000 0.049154 0.000000
# 6 0.000000 0.000000 0.000000 0.000000 0.000000 0.060511
#
#
# Mechanical properties :
#
#
# Convention : Reuss Voigt Hill
#
# Bulk Modulus (GPa) = 39.10441 41.68701 40.39571
# Shear Modulus (GPa) = 22.28888 23.96420 23.12654
#
# Velocity S-wave (km/s) = 3.42450 3.55087 3.48826
# Velocity P-wave (km/s) = 6.01755 6.22455 6.12192
#
# Compressibility (1/GPa) = 0.02557256
#
# Stress axis : x y z
#
# Youngs Moduli (GPa) = 86.61796 77.10565 54.17878
#
# Poissons Ratio (x) = 0.24939 0.07844
# Poissons Ratio (y) = 0.28016 0.21765
# Poissons Ratio (z) = 0.12541 0.30975
#
# Static dielectric constant tensor:
#      x y z
#    x 1.650460 0.000000 0.000000 
#    y 0.000000 1.661610 0.000000 
#    z 0.000000 0.000000 1.600670 
# 
# From -- ./inp_files/17126.got.cif
#   From: 2010.05.17/outbox.cif.g08.bks.cpg/sg54_9_cif.got.tgz:17126.got - 2010.06.03 13:09:01.
