data_PCOD9422515
_publ_section_title
;
Structure prediction by ZEFSAII (Michael W. Deem and Ramdas Pophale) SiO2 
 PCOD9422515
Probable space group: P C C A
;
_chemical_formula_sum "Si O2"
_cell_formula_units_Z 60
_cell_length_a 30.479351
_cell_length_b 10.760719
_cell_length_c 9.218405
_cell_angle_alpha 90.000000
_cell_angle_beta 90.000000
_cell_angle_gamma 90.000000
_cell_volume 3023.449996
_symmetry_space_group_name_H-M "P C C A"
_symmetry_group_IT_number 54
_symmetry_cell_setting 'orthorhombic'
loop_
_space_group_symop_operation_xyz
x,y,z
1/2-x,-y,z
1/2+x,-y,1/2-z
-x,y,1/2-z
-x,-y,-z
1/2+x,y,-z
1/2-x,y,1/2+z
x,-y,1/2+z
loop_
_atom_site_type_symbol
_atom_site_label
_atom_site_fract_x
_atom_site_fract_y
_atom_site_fract_z
Si Si1 0.792962 0.648857 0.000032
Si Si2 0.709113 0.769328 0.929951
Si Si3 0.086356 0.603737 0.626872
Si Si4 0.750000 0.000000 0.749364
Si Si5 0.132219 0.154615 0.069225
Si Si6 0.841180 0.942159 0.619892
Si Si7 0.531271 0.469958 0.136136
Si Si8 0.321808 0.478339 0.226737
O O1 0.745843 0.706832 0.033067
O O2 0.828515 0.757775 0.988569
O O3 0.811552 0.541888 0.104739
O O4 0.790762 0.582660 0.843731
O O5 0.667611 0.827181 0.013544
O O6 0.689642 0.658895 0.832441
O O7 0.735883 0.878771 0.844579
O O8 0.094510 0.750011 0.612545
O O9 0.072822 0.572439 0.460543
O O10 0.050582 0.571181 0.750729
O O11 0.129976 0.528743 0.679690
O O12 0.708503 0.013688 0.645292
O O13 0.128331 0.045714 0.952332
O O14 0.144773 0.092469 0.220148
O O15 0.500000 0.392781 0.250000
O O16 0.500000 0.500000 0.000000
#
# Coordination Sequence:
#
# PCOD9422515 Si02
#       8
#     8   8   8   4   8   8   8   8
#     4  11  24  40  54  79 116 166 224 270 325 364
#     4  12  23  37  57  76 115 168 230 283 311 352
#     4  10  21  40  63  96 138 151 188 253 310 383
#     4  12  22  40  56  74 106 170 232 310 300 346
#     4  11  24  39  60  85 123 164 213 269 316 357
#     4  12  23  39  57  81 111 165 236 269 325 348
#     4   9  19  39  70 104 128 154 185 219 299 396
#     4  11  25  37  58  84 123 165 203 261 338 375
#
# _framework density 19.84488
#
# number of rings (size 3 to 8) (size 9 to 14) (size 15 to 20)
#    0.000    1.067    2.667    4.800    5.600    1.067 
#    0.000    0.000    0.000    0.000    0.000   12.133 
#    0.000    0.000    0.000    0.000    0.000    0.000 
#
# Total GULP energy -334261.690010 kJ/mol
# GULP energy per Si atom -5571.028167 kJ/mol
# Density = 1.979971 g / cm^3
# Si number density = 19.844880 Si / 1000 Ang^3
#
#
#
# Elastic Constant Matrix: (Units=GPa)
#
#
# Indices 1 2 3 4 5 6 
#
# 1 49.4360 14.7203 13.1806 0.0000 0.0000 0.0000
# 2 14.7203 61.5522 21.1007 0.0000 0.0000 0.0000
# 3 13.1806 21.1007 87.9076 0.0000 0.0000 0.0000
# 4 0.0000 0.0000 0.0000 25.0607 0.0000 0.0000
# 5 0.0000 0.0000 0.0000 0.0000 32.2429 0.0000
# 6 0.0000 0.0000 0.0000 0.0000 0.0000 4.0659
#
#
#
# Elastic Compliance Matrix: (Units=1/GPa)
#
#
# Indices 1 2 3 4 5 6 
#
# 1 0.022175 -0.004537 -0.002236 0.000000 0.000000 0.000000
# 2 -0.004537 0.018631 -0.003792 0.000000 0.000000 0.000000
# 3 -0.002236 -0.003792 0.012621 0.000000 0.000000 0.000000
# 4 0.000000 0.000000 0.000000 0.039903 0.000000 0.000000
# 5 0.000000 0.000000 0.000000 0.000000 0.031015 0.000000
# 6 0.000000 0.000000 0.000000 0.000000 0.000000 0.245948
#
#
# Mechanical properties :
#
#
# Convention : Reuss Voigt Hill
#
# Bulk Modulus (GPa) = 30.96133 32.98879 31.97506
# Shear Modulus (GPa) = 12.43198 22.26684 17.34941
#
# Velocity S-wave (km/s) = 2.50563 3.35333 2.95998
# Velocity P-wave (km/s) = 4.89964 5.62605 5.27536
#
# Compressibility (1/GPa) = 0.03229835
#
# Stress axis : x y z
#
# Youngs Moduli (GPa) = 45.09543 53.67324 79.23293
#
# Poissons Ratio (x) = 0.24350 0.17716
# Poissons Ratio (y) = 0.20459 0.30044
# Poissons Ratio (z) = 0.10083 0.20352
#
# Static dielectric constant tensor:
#      x y z
#    x 1.895280 0.000000 0.000000 
#    y 0.000000 1.741490 0.000000 
#    z 0.000000 0.000000 1.790610 
# 
# From -- ./inp_files/5953.got.cif
#   From: 2010.05.17/outbox.cif.g08.bks.cpg/sg54_3_cif.got.tgz:5953.got - 2010.06.03 13:09:01.
