data_PCOD9422653
_publ_section_title
;
Structure prediction by ZEFSAII (Michael W. Deem and Ramdas Pophale) SiO2 
 PCOD9422653
Probable space group: P C C A
;
_chemical_formula_sum "Si O2"
_cell_formula_units_Z 52
_cell_length_a 26.243232
_cell_length_b 5.278440
_cell_length_c 18.844387
_cell_angle_alpha 90.000000
_cell_angle_beta 90.000000
_cell_angle_gamma 90.000000
_cell_volume 2610.387155
_symmetry_space_group_name_H-M "P C C A"
_symmetry_group_IT_number 54
_symmetry_cell_setting 'orthorhombic'
loop_
_space_group_symop_operation_xyz
x,y,z
1/2-x,-y,z
1/2+x,-y,1/2-z
-x,y,1/2-z
-x,-y,-z
1/2+x,y,-z
1/2-x,y,1/2+z
x,-y,1/2+z
loop_
_atom_site_type_symbol
_atom_site_label
_atom_site_fract_x
_atom_site_fract_y
_atom_site_fract_z
Si Si1 0.191253 0.012890 0.067897
Si Si2 0.500000 0.851725 0.750000
Si Si3 0.464774 0.201439 0.637253
Si Si4 0.691495 0.515042 0.835550
Si Si5 0.404860 0.521073 0.254704
Si Si6 0.087982 0.968235 0.493747
Si Si7 0.941170 0.534879 0.590883
O O1 0.184185 0.261052 0.117389
O O2 0.148474 0.024742 0.007689
O O3 0.250000 0.000000 0.042727
O O4 0.183698 0.758992 0.114262
O O5 0.551600 0.691896 0.754587
O O6 0.503002 0.019432 0.679346
O O7 0.424649 0.271045 0.698393
O O8 0.438294 0.078845 0.569958
O O9 0.499242 0.437981 0.612292
O O10 0.750000 0.500000 0.810702
O O11 0.651240 0.540563 0.772334
O O12 0.408638 0.581076 0.337603
O O13 0.072336 0.731515 0.444653
O O14 0.069610 0.233540 0.462111
#
# Coordination Sequence:
#
# PCOD9422653 Si02
#       7
#     8   4   8   8   8   8   8
#     4  10  21  42  68  96 124 166 226 272 321 390
#     4  12  22  40  68  96 132 172 230 264 330 386
#     4  12  24  42  65  93 129 182 224 264 320 403
#     4  10  22  41  70 100 123 162 228 285 318 375
#     4  12  24  41  68  94 134 174 223 269 336 390
#     4  12  26  42  65  94 134 176 213 267 332 383
#     4  12  26  42  59 100 137 170 211 268 328 403
#
# _framework density 19.920418000000002
#
# number of rings (size 3 to 8) (size 9 to 14) (size 15 to 20)
#    0.000    0.615    4.615    3.692    2.154    0.000 
#    0.000    1.538    0.000    0.000    0.000    0.000 
#    0.000    0.000    0.000    0.000    0.000    0.000 
#
# Total GULP energy -290727.648689 kJ/mol
# GULP energy per Si atom -5590.916321 kJ/mol
# Density = 1.987508 g / cm^3
# Si number density = 19.920418 Si / 1000 Ang^3
#
#
#
# Elastic Constant Matrix: (Units=GPa)
#
#
# Indices 1 2 3 4 5 6 
#
# 1 88.0064 23.3771 32.1418 0.0000 0.0000 0.0000
# 2 23.3771 108.5920 33.1148 0.0000 0.0000 0.0000
# 3 32.1418 33.1148 110.2349 0.0000 0.0000 0.0000
# 4 0.0000 0.0000 0.0000 27.8265 0.0000 0.0000
# 5 0.0000 0.0000 0.0000 0.0000 30.8198 0.0000
# 6 0.0000 0.0000 0.0000 0.0000 0.0000 -0.6917
#
#
#
# Elastic Compliance Matrix: (Units=1/GPa)
#
#
# Indices 1 2 3 4 5 6 
#
# 1 0.013033 -0.001813 -0.003256 0.000000 0.000000 0.000000
# 2 -0.001813 0.010390 -0.002592 0.000000 0.000000 0.000000
# 3 -0.003256 -0.002592 0.010800 0.000000 0.000000 0.000000
# 4 0.000000 0.000000 0.000000 0.035937 0.000000 0.000000
# 5 0.000000 0.000000 0.000000 0.000000 0.032447 0.000000
# 6 0.000000 0.000000 0.000000 0.000000 0.000000 -1.445726
#
#
# Mechanical properties :
#
#
# Convention : Reuss Voigt Hill
#
# Bulk Modulus (GPa) = 52.90850 53.78897 53.34873
# Shear Modulus (GPa) = -3.78359 26.13757 11.17699
#
# Velocity S-wave (km/s) = -1.37966 3.62622 2.37129
# Velocity P-wave (km/s) = 4.90710 6.67781 5.85973
#
# Compressibility (1/GPa) = 0.01890055
#
# Stress axis : x y z
#
# Youngs Moduli (GPa) = 76.72596 96.24985 92.59633
#
# Poissons Ratio (x) = 0.17450 0.30146
# Poissons Ratio (y) = 0.13910 0.24005
# Poissons Ratio (z) = 0.24979 0.24952
#
# Static dielectric constant tensor:
#      x y z
#    x 1.725460 0.000000 0.000000 
#    y 0.000000 1.753300 0.000000 
#    z 0.000000 0.000000 1.704360 
# 
# From -- ./inp_files/19207.got.cif
#   From: 2010.05.17/outbox.cif.g08.bks.cpg/sg54_10_cif.got.tgz:19207.got - 2010.06.03 13:09:01.
