data_PCOD9422722
_publ_section_title
;
Structure prediction by ZEFSAII (Michael W. Deem and Ramdas Pophale) SiO2 
 PCOD9422722
Probable space group: P C C A
;
_chemical_formula_sum "Si O2"
_cell_formula_units_Z 36
_cell_length_a 21.110259
_cell_length_b 5.459371
_cell_length_c 13.746868
_cell_angle_alpha 90.000000
_cell_angle_beta 90.000000
_cell_angle_gamma 90.000000
_cell_volume 1584.309158
_symmetry_space_group_name_H-M "P C C A"
_symmetry_group_IT_number 54
_symmetry_cell_setting 'orthorhombic'
loop_
_space_group_symop_operation_xyz
x,y,z
1/2-x,-y,z
1/2+x,-y,1/2-z
-x,y,1/2-z
-x,-y,-z
1/2+x,y,-z
1/2-x,y,1/2+z
x,-y,1/2+z
loop_
_atom_site_type_symbol
_atom_site_label
_atom_site_fract_x
_atom_site_fract_y
_atom_site_fract_z
Si Si1 0.750000 0.500000 0.667288
Si Si2 0.422513 0.988495 0.332418
Si Si3 0.814768 0.151894 0.302882
Si Si4 0.165023 0.767551 0.471157
Si Si5 0.954762 0.488737 0.592455
O O1 0.695745 0.395745 0.738253
O O2 0.774988 0.290430 0.595503
O O3 0.376985 0.981165 0.238975
O O4 0.459588 0.736845 0.346451
O O5 0.373719 0.009115 0.424114
O O6 0.462502 0.236986 0.346338
O O7 0.821049 0.205915 0.416440
O O8 0.750000 0.000000 0.789242
O O9 0.116161 0.546007 0.450402
O O10 0.000000 0.500000 0.500000
#
# Coordination Sequence:
#
# PCOD9422722 Si02
#       5
#     4   8   8   8   8
#     4  12  22  44  62  98 136 178 218 286 328 416
#     4  10  22  43  64  96 135 167 223 274 330 399
#     4  12  23  39  64  97 137 180 219 276 346 407
#     4  10  25  37  67  98 132 175 226 270 342 403
#     4  10  21  44  72  90 132 177 221 283 339 384
#
# _framework density 22.722837999999999
#
# number of rings (size 3 to 8) (size 9 to 14) (size 15 to 20)
#    1.333    0.000    4.444    1.333    3.111    1.778 
#    0.000    1.111    0.000    0.000    0.000    0.000 
#    0.000    0.000    0.000    0.000    0.000    0.000 
#
# Total GULP energy -200982.136101 kJ/mol
# GULP energy per Si atom -5582.837114 kJ/mol
# Density = 2.267112 g / cm^3
# Si number density = 22.722838 Si / 1000 Ang^3
#
#
#
# Elastic Constant Matrix: (Units=GPa)
#
#
# Indices 1 2 3 4 5 6 
#
# 1 38.5158 14.0845 32.3979 0.0000 0.0000 0.0000
# 2 14.0845 143.1470 40.3955 0.0000 0.0000 0.0000
# 3 32.3979 40.3955 189.7459 0.0000 0.0000 0.0000
# 4 0.0000 0.0000 0.0000 167.2437 0.0000 0.0000
# 5 0.0000 0.0000 0.0000 0.0000 24.8801 0.0000
# 6 0.0000 0.0000 0.0000 0.0000 0.0000 -1.2983
#
#
#
# Elastic Compliance Matrix: (Units=1/GPa)
#
#
# Indices 1 2 3 4 5 6 
#
# 1 0.030675 -0.001639 -0.004889 0.000000 0.000000 0.000000
# 2 -0.001639 0.007520 -0.001321 0.000000 0.000000 0.000000
# 3 -0.004889 -0.001321 0.006386 0.000000 0.000000 0.000000
# 4 0.000000 0.000000 0.000000 0.005979 0.000000 0.000000
# 5 0.000000 0.000000 0.000000 0.000000 0.040193 0.000000
# 6 0.000000 0.000000 0.000000 0.000000 0.000000 -0.770222
#
#
# Mechanical properties :
#
#
# Convention : Reuss Voigt Hill
#
# Bulk Modulus (GPa) = 34.62128 60.57383 47.59756
# Shear Modulus (GPa) = -7.64357 57.13381 24.74512
#
# Velocity S-wave (km/s) = -1.83606 5.01980 3.30358
# Velocity P-wave (km/s) = 3.28246 7.76617 5.96188
#
# Compressibility (1/GPa) = 0.02888397
#
# Stress axis : x y z
#
# Youngs Moduli (GPa) = 32.60014 132.98098 156.58814
#
# Poissons Ratio (x) = 0.21790 0.76551
# Poissons Ratio (y) = 0.05342 0.20688
# Poissons Ratio (z) = 0.15937 0.17569
#
# Static dielectric constant tensor:
#      x y z
#    x 1.891230 0.000000 0.000000 
#    y 0.000000 1.911990 0.000000 
#    z 0.000000 0.000000 1.774050 
# 
# From -- ./inp_files/9741.got.cif
#   From: 2010.05.17/outbox.cif.g08.bks.cpg/sg54_5_cif.got.tgz:9741.got - 2010.06.03 13:09:01.
