data_PCOD9422037
_publ_section_title
;
Structure prediction by ZEFSAII (Michael W. Deem and Ramdas Pophale) SiO2 
 PCOD9422037
Probable space group: P C C A
;
_chemical_formula_sum "Si O2"
_cell_formula_units_Z 32
_cell_length_a 13.570844
_cell_length_b 8.193806
_cell_length_c 12.554602
_cell_angle_alpha 90.000000
_cell_angle_beta 90.000000
_cell_angle_gamma 90.000000
_cell_volume 1396.032359
_symmetry_space_group_name_H-M "P C C A"
_symmetry_group_IT_number 54
_symmetry_cell_setting 'orthorhombic'
loop_
_space_group_symop_operation_xyz
x,y,z
1/2-x,-y,z
1/2+x,-y,1/2-z
-x,y,1/2-z
-x,-y,-z
1/2+x,y,-z
1/2-x,y,1/2+z
x,-y,1/2+z
loop_
_atom_site_type_symbol
_atom_site_label
_atom_site_fract_x
_atom_site_fract_y
_atom_site_fract_z
Si Si1 0.393987 0.174534 0.306462
Si Si2 0.927088 0.120840 0.067373
Si Si3 0.770184 0.198367 0.894499
Si Si4 0.575532 0.355456 0.970436
O O1 0.500000 0.171124 0.250000
O O2 0.317500 0.233613 0.219456
O O3 0.401805 0.279775 0.412706
O O4 0.373750 0.990167 0.346613
O O5 0.005523 0.249281 0.107760
O O6 0.851624 0.208776 0.988123
O O7 0.000000 0.000000 0.000000
O O8 0.682219 0.324976 0.917148
O O9 0.750000 0.000000 0.896916
O O10 0.500000 0.500000 0.000000
#
# Coordination Sequence:
#
# PCOD9422037 Si02
#       4
#     8   8   8   8
#     4  11  21  42  74 100 144 195 253 313 373 451
#     4  10  20  42  67 105 145 185 242 323 372 433
#     4  12  22  40  77 110 137 196 263 307 380 458
#     4  11  25  46  71 104 158 197 245 323 396 468
#
# _framework density 22.922104999999998
#
# number of rings (size 3 to 8) (size 9 to 14) (size 15 to 20)
#    0.000    1.000   10.000    0.000    3.500    1.000 
#    0.000    3.750    5.500    0.000    0.000    0.000 
#    0.000    0.000    0.000    0.000    0.000    0.000 
#
# Total GULP energy -178285.383976 kJ/mol
# GULP energy per Si atom -5571.418249 kJ/mol
# Density = 2.286993 g / cm^3
# Si number density = 22.922105 Si / 1000 Ang^3
#
#
#
# Elastic Constant Matrix: (Units=GPa)
#
#
# Indices 1 2 3 4 5 6 
#
# 1 170.2742 65.1450 70.1489 0.0000 0.0000 0.0000
# 2 65.1450 62.7627 24.7057 0.0000 0.0000 0.0000
# 3 70.1489 24.7057 137.1248 0.0000 0.0000 0.0000
# 4 0.0000 0.0000 0.0000 12.9352 0.0000 0.0000
# 5 0.0000 0.0000 0.0000 0.0000 52.1752 0.0000
# 6 0.0000 0.0000 0.0000 0.0000 0.0000 42.1324
#
#
#
# Elastic Compliance Matrix: (Units=1/GPa)
#
#
# Indices 1 2 3 4 5 6 
#
# 1 0.011480 -0.010337 -0.004010 0.000000 0.000000 0.000000
# 2 -0.010337 0.026457 0.000521 0.000000 0.000000 0.000000
# 3 -0.004010 0.000521 0.009250 0.000000 0.000000 0.000000
# 4 0.000000 0.000000 0.000000 0.077308 0.000000 0.000000
# 5 0.000000 0.000000 0.000000 0.000000 0.019166 0.000000
# 6 0.000000 0.000000 0.000000 0.000000 0.000000 0.023735
#
#
# Mechanical properties :
#
#
# Convention : Reuss Voigt Hill
#
# Bulk Modulus (GPa) = 51.18940 76.68457 63.93698
# Shear Modulus (GPa) = 24.80647 35.45938 30.13293
#
# Velocity S-wave (km/s) = 3.29326 3.93740 3.62965
# Velocity P-wave (km/s) = 6.06969 7.36192 6.74681
#
# Compressibility (1/GPa) = 0.01953529
#
# Stress axis : x y z
#
# Youngs Moduli (GPa) = 87.10899 37.79686 108.10490
#
# Poissons Ratio (x) = 0.39071 0.43354
# Poissons Ratio (y) = 0.90045 -0.05636
# Poissons Ratio (z) = 0.34934 -0.01970
#
# Static dielectric constant tensor:
#      x y z
#    x 11.171010 0.000000 0.000000 
#    y 0.000000 2.038370 0.000000 
#    z 0.000000 0.000000 1.758320 
# 
# From -- ./inp_files/7943.got.cif
#   From: 2010.05.17/outbox.cif.g08.bks.cpg/sg54_4_cif.got.tgz:7943.got - 2010.06.03 13:09:01.
