data_PCOD9422553
_publ_section_title
;
Structure prediction by ZEFSAII (Michael W. Deem and Ramdas Pophale) SiO2 
 PCOD9422553
Probable space group: P C C A
;
_chemical_formula_sum "Si O2"
_cell_formula_units_Z 60
_cell_length_a 8.538448
_cell_length_b 15.830627
_cell_length_c 19.921432
_cell_angle_alpha 90.000000
_cell_angle_beta 90.000000
_cell_angle_gamma 90.000000
_cell_volume 2692.759752
_symmetry_space_group_name_H-M "P C C A"
_symmetry_group_IT_number 54
_symmetry_cell_setting 'orthorhombic'
loop_
_space_group_symop_operation_xyz
x,y,z
1/2-x,-y,z
1/2+x,-y,1/2-z
-x,y,1/2-z
-x,-y,-z
1/2+x,y,-z
1/2-x,y,1/2+z
x,-y,1/2+z
loop_
_atom_site_type_symbol
_atom_site_label
_atom_site_fract_x
_atom_site_fract_y
_atom_site_fract_z
Si Si1 0.750000 0.000000 0.588143
Si Si2 0.645288 0.361648 0.915298
Si Si3 0.786490 0.665692 0.563109
Si Si4 0.744484 0.174185 0.404789
Si Si5 0.824884 0.415017 0.270866
Si Si6 0.374588 0.298855 0.305082
Si Si7 0.927619 0.154331 0.030470
Si Si8 0.508406 0.105961 0.176913
O O1 0.663014 0.069280 0.544299
O O2 0.881404 0.048622 0.631208
O O3 0.457504 0.374488 0.922737
O O4 0.696976 0.267992 0.890473
O O5 0.700475 0.413643 0.851029
O O6 0.719991 0.364166 0.990556
O O7 0.656156 0.659052 0.621836
O O8 0.837108 0.765374 0.562465
O O9 0.591097 0.177278 0.452714
O O10 0.672074 0.120119 0.345671
O O11 0.896606 0.141398 0.444120
O O12 0.750000 0.500000 0.241857
O O13 0.777826 0.326547 0.235792
O O14 0.000000 0.425058 0.250000
O O15 0.500000 0.332795 0.250000
O O16 0.416372 0.200679 0.315893
O O17 0.500000 0.066302 0.250000
#
# Coordination Sequence:
#
# PCOD9422553 Si02
#       8
#     4   8   8   8   8   8   8   8
#     4  12  24  40  62  90 138 170 226 286 336 400
#     4  10  22  41  70 101 139 172 230 284 339 402
#     4  10  21  40  68 103 131 179 228 279 336 409
#     4  10  22  41  65  92 128 172 228 275 335 403
#     4  12  26  48  71 105 140 184 228 280 337 411
#     4  11  23  43  72  98 137 180 233 275 339 413
#     4  10  22  38  63  95 126 170 221 281 332 398
#     4  11  25  42  61  93 129 179 223 279 341 399
#
# _framework density 22.281973000000001
#
# number of rings (size 3 to 8) (size 9 to 14) (size 15 to 20)
#    0.000    1.333    2.667    2.800    7.467    3.733 
#    0.000    2.000    0.000    0.000    0.000    0.000 
#    0.000    0.000    0.000    0.000    0.000    0.000 
#
# Total GULP energy -334345.319439 kJ/mol
# GULP energy per Si atom -5572.421991 kJ/mol
# Density = 2.223126 g / cm^3
# Si number density = 22.281973 Si / 1000 Ang^3
#
#
#
# Elastic Constant Matrix: (Units=GPa)
#
#
# Indices 1 2 3 4 5 6 
#
# 1 87.9112 18.0271 8.0732 0.0000 0.0000 0.0000
# 2 18.0271 36.7640 5.7076 0.0000 0.0000 0.0000
# 3 8.0732 5.7076 88.7508 0.0000 0.0000 0.0000
# 4 0.0000 0.0000 0.0000 6.3847 0.0000 0.0000
# 5 0.0000 0.0000 0.0000 0.0000 27.6210 0.0000
# 6 0.0000 0.0000 0.0000 0.0000 0.0000 42.8387
#
#
#
# Elastic Compliance Matrix: (Units=1/GPa)
#
#
# Indices 1 2 3 4 5 6 
#
# 1 0.012698 -0.006108 -0.000762 0.000000 0.000000 0.000000
# 2 -0.006108 0.030413 -0.001400 0.000000 0.000000 0.000000
# 3 -0.000762 -0.001400 0.011427 0.000000 0.000000 0.000000
# 4 0.000000 0.000000 0.000000 0.156624 0.000000 0.000000
# 5 0.000000 0.000000 0.000000 0.000000 0.036204 0.000000
# 6 0.000000 0.000000 0.000000 0.000000 0.000000 0.023343
#
#
# Mechanical properties :
#
#
# Convention : Reuss Voigt Hill
#
# Bulk Modulus (GPa) = 26.31814 30.78242 28.55028
# Shear Modulus (GPa) = 16.67138 27.47676 22.07407
#
# Velocity S-wave (km/s) = 2.73829 3.51542 3.15090
# Velocity P-wave (km/s) = 4.67276 5.50658 5.10672
#
# Compressibility (1/GPa) = 0.03799660
#
# Stress axis : x y z
#
# Youngs Moduli (GPa) = 78.75507 32.88081 87.51288
#
# Poissons Ratio (x) = 0.20083 0.06670
# Poissons Ratio (y) = 0.48103 0.12254
# Poissons Ratio (z) = 0.06003 0.04604
#
# Static dielectric constant tensor:
#      x y z
#    x 1.855740 0.000000 0.000000 
#    y 0.000000 1.806550 0.000000 
#    z 0.000000 0.000000 2.408960 
# 
# From -- ./inp_files/16837.got.cif
#   From: 2010.05.17/outbox.cif.g08.bks.cpg/sg54_9_cif.got.tgz:16837.got - 2010.06.03 13:09:01.
