data_PCOD9422137
_publ_section_title
;
Structure prediction by ZEFSAII (Michael W. Deem and Ramdas Pophale) SiO2 
 PCOD9422137
Probable space group: P C C A
;
_chemical_formula_sum "Si O2"
_cell_formula_units_Z 60
_cell_length_a 24.393179
_cell_length_b 9.571834
_cell_length_c 11.502566
_cell_angle_alpha 90.000000
_cell_angle_beta 90.000000
_cell_angle_gamma 90.000000
_cell_volume 2685.704920
_symmetry_space_group_name_H-M "P C C A"
_symmetry_group_IT_number 54
_symmetry_cell_setting 'orthorhombic'
loop_
_space_group_symop_operation_xyz
x,y,z
1/2-x,-y,z
1/2+x,-y,1/2-z
-x,y,1/2-z
-x,-y,-z
1/2+x,y,-z
1/2-x,y,1/2+z
x,-y,1/2+z
loop_
_atom_site_type_symbol
_atom_site_label
_atom_site_fract_x
_atom_site_fract_y
_atom_site_fract_z
Si Si1 0.866903 0.906332 0.696733
Si Si2 0.225976 0.160456 0.126068
Si Si3 0.165779 0.196595 0.745830
Si Si4 0.545963 0.897350 0.402442
Si Si5 0.500000 0.682466 0.250000
Si Si6 0.055027 0.493141 0.580023
Si Si7 0.865746 0.708973 0.029133
Si Si8 0.915969 0.820006 0.456922
O O1 0.820090 0.838493 0.774200
O O2 0.919856 0.908056 0.780834
O O3 0.885332 0.832434 0.579453
O O4 0.839368 0.057576 0.673420
O O5 0.277124 0.234579 0.187790
O O6 0.192936 0.238587 0.023035
O O7 0.250000 0.000000 0.102254
O O8 0.130422 0.147518 0.637360
O O9 0.140881 0.308726 0.832812
O O10 0.499635 0.786141 0.362817
O O11 0.587219 0.823071 0.493204
O O12 0.538989 0.058110 0.439641
O O13 0.545402 0.573957 0.297692
O O14 0.107643 0.569194 0.523903
O O15 0.064323 0.329536 0.583933
O O16 0.000000 0.500000 0.500000
#
# Coordination Sequence:
#
# PCOD9422137 Si02
#       8
#     8   8   8   8   4   8   8   8
#     4   9  18  36  59  93 128 162 213 271 333 389
#     4   9  20  35  67  98 128 179 219 279 342 405
#     4  10  21  35  64  96 130 171 218 279 327 401
#     4   9  19  39  63  90 124 169 212 288 330 394
#     4  10  22  42  62  90 128 166 224 274 350 400
#     4  11  26  44  68  93 134 189 223 285 357 430
#     4  10  21  42  63  96 135 171 230 281 345 410
#     4  11  22  39  65  98 132 172 229 277 344 417
#
# _framework density 22.340502999999998
#
# number of rings (size 3 to 8) (size 9 to 14) (size 15 to 20)
#    0.000    2.133    1.333    1.600    3.733    1.067 
#    2.400    2.667    0.000    0.000    0.000    0.000 
#    0.000    0.000    0.000    0.000    0.000    0.000 
#
# Total GULP energy -334060.261112 kJ/mol
# GULP energy per Si atom -5567.671019 kJ/mol
# Density = 2.228966 g / cm^3
# Si number density = 22.340503 Si / 1000 Ang^3
#
#
#
# Elastic Constant Matrix: (Units=GPa)
#
#
# Indices 1 2 3 4 5 6 
#
# 1 58.3679 14.2964 5.2450 0.0000 0.0000 0.0000
# 2 14.2964 114.0382 8.7321 0.0000 0.0000 0.0000
# 3 5.2450 8.7321 81.1706 0.0000 0.0000 0.0000
# 4 0.0000 0.0000 0.0000 19.4966 0.0000 0.0000
# 5 0.0000 0.0000 0.0000 0.0000 24.7385 0.0000
# 6 0.0000 0.0000 0.0000 0.0000 0.0000 24.5987
#
#
#
# Elastic Compliance Matrix: (Units=1/GPa)
#
#
# Indices 1 2 3 4 5 6 
#
# 1 0.017743 -0.002154 -0.000915 0.000000 0.000000 0.000000
# 2 -0.002154 0.009103 -0.000840 0.000000 0.000000 0.000000
# 3 -0.000915 -0.000840 0.012469 0.000000 0.000000 0.000000
# 4 0.000000 0.000000 0.000000 0.051291 0.000000 0.000000
# 5 0.000000 0.000000 0.000000 0.000000 0.040423 0.000000
# 6 0.000000 0.000000 0.000000 0.000000 0.000000 0.040653
#
#
# Mechanical properties :
#
#
# Convention : Reuss Voigt Hill
#
# Bulk Modulus (GPa) = 31.74907 34.45819 33.10363
# Shear Modulus (GPa) = 26.31597 28.78698 27.55147
#
# Velocity S-wave (km/s) = 3.43585 3.59354 3.51558
# Velocity P-wave (km/s) = 5.47562 5.71626 5.59723
#
# Compressibility (1/GPa) = 0.03149698
#
# Stress axis : x y z
#
# Youngs Moduli (GPa) = 56.36164 109.84922 80.19753
#
# Poissons Ratio (x) = 0.23664 0.07336
# Poissons Ratio (y) = 0.12142 0.06738
# Poissons Ratio (z) = 0.05155 0.09229
#
# Static dielectric constant tensor:
#      x y z
#    x 1.956820 0.000000 0.000000 
#    y 0.000000 1.939350 0.000000 
#    z 0.000000 0.000000 1.895680 
# 
# From -- ./inp_files/10362.got.cif
#   From: 2010.05.17/outbox.cif.g08.bks.cpg/sg54_6_cif.got.tgz:10362.got - 2010.06.03 13:09:01.
