data_PCOD9422259
_publ_section_title
;
Structure prediction by ZEFSAII (Michael W. Deem and Ramdas Pophale) SiO2 
 PCOD9422259
Probable space group: P C C A
;
_chemical_formula_sum "Si O2"
_cell_formula_units_Z 48
_cell_length_a 8.105322
_cell_length_b 8.223275
_cell_length_c 29.337756
_cell_angle_alpha 90.000000
_cell_angle_beta 90.000000
_cell_angle_gamma 90.000000
_cell_volume 1955.428673
_symmetry_space_group_name_H-M "P C C A"
_symmetry_group_IT_number 54
_symmetry_cell_setting 'orthorhombic'
loop_
_space_group_symop_operation_xyz
x,y,z
1/2-x,-y,z
1/2+x,-y,1/2-z
-x,y,1/2-z
-x,-y,-z
1/2+x,y,-z
1/2-x,y,1/2+z
x,-y,1/2+z
loop_
_atom_site_type_symbol
_atom_site_label
_atom_site_fract_x
_atom_site_fract_y
_atom_site_fract_z
Si Si1 0.441901 0.133747 0.558887
Si Si2 0.574135 0.686548 0.353176
Si Si3 0.883914 0.773489 0.480148
Si Si4 0.426142 0.591492 0.906190
Si Si5 0.717980 0.192611 0.169787
Si Si6 0.806860 0.822525 0.766928
O O1 0.410846 0.163961 0.611449
O O2 0.604517 0.204030 0.534661
O O3 0.304388 0.240642 0.533484
O O4 0.429813 0.948432 0.543062
O O5 0.561309 0.525660 0.382868
O O6 0.387241 0.708409 0.335847
O O7 0.691708 0.702880 0.309961
O O8 0.997857 0.647752 0.453841
O O9 0.250000 0.500000 0.911308
O O10 0.399202 0.736908 0.869312
O O11 0.688801 0.216311 0.223879
O O12 0.750000 0.000000 0.163279
O O13 0.000000 0.834372 0.750000
O O14 0.750000 0.000000 0.783277
#
# Coordination Sequence:
#
# PCOD9422259 Si02
#       6
#     8   8   8   8   8   8
#     4  10  23  41  66  92 123 165 214 270 306 372
#     4  10  21  37  62  91 133 166 201 262 322 375
#     4  10  23  42  64  94 125 163 218 259 316 373
#     4  10  22  39  65  96 130 169 205 256 328 385
#     4   9  18  37  67  93 119 167 220 260 301 370
#     4   9  19  37  66  94 123 164 218 266 303 368
#
# _framework density 24.547046999999999
#
# number of rings (size 3 to 8) (size 9 to 14) (size 15 to 20)
#    0.000    2.333    0.000    1.000    7.000    1.333 
#    0.000    0.000   29.333    0.000    0.000    0.000 
#    0.000    0.000    0.000    0.000    0.000    0.000 
#
# Total GULP energy -267978.838549 kJ/mol
# GULP energy per Si atom -5582.892470 kJ/mol
# Density = 2.449118 g / cm^3
# Si number density = 24.547047 Si / 1000 Ang^3
#
#
#
# Elastic Constant Matrix: (Units=GPa)
#
#
# Indices 1 2 3 4 5 6 
#
# 1 29.8269 4.9384 -12.8708 0.0000 0.0000 0.0000
# 2 4.9384 78.4699 47.6683 0.0000 0.0000 0.0000
# 3 -12.8708 47.6683 86.7079 0.0000 0.0000 0.0000
# 4 0.0000 0.0000 0.0000 -78.4277 0.0000 0.0000
# 5 0.0000 0.0000 0.0000 0.0000 34.0776 0.0000
# 6 0.0000 0.0000 0.0000 0.0000 0.0000 26.4685
#
#
#
# Elastic Compliance Matrix: (Units=1/GPa)
#
#
# Indices 1 2 3 4 5 6 
#
# 1 0.039754 -0.009139 0.010925 0.000000 0.000000 0.000000
# 2 -0.009139 0.021234 -0.013030 0.000000 0.000000 0.000000
# 3 0.010925 -0.013030 0.020318 0.000000 0.000000 0.000000
# 4 0.000000 0.000000 0.000000 -0.012751 0.000000 0.000000
# 5 0.000000 0.000000 0.000000 0.000000 0.029345 0.000000
# 6 0.000000 0.000000 0.000000 0.000000 0.000000 0.037781
#
#
# Mechanical properties :
#
#
# Convention : Reuss Voigt Hill
#
# Bulk Modulus (GPa) = 17.00127 30.49740 23.74934
# Shear Modulus (GPa) = 28.12535 6.77494 17.45014
#
# Velocity S-wave (km/s) = 3.38860 1.66312 2.66914
# Velocity P-wave (km/s) = 4.71711 4.01734 4.38122
#
# Compressibility (1/GPa) = 0.05881912
#
# Stress axis : x y z
#
# Youngs Moduli (GPa) = 25.15460 47.09341 49.21710
#
# Poissons Ratio (x) = 0.43036 -0.53770
# Poissons Ratio (y) = 0.22988 0.64131
# Poissons Ratio (z) = -0.27481 0.61364
#
# Static dielectric constant tensor:
#      x y z
#    x 2.025600 0.000000 0.000000 
#    y 0.000000 1.973200 0.000000 
#    z 0.000000 0.000000 1.998680 
# 
# From -- ./inp_files/27750.got.cif
#   From: 2010.05.17/outbox.cif.g08.bks.cpg/sg54_14_cif.got.tgz:27750.got - 2010.06.03 13:09:01.
