data_PCOD9422441
_publ_section_title
;
Structure prediction by ZEFSAII (Michael W. Deem and Ramdas Pophale) SiO2 
 PCOD9422441
Probable space group: P C C A
;
_chemical_formula_sum "Si O2"
_cell_formula_units_Z 36
_cell_length_a 5.509923
_cell_length_b 11.687074
_cell_length_c 24.320304
_cell_angle_alpha 90.000000
_cell_angle_beta 90.000000
_cell_angle_gamma 90.000000
_cell_volume 1566.103005
_symmetry_space_group_name_H-M "P C C A"
_symmetry_group_IT_number 54
_symmetry_cell_setting 'orthorhombic'
loop_
_space_group_symop_operation_xyz
x,y,z
1/2-x,-y,z
1/2+x,-y,1/2-z
-x,y,1/2-z
-x,-y,-z
1/2+x,y,-z
1/2-x,y,1/2+z
x,-y,1/2+z
loop_
_atom_site_type_symbol
_atom_site_label
_atom_site_fract_x
_atom_site_fract_y
_atom_site_fract_z
Si Si1 0.963884 0.269404 0.125127
Si Si2 0.486977 0.131826 0.522152
Si Si3 0.250000 0.500000 0.886277
Si Si4 0.747223 0.125919 0.214612
Si Si5 0.374305 0.612604 0.696755
O O1 0.039816 0.164927 0.085802
O O2 0.180393 0.309911 0.165184
O O3 0.879536 0.383688 0.091211
O O4 0.759552 0.219157 0.166048
O O5 0.747429 0.182100 0.505727
O O6 0.500000 0.000000 0.500000
O O7 0.452965 0.557593 0.848471
O O8 0.500000 0.119556 0.250000
O O9 0.000000 0.138714 0.250000
O O10 0.750000 0.000000 0.187489
O O11 0.250000 0.500000 0.722512
O O12 0.500000 0.665163 0.750000
#
# Coordination Sequence:
#
# PCOD9422441 Si02
#       5
#     8   8   4   8   8
#     4  11  26  42  75 106 154 200 253 315 373 457
#     4  10  25  50  79 110 134 184 262 325 385 434
#     4  10  24  40  66 104 162 192 250 290 388 444
#     4  10  25  45  64 103 151 199 243 297 369 444
#     4  10  21  39  64 105 157 210 247 290 356 455
#
# _framework density 22.986992999999998
#
# number of rings (size 3 to 8) (size 9 to 14) (size 15 to 20)
#    0.000    1.778    1.111    0.000   12.444    0.000 
#   12.000    1.111    0.000    0.000    0.000    0.000 
#    0.000    0.000    0.000    0.000    0.000    0.000 
#
# Total GULP energy -200485.012935 kJ/mol
# GULP energy per Si atom -5569.028137 kJ/mol
# Density = 2.293467 g / cm^3
# Si number density = 22.986993 Si / 1000 Ang^3
#
#
#
# Elastic Constant Matrix: (Units=GPa)
#
#
# Indices 1 2 3 4 5 6 
#
# 1 134.5761 18.5922 25.1623 0.0000 0.0000 0.0000
# 2 18.5922 146.1612 50.9475 0.0000 0.0000 0.0000
# 3 25.1623 50.9475 80.2690 0.0000 0.0000 0.0000
# 4 0.0000 0.0000 0.0000 25.0319 0.0000 0.0000
# 5 0.0000 0.0000 0.0000 0.0000 25.6807 0.0000
# 6 0.0000 0.0000 0.0000 0.0000 0.0000 18.4270
#
#
#
# Elastic Compliance Matrix: (Units=1/GPa)
#
#
# Indices 1 2 3 4 5 6 
#
# 1 0.007897 -0.000182 -0.002360 0.000000 0.000000 0.000000
# 2 -0.000182 0.008790 -0.005522 0.000000 0.000000 0.000000
# 3 -0.002360 -0.005522 0.016703 0.000000 0.000000 0.000000
# 4 0.000000 0.000000 0.000000 0.039949 0.000000 0.000000
# 5 0.000000 0.000000 0.000000 0.000000 0.038940 0.000000
# 6 0.000000 0.000000 0.000000 0.000000 0.000000 0.054268
#
#
# Mechanical properties :
#
#
# Convention : Reuss Voigt Hill
#
# Bulk Modulus (GPa) = 57.93135 61.15670 59.54402
# Shear Modulus (GPa) = 26.53531 31.58154 29.05843
#
# Velocity S-wave (km/s) = 3.40128 3.71062 3.55931
# Velocity P-wave (km/s) = 6.37820 6.70976 6.54608
#
# Compressibility (1/GPa) = 0.01726181
#
# Stress axis : x y z
#
# Youngs Moduli (GPa) = 126.62795 113.77009 59.87046
#
# Poissons Ratio (x) = 0.02069 0.14130
# Poissons Ratio (y) = 0.02303 0.33060
# Poissons Ratio (z) = 0.29886 0.62822
#
# Static dielectric constant tensor:
#      x y z
#    x 2.019830 0.000000 0.000000 
#    y 0.000000 1.946550 0.000000 
#    z 0.000000 0.000000 1.801410 
# 
# From -- ./inp_files/22693.got.cif
#   From: 2010.05.17/outbox.cif.g08.bks.cpg/sg54_12_cif.got.tgz:22693.got - 2010.06.03 13:09:01.
