data_PCOD9422193
_publ_section_title
;
Structure prediction by ZEFSAII (Michael W. Deem and Ramdas Pophale) SiO2 
 PCOD9422193
Probable space group: P C C A
;
_chemical_formula_sum "Si O2"
_cell_formula_units_Z 48
_cell_length_a 8.274502
_cell_length_b 13.567032
_cell_length_c 20.665297
_cell_angle_alpha 90.000000
_cell_angle_beta 90.000000
_cell_angle_gamma 90.000000
_cell_volume 2319.895198
_symmetry_space_group_name_H-M "P C C A"
_symmetry_group_IT_number 54
_symmetry_cell_setting 'orthorhombic'
loop_
_space_group_symop_operation_xyz
x,y,z
1/2-x,-y,z
1/2+x,-y,1/2-z
-x,y,1/2-z
-x,-y,-z
1/2+x,y,-z
1/2-x,y,1/2+z
x,-y,1/2+z
loop_
_atom_site_type_symbol
_atom_site_label
_atom_site_fract_x
_atom_site_fract_y
_atom_site_fract_z
Si Si1 0.750000 0.000000 0.803725
Si Si2 0.365372 0.263837 0.870314
Si Si3 0.063676 0.463697 0.321411
Si Si4 0.998111 0.320866 0.672927
Si Si5 0.376899 0.147916 0.097582
Si Si6 0.780659 0.116254 0.531351
Si Si7 0.000000 0.852988 0.750000
O O1 0.631584 0.938955 0.850224
O O2 0.847009 0.922374 0.761877
O O3 0.441890 0.373666 0.871907
O O4 0.180992 0.287064 0.848240
O O5 0.340782 0.189981 0.930393
O O6 0.462073 0.209502 0.813528
O O7 0.250000 0.500000 0.313574
O O8 0.973612 0.564006 0.341457
O O9 0.000000 0.433159 0.250000
O O10 0.000000 0.308890 0.750000
O O11 0.121746 0.249933 0.636408
O O12 0.541582 0.138108 0.057526
O O13 0.236899 0.136357 0.044936
O O14 0.750000 0.000000 0.542666
#
# Coordination Sequence:
#
# PCOD9422193 Si02
#       7
#     4   8   8   8   8   8   4
#     4  12  28  40  60  88 128 162 200 258 312 364
#     4  10  21  36  60  88 119 159 203 251 301 366
#     4   9  17  35  58  88 119 155 196 248 316 370
#     4   9  19  37  63  88 123 157 194 256 320 366
#     4  11  24  41  61  88 119 165 209 250 304 367
#     4  11  23  40  61  83 120 167 212 249 297 362
#     4  12  26  38  60  92 124 156 204 254 306 366
#
# _framework density 20.690588000000002
#
# number of rings (size 3 to 8) (size 9 to 14) (size 15 to 20)
#    0.000    1.667    1.667    2.500    9.333    0.000 
#    0.000    0.833    0.000    0.000    0.000    0.000 
#    0.000    0.000    0.000    0.000    0.000    0.000 
#
# Total GULP energy -268100.084509 kJ/mol
# GULP energy per Si atom -5585.418427 kJ/mol
# Density = 2.064350 g / cm^3
# Si number density = 20.690588 Si / 1000 Ang^3
#
#
#
# Elastic Constant Matrix: (Units=GPa)
#
#
# Indices 1 2 3 4 5 6 
#
# 1 34.1324 13.6100 2.6152 0.0000 0.0000 0.0000
# 2 13.6100 155.8748 49.0250 0.0000 0.0000 0.0000
# 3 2.6152 49.0250 49.7084 0.0000 0.0000 0.0000
# 4 0.0000 0.0000 0.0000 8.4338 0.0000 0.0000
# 5 0.0000 0.0000 0.0000 0.0000 26.4892 0.0000
# 6 0.0000 0.0000 0.0000 0.0000 0.0000 19.4950
#
#
#
# Elastic Compliance Matrix: (Units=1/GPa)
#
#
# Indices 1 2 3 4 5 6 
#
# 1 0.030429 -0.003122 0.001478 0.000000 0.000000 0.000000
# 2 -0.003122 0.009621 -0.009324 0.000000 0.000000 0.000000
# 3 0.001478 -0.009324 0.029235 0.000000 0.000000 0.000000
# 4 0.000000 0.000000 0.000000 0.118570 0.000000 0.000000
# 5 0.000000 0.000000 0.000000 0.000000 0.037751 0.000000
# 6 0.000000 0.000000 0.000000 0.000000 0.000000 0.051295
#
#
# Mechanical properties :
#
#
# Convention : Reuss Voigt Hill
#
# Bulk Modulus (GPa) = 21.11956 41.13510 31.12733
# Shear Modulus (GPa) = 15.89217 22.51463 19.20340
#
# Velocity S-wave (km/s) = 2.77444 3.30230 3.04981
# Velocity P-wave (km/s) = 4.52691 5.87065 5.24201
#
# Compressibility (1/GPa) = 0.04734948
#
# Stress axis : x y z
#
# Youngs Moduli (GPa) = 32.86312 103.94455 34.20510
#
# Poissons Ratio (x) = 0.32448 -0.05055
# Poissons Ratio (y) = 0.10259 0.31893
# Poissons Ratio (z) = -0.04857 0.96918
#
# Static dielectric constant tensor:
#      x y z
#    x 1.788540 0.000000 0.000000 
#    y 0.000000 1.763870 0.000000 
#    z 0.000000 0.000000 1.698300 
# 
# From -- ./inp_files/16674.got.cif
#   From: 2010.05.17/outbox.cif.g08.bks.cpg/sg54_9_cif.got.tgz:16674.got - 2010.06.03 13:09:01.
