data_PCOD9422043
_publ_section_title
;
Structure prediction by ZEFSAII (Michael W. Deem and Ramdas Pophale) SiO2 
 PCOD9422043
Probable space group: P C C A
;
_chemical_formula_sum "Si O2"
_cell_formula_units_Z 32
_cell_length_a 8.587964
_cell_length_b 12.557885
_cell_length_c 14.851063
_cell_angle_alpha 90.000000
_cell_angle_beta 90.000000
_cell_angle_gamma 90.000000
_cell_volume 1601.637606
_symmetry_space_group_name_H-M "P C C A"
_symmetry_group_IT_number 54
_symmetry_cell_setting 'orthorhombic'
loop_
_space_group_symop_operation_xyz
x,y,z
1/2-x,-y,z
1/2+x,-y,1/2-z
-x,y,1/2-z
-x,-y,-z
1/2+x,y,-z
1/2-x,y,1/2+z
x,-y,1/2+z
loop_
_atom_site_type_symbol
_atom_site_label
_atom_site_fract_x
_atom_site_fract_y
_atom_site_fract_z
Si Si1 0.358344 0.291618 0.057995
Si Si2 0.821057 0.313630 0.271766
Si Si3 0.153728 0.893670 0.189245
Si Si4 0.688937 0.614546 0.594273
O O1 0.226100 0.338015 0.125579
O O2 0.388748 0.173876 0.099008
O O3 0.512649 0.360227 0.070271
O O4 0.294935 0.298865 0.957670
O O5 0.769145 0.190206 0.261384
O O6 0.715278 0.375555 0.200662
O O7 0.000000 0.331853 0.250000
O O8 0.000000 0.910033 0.250000
O O9 0.250000 0.000000 0.171168
O O10 0.750000 0.500000 0.564015
#
# Coordination Sequence:
#
# PCOD9422043 Si02
#       4
#     8   8   8   8
#     4  10  23  42  60  96 133 163 225 276 310 409
#     4  10  21  40  64  92 132 168 219 275 319 393
#     4  10  20  42  69  92 129 166 218 274 334 382
#     4  12  23  40  65  92 132 179 215 276 330 384
#
# _framework density 19.97955
#
# number of rings (size 3 to 8) (size 9 to 14) (size 15 to 20)
#    1.500    0.000    2.500    3.750    0.000    3.000 
#    0.000    2.500    0.000    0.000    0.000    0.000 
#    0.000    0.000    0.000    0.000    0.000    0.000 
#
# Total GULP energy -178361.101192 kJ/mol
# GULP energy per Si atom -5573.784412 kJ/mol
# Density = 1.993408 g / cm^3
# Si number density = 19.979550 Si / 1000 Ang^3
#
#
#
# Elastic Constant Matrix: (Units=GPa)
#
#
# Indices 1 2 3 4 5 6 
#
# 1 75.5564 11.9213 -24.0799 0.0000 0.0000 0.0000
# 2 11.9213 93.2599 7.8873 0.0000 0.0000 0.0000
# 3 -24.0799 7.8873 37.7972 0.0000 0.0000 0.0000
# 4 0.0000 0.0000 0.0000 10.8593 0.0000 0.0000
# 5 0.0000 0.0000 0.0000 0.0000 18.1228 0.0000
# 6 0.0000 0.0000 0.0000 0.0000 0.0000 26.9611
#
#
#
# Elastic Compliance Matrix: (Units=1/GPa)
#
#
# Indices 1 2 3 4 5 6 
#
# 1 0.017519 -0.003241 0.011837 0.000000 0.000000 0.000000
# 2 -0.003241 0.011515 -0.004467 0.000000 0.000000 0.000000
# 3 0.011837 -0.004467 0.034930 0.000000 0.000000 0.000000
# 4 0.000000 0.000000 0.000000 0.092087 0.000000 0.000000
# 5 0.000000 0.000000 0.000000 0.000000 0.055179 0.000000
# 6 0.000000 0.000000 0.000000 0.000000 0.000000 0.037090
#
#
# Mechanical properties :
#
#
# Convention : Reuss Voigt Hill
#
# Bulk Modulus (GPa) = 13.84605 22.00791 17.92698
# Shear Modulus (GPa) = 18.92961 25.24762 22.08862
#
# Velocity S-wave (km/s) = 3.08141 3.55867 3.32861
# Velocity P-wave (km/s) = 4.42778 5.28438 4.87493
#
# Compressibility (1/GPa) = 0.07222277
#
# Stress axis : x y z
#
# Youngs Moduli (GPa) = 57.08101 86.84498 28.62836
#
# Poissons Ratio (x) = 0.28143 -0.33888
# Poissons Ratio (y) = 0.18497 0.12789
# Poissons Ratio (z) = -0.67568 0.38796
#
# Static dielectric constant tensor:
#      x y z
#    x 1.679070 0.000000 0.000000 
#    y 0.000000 1.727330 0.000000 
#    z 0.000000 0.000000 1.692610 
# 
# From -- ./inp_files/11244.got.cif
#   From: 2010.05.17/outbox.cif.g08.bks.cpg/sg54_6_cif.got.tgz:11244.got - 2010.06.03 13:09:01.
