data_PCOD9422782
_publ_section_title
;
Structure prediction by ZEFSAII (Michael W. Deem and Ramdas Pophale) SiO2 
 PCOD9422782
Probable space group: P C C A
;
_chemical_formula_sum "Si O2"
_cell_formula_units_Z 52
_cell_length_a 8.901719
_cell_length_b 13.177686
_cell_length_c 20.083286
_cell_angle_alpha 90.000000
_cell_angle_beta 90.000000
_cell_angle_gamma 90.000000
_cell_volume 2355.850943
_symmetry_space_group_name_H-M "P C C A"
_symmetry_group_IT_number 54
_symmetry_cell_setting 'orthorhombic'
loop_
_space_group_symop_operation_xyz
x,y,z
1/2-x,-y,z
1/2+x,-y,1/2-z
-x,y,1/2-z
-x,-y,-z
1/2+x,y,-z
1/2-x,y,1/2+z
x,-y,1/2+z
loop_
_atom_site_type_symbol
_atom_site_label
_atom_site_fract_x
_atom_site_fract_y
_atom_site_fract_z
Si Si1 0.500000 0.835618 0.250000
Si Si2 0.463315 0.863354 0.460689
Si Si3 0.815308 0.272843 0.140994
Si Si4 0.511747 0.233955 0.326957
Si Si5 0.219533 0.751731 0.060055
Si Si6 0.572805 0.004576 0.361493
Si Si7 0.881681 0.427512 0.037771
O O1 0.621212 0.764485 0.212127
O O2 0.552706 0.913036 0.307816
O O3 0.339348 0.819195 0.410182
O O4 0.615880 0.797613 0.450051
O O5 0.395939 0.836164 0.531651
O O6 0.492288 0.972506 0.429896
O O7 0.636099 0.286344 0.141722
O O8 0.911561 0.361989 0.104893
O O9 0.500000 0.259486 0.250000
O O10 0.663395 0.266804 0.365110
O O11 0.512190 0.110717 0.333260
O O12 0.184984 0.653137 0.015621
O O13 0.750000 0.000000 0.373968
O O14 0.750000 0.500000 0.059590
O O15 0.000000 0.500000 0.000000
#
# Coordination Sequence:
#
# PCOD9422782 Si02
#       7
#     4   8   8   8   8   8   8
#     4  10  22  36  66  86 148 174 228 260 320 398
#     4  10  22  39  64  90 133 175 222 288 330 389
#     4  10  23  41  65 100 129 177 218 284 345 401
#     4  12  24  40  66  95 141 183 227 270 330 408
#     4  11  22  42  64  98 130 169 225 282 354 400
#     4  11  21  38  58  95 130 184 234 264 317 399
#     4  11  22  43  75  97 124 164 222 285 354 421
#
# _framework density 22.072703000000001
#
# number of rings (size 3 to 8) (size 9 to 14) (size 15 to 20)
#    0.000    1.231    2.308    5.538    2.154    2.462 
#    0.000    0.000    6.769    0.000    0.000    0.000 
#    0.000    0.000    0.000    0.000    0.000    0.000 
#
# Total GULP energy -290126.519365 kJ/mol
# GULP energy per Si atom -5579.356142 kJ/mol
# Density = 2.202246 g / cm^3
# Si number density = 22.072703 Si / 1000 Ang^3
#
#
#
# Elastic Constant Matrix: (Units=GPa)
#
#
# Indices 1 2 3 4 5 6 
#
# 1 71.4193 -6.4493 3.5333 0.0000 0.0000 0.0000
# 2 -6.4493 78.8701 1.0628 0.0000 0.0000 0.0000
# 3 3.5333 1.0628 103.2446 0.0000 0.0000 0.0000
# 4 0.0000 0.0000 0.0000 38.3389 0.0000 0.0000
# 5 0.0000 0.0000 0.0000 0.0000 29.6121 0.0000
# 6 0.0000 0.0000 0.0000 0.0000 0.0000 34.0857
#
#
#
# Elastic Compliance Matrix: (Units=1/GPa)
#
#
# Indices 1 2 3 4 5 6 
#
# 1 0.014131 0.001162 -0.000496 0.000000 0.000000 0.000000
# 2 0.001162 0.012776 -0.000171 0.000000 0.000000 0.000000
# 3 -0.000496 -0.000171 0.009704 0.000000 0.000000 0.000000
# 4 0.000000 0.000000 0.000000 0.026083 0.000000 0.000000
# 5 0.000000 0.000000 0.000000 0.000000 0.033770 0.000000
# 6 0.000000 0.000000 0.000000 0.000000 0.000000 0.029338
#
#
# Mechanical properties :
#
#
# Convention : Reuss Voigt Hill
#
# Bulk Modulus (GPa) = 26.59373 27.75862 27.17617
# Shear Modulus (GPa) = 36.40423 37.43316 36.91870
#
# Velocity S-wave (km/s) = 4.06555 4.12260 4.09417
# Velocity P-wave (km/s) = 5.84060 5.93839 5.88970
#
# Compressibility (1/GPa) = 0.03760285
#
# Stress axis : x y z
#
# Youngs Moduli (GPa) = 70.76498 78.26916 103.04541
#
# Poissons Ratio (x) = -0.09096 0.05107
# Poissons Ratio (y) = -0.08224 0.01765
# Poissons Ratio (z) = 0.03507 0.01341
#
# Static dielectric constant tensor:
#      x y z
#    x 1.836660 0.000000 0.000000 
#    y 0.000000 1.884790 0.000000 
#    z 0.000000 0.000000 1.857070 
# 
# From -- ./inp_files/20469.got.cif
#   From: 2010.05.17/outbox.cif.g08.bks.cpg/sg54_11_cif.got.tgz:20469.got - 2010.06.03 13:09:01.
