data_PCOD9422290
_publ_section_title
;
Structure prediction by ZEFSAII (Michael W. Deem and Ramdas Pophale) SiO2 
 PCOD9422290
Probable space group: P C C A
;
_chemical_formula_sum "Si O2"
_cell_formula_units_Z 32
_cell_length_a 5.363378
_cell_length_b 18.528389
_cell_length_c 14.115712
_cell_angle_alpha 90.000000
_cell_angle_beta 90.000000
_cell_angle_gamma 90.000000
_cell_volume 1402.745407
_symmetry_space_group_name_H-M "P C C A"
_symmetry_group_IT_number 54
_symmetry_cell_setting 'orthorhombic'
loop_
_space_group_symop_operation_xyz
x,y,z
1/2-x,-y,z
1/2+x,-y,1/2-z
-x,y,1/2-z
-x,-y,-z
1/2+x,y,-z
1/2-x,y,1/2+z
x,-y,1/2+z
loop_
_atom_site_type_symbol
_atom_site_label
_atom_site_fract_x
_atom_site_fract_y
_atom_site_fract_z
Si Si1 0.618301 0.770335 0.107647
Si Si2 0.247387 0.080470 0.314218
Si Si3 0.503812 0.544406 0.864317
Si Si4 0.893389 0.708118 0.395085
O O1 0.688179 0.854352 0.114776
O O2 0.359736 0.739945 0.148643
O O3 0.855149 0.732906 0.154952
O O4 0.606160 0.744349 0.999079
O O5 0.500000 0.090725 0.250000
O O6 0.000000 0.081180 0.250000
O O7 0.250000 0.000000 0.357642
O O8 0.250000 0.500000 0.888734
O O9 0.500000 0.554175 0.750000
O O10 0.561839 0.622991 0.906787
O O11 0.750000 0.500000 0.888241
#
# Coordination Sequence:
#
# PCOD9422290 Si02
#       4
#     8   8   8   8
#     4  10  21  38  56  85 120 154 195 240 296 356
#     4  10  21  38  61  88 118 156 201 248 299 357
#     4  10  21  38  59  84 115 153 197 246 297 351
#     4  10  21  38  58  85 120 155 196 240 296 360
#
# _framework density 22.812408000000001
#
# number of rings (size 3 to 8) (size 9 to 14) (size 15 to 20)
#    0.000    2.000    0.000    3.000    0.000    3.000 
#    0.000   20.000    0.000    0.000    0.000    0.000 
#    0.000    0.000    0.000    0.000    0.000    0.000 
#
# Total GULP energy -178445.972773 kJ/mol
# GULP energy per Si atom -5576.436649 kJ/mol
# Density = 2.276049 g / cm^3
# Si number density = 22.812408 Si / 1000 Ang^3
#
#
#
# Elastic Constant Matrix: (Units=GPa)
#
#
# Indices 1 2 3 4 5 6 
#
# 1 255.0587 79.2391 36.2186 0.0000 0.0000 0.0000
# 2 79.2391 259.5918 58.5946 0.0000 0.0000 0.0000
# 3 36.2186 58.5946 89.2747 0.0000 0.0000 0.0000
# 4 0.0000 0.0000 0.0000 45.6988 0.0000 0.0000
# 5 0.0000 0.0000 0.0000 0.0000 5.4308 0.0000
# 6 0.0000 0.0000 0.0000 0.0000 0.0000 26.7309
#
#
#
# Elastic Compliance Matrix: (Units=1/GPa)
#
#
# Indices 1 2 3 4 5 6 
#
# 1 0.004416 -0.001108 -0.001065 0.000000 0.000000 0.000000
# 2 -0.001108 0.004800 -0.002701 0.000000 0.000000 0.000000
# 3 -0.001065 -0.002701 0.013406 0.000000 0.000000 0.000000
# 4 0.000000 0.000000 0.000000 0.021882 0.000000 0.000000
# 5 0.000000 0.000000 0.000000 0.000000 0.184134 0.000000
# 6 0.000000 0.000000 0.000000 0.000000 0.000000 0.037410
#
#
# Mechanical properties :
#
#
# Convention : Reuss Voigt Hill
#
# Bulk Modulus (GPa) = 77.66685 105.78109 91.72397
# Shear Modulus (GPa) = 17.85164 44.23031 31.04097
#
# Velocity S-wave (km/s) = 2.80043 4.40804 3.69278
# Velocity P-wave (km/s) = 6.67655 8.50755 7.64705
#
# Compressibility (1/GPa) = 0.01287551
#
# Stress axis : x y z
#
# Youngs Moduli (GPa) = 226.45196 208.33392 74.59307
#
# Poissons Ratio (x) = 0.23076 0.07941
# Poissons Ratio (y) = 0.25083 0.20148
# Poissons Ratio (z) = 0.24107 0.56272
#
# Static dielectric constant tensor:
#      x y z
#    x 1.672740 0.000000 0.000000 
#    y 0.000000 2.048850 0.000000 
#    z 0.000000 0.000000 2.360860 
# 
# From -- ./inp_files/15664.got.cif
#   From: 2010.05.17/outbox.cif.g08.bks.cpg/sg54_8_cif.got.tgz:15664.got - 2010.06.03 13:09:01.
