data_PCOD9422278
_publ_section_title
;
Structure prediction by ZEFSAII (Michael W. Deem and Ramdas Pophale) SiO2 
 PCOD9422278
Probable space group: P C C A
;
_chemical_formula_sum "Si O2"
_cell_formula_units_Z 64
_cell_length_a 11.799534
_cell_length_b 13.034164
_cell_length_c 19.521432
_cell_angle_alpha 90.000000
_cell_angle_beta 90.000000
_cell_angle_gamma 90.000000
_cell_volume 3002.338874
_symmetry_space_group_name_H-M "P C C A"
_symmetry_group_IT_number 54
_symmetry_cell_setting 'orthorhombic'
loop_
_space_group_symop_operation_xyz
x,y,z
1/2-x,-y,z
1/2+x,-y,1/2-z
-x,y,1/2-z
-x,-y,-z
1/2+x,y,-z
1/2-x,y,1/2+z
x,-y,1/2+z
loop_
_atom_site_type_symbol
_atom_site_label
_atom_site_fract_x
_atom_site_fract_y
_atom_site_fract_z
Si Si1 0.609942 0.213466 0.369321
Si Si2 0.208576 0.823405 0.279635
Si Si3 0.496528 0.423529 0.087596
Si Si4 0.937658 0.950611 0.063256
Si Si5 0.234139 0.338864 0.897734
Si Si6 0.682032 0.208937 0.971976
Si Si7 0.492257 0.641418 0.428935
Si Si8 0.599776 0.956212 0.197026
O O1 0.648401 0.198832 0.291473
O O2 0.562062 0.328651 0.374579
O O3 0.515654 0.133266 0.396851
O O4 0.719044 0.193621 0.417380
O O5 0.196459 0.738772 0.337633
O O6 0.339851 0.854616 0.274882
O O7 0.163074 0.933992 0.302373
O O8 0.632860 0.423305 0.102712
O O9 0.450779 0.537814 0.101774
O O10 0.475040 0.392275 0.008335
O O11 0.919827 0.045001 0.115776
O O12 0.840291 0.886858 0.023256
O O13 0.000000 0.000000 0.000000
O O14 0.370101 0.348745 0.893030
O O15 0.219565 0.294699 0.974023
O O16 0.571011 0.257500 0.934297
O O17 0.500000 0.973277 0.250000
#
# Coordination Sequence:
#
# PCOD9422278 Si02
#       8
#     8   8   8   8   8   8   8   8
#     4  12  24  44  63  99 134 177 222 267 343 402
#     4  11  26  39  68  90 128 183 215 270 321 408
#     4  10  21  37  69  98 126 171 213 277 329 398
#     4  12  26  40  67  96 133 173 220 283 327 393
#     4  11  20  42  66  94 127 166 225 269 335 396
#     4  11  23  40  64  99 132 169 215 282 334 396
#     4  10  21  38  65 102 127 163 219 275 336 389
#     4  11  24  43  61  93 132 171 224 259 330 395
#
# _framework density 21.316714999999999
#
# number of rings (size 3 to 8) (size 9 to 14) (size 15 to 20)
#    0.000    1.000    6.250    0.375    5.250    1.000 
#    0.000    0.000    8.250    0.000    0.000    0.000 
#    0.000    0.000    0.000    0.000    0.000    0.000 
#
# Total GULP energy -356549.803083 kJ/mol
# GULP energy per Si atom -5571.090673 kJ/mol
# Density = 2.126820 g / cm^3
# Si number density = 21.316715 Si / 1000 Ang^3
#
#
#
# Elastic Constant Matrix: (Units=GPa)
#
#
# Indices 1 2 3 4 5 6 
#
# 1 71.3713 15.9907 30.6434 0.0000 0.0000 0.0000
# 2 15.9907 53.0074 16.6119 0.0000 0.0000 0.0000
# 3 30.6434 16.6119 96.1370 0.0000 0.0000 0.0000
# 4 0.0000 0.0000 0.0000 11.8380 0.0000 0.0000
# 5 0.0000 0.0000 0.0000 0.0000 25.0418 0.0000
# 6 0.0000 0.0000 0.0000 0.0000 0.0000 -117.3696
#
#
#
# Elastic Compliance Matrix: (Units=1/GPa)
#
#
# Indices 1 2 3 4 5 6 
#
# 1 0.016857 -0.003596 -0.004752 0.000000 0.000000 0.000000
# 2 -0.003596 0.020712 -0.002433 0.000000 0.000000 0.000000
# 3 -0.004752 -0.002433 0.012337 0.000000 0.000000 0.000000
# 4 0.000000 0.000000 0.000000 0.084474 0.000000 0.000000
# 5 0.000000 0.000000 0.000000 0.000000 0.039933 0.000000
# 6 0.000000 0.000000 0.000000 0.000000 0.000000 -0.008520
#
#
# Mechanical properties :
#
#
# Convention : Reuss Voigt Hill
#
# Bulk Modulus (GPa) = 35.27940 38.55642 36.91791
# Shear Modulus (GPa) = 25.40611 -5.61331 9.89640
#
# Velocity S-wave (km/s) = 3.45605 -1.62450 2.15700
# Velocity P-wave (km/s) = 5.70191 3.82204 4.85385
#
# Compressibility (1/GPa) = 0.02834515
#
# Stress axis : x y z
#
# Youngs Moduli (GPa) = 59.32211 48.28003 81.05830
#
# Poissons Ratio (x) = 0.17362 0.38517
# Poissons Ratio (y) = 0.21333 0.19719
# Poissons Ratio (z) = 0.28189 0.11745
#
# Static dielectric constant tensor:
#      x y z
#    x 1.952920 0.000000 0.000000 
#    y 0.000000 1.857710 0.000000 
#    z 0.000000 0.000000 1.781310 
# 
# From -- ./inp_files/17480.got.cif
#   From: 2010.05.17/outbox.cif.g08.bks.cpg/sg54_9_cif.got.tgz:17480.got - 2010.06.03 13:09:01.
