data_PCOD9422438
_publ_section_title
;
Structure prediction by ZEFSAII (Michael W. Deem and Ramdas Pophale) SiO2 
 PCOD9422438
Probable space group: P C C A
;
_chemical_formula_sum "Si O2"
_cell_formula_units_Z 60
_cell_length_a 27.701702
_cell_length_b 8.933552
_cell_length_c 11.869534
_cell_angle_alpha 90.000000
_cell_angle_beta 90.000000
_cell_angle_gamma 90.000000
_cell_volume 2937.408123
_symmetry_space_group_name_H-M "P C C A"
_symmetry_group_IT_number 54
_symmetry_cell_setting 'orthorhombic'
loop_
_space_group_symop_operation_xyz
x,y,z
1/2-x,-y,z
1/2+x,-y,1/2-z
-x,y,1/2-z
-x,-y,-z
1/2+x,y,-z
1/2-x,y,1/2+z
x,-y,1/2+z
loop_
_atom_site_type_symbol
_atom_site_label
_atom_site_fract_x
_atom_site_fract_y
_atom_site_fract_z
Si Si1 0.000000 0.310973 0.750000
Si Si2 0.892772 0.567554 0.207515
Si Si3 0.639998 0.780385 0.896161
Si Si4 0.987944 0.171799 0.511452
Si Si5 0.196586 0.063011 0.430512
Si Si6 0.635434 0.899276 0.274911
Si Si7 0.373581 0.787432 0.991153
Si Si8 0.425768 0.743092 0.386120
O O1 0.949098 0.394344 0.733416
O O2 0.004216 0.220324 0.635124
O O3 0.864432 0.636374 0.315224
O O4 0.870799 0.653815 0.098587
O O5 0.898477 0.396650 0.170032
O O6 0.633651 0.931465 0.822432
O O7 0.687515 0.815543 0.970972
O O8 0.599551 0.772332 0.993636
O O9 0.930828 0.185474 0.502994
O O10 0.017904 0.265528 0.417611
O O11 0.000000 0.000000 0.500000
O O12 0.180215 0.122814 0.309311
O O13 0.250000 0.000000 0.432538
O O14 0.158482 0.926859 0.449078
O O15 0.640087 0.782570 0.377480
O O16 0.587194 0.874036 0.201097
#
# Coordination Sequence:
#
# PCOD9422438 Si02
#       8
#     4   8   8   8   8   8   8   8
#     4  10  24  38  60  82 134 186 216 272 318 382
#     4  11  23  42  62  92 144 180 227 268 335 410
#     4  10  21  43  64  97 135 168 225 288 336 397
#     4  11  22  36  60  90 131 175 226 274 327 391
#     4  10  21  41  70 103 125 166 233 292 352 415
#     4  10  21  39  63  97 130 167 222 281 338 400
#     4  10  23  36  58  94 133 167 220 277 340 401
#     4  11  25  38  67  98 134 188 225 267 342 411
#
# _framework density 20.426169999999999
#
# number of rings (size 3 to 8) (size 9 to 14) (size 15 to 20)
#    0.000    1.600    2.667    2.400    3.733    5.867 
#    0.000    0.000    0.000    3.200    6.933    0.000 
#    0.000    0.000    0.000    0.000    0.000    0.000 
#
# Total GULP energy -334524.803107 kJ/mol
# GULP energy per Si atom -5575.413385 kJ/mol
# Density = 2.037968 g / cm^3
# Si number density = 20.426170 Si / 1000 Ang^3
#
#
#
# Elastic Constant Matrix: (Units=GPa)
#
#
# Indices 1 2 3 4 5 6 
#
# 1 88.1486 17.2479 43.9389 0.0000 0.0000 0.0000
# 2 17.2479 63.3946 39.5120 0.0000 0.0000 0.0000
# 3 43.9389 39.5120 149.4808 0.0000 0.0000 0.0000
# 4 0.0000 0.0000 0.0000 18.5053 0.0000 0.0000
# 5 0.0000 0.0000 0.0000 0.0000 15.2409 0.0000
# 6 0.0000 0.0000 0.0000 0.0000 0.0000 20.8431
#
#
#
# Elastic Compliance Matrix: (Units=1/GPa)
#
#
# Indices 1 2 3 4 5 6 
#
# 1 0.013399 -0.001426 -0.003562 0.000000 0.000000 0.000000
# 2 -0.001426 0.019037 -0.004613 0.000000 0.000000 0.000000
# 3 -0.003562 -0.004613 0.008956 0.000000 0.000000 0.000000
# 4 0.000000 0.000000 0.000000 0.054039 0.000000 0.000000
# 5 0.000000 0.000000 0.000000 0.000000 0.065613 0.000000
# 6 0.000000 0.000000 0.000000 0.000000 0.000000 0.047977
#
#
# Mechanical properties :
#
#
# Convention : Reuss Voigt Hill
#
# Bulk Modulus (GPa) = 45.06210 55.82463 50.44337
# Shear Modulus (GPa) = 21.22072 24.27287 22.74679
#
# Velocity S-wave (km/s) = 3.22669 3.45094 3.34070
# Velocity P-wave (km/s) = 5.99924 6.57784 6.29519
#
# Compressibility (1/GPa) = 0.02219160
#
# Stress axis : x y z
#
# Youngs Moduli (GPa) = 74.63364 52.52859 111.65548
#
# Poissons Ratio (x) = 0.07488 0.39768
# Poissons Ratio (y) = 0.10639 0.51507
# Poissons Ratio (z) = 0.26582 0.24232
#
# Static dielectric constant tensor:
#      x y z
#    x 1.740220 0.000000 0.000000 
#    y 0.000000 1.742010 0.000000 
#    z 0.000000 0.000000 1.784520 
# 
# From -- ./inp_files/10342.got.cif
#   From: 2010.05.17/outbox.cif.g08.bks.cpg/sg54_6_cif.got.tgz:10342.got - 2010.06.03 13:09:01.
