data_PCOD9422125
_publ_section_title
;
Structure prediction by ZEFSAII (Michael W. Deem and Ramdas Pophale) SiO2 
 PCOD9422125
Probable space group: P C C A
;
_chemical_formula_sum "Si O2"
_cell_formula_units_Z 52
_cell_length_a 22.834180
_cell_length_b 4.819836
_cell_length_c 20.767010
_cell_angle_alpha 90.000000
_cell_angle_beta 90.000000
_cell_angle_gamma 90.000000
_cell_volume 2285.554878
_symmetry_space_group_name_H-M "P C C A"
_symmetry_group_IT_number 54
_symmetry_cell_setting 'orthorhombic'
loop_
_space_group_symop_operation_xyz
x,y,z
1/2-x,-y,z
1/2+x,-y,1/2-z
-x,y,1/2-z
-x,-y,-z
1/2+x,y,-z
1/2-x,y,1/2+z
x,-y,1/2+z
loop_
_atom_site_type_symbol
_atom_site_label
_atom_site_fract_x
_atom_site_fract_y
_atom_site_fract_z
Si Si1 0.788650 0.740102 0.167292
Si Si2 0.551399 0.844862 0.459718
Si Si3 0.034238 0.462276 0.378019
Si Si4 0.894797 0.049348 0.586509
Si Si5 0.893782 0.930536 0.329257
Si Si6 0.000000 0.860407 0.750000
Si Si7 0.817102 0.553682 0.799048
O O1 0.750000 0.500000 0.134336
O O2 0.835017 0.876381 0.120445
O O3 0.817510 0.569437 0.226278
O O4 0.750000 0.000000 0.192299
O O5 0.518808 0.580988 0.428284
O O6 0.600968 0.834150 0.514127
O O7 0.578489 0.989914 0.397437
O O8 0.500000 0.000000 0.500000
O O9 0.055048 0.775920 0.375995
O O10 0.018246 0.337232 0.309287
O O11 0.087060 0.270169 0.405613
O O12 0.944956 0.964328 0.276339
O O13 0.841173 0.137050 0.307554
O O14 0.865441 0.630373 0.334521
O O15 0.750000 0.500000 0.820663
#
# Coordination Sequence:
#
# PCOD9422125 Si02
#       7
#     8   8   8   8   8   4   8
#     4  11  22  38  61  86 114 151 196 251 304 348
#     4   9  22  40  61  87 123 161 197 241 302 372
#     4  10  21  35  58  85 117 155 190 237 298 357
#     4  11  21  38  58  82 115 156 196 235 287 356
#     4  11  23  39  64  94 125 166 207 257 320 376
#     4  10  22  36  58  96 128 150 202 262 314 380
#     4  11  23  42  64  89 122 162 209 258 311 372
#
# _framework density 22.751584999999999
#
# number of rings (size 3 to 8) (size 9 to 14) (size 15 to 20)
#    0.000    1.538    0.000    5.538    0.000   11.077 
#    0.000    2.308    0.000    0.000    0.000    0.000 
#    0.000    0.000    0.000    0.000    0.000    0.000 
#
# Total GULP energy -290951.287166 kJ/mol
# GULP energy per Si atom -5595.217061 kJ/mol
# Density = 2.269980 g / cm^3
# Si number density = 22.751585 Si / 1000 Ang^3
#
#
#
# Elastic Constant Matrix: (Units=GPa)
#
#
# Indices 1 2 3 4 5 6 
#
# 1 90.6808 5.5200 37.7228 0.0000 0.0000 0.0000
# 2 5.5200 74.0227 9.8092 0.0000 0.0000 0.0000
# 3 37.7228 9.8092 127.9065 0.0000 0.0000 0.0000
# 4 0.0000 0.0000 0.0000 20.6612 0.0000 0.0000
# 5 0.0000 0.0000 0.0000 0.0000 35.1821 0.0000
# 6 0.0000 0.0000 0.0000 0.0000 0.0000 36.3933
#
#
#
# Elastic Compliance Matrix: (Units=1/GPa)
#
#
# Indices 1 2 3 4 5 6 
#
# 1 0.012585 -0.000451 -0.003677 0.000000 0.000000 0.000000
# 2 -0.000451 0.013664 -0.000915 0.000000 0.000000 0.000000
# 3 -0.003677 -0.000915 0.008973 0.000000 0.000000 0.000000
# 4 0.000000 0.000000 0.000000 0.048400 0.000000 0.000000
# 5 0.000000 0.000000 0.000000 0.000000 0.028424 0.000000
# 6 0.000000 0.000000 0.000000 0.000000 0.000000 0.027478
#
#
# Mechanical properties :
#
#
# Convention : Reuss Voigt Hill
#
# Bulk Modulus (GPa) = 39.78391 44.30155 42.04273
# Shear Modulus (GPa) = 31.64809 34.41785 33.03297
#
# Velocity S-wave (km/s) = 3.73369 3.89365 3.81451
# Velocity P-wave (km/s) = 6.00928 6.30303 6.15791
#
# Compressibility (1/GPa) = 0.02513579
#
# Stress axis : x y z
#
# Youngs Moduli (GPa) = 79.46121 73.18368 111.44800
#
# Poissons Ratio (x) = 0.03302 0.40979
# Poissons Ratio (y) = 0.03585 0.10196
# Poissons Ratio (z) = 0.29218 0.06695
#
# Static dielectric constant tensor:
#      x y z
#    x 1.897130 0.000000 0.000000 
#    y 0.000000 1.864120 0.000000 
#    z 0.000000 0.000000 1.857390 
# 
# From -- ./inp_files/22142.got.cif
#   From: 2010.05.17/outbox.cif.g08.bks.cpg/sg54_12_cif.got.tgz:22142.got - 2010.06.03 13:09:01.
