data_PCOD9422895
_publ_section_title
;
Structure prediction by ZEFSAII (Michael W. Deem and Ramdas Pophale) SiO2 
 PCOD9422895
Probable space group: P C C A
;
_chemical_formula_sum "Si O2"
_cell_formula_units_Z 24
_cell_length_a 12.982921
_cell_length_b 8.302629
_cell_length_c 9.652403
_cell_angle_alpha 90.000000
_cell_angle_beta 90.000000
_cell_angle_gamma 90.000000
_cell_volume 1040.455457
_symmetry_space_group_name_H-M "P C C A"
_symmetry_group_IT_number 54
_symmetry_cell_setting 'orthorhombic'
loop_
_space_group_symop_operation_xyz
x,y,z
1/2-x,-y,z
1/2+x,-y,1/2-z
-x,y,1/2-z
-x,-y,-z
1/2+x,y,-z
1/2-x,y,1/2+z
x,-y,1/2+z
loop_
_atom_site_type_symbol
_atom_site_label
_atom_site_fract_x
_atom_site_fract_y
_atom_site_fract_z
Si Si1 0.861610 0.181080 0.935682
Si Si2 0.750000 0.000000 0.686542
Si Si3 0.044590 0.367289 0.898794
Si Si4 0.750000 0.500000 0.508338
O O1 0.985555 0.203567 0.941359
O O2 0.825193 0.090474 0.796386
O O3 0.809465 0.359183 0.927025
O O4 0.818238 0.103851 0.077662
O O5 0.165621 0.396706 0.907352
O O6 0.000000 0.403365 0.750000
O O7 0.000000 0.500000 0.000000
#
# Coordination Sequence:
#
# PCOD9422895 Si02
#       4
#     8   4   8   4
#     4  10  22  42  65  97 139 186 232 282 343 412
#     4  10  22  42  66  98 148 190 226 280 346 420
#     4  10  22  39  64  97 128 170 226 285 346 404
#     4  10  22  42  70  98 132 178 236 294 338 408
#
# _framework density 23.066821999999998
#
# number of rings (size 3 to 8) (size 9 to 14) (size 15 to 20)
#    0.000    2.000    0.000    2.000    0.000   17.333 
#    0.000   18.333    0.000    0.000    0.000    0.000 
#    0.000    0.000    0.000    0.000    0.000    0.000 
#
# Total GULP energy -133816.868458 kJ/mol
# GULP energy per Si atom -5575.702852 kJ/mol
# Density = 2.301432 g / cm^3
# Si number density = 23.066822 Si / 1000 Ang^3
#
#
#
# Elastic Constant Matrix: (Units=GPa)
#
#
# Indices 1 2 3 4 5 6 
#
# 1 185.3569 51.4081 61.1016 0.0000 0.0000 0.0000
# 2 51.4081 97.3582 57.2773 0.0000 0.0000 0.0000
# 3 61.1016 57.2773 150.2359 0.0000 0.0000 0.0000
# 4 0.0000 0.0000 0.0000 37.1689 0.0000 0.0000
# 5 0.0000 0.0000 0.0000 0.0000 19.9489 0.0000
# 6 0.0000 0.0000 0.0000 0.0000 0.0000 50.5330
#
#
#
# Elastic Compliance Matrix: (Units=1/GPa)
#
#
# Indices 1 2 3 4 5 6 
#
# 1 0.006665 -0.002481 -0.001765 0.000000 0.000000 0.000000
# 2 -0.002481 0.014165 -0.004391 0.000000 0.000000 0.000000
# 3 -0.001765 -0.004391 0.009048 0.000000 0.000000 0.000000
# 4 0.000000 0.000000 0.000000 0.026904 0.000000 0.000000
# 5 0.000000 0.000000 0.000000 0.000000 0.050128 0.000000
# 6 0.000000 0.000000 0.000000 0.000000 0.000000 0.019789
#
#
# Mechanical properties :
#
#
# Convention : Reuss Voigt Hill
#
# Bulk Modulus (GPa) = 79.34177 85.83610 82.58894
# Shear Modulus (GPa) = 33.74404 39.07444 36.40924
#
# Velocity S-wave (km/s) = 3.82891 4.12025 3.97725
# Velocity P-wave (km/s) = 7.34973 7.74132 7.54807
#
# Compressibility (1/GPa) = 0.01260370
#
# Stress axis : x y z
#
# Youngs Moduli (GPa) = 150.04133 70.59724 110.52046
#
# Poissons Ratio (x) = 0.17515 0.19504
# Poissons Ratio (y) = 0.37225 0.48533
# Poissons Ratio (z) = 0.26478 0.31001
#
# Static dielectric constant tensor:
#      x y z
#    x 2.037020 0.000000 0.000000 
#    y 0.000000 1.918090 0.000000 
#    z 0.000000 0.000000 1.502500 
# 
# From -- ./inp_files/3115.got.cif
#   From: 2010.05.17/outbox.cif.g08.bks.cpg/sg54_2_cif.got.tgz:3115.got - 2010.06.03 13:09:01.
