data_PCOD9422159
_publ_section_title
;
Structure prediction by ZEFSAII (Michael W. Deem and Ramdas Pophale) SiO2 
 PCOD9422159
Probable space group: P C C A
;
_chemical_formula_sum "Si O2"
_cell_formula_units_Z 56
_cell_length_a 5.427079
_cell_length_b 27.460313
_cell_length_c 16.382225
_cell_angle_alpha 90.000000
_cell_angle_beta 90.000000
_cell_angle_gamma 90.000000
_cell_volume 2441.431328
_symmetry_space_group_name_H-M "P C C A"
_symmetry_group_IT_number 54
_symmetry_cell_setting 'orthorhombic'
loop_
_space_group_symop_operation_xyz
x,y,z
1/2-x,-y,z
1/2+x,-y,1/2-z
-x,y,1/2-z
-x,-y,-z
1/2+x,y,-z
1/2-x,y,1/2+z
x,-y,1/2+z
loop_
_atom_site_type_symbol
_atom_site_label
_atom_site_fract_x
_atom_site_fract_y
_atom_site_fract_z
Si Si1 0.250000 0.713278 0.214585
Si Si2 0.250000 0.942401 0.948129
Si Si3 0.749997 0.445870 0.448458
Si Si4 0.250002 0.307320 0.023877
Si Si5 0.249996 0.201005 0.454863
Si Si6 0.250000 0.135163 0.803323
Si Si7 0.250000 0.599463 0.716999
O O1 0.500000 0.735298 0.250000
O O2 0.249999 0.711471 0.116618
O O3 0.250000 0.656334 0.242480
O O4 0.000000 0.735298 0.250000
O O5 0.250000 0.910131 0.866700
O O6 0.250000 0.000000 0.428673
O O7 0.500000 0.932610 1.000000
O O8 0.750000 0.500000 0.408584
O O9 0.499995 0.443480 0.499999
O O10 0.750000 0.405111 0.379498
O O11 0.500003 0.333838 0.000001
O O12 0.250004 0.259460 0.965003
O O13 0.499995 0.184236 0.500001
O O14 0.249999 0.181444 0.363905
O O15 0.500000 0.134433 0.750000
O O16 0.000000 0.134433 0.750000
O O17 0.500000 0.576794 0.750000
O O18 0.000000 0.576794 0.750000
#
# Coordination Sequence:
#
# PCOD9422159 Si02
#       7
#     8   8   8   8   8   8   8
#     4  10  21  38  58  84 114 142 182 235 285 333
#     4  10  21  39  63  88 118 158 196 231 278 338
#     4  10  21  36  54  80 113 147 187 232 273 321
#     4  10  21  38  59  83 109 146 187 228 280 340
#     4  10  21  41  60  80 112 150 192 232 275 341
#     4  12  24  38  60  89 120 153 190 240 289 327
#     4  10  21  36  56  82 112 146 184 228 280 338
#
# _framework density 22.937363999999999
#
# number of rings (size 3 to 8) (size 9 to 14) (size 15 to 20)
#    0.000    1.714    0.000    4.286    0.000    2.286 
#    0.000   17.143    0.000    0.000    0.000    0.000 
#    0.000    0.000    0.000    0.000    0.000    0.000 
#
# Total GULP energy -313290.369206 kJ/mol
# GULP energy per Si atom -5594.470879 kJ/mol
# Density = 2.288516 g / cm^3
# Si number density = 22.937364 Si / 1000 Ang^3
#
#
#
# Elastic Constant Matrix: (Units=GPa)
#
#
# Indices 1 2 3 4 5 6 
#
# 1 287.0059 18.0102 107.9776 0.0000 0.0000 0.0000
# 2 18.0102 74.7742 7.2997 0.0000 0.0000 0.0000
# 3 107.9776 7.2997 125.9847 0.0000 0.0000 0.0000
# 4 0.0000 0.0000 0.0000 27.0804 0.0000 0.0000
# 5 0.0000 0.0000 0.0000 0.0000 54.1297 0.0000
# 6 0.0000 0.0000 0.0000 0.0000 0.0000 -38.5263
#
#
#
# Elastic Compliance Matrix: (Units=1/GPa)
#
#
# Indices 1 2 3 4 5 6 
#
# 1 0.005192 -0.000821 -0.004402 0.000000 0.000000 0.000000
# 2 -0.000821 0.013579 -0.000083 0.000000 0.000000 0.000000
# 3 -0.004402 -0.000083 0.011715 0.000000 0.000000 0.000000
# 4 0.000000 0.000000 0.000000 0.036927 0.000000 0.000000
# 5 0.000000 0.000000 0.000000 0.000000 0.018474 0.000000
# 6 0.000000 0.000000 0.000000 0.000000 0.000000 -0.025956
#
#
# Mechanical properties :
#
#
# Convention : Reuss Voigt Hill
#
# Bulk Modulus (GPa) = 50.31724 83.81554 67.06639
# Shear Modulus (GPa) = 64.79254 32.16858 48.48056
#
# Velocity S-wave (km/s) = 5.32061 3.74900 4.60239
# Velocity P-wave (km/s) = 7.72850 7.44045 7.58584
#
# Compressibility (1/GPa) = 0.01987390
#
# Stress axis : x y z
#
# Youngs Moduli (GPa) = 192.60362 73.64076 85.35760
#
# Poissons Ratio (x) = 0.06044 0.37577
# Poissons Ratio (y) = 0.15808 0.00711
# Poissons Ratio (z) = 0.84791 0.00614
#
# Static dielectric constant tensor:
#      x y z
#    x 1.890150 0.000000 0.000000 
#    y 0.000000 1.880480 0.000000 
#    z 0.000000 0.000000 1.810900 
# 
# From -- ./inp_files/11007.got.cif
#   From: 2010.05.17/outbox.cif.g08.bks.cpg/sg54_6_cif.got.tgz:11007.got - 2010.06.03 13:09:01.
