data_PCOD9422721
_publ_section_title
;
Structure prediction by ZEFSAII (Michael W. Deem and Ramdas Pophale) SiO2 
 PCOD9422721
Probable space group: P C C A
;
_chemical_formula_sum "Si O2"
_cell_formula_units_Z 40
_cell_length_a 17.995327
_cell_length_b 5.467978
_cell_length_c 17.428882
_cell_angle_alpha 90.000000
_cell_angle_beta 90.000000
_cell_angle_gamma 90.000000
_cell_volume 1714.968040
_symmetry_space_group_name_H-M "P C C A"
_symmetry_group_IT_number 54
_symmetry_cell_setting 'orthorhombic'
loop_
_space_group_symop_operation_xyz
x,y,z
1/2-x,-y,z
1/2+x,-y,1/2-z
-x,y,1/2-z
-x,-y,-z
1/2+x,y,-z
1/2-x,y,1/2+z
x,-y,1/2+z
loop_
_atom_site_type_symbol
_atom_site_label
_atom_site_fract_x
_atom_site_fract_y
_atom_site_fract_z
Si Si1 0.327896 0.617804 0.373635
Si Si2 0.171905 0.116177 0.213403
Si Si3 0.432938 0.763728 0.792229
Si Si4 0.575114 0.012608 0.049195
Si Si5 0.199821 0.252413 0.052059
O O1 0.250000 0.500000 0.397689
O O2 0.312919 0.783039 0.298611
O O3 0.377317 0.416364 0.332808
O O4 0.374118 0.770348 0.436384
O O5 0.159682 0.271366 0.136359
O O6 0.250000 0.000000 0.193334
O O7 0.107214 0.923203 0.227516
O O8 0.500000 0.631465 0.750000
O O9 0.453499 0.929790 0.864749
O O10 0.500000 0.000000 0.000000
O O11 0.633164 0.205443 0.009844
O O12 0.250000 0.500000 0.049046
O O13 0.250000 0.000000 0.042885
#
# Coordination Sequence:
#
# PCOD9422721 Si02
#       5
#     8   8   8   8   8
#     4  11  24  44  79 106 144 204 270 329 388 482
#     4  10  21  44  72 107 145 191 256 325 387 471
#     4  11  25  43  75 107 147 198 265 327 400 471
#     4  11  28  49  70 108 163 206 262 329 411 486
#     4  11  27  46  78 114 158 206 261 323 399 485
#
# _framework density 23.324051000000001
#
# number of rings (size 3 to 8) (size 9 to 14) (size 15 to 20)
#    0.000    1.200    2.000    1.800    8.400    5.600 
#    0.000    0.000    0.000    0.000    0.000    0.000 
#    0.000    0.000    0.000    0.000    0.000    0.000 
#
# Total GULP energy -222958.071550 kJ/mol
# GULP energy per Si atom -5573.951789 kJ/mol
# Density = 2.327096 g / cm^3
# Si number density = 23.324051 Si / 1000 Ang^3
#
#
#
# Elastic Constant Matrix: (Units=GPa)
#
#
# Indices 1 2 3 4 5 6 
#
# 1 165.3613 65.0482 84.9845 0.0000 0.0000 0.0000
# 2 65.0482 106.3593 35.2093 0.0000 0.0000 0.0000
# 3 84.9845 35.2093 111.9343 0.0000 0.0000 0.0000
# 4 0.0000 0.0000 0.0000 19.7830 0.0000 0.0000
# 5 0.0000 0.0000 0.0000 0.0000 47.8810 0.0000
# 6 0.0000 0.0000 0.0000 0.0000 0.0000 11.4956
#
#
#
# Elastic Compliance Matrix: (Units=1/GPa)
#
#
# Indices 1 2 3 4 5 6 
#
# 1 0.011705 -0.004707 -0.007407 0.000000 0.000000 0.000000
# 2 -0.004707 0.012388 -0.000323 0.000000 0.000000 0.000000
# 3 -0.007407 -0.000323 0.014659 0.000000 0.000000 0.000000
# 4 0.000000 0.000000 0.000000 0.050548 0.000000 0.000000
# 5 0.000000 0.000000 0.000000 0.000000 0.020885 0.000000
# 6 0.000000 0.000000 0.000000 0.000000 0.000000 0.086989
#
#
# Mechanical properties :
#
#
# Convention : Reuss Voigt Hill
#
# Bulk Modulus (GPa) = 72.05156 83.79323 77.92239
# Shear Modulus (GPa) = 22.05808 29.05945 25.55877
#
# Velocity S-wave (km/s) = 3.07860 3.53356 3.31390
# Velocity P-wave (km/s) = 6.60270 7.25615 6.93712
#
# Compressibility (1/GPa) = 0.01387895
#
# Stress axis : x y z
#
# Youngs Moduli (GPa) = 85.43022 80.72492 68.21883
#
# Poissons Ratio (x) = 0.37998 0.50527
# Poissons Ratio (y) = 0.40212 0.02202
# Poissons Ratio (z) = 0.63275 0.02606
#
# Static dielectric constant tensor:
#      x y z
#    x 1.780450 0.000000 0.000000 
#    y 0.000000 0.428090 0.000000 
#    z 0.000000 0.000000 2.067940 
# 
# From -- ./inp_files/18346.got.cif
#   From: 2010.05.17/outbox.cif.g08.bks.cpg/sg54_10_cif.got.tgz:18346.got - 2010.06.03 13:09:01.
