data_PCOD9422320
_publ_section_title
;
Structure prediction by ZEFSAII (Michael W. Deem and Ramdas Pophale) SiO2 
 PCOD9422320
Probable space group: P C C A
;
_chemical_formula_sum "Si O2"
_cell_formula_units_Z 48
_cell_length_a 7.913908
_cell_length_b 18.016946
_cell_length_c 14.725469
_cell_angle_alpha 90.000000
_cell_angle_beta 90.000000
_cell_angle_gamma 90.000000
_cell_volume 2099.622944
_symmetry_space_group_name_H-M "P C C A"
_symmetry_group_IT_number 54
_symmetry_cell_setting 'orthorhombic'
loop_
_space_group_symop_operation_xyz
x,y,z
1/2-x,-y,z
1/2+x,-y,1/2-z
-x,y,1/2-z
-x,-y,-z
1/2+x,y,-z
1/2-x,y,1/2+z
x,-y,1/2+z
loop_
_atom_site_type_symbol
_atom_site_label
_atom_site_fract_x
_atom_site_fract_y
_atom_site_fract_z
Si Si1 0.741720 0.588155 0.587791
Si Si2 0.334897 0.155854 0.626844
Si Si3 0.682778 0.915339 0.700787
Si Si4 0.013265 0.913387 0.021991
Si Si5 0.405721 0.674862 0.073449
Si Si6 0.696409 0.425434 0.781901
O O1 0.750000 0.500000 0.558250
O O2 0.630412 0.639288 0.523901
O O3 0.690620 0.582130 0.692628
O O4 0.912194 0.638148 0.592465
O O5 0.296523 0.137810 0.732726
O O6 0.494150 0.117175 0.580055
O O7 0.370923 0.239475 0.592920
O O8 0.179102 0.117796 0.572087
O O9 0.500000 0.916478 0.750000
O O10 0.632721 0.894555 0.597028
O O11 0.750000 0.000000 0.703515
O O12 0.000000 0.000000 0.000000
O O13 0.282560 0.638826 0.147450
O O14 0.750000 0.500000 0.831108
O O15 0.500000 0.431463 0.750000
#
# Coordination Sequence:
#
# PCOD9422320 Si02
#       6
#     8   8   8   8   8   8
#     4  10  21  39  62  87 117 161 212 256 303 378
#     4  11  23  38  59  90 125 159 201 262 330 389
#     4  10  21  38  60  87 118 160 216 267 317 383
#     4  11  22  41  64  87 119 164 217 265 313 382
#     4  11  22  38  59  89 124 157 197 255 323 383
#     4   9  20  38  58  82 113 151 197 243 295 365
#
# _framework density 22.861249000000001
#
# number of rings (size 3 to 8) (size 9 to 14) (size 15 to 20)
#    0.000    1.667    0.000    5.500    0.000    4.000 
#    0.000   13.333    0.000    0.000    0.000    0.000 
#    0.000    0.000    0.000    0.000    0.000    0.000 
#
# Total GULP energy -267304.875642 kJ/mol
# GULP energy per Si atom -5568.851576 kJ/mol
# Density = 2.280922 g / cm^3
# Si number density = 22.861249 Si / 1000 Ang^3
#
#
#
# Elastic Constant Matrix: (Units=GPa)
#
#
# Indices 1 2 3 4 5 6 
#
# 1 57.1480 -0.4670 9.2400 0.0000 0.0000 0.0000
# 2 -0.4670 138.6151 3.9904 0.0000 0.0000 0.0000
# 3 9.2400 3.9904 92.9935 0.0000 0.0000 0.0000
# 4 0.0000 0.0000 0.0000 28.7304 0.0000 0.0000
# 5 0.0000 0.0000 0.0000 0.0000 16.7325 0.0000
# 6 0.0000 0.0000 0.0000 0.0000 0.0000 26.9331
#
#
#
# Elastic Compliance Matrix: (Units=1/GPa)
#
#
# Indices 1 2 3 4 5 6 
#
# 1 0.017786 0.000111 -0.001772 0.000000 0.000000 0.000000
# 2 0.000111 0.007224 -0.000321 0.000000 0.000000 0.000000
# 3 -0.001772 -0.000321 0.010943 0.000000 0.000000 0.000000
# 4 0.000000 0.000000 0.000000 0.034806 0.000000 0.000000
# 5 0.000000 0.000000 0.000000 0.000000 0.059764 0.000000
# 6 0.000000 0.000000 0.000000 0.000000 0.000000 0.037129
#
#
# Mechanical properties :
#
#
# Convention : Reuss Voigt Hill
#
# Bulk Modulus (GPa) = 31.26092 34.92038 33.09065
# Shear Modulus (GPa) = 27.43041 32.87874 30.15458
#
# Velocity S-wave (km/s) = 3.46766 3.79646 3.63578
# Velocity P-wave (km/s) = 5.45315 5.87584 5.66844
#
# Compressibility (1/GPa) = 0.03198882
#
# Stress axis : x y z
#
# Youngs Moduli (GPa) = 56.22456 138.43057 91.38028
#
# Poissons Ratio (x) = -0.01536 0.16192
# Poissons Ratio (y) = -0.00624 0.02933
# Poissons Ratio (z) = 0.09963 0.04444
#
# Static dielectric constant tensor:
#      x y z
#    x 2.317170 0.000000 0.000000 
#    y 0.000000 2.495030 0.000000 
#    z 0.000000 0.000000 1.925740 
# 
# From -- ./inp_files/11718.got.cif
#   From: 2010.05.17/outbox.cif.g08.bks.cpg/sg54_6_cif.got.tgz:11718.got - 2010.06.03 13:09:01.
