data_PCOD9422892
_publ_section_title
;
Structure prediction by ZEFSAII (Michael W. Deem and Ramdas Pophale) SiO2 
 PCOD9422892
Probable space group: P C C A
;
_chemical_formula_sum "Si O2"
_cell_formula_units_Z 28
_cell_length_a 11.855983
_cell_length_b 10.542080
_cell_length_c 9.366768
_cell_angle_alpha 90.000000
_cell_angle_beta 90.000000
_cell_angle_gamma 90.000000
_cell_volume 1170.721621
_symmetry_space_group_name_H-M "P C C A"
_symmetry_group_IT_number 54
_symmetry_cell_setting 'orthorhombic'
loop_
_space_group_symop_operation_xyz
x,y,z
1/2-x,-y,z
1/2+x,-y,1/2-z
-x,y,1/2-z
-x,-y,-z
1/2+x,y,-z
1/2-x,y,1/2+z
x,-y,1/2+z
loop_
_atom_site_type_symbol
_atom_site_label
_atom_site_fract_x
_atom_site_fract_y
_atom_site_fract_z
Si Si1 0.328764 0.330352 0.842989
Si Si2 0.132833 0.147403 0.739706
Si Si3 0.250000 0.500000 0.598270
Si Si4 0.098912 0.914940 0.935286
O O1 0.213958 0.248602 0.814063
O O2 0.331770 0.422673 0.706189
O O3 0.421508 0.221702 0.866002
O O4 0.316492 0.409405 0.988773
O O5 0.168816 0.124114 0.576016
O O6 0.000000 0.187368 0.750000
O O7 0.139438 0.011715 0.816187
O O8 0.000000 0.000000 0.000000
#
# Coordination Sequence:
#
# PCOD9422892 Si02
#       4
#     8   8   4   8
#     4  11  21  42  66  94 136 180 237 275 347 420
#     4  10  22  39  63  99 135 170 226 293 353 411
#     4  10  24  38  68  98 130 194 234 272 342 432
#     4  10  22  39  65  98 133 171 229 298 351 409
#
# _framework density 23.916872000000001
#
# number of rings (size 3 to 8) (size 9 to 14) (size 15 to 20)
#    0.000    1.714    2.857    0.857    4.000    2.286 
#    0.000    1.429    0.000    0.000    0.000    0.000 
#    0.000    0.000    0.000    0.000    0.000    0.000 
#
# Total GULP energy -156261.991007 kJ/mol
# GULP energy per Si atom -5580.785393 kJ/mol
# Density = 2.386244 g / cm^3
# Si number density = 23.916872 Si / 1000 Ang^3
#
#
#
# Elastic Constant Matrix: (Units=GPa)
#
#
# Indices 1 2 3 4 5 6 
#
# 1 16.8286 25.2961 21.1670 0.0000 0.0000 0.0000
# 2 25.2961 181.7447 86.7179 0.0000 0.0000 0.0000
# 3 21.1670 86.7179 217.7364 0.0000 0.0000 0.0000
# 4 0.0000 0.0000 0.0000 45.3455 0.0000 0.0000
# 5 0.0000 0.0000 0.0000 0.0000 13.6112 0.0000
# 6 0.0000 0.0000 0.0000 0.0000 0.0000 25.5482
#
#
#
# Elastic Compliance Matrix: (Units=1/GPa)
#
#
# Indices 1 2 3 4 5 6 
#
# 1 0.077891 -0.008924 -0.004018 0.000000 0.000000 0.000000
# 2 -0.008924 0.007816 -0.002245 0.000000 0.000000 0.000000
# 3 -0.004018 -0.002245 0.005877 0.000000 0.000000 0.000000
# 4 0.000000 0.000000 0.000000 0.022053 0.000000 0.000000
# 5 0.000000 0.000000 0.000000 0.000000 0.073469 0.000000
# 6 0.000000 0.000000 0.000000 0.000000 0.000000 0.039142
#
#
# Mechanical properties :
#
#
# Convention : Reuss Voigt Hill
#
# Bulk Modulus (GPa) = 16.33732 75.85243 46.09487
# Shear Modulus (GPa) = 18.04892 35.77622 26.91257
#
# Velocity S-wave (km/s) = 2.75007 3.87183 3.35812
# Velocity P-wave (km/s) = 4.11456 7.19527 5.86095
#
# Compressibility (1/GPa) = 0.06120954
#
# Stress axis : x y z
#
# Youngs Moduli (GPa) = 12.83849 127.94944 170.14080
#
# Poissons Ratio (x) = 1.14184 0.68360
# Poissons Ratio (y) = 0.11457 0.38199
# Poissons Ratio (z) = 0.05158 0.28727
#
# Static dielectric constant tensor:
#      x y z
#    x 2.028090 0.000000 0.000000 
#    y 0.000000 1.959430 0.000000 
#    z 0.000000 0.000000 2.014710 
# 
# From -- ./inp_files/3193.got.cif
#   From: 2010.05.17/outbox.cif.g08.bks.cpg/sg54_2_cif.got.tgz:3193.got - 2010.06.03 13:09:01.
