data_PCOD9422730
_publ_section_title
;
Structure prediction by ZEFSAII (Michael W. Deem and Ramdas Pophale) SiO2 
 PCOD9422730
Probable space group: P C C A
;
_chemical_formula_sum "Si O2"
_cell_formula_units_Z 44
_cell_length_a 26.768950
_cell_length_b 5.831419
_cell_length_c 12.932994
_cell_angle_alpha 90.000000
_cell_angle_beta 90.000000
_cell_angle_gamma 90.000000
_cell_volume 2018.852826
_symmetry_space_group_name_H-M "P C C A"
_symmetry_group_IT_number 54
_symmetry_cell_setting 'orthorhombic'
loop_
_space_group_symop_operation_xyz
x,y,z
1/2-x,-y,z
1/2+x,-y,1/2-z
-x,y,1/2-z
-x,-y,-z
1/2+x,y,-z
1/2-x,y,1/2+z
x,-y,1/2+z
loop_
_atom_site_type_symbol
_atom_site_label
_atom_site_fract_x
_atom_site_fract_y
_atom_site_fract_z
Si Si1 0.927285 0.214193 0.079252
Si Si2 0.355198 0.557742 0.798293
Si Si3 0.081382 0.489535 0.618053
Si Si4 0.750000 0.500000 0.797062
Si Si5 0.000000 0.764538 0.750000
Si Si6 0.853283 0.150472 0.501056
Si Si7 0.750000 0.000000 0.908225
O O1 0.888348 0.357594 0.149547
O O2 0.968146 0.115605 0.159095
O O3 0.898194 0.022716 0.017364
O O4 0.942754 0.379991 0.984512
O O5 0.387571 0.658689 0.702495
O O6 0.301272 0.470473 0.764893
O O7 0.345724 0.738753 0.887432
O O8 0.038409 0.612218 0.683533
O O9 0.125128 0.660550 0.577872
O O10 0.744187 0.748405 0.853761
O O11 0.802070 0.033416 0.467963
#
# Coordination Sequence:
#
# PCOD9422730 Si02
#       7
#     8   8   8   4   4   8   4
#     4  10  23  42  66  98 139 177 232 294 362 429
#     4  10  24  41  67  97 139 183 236 288 353 425
#     4  10  21  46  64  99 135 180 232 293 361 428
#     4  12  26  44  70 106 142 196 242 292 350 428
#     4  10  22  40  72  96 130 182 232 296 368 426
#     4  11  25  42  68  98 142 184 233 296 352 433
#     4  12  28  44  74 106 148 198 236 292 364 422
#
# _framework density 21.794554000000002
#
# number of rings (size 3 to 8) (size 9 to 14) (size 15 to 20)
#    0.000    1.455    1.818    1.636    7.636    3.636 
#    0.000    9.091    0.000    0.000    0.000    0.000 
#    0.000    0.000    0.000    0.000    0.000    0.000 
#
# Total GULP energy -245356.055857 kJ/mol
# GULP energy per Si atom -5576.273997 kJ/mol
# Density = 2.174495 g / cm^3
# Si number density = 21.794554 Si / 1000 Ang^3
#
#
#
# Elastic Constant Matrix: (Units=GPa)
#
#
# Indices 1 2 3 4 5 6 
#
# 1 58.3618 -1.5699 47.4008 0.0000 0.0000 0.0000
# 2 -1.5699 60.8257 26.3227 0.0000 0.0000 0.0000
# 3 47.4008 26.3227 116.0580 0.0000 0.0000 0.0000
# 4 0.0000 0.0000 0.0000 -61.2762 0.0000 0.0000
# 5 0.0000 0.0000 0.0000 0.0000 38.7934 0.0000
# 6 0.0000 0.0000 0.0000 0.0000 0.0000 11.4907
#
#
#
# Elastic Compliance Matrix: (Units=1/GPa)
#
#
# Indices 1 2 3 4 5 6 
#
# 1 0.027598 0.006199 -0.012677 0.000000 0.000000 0.000000
# 2 0.006199 0.019622 -0.006982 0.000000 0.000000 0.000000
# 3 -0.012677 -0.006982 0.015378 0.000000 0.000000 0.000000
# 4 0.000000 0.000000 0.000000 -0.016320 0.000000 0.000000
# 5 0.000000 0.000000 0.000000 0.000000 0.025778 0.000000
# 6 0.000000 0.000000 0.000000 0.000000 0.000000 0.087027
#
#
# Mechanical properties :
#
#
# Convention : Reuss Voigt Hill
#
# Bulk Modulus (GPa) = 28.03040 42.17252 35.10146
# Shear Modulus (GPa) = 25.26578 8.67437 16.97008
#
# Velocity S-wave (km/s) = 3.40850 1.99717 2.79344
# Velocity P-wave (km/s) = 5.32725 4.97095 5.15218
#
# Compressibility (1/GPa) = 0.03567556
#
# Stress axis : x y z
#
# Youngs Moduli (GPa) = 36.23488 50.96343 65.02923
#
# Poissons Ratio (x) = -0.31590 0.82440
# Poissons Ratio (y) = -0.22460 0.45403
# Poissons Ratio (z) = 0.45937 0.35583
#
# Static dielectric constant tensor:
#      x y z
#    x 1.757660 0.000000 0.000000 
#    y 0.000000 2.117460 0.000000 
#    z 0.000000 0.000000 1.825540 
# 
# From -- ./inp_files/15105.got.cif
#   From: 2010.05.17/outbox.cif.g08.bks.cpg/sg54_8_cif.got.tgz:15105.got - 2010.06.03 13:09:01.
