data_PCOD9422852
_publ_section_title
;
Structure prediction by ZEFSAII (Michael W. Deem and Ramdas Pophale) SiO2 
 PCOD9422852
Probable space group: P C C A
;
_chemical_formula_sum "Si O2"
_cell_formula_units_Z 36
_cell_length_a 15.453390
_cell_length_b 8.036269
_cell_length_c 15.557267
_cell_angle_alpha 90.000000
_cell_angle_beta 90.000000
_cell_angle_gamma 90.000000
_cell_volume 1932.019636
_symmetry_space_group_name_H-M "P C C A"
_symmetry_group_IT_number 54
_symmetry_cell_setting 'orthorhombic'
loop_
_space_group_symop_operation_xyz
x,y,z
1/2-x,-y,z
1/2+x,-y,1/2-z
-x,y,1/2-z
-x,-y,-z
1/2+x,y,-z
1/2-x,y,1/2+z
x,-y,1/2+z
loop_
_atom_site_type_symbol
_atom_site_label
_atom_site_fract_x
_atom_site_fract_y
_atom_site_fract_z
Si Si1 0.098215 0.046134 0.973254
Si Si2 0.192372 0.345007 0.192670
Si Si3 0.565909 0.835970 0.179623
Si Si4 0.750000 0.000000 0.894794
Si Si5 0.442673 0.630349 0.050592
O O1 0.113121 0.971355 0.879437
O O2 0.166328 0.980790 0.043450
O O3 0.099294 0.244124 0.981617
O O4 0.000000 0.000000 0.000000
O O5 0.250000 0.500000 0.221329
O O6 0.130439 0.281502 0.268612
O O7 0.236389 0.172013 0.158398
O O8 0.134873 0.419497 0.113928
O O9 0.500000 0.912594 0.250000
O O10 0.507336 0.728851 0.114568
O O11 0.500000 0.500000 0.000000
#
# Coordination Sequence:
#
# PCOD9422852 Si02
#       5
#     8   8   8   4   8
#     4   9  19  37  62  83 112 159 197 245 300 356
#     4  10  22  39  59  87 126 158 193 262 305 353
#     4   9  19  39  57  84 121 150 199 249 306 365
#     4  10  22  40  60  88 118 156 214 244 298 372
#     4   9  19  38  62  86 114 157 207 247 296 371
#
# _framework density 18.633351000000001
#
# number of rings (size 3 to 8) (size 9 to 14) (size 15 to 20)
#    0.000    2.667    0.000    1.333    6.222    0.889 
#   12.000    1.111    0.000    0.000    0.000    0.000 
#    0.000    0.000    0.000    0.000    0.000    0.000 
#
# Total GULP energy -200407.681292 kJ/mol
# GULP energy per Si atom -5566.880036 kJ/mol
# Density = 1.859094 g / cm^3
# Si number density = 18.633351 Si / 1000 Ang^3
#
#
#
# Elastic Constant Matrix: (Units=GPa)
#
#
# Indices 1 2 3 4 5 6 
#
# 1 69.7371 19.0176 14.7814 0.0000 0.0000 0.0000
# 2 19.0176 51.8963 40.2102 0.0000 0.0000 0.0000
# 3 14.7814 40.2102 80.5853 0.0000 0.0000 0.0000
# 4 0.0000 0.0000 0.0000 18.2651 0.0000 0.0000
# 5 0.0000 0.0000 0.0000 0.0000 23.2467 0.0000
# 6 0.0000 0.0000 0.0000 0.0000 0.0000 29.2030
#
#
#
# Elastic Compliance Matrix: (Units=1/GPa)
#
#
# Indices 1 2 3 4 5 6 
#
# 1 0.015932 -0.005827 -0.000015 0.000000 0.000000 0.000000
# 2 -0.005827 0.033546 -0.015670 0.000000 0.000000 0.000000
# 3 -0.000015 -0.015670 0.020231 0.000000 0.000000 0.000000
# 4 0.000000 0.000000 0.000000 0.054749 0.000000 0.000000
# 5 0.000000 0.000000 0.000000 0.000000 0.043017 0.000000
# 6 0.000000 0.000000 0.000000 0.000000 0.000000 0.034243
#
#
# Mechanical properties :
#
#
# Convention : Reuss Voigt Hill
#
# Bulk Modulus (GPa) = 37.47359 38.91523 38.19441
# Shear Modulus (GPa) = 19.71337 22.69026 21.20181
#
# Velocity S-wave (km/s) = 3.25616 3.49337 3.37685
# Velocity P-wave (km/s) = 5.85589 6.09931 5.97884
#
# Compressibility (1/GPa) = 0.02668546
#
# Stress axis : x y z
#
# Youngs Moduli (GPa) = 62.76802 29.81016 49.42969
#
# Poissons Ratio (x) = 0.17369 0.00074
# Poissons Ratio (y) = 0.36573 0.77455
# Poissons Ratio (z) = 0.00093 0.46712
#
# Static dielectric constant tensor:
#      x y z
#    x 1.601900 0.000000 0.000000 
#    y 0.000000 1.661540 0.000000 
#    z 0.000000 0.000000 1.663670 
# 
# From -- ./inp_files/13090.got.cif
#   From: 2010.05.17/outbox.cif.g08.bks.cpg/sg54_7_cif.got.tgz:13090.got - 2010.06.03 13:09:01.
