data_PCOD9422629
_publ_section_title
;
Structure prediction by ZEFSAII (Michael W. Deem and Ramdas Pophale) SiO2 
 PCOD9422629
Probable space group: P C C A
;
_chemical_formula_sum "Si O2"
_cell_formula_units_Z 36
_cell_length_a 5.141006
_cell_length_b 24.588502
_cell_length_c 12.410029
_cell_angle_alpha 90.000000
_cell_angle_beta 90.000000
_cell_angle_gamma 90.000000
_cell_volume 1568.747253
_symmetry_space_group_name_H-M "P C C A"
_symmetry_group_IT_number 54
_symmetry_cell_setting 'orthorhombic'
loop_
_space_group_symop_operation_xyz
x,y,z
1/2-x,-y,z
1/2+x,-y,1/2-z
-x,y,1/2-z
-x,-y,-z
1/2+x,y,-z
1/2-x,y,1/2+z
x,-y,1/2+z
loop_
_atom_site_type_symbol
_atom_site_label
_atom_site_fract_x
_atom_site_fract_y
_atom_site_fract_z
Si Si1 0.248449 0.117984 0.821207
Si Si2 0.352992 0.226556 0.941971
Si Si3 0.500000 0.417539 0.750000
Si Si4 0.263024 0.342926 0.423448
Si Si5 0.750000 0.500000 0.418875
Si Si6 0.250000 0.000000 0.925996
O O1 0.500000 0.122220 0.750000
O O2 0.275819 0.166631 0.904841
O O3 0.238693 0.056322 0.862450
O O4 0.000000 0.128623 0.750000
O O5 0.261766 0.280679 0.880344
O O6 0.663155 0.231409 0.953757
O O7 0.690868 0.382507 0.673680
O O8 0.324975 0.452248 0.665879
O O9 0.538678 0.349878 0.483898
O O10 0.500000 0.500000 0.500000
O O11 0.500000 0.000000 0.000000
#
# Coordination Sequence:
#
# PCOD9422629 Si02
#       6
#     8   8   4   8   4   4
#     4  12  24  39  63  95 130 166 221 283 333 404
#     4  10  21  42  64  92 131 176 218 274 341 407
#     4  12  26  48  78 106 144 200 234 294 370 420
#     4  10  24  44  69 103 142 181 238 293 344 426
#     4  12  28  48  74 110 148 186 244 296 350 432
#     4  12  24  42  64  88 124 178 222 272 340 408
#
# _framework density 22.948246000000001
#
# number of rings (size 3 to 8) (size 9 to 14) (size 15 to 20)
#    0.000    0.889    0.000    6.667    1.556    4.444 
#    0.000    0.000    0.000    0.000    0.000    0.000 
#    0.000    0.000    0.000    0.000    0.000    0.000 
#
# Total GULP energy -201139.917838 kJ/mol
# GULP energy per Si atom -5587.219940 kJ/mol
# Density = 2.289601 g / cm^3
# Si number density = 22.948246 Si / 1000 Ang^3
#
#
#
# Elastic Constant Matrix: (Units=GPa)
#
#
# Indices 1 2 3 4 5 6 
#
# 1 157.3337 8.0066 30.4364 0.0000 0.0000 0.0000
# 2 8.0066 147.3918 45.0055 0.0000 0.0000 0.0000
# 3 30.4364 45.0055 70.1019 0.0000 0.0000 0.0000
# 4 0.0000 0.0000 0.0000 -56.0373 0.0000 0.0000
# 5 0.0000 0.0000 0.0000 0.0000 24.4005 0.0000
# 6 0.0000 0.0000 0.0000 0.0000 0.0000 33.2727
#
#
#
# Elastic Compliance Matrix: (Units=1/GPa)
#
#
# Indices 1 2 3 4 5 6 
#
# 1 0.006993 0.000681 -0.003473 0.000000 0.000000 0.000000
# 2 0.000681 0.008505 -0.005756 0.000000 0.000000 0.000000
# 3 -0.003473 -0.005756 0.019468 0.000000 0.000000 0.000000
# 4 0.000000 0.000000 0.000000 -0.017845 0.000000 0.000000
# 5 0.000000 0.000000 0.000000 0.000000 0.040983 0.000000
# 6 0.000000 0.000000 0.000000 0.000000 0.000000 0.030055
#
#
# Mechanical properties :
#
#
# Convention : Reuss Voigt Hill
#
# Bulk Modulus (GPa) = 55.96068 60.19161 58.07614
# Shear Modulus (GPa) = 44.95910 19.75244 32.35577
#
# Velocity S-wave (km/s) = 4.43103 2.93702 3.75900
# Velocity P-wave (km/s) = 7.11458 6.14717 6.64849
#
# Compressibility (1/GPa) = 0.01786969
#
# Stress axis : x y z
#
# Youngs Moduli (GPa) = 142.99650 117.57516 51.36577
#
# Poissons Ratio (x) = -0.08003 0.17841
# Poissons Ratio (y) = -0.09733 0.29565
# Poissons Ratio (z) = 0.49666 0.67675
#
# Static dielectric constant tensor:
#      x y z
#    x 1.842210 0.000000 0.000000 
#    y 0.000000 1.688710 0.000000 
#    z 0.000000 0.000000 1.830020 
# 
# From -- ./inp_files/6403.got.cif
#   From: 2010.05.17/outbox.cif.g08.bks.cpg/sg54_4_cif.got.tgz:6403.got - 2010.06.03 13:09:01.
