data_PCOD9422770
_publ_section_title
;
Structure prediction by ZEFSAII (Michael W. Deem and Ramdas Pophale) SiO2 
 PCOD9422770
Probable space group: P C C A
;
_chemical_formula_sum "Si O2"
_cell_formula_units_Z 48
_cell_length_a 19.157723
_cell_length_b 11.681974
_cell_length_c 9.367935
_cell_angle_alpha 90.000000
_cell_angle_beta 90.000000
_cell_angle_gamma 90.000000
_cell_volume 2096.544059
_symmetry_space_group_name_H-M "P C C A"
_symmetry_group_IT_number 54
_symmetry_cell_setting 'orthorhombic'
loop_
_space_group_symop_operation_xyz
x,y,z
1/2-x,-y,z
1/2+x,-y,1/2-z
-x,y,1/2-z
-x,-y,-z
1/2+x,y,-z
1/2-x,y,1/2+z
x,-y,1/2+z
loop_
_atom_site_type_symbol
_atom_site_label
_atom_site_fract_x
_atom_site_fract_y
_atom_site_fract_z
Si Si1 0.447531 0.634224 0.924422
Si Si2 0.634862 0.848929 0.697730
Si Si3 0.217014 0.614512 0.983311
Si Si4 0.288712 0.242743 0.720857
Si Si5 0.089786 0.475603 0.654143
Si Si6 0.665996 0.022005 0.919163
O O1 0.417234 0.750929 0.859005
O O2 0.414572 0.534562 0.823586
O O3 0.529420 0.611641 0.902225
O O4 0.426682 0.598202 0.083957
O O5 0.712177 0.796814 0.722244
O O6 0.639430 0.942850 0.573405
O O7 0.625132 0.917470 0.845891
O O8 0.250000 0.500000 0.919132
O O9 0.272797 0.687260 0.075776
O O10 0.161969 0.572352 0.099156
O O11 0.184338 0.685643 0.854508
O O12 0.335255 0.134519 0.680470
O O13 0.750000 0.000000 0.930712
#
# Coordination Sequence:
#
# PCOD9422770 Si02
#       6
#     8   8   8   8   8   8
#     4  10  22  42  64  91 124 172 216 256 313 387
#     4  11  21  39  61  92 124 166 218 265 310 379
#     4  12  24  36  59  97 134 165 206 260 322 390
#     4  11  22  37  57  92 131 169 202 266 330 377
#     4  10  23  40  63  90 129 170 206 257 319 385
#     4  10  22  36  61  92 126 167 213 265 326 372
#
# _framework density 22.894821
#
# number of rings (size 3 to 8) (size 9 to 14) (size 15 to 20)
#    0.000    1.333    3.333    3.000    4.667    0.000 
#    0.000    0.000    0.000    9.000    0.000    0.000 
#    0.000    0.000    0.000    0.000    0.000    0.000 
#
# Total GULP energy -268336.765385 kJ/mol
# GULP energy per Si atom -5590.349279 kJ/mol
# Density = 2.284271 g / cm^3
# Si number density = 22.894821 Si / 1000 Ang^3
#
#
#
# Elastic Constant Matrix: (Units=GPa)
#
#
# Indices 1 2 3 4 5 6 
#
# 1 37.4534 10.7384 -15.6950 0.0000 0.0000 0.0000
# 2 10.7384 86.2259 28.0822 0.0000 0.0000 0.0000
# 3 -15.6950 28.0822 96.2407 0.0000 0.0000 0.0000
# 4 0.0000 0.0000 0.0000 31.1277 0.0000 0.0000
# 5 0.0000 0.0000 0.0000 0.0000 17.4480 0.0000
# 6 0.0000 0.0000 0.0000 0.0000 0.0000 30.8497
#
#
#
# Elastic Compliance Matrix: (Units=1/GPa)
#
#
# Indices 1 2 3 4 5 6 
#
# 1 0.031361 -0.006156 0.006911 0.000000 0.000000 0.000000
# 2 -0.006156 0.014024 -0.005096 0.000000 0.000000 0.000000
# 3 0.006911 -0.005096 0.013005 0.000000 0.000000 0.000000
# 4 0.000000 0.000000 0.000000 0.032126 0.000000 0.000000
# 5 0.000000 0.000000 0.000000 0.000000 0.057313 0.000000
# 6 0.000000 0.000000 0.000000 0.000000 0.000000 0.032415
#
#
# Mechanical properties :
#
#
# Convention : Reuss Voigt Hill
#
# Bulk Modulus (GPa) = 20.11825 29.57458 24.84641
# Shear Modulus (GPa) = 24.33144 29.00470 26.66807
#
# Velocity S-wave (km/s) = 3.26352 3.56317 3.41663
# Velocity P-wave (km/s) = 4.79657 5.46570 5.14203
#
# Compressibility (1/GPa) = 0.04970611
#
# Stress axis : x y z
#
# Youngs Moduli (GPa) = 31.88683 71.30725 76.89589
#
# Poissons Ratio (x) = 0.43899 -0.53141
# Poissons Ratio (y) = 0.19631 0.39186
# Poissons Ratio (z) = -0.22036 0.36338
#
# Static dielectric constant tensor:
#      x y z
#    x 1.898850 0.000000 0.000000 
#    y 0.000000 1.920290 0.000000 
#    z 0.000000 0.000000 1.899250 
# 
# From -- ./inp_files/5165.got.cif
#   From: 2010.05.17/outbox.cif.g08.bks.cpg/sg54_3_cif.got.tgz:5165.got - 2010.06.03 13:09:01.
