data_PCOD9422501
_publ_section_title
;
Structure prediction by ZEFSAII (Michael W. Deem and Ramdas Pophale) SiO2 
 PCOD9422501
Probable space group: P C C A
;
_chemical_formula_sum "Si O2"
_cell_formula_units_Z 40
_cell_length_a 4.889747
_cell_length_b 26.625906
_cell_length_c 13.853857
_cell_angle_alpha 90.000000
_cell_angle_beta 90.000000
_cell_angle_gamma 90.000000
_cell_volume 1803.688282
_symmetry_space_group_name_H-M "P C C A"
_symmetry_group_IT_number 54
_symmetry_cell_setting 'orthorhombic'
loop_
_space_group_symop_operation_xyz
x,y,z
1/2-x,-y,z
1/2+x,-y,1/2-z
-x,y,1/2-z
-x,-y,-z
1/2+x,y,-z
1/2-x,y,1/2+z
x,-y,1/2+z
loop_
_atom_site_type_symbol
_atom_site_label
_atom_site_fract_x
_atom_site_fract_y
_atom_site_fract_z
Si Si1 0.000000 0.845825 0.750000
Si Si2 0.133011 0.592158 0.065003
Si Si3 0.250000 0.500000 0.690506
Si Si4 0.000000 0.000000 0.500000
Si Si5 0.727822 0.894465 0.058985
Si Si6 0.471892 0.296611 0.069968
Si Si7 0.500000 0.226000 0.250000
O O1 0.888752 0.877597 0.659911
O O2 0.752131 0.809362 0.776812
O O3 0.100909 0.543332 0.129458
O O4 0.045075 0.645775 0.107955
O O5 0.446479 0.590273 0.030673
O O6 0.500000 0.476151 0.750000
O O7 0.239944 0.044475 0.451192
O O8 0.250000 0.000000 0.584736
O O9 0.525278 0.877245 0.973271
O O10 0.549919 0.260478 0.156900
O O11 0.681536 0.289320 0.981786
#
# Coordination Sequence:
#
# PCOD9422501 Si02
#       7
#     4   8   4   4   8   8   4
#     4  12  26  40  62  97 125 166 210 258 324 374
#     4  10  21  41  63  85 121 164 206 254 313 383
#     4  12  24  36  58  98 126 160 204 254 326 376
#     4   8  16  34  58  84 118 158 200 242 298 352
#     4  10  21  40  62  90 127 165 205 255 308 368
#     4  10  23  43  66  92 122 167 213 260 321 377
#     4  12  26  42  64  95 127 164 214 268 318 376
#
# _framework density 22.176780000000001
#
# number of rings (size 3 to 8) (size 9 to 14) (size 15 to 20)
#    0.000    1.600    0.000    4.200    1.400    4.800 
#    1.800    9.000    0.000    0.000    0.000    0.000 
#    0.000    0.000    0.000    0.000    0.000    0.000 
#
# Total GULP energy -222730.454848 kJ/mol
# GULP energy per Si atom -5568.261371 kJ/mol
# Density = 2.212631 g / cm^3
# Si number density = 22.176780 Si / 1000 Ang^3
#
#
#
# Elastic Constant Matrix: (Units=GPa)
#
#
# Indices 1 2 3 4 5 6 
#
# 1 127.9173 4.8658 -5.5380 0.0000 0.0000 0.0000
# 2 4.8658 97.2485 55.4326 0.0000 0.0000 0.0000
# 3 -5.5380 55.4326 77.3911 0.0000 0.0000 0.0000
# 4 0.0000 0.0000 0.0000 134.9172 0.0000 0.0000
# 5 0.0000 0.0000 0.0000 0.0000 22.6231 0.0000
# 6 0.0000 0.0000 0.0000 0.0000 0.0000 28.6385
#
#
#
# Elastic Compliance Matrix: (Units=1/GPa)
#
#
# Indices 1 2 3 4 5 6 
#
# 1 0.007926 -0.001217 0.001439 0.000000 0.000000 0.000000
# 2 -0.001217 0.017565 -0.012668 0.000000 0.000000 0.000000
# 3 0.001439 -0.012668 0.022098 0.000000 0.000000 0.000000
# 4 0.000000 0.000000 0.000000 0.007412 0.000000 0.000000
# 5 0.000000 0.000000 0.000000 0.000000 0.044203 0.000000
# 6 0.000000 0.000000 0.000000 0.000000 0.000000 0.034918
#
#
# Mechanical properties :
#
#
# Convention : Reuss Voigt Hill
#
# Bulk Modulus (GPa) = 44.05924 45.78642 44.92283
# Shear Modulus (GPa) = 30.01573 53.75552 41.88563
#
# Velocity S-wave (km/s) = 3.68295 4.92871 4.35065
# Velocity P-wave (km/s) = 6.16408 7.28564 6.74820
#
# Compressibility (1/GPa) = 0.02269671
#
# Stress axis : x y z
#
# Youngs Moduli (GPa) = 126.16533 56.93230 45.25288
#
# Poissons Ratio (x) = 0.06926 -0.06510
# Poissons Ratio (y) = 0.15349 0.57327
# Poissons Ratio (z) = -0.18150 0.72122
#
# Static dielectric constant tensor:
#      x y z
#    x 1.912450 0.000000 0.000000 
#    y 0.000000 1.924580 0.000000 
#    z 0.000000 0.000000 1.775190 
# 
# From -- ./inp_files/6496.got.cif
#   From: 2010.05.17/outbox.cif.g08.bks.cpg/sg54_4_cif.got.tgz:6496.got - 2010.06.03 13:09:01.
