data_PCOD9422986
_publ_section_title
;
Structure prediction by ZEFSAII (Michael W. Deem and Ramdas Pophale) SiO2 
 PCOD9422986
Probable space group: P C C A
;
_chemical_formula_sum "Si O2"
_cell_formula_units_Z 40
_cell_length_a 9.524738
_cell_length_b 13.866456
_cell_length_c 12.967189
_cell_angle_alpha 90.000000
_cell_angle_beta 90.000000
_cell_angle_gamma 90.000000
_cell_volume 1712.633193
_symmetry_space_group_name_H-M "P C C A"
_symmetry_group_IT_number 54
_symmetry_cell_setting 'orthorhombic'
loop_
_space_group_symop_operation_xyz
x,y,z
1/2-x,-y,z
1/2+x,-y,1/2-z
-x,y,1/2-z
-x,-y,-z
1/2+x,y,-z
1/2-x,y,1/2+z
x,-y,1/2+z
loop_
_atom_site_type_symbol
_atom_site_label
_atom_site_fract_x
_atom_site_fract_y
_atom_site_fract_z
Si Si1 0.486237 0.188250 0.998186
Si Si2 0.750000 0.500000 0.884625
Si Si3 0.000000 0.570286 0.750000
Si Si4 0.861474 0.081906 0.311557
Si Si5 0.277206 0.885710 0.886204
Si Si6 0.425915 0.397014 0.973534
O O1 0.574080 0.145602 0.901799
O O2 0.326164 0.164011 0.969175
O O3 0.499124 0.301662 0.014731
O O4 0.561107 0.135689 0.092722
O O5 0.879536 0.512207 0.808008
O O6 0.717898 0.588396 0.962556
O O7 0.924529 0.619175 0.650426
O O8 0.776552 0.143541 0.226725
O O9 0.000000 0.043263 0.250000
O O10 0.750000 0.000000 0.345576
O O11 0.250000 0.000000 0.892985
O O12 0.500000 0.500000 0.000000
#
# Coordination Sequence:
#
# PCOD9422986 Si02
#       6
#     8   4   4   8   8   8
#     4  11  23  40  66  96 131 180 227 277 343 417
#     4  10  22  46  70 104 134 188 236 298 364 422
#     4  10  22  42  72  96 140 188 228 298 366 412
#     4   9  20  39  64  96 135 181 225 277 345 414
#     4  10  22  40  65  98 136 175 221 279 345 411
#     4  10  24  42  69 101 140 181 236 290 351 418
#
# _framework density 23.355848000000002
#
# number of rings (size 3 to 8) (size 9 to 14) (size 15 to 20)
#    0.000    2.000    0.000    1.800    9.800    3.200 
#    0.000    0.000    0.000    0.000    0.000    0.000 
#    0.000    0.000    0.000    0.000    0.000    0.000 
#
# Total GULP energy -223050.262968 kJ/mol
# GULP energy per Si atom -5576.256574 kJ/mol
# Density = 2.330269 g / cm^3
# Si number density = 23.355848 Si / 1000 Ang^3
#
#
#
# Elastic Constant Matrix: (Units=GPa)
#
#
# Indices 1 2 3 4 5 6 
#
# 1 89.3727 21.1438 25.6128 0.0000 0.0000 0.0000
# 2 21.1438 112.9891 4.3679 0.0000 0.0000 0.0000
# 3 25.6128 4.3679 96.0228 0.0000 0.0000 0.0000
# 4 0.0000 0.0000 0.0000 -43.1115 0.0000 0.0000
# 5 0.0000 0.0000 0.0000 0.0000 49.0256 0.0000
# 6 0.0000 0.0000 0.0000 0.0000 0.0000 32.8648
#
#
#
# Elastic Compliance Matrix: (Units=1/GPa)
#
#
# Indices 1 2 3 4 5 6 
#
# 1 0.012658 -0.002242 -0.003274 0.000000 0.000000 0.000000
# 2 -0.002242 0.009263 0.000177 0.000000 0.000000 0.000000
# 3 -0.003274 0.000177 0.011280 0.000000 0.000000 0.000000
# 4 0.000000 0.000000 0.000000 -0.023196 0.000000 0.000000
# 5 0.000000 0.000000 0.000000 0.000000 0.020397 0.000000
# 6 0.000000 0.000000 0.000000 0.000000 0.000000 0.030428
#
#
# Mechanical properties :
#
#
# Convention : Reuss Voigt Hill
#
# Bulk Modulus (GPa) = 44.40286 44.51486 44.45886
# Shear Modulus (GPa) = 63.27775 24.23978 43.75877
#
# Velocity S-wave (km/s) = 5.21073 3.22506 4.33317
# Velocity P-wave (km/s) = 7.43337 5.74184 6.64168
#
# Compressibility (1/GPa) = 0.02252107
#
# Stress axis : x y z
#
# Youngs Moduli (GPa) = 79.00193 107.95463 88.65610
#
# Poissons Ratio (x) = 0.24205 0.29029
# Poissons Ratio (y) = 0.17713 -0.01566
# Poissons Ratio (z) = 0.25868 -0.01907
#
# Static dielectric constant tensor:
#      x y z
#    x 2.023510 0.000000 0.000000 
#    y 0.000000 1.869620 0.000000 
#    z 0.000000 0.000000 1.998730 
# 
# From -- ./inp_files/11545.got.cif
#   From: 2010.05.17/outbox.cif.g08.bks.cpg/sg54_6_cif.got.tgz:11545.got - 2010.06.03 13:09:01.
