data_PCOD9422977
_publ_section_title
;
Structure prediction by ZEFSAII (Michael W. Deem and Ramdas Pophale) SiO2 
 PCOD9422977
Probable space group: P C C A
;
_chemical_formula_sum "Si O2"
_cell_formula_units_Z 32
_cell_length_a 12.195319
_cell_length_b 7.695998
_cell_length_c 17.239498
_cell_angle_alpha 90.000000
_cell_angle_beta 90.000000
_cell_angle_gamma 90.000000
_cell_volume 1618.015682
_symmetry_space_group_name_H-M "P C C A"
_symmetry_group_IT_number 54
_symmetry_cell_setting 'orthorhombic'
loop_
_space_group_symop_operation_xyz
x,y,z
1/2-x,-y,z
1/2+x,-y,1/2-z
-x,y,1/2-z
-x,-y,-z
1/2+x,y,-z
1/2-x,y,1/2+z
x,-y,1/2+z
loop_
_atom_site_type_symbol
_atom_site_label
_atom_site_fract_x
_atom_site_fract_y
_atom_site_fract_z
Si Si1 0.750000 0.000000 0.189212
Si Si2 0.880011 0.725662 0.280262
Si Si3 0.500000 0.606031 0.250000
Si Si4 0.139992 0.114320 0.556054
Si Si5 0.451798 0.155088 0.897370
O O1 0.715686 0.166180 0.239637
O O2 0.854425 0.042194 0.138349
O O3 0.896287 0.524486 0.258953
O O4 0.860278 0.756656 0.370930
O O5 0.000000 0.798713 0.250000
O O6 0.513054 0.714792 0.171103
O O7 0.099695 0.216175 0.479320
O O8 0.250000 0.000000 0.544420
O O9 0.051488 0.968478 0.579779
#
# Coordination Sequence:
#
# PCOD9422977 Si02
#       5
#     4   8   4   8   8
#     4  12  20  40  70  92 130 184 236 272 328 424
#     4  10  22  40  64  95 132 176 225 273 338 402
#     4  10  24  44  60  98 142 178 218 292 344 388
#     4  11  22  41  68  99 130 179 234 273 329 418
#     4  11  23  40  67  97 133 177 227 283 334 401
#
# _framework density 19.777311999999998
#
# number of rings (size 3 to 8) (size 9 to 14) (size 15 to 20)
#    0.750    0.500    5.000    1.500    0.000    2.000 
#    0.000    0.000    5.500    0.000    0.000    0.000 
#    0.000    0.000    0.000    0.000    0.000    0.000 
#
# Total GULP energy -178347.580092 kJ/mol
# GULP energy per Si atom -5573.361878 kJ/mol
# Density = 1.973230 g / cm^3
# Si number density = 19.777312 Si / 1000 Ang^3
#
#
#
# Elastic Constant Matrix: (Units=GPa)
#
#
# Indices 1 2 3 4 5 6 
#
# 1 103.9254 31.0349 32.8199 0.0000 0.0000 0.0000
# 2 31.0349 71.6557 49.9353 0.0000 0.0000 0.0000
# 3 32.8199 49.9353 168.8334 0.0000 0.0000 0.0000
# 4 0.0000 0.0000 0.0000 58.3139 0.0000 0.0000
# 5 0.0000 0.0000 0.0000 0.0000 -46.4118 0.0000
# 6 0.0000 0.0000 0.0000 0.0000 0.0000 28.6941
#
#
#
# Elastic Compliance Matrix: (Units=1/GPa)
#
#
# Indices 1 2 3 4 5 6 
#
# 1 0.011167 -0.004187 -0.000932 0.000000 0.000000 0.000000
# 2 -0.004187 0.019149 -0.004850 0.000000 0.000000 0.000000
# 3 -0.000932 -0.004850 0.007539 0.000000 0.000000 0.000000
# 4 0.000000 0.000000 0.000000 0.017149 0.000000 0.000000
# 5 0.000000 0.000000 0.000000 0.000000 -0.021546 0.000000
# 6 0.000000 0.000000 0.000000 0.000000 0.000000 0.034850
#
#
# Mechanical properties :
#
#
# Convention : Reuss Voigt Hill
#
# Bulk Modulus (GPa) = 55.81449 63.55497 59.68473
# Shear Modulus (GPa) = 53.06911 23.49421 38.28166
#
# Velocity S-wave (km/s) = 5.18571 3.45039 4.40436
# Velocity P-wave (km/s) = 8.00863 6.93387 7.49055
#
# Compressibility (1/GPa) = 0.01791649
#
# Stress axis : x y z
#
# Youngs Moduli (GPa) = 89.54928 52.22332 132.65009
#
# Poissons Ratio (x) = 0.21864 0.12370
# Poissons Ratio (y) = 0.37492 0.64330
# Poissons Ratio (z) = 0.08350 0.25326
#
# Static dielectric constant tensor:
#      x y z
#    x 1.707230 0.000000 0.000000 
#    y 0.000000 1.684740 0.000000 
#    z 0.000000 0.000000 1.740610 
# 
# From -- ./inp_files/17053.got.cif
#   From: 2010.05.17/outbox.cif.g08.bks.cpg/sg54_9_cif.got.tgz:17053.got - 2010.06.03 13:09:01.
