data_PCOD9422727
_publ_section_title
;
Structure prediction by ZEFSAII (Michael W. Deem and Ramdas Pophale) SiO2 
 PCOD9422727
Probable space group: P C C A
;
_chemical_formula_sum "Si O2"
_cell_formula_units_Z 32
_cell_length_a 22.413849
_cell_length_b 4.949319
_cell_length_c 11.718470
_cell_angle_alpha 90.000000
_cell_angle_beta 90.000000
_cell_angle_gamma 90.000000
_cell_volume 1299.968416
_symmetry_space_group_name_H-M "P C C A"
_symmetry_group_IT_number 54
_symmetry_cell_setting 'orthorhombic'
loop_
_space_group_symop_operation_xyz
x,y,z
1/2-x,-y,z
1/2+x,-y,1/2-z
-x,y,1/2-z
-x,-y,-z
1/2+x,y,-z
1/2-x,y,1/2+z
x,-y,1/2+z
loop_
_atom_site_type_symbol
_atom_site_label
_atom_site_fract_x
_atom_site_fract_y
_atom_site_fract_z
Si Si1 0.385074 0.010454 0.247881
Si Si2 0.679225 0.487753 0.865531
Si Si3 0.595959 0.576437 0.060070
Si Si4 0.507324 0.800626 0.894228
O O1 0.346866 0.795192 0.175866
O O2 0.394534 0.850871 0.368128
O O3 0.348703 0.286297 0.221045
O O4 0.450701 0.038737 0.193220
O O5 0.750000 0.500000 0.858253
O O6 0.658168 0.514585 0.998082
O O7 0.553908 0.365862 0.130771
O O8 0.554756 0.589780 0.946421
O O9 0.500000 0.000000 0.000000
#
# Coordination Sequence:
#
# PCOD9422727 Si02
#       4
#     8   8   8   8
#     4  11  25  45  74 111 148 196 252 311 383 465
#     4  11  25  48  74 104 148 195 261 319 369 447
#     4  10  24  45  71 107 150 196 244 309 387 445
#     4  10  21  45  68 105 149 191 242 305 378 460
#
# _framework density 24.61598
#
# number of rings (size 3 to 8) (size 9 to 14) (size 15 to 20)
#    0.000    1.500    2.500    0.750    3.500    2.000 
#    4.500    5.000    0.000    0.000    0.000    0.000 
#    0.000    0.000    0.000    0.000    0.000    0.000 
#
# Total GULP energy -178464.359335 kJ/mol
# GULP energy per Si atom -5577.011229 kJ/mol
# Density = 2.455995 g / cm^3
# Si number density = 24.615980 Si / 1000 Ang^3
#
#
#
# Elastic Constant Matrix: (Units=GPa)
#
#
# Indices 1 2 3 4 5 6 
#
# 1 239.6141 42.9991 58.5532 0.0000 0.0000 0.0000
# 2 42.9991 82.6166 0.2344 0.0000 0.0000 0.0000
# 3 58.5532 0.2344 86.8255 0.0000 0.0000 0.0000
# 4 0.0000 0.0000 0.0000 38.3241 0.0000 0.0000
# 5 0.0000 0.0000 0.0000 0.0000 38.2825 0.0000
# 6 0.0000 0.0000 0.0000 0.0000 0.0000 25.7031
#
#
#
# Elastic Compliance Matrix: (Units=1/GPa)
#
#
# Indices 1 2 3 4 5 6 
#
# 1 0.005621 -0.002915 -0.003783 0.000000 0.000000 0.000000
# 2 -0.002915 0.013616 0.001929 0.000000 0.000000 0.000000
# 3 -0.003783 0.001929 0.014063 0.000000 0.000000 0.000000
# 4 0.000000 0.000000 0.000000 0.026093 0.000000 0.000000
# 5 0.000000 0.000000 0.000000 0.000000 0.026122 0.000000
# 6 0.000000 0.000000 0.000000 0.000000 0.000000 0.038906
#
#
# Mechanical properties :
#
#
# Convention : Reuss Voigt Hill
#
# Bulk Modulus (GPa) = 42.08310 68.06994 55.07652
# Shear Modulus (GPa) = 35.24156 40.94657 38.09406
#
# Velocity S-wave (km/s) = 3.78782 4.08292 3.93814
# Velocity P-wave (km/s) = 6.02189 7.06681 6.56517
#
# Compressibility (1/GPa) = 0.02376251
#
# Stress axis : x y z
#
# Youngs Moduli (GPa) = 177.91148 73.44500 71.10807
#
# Poissons Ratio (x) = 0.21407 0.26898
# Poissons Ratio (y) = 0.51856 -0.13716
# Poissons Ratio (z) = 0.67298 -0.14166
#
# Static dielectric constant tensor:
#      x y z
#    x 2.000270 0.000000 0.000000 
#    y 0.000000 2.055010 0.000000 
#    z 0.000000 0.000000 2.361340 
# 
# From -- ./inp_files/9667.got.cif
#   From: 2010.05.17/outbox.cif.g08.bks.cpg/sg54_5_cif.got.tgz:9667.got - 2010.06.03 13:09:01.
