data_PCOD9422133
_publ_section_title
;
Structure prediction by ZEFSAII (Michael W. Deem and Ramdas Pophale) SiO2 
 PCOD9422133
Probable space group: P C C A
;
_chemical_formula_sum "Si O2"
_cell_formula_units_Z 40
_cell_length_a 24.663873
_cell_length_b 6.380518
_cell_length_c 10.564518
_cell_angle_alpha 90.000000
_cell_angle_beta 90.000000
_cell_angle_gamma 90.000000
_cell_volume 1662.520086
_symmetry_space_group_name_H-M "P C C A"
_symmetry_group_IT_number 54
_symmetry_cell_setting 'orthorhombic'
loop_
_space_group_symop_operation_xyz
x,y,z
1/2-x,-y,z
1/2+x,-y,1/2-z
-x,y,1/2-z
-x,-y,-z
1/2+x,y,-z
1/2-x,y,1/2+z
x,-y,1/2+z
loop_
_atom_site_type_symbol
_atom_site_label
_atom_site_fract_x
_atom_site_fract_y
_atom_site_fract_z
Si Si1 0.045182 0.207982 0.151569
Si Si2 0.551644 0.183377 0.492329
Si Si3 0.803234 0.855951 0.385559
Si Si4 0.137121 0.460360 0.059708
Si Si5 0.359791 0.928984 0.879785
O O1 0.103099 0.319512 0.160277
O O2 0.000000 0.276357 0.250000
O O3 0.052081 0.959509 0.132596
O O4 0.009204 0.249167 0.024280
O O5 0.591154 0.374877 0.477207
O O6 0.581124 0.035338 0.598571
O O7 0.811821 0.601081 0.395521
O O8 0.750000 0.000000 0.366958
O O9 0.824023 0.932120 0.523106
O O10 0.838397 0.915187 0.261800
O O11 0.145716 0.300911 0.944092
#
# Coordination Sequence:
#
# PCOD9422133 Si02
#       5
#     8   8   8   8   8
#     4  10  21  35  62  95 135 184 232 278 346 419
#     4   9  21  39  58  92 141 179 228 285 346 414
#     4  11  25  47  73 101 141 184 235 303 368 421
#     4  10  23  40  64 101 134 182 239 287 346 426
#     4  10  24  43  72 101 140 185 235 295 360 429
#
# _framework density 24.059858999999999
#
# number of rings (size 3 to 8) (size 9 to 14) (size 15 to 20)
#    0.000    2.000    0.000    1.200   11.200    3.200 
#    0.000    2.000    0.000    0.000    0.000    0.000 
#    0.000    0.000    0.000    0.000    0.000    0.000 
#
# Total GULP energy -222767.057797 kJ/mol
# GULP energy per Si atom -5569.176445 kJ/mol
# Density = 2.400510 g / cm^3
# Si number density = 24.059859 Si / 1000 Ang^3
#
#
#
# Elastic Constant Matrix: (Units=GPa)
#
#
# Indices 1 2 3 4 5 6 
#
# 1 105.7653 39.1858 4.6937 0.0000 0.0000 0.0000
# 2 39.1858 133.1262 2.5056 0.0000 0.0000 0.0000
# 3 4.6937 2.5056 59.4192 0.0000 0.0000 0.0000
# 4 0.0000 0.0000 0.0000 20.3260 0.0000 0.0000
# 5 0.0000 0.0000 0.0000 0.0000 31.0671 0.0000
# 6 0.0000 0.0000 0.0000 0.0000 0.0000 43.8093
#
#
#
# Elastic Compliance Matrix: (Units=1/GPa)
#
#
# Indices 1 2 3 4 5 6 
#
# 1 0.010642 -0.003119 -0.000709 0.000000 0.000000 0.000000
# 2 -0.003119 0.008432 -0.000109 0.000000 0.000000 0.000000
# 3 -0.000709 -0.000109 0.016890 0.000000 0.000000 0.000000
# 4 0.000000 0.000000 0.000000 0.049198 0.000000 0.000000
# 5 0.000000 0.000000 0.000000 0.000000 0.032188 0.000000
# 6 0.000000 0.000000 0.000000 0.000000 0.000000 0.022826
#
#
# Mechanical properties :
#
#
# Convention : Reuss Voigt Hill
#
# Bulk Modulus (GPa) = 35.60086 43.45344 39.52715
# Shear Modulus (GPa) = 31.76325 35.83553 33.79939
#
# Velocity S-wave (km/s) = 3.63736 3.86350 3.75214
# Velocity P-wave (km/s) = 5.69820 6.16457 5.93597
#
# Compressibility (1/GPa) = 0.02808921
#
# Stress axis : x y z
#
# Youngs Moduli (GPa) = 93.96737 118.59808 59.20596
#
# Poissons Ratio (x) = 0.36992 0.04198
# Poissons Ratio (y) = 0.29310 0.00646
# Poissons Ratio (z) = 0.06663 0.01295
#
# Static dielectric constant tensor:
#      x y z
#    x 2.004370 0.000000 0.000000 
#    y 0.000000 1.992440 0.000000 
#    z 0.000000 0.000000 2.025750 
# 
# From -- ./inp_files/10147.got.cif
#   From: 2010.05.17/outbox.cif.g08.bks.cpg/sg54_6_cif.got.tgz:10147.got - 2010.06.03 13:09:01.
