data_PCOD9422628
_publ_section_title
;
Structure prediction by ZEFSAII (Michael W. Deem and Ramdas Pophale) SiO2 
 PCOD9422628
Probable space group: P C C A
;
_chemical_formula_sum "Si O2"
_cell_formula_units_Z 60
_cell_length_a 26.888685
_cell_length_b 6.394891
_cell_length_c 17.748554
_cell_angle_alpha 90.000000
_cell_angle_beta 90.000000
_cell_angle_gamma 90.000000
_cell_volume 3051.867582
_symmetry_space_group_name_H-M "P C C A"
_symmetry_group_IT_number 54
_symmetry_cell_setting 'orthorhombic'
loop_
_space_group_symop_operation_xyz
x,y,z
1/2-x,-y,z
1/2+x,-y,1/2-z
-x,y,1/2-z
-x,-y,-z
1/2+x,y,-z
1/2-x,y,1/2+z
x,-y,1/2+z
loop_
_atom_site_type_symbol
_atom_site_label
_atom_site_fract_x
_atom_site_fract_y
_atom_site_fract_z
Si Si1 0.129693 0.708634 0.039808
Si Si2 0.000000 0.613081 0.250000
Si Si3 0.623350 0.273871 0.690205
Si Si4 0.620113 0.648717 0.582728
Si Si5 0.191685 0.036632 0.426902
Si Si6 0.086100 0.407491 0.153820
Si Si7 0.455488 0.043327 0.558962
Si Si8 0.043570 0.067604 0.851265
O O1 0.121457 0.590814 0.119681
O O2 0.086855 0.880443 0.039415
O O3 0.119178 0.528476 0.979523
O O4 0.176712 0.830304 0.002267
O O5 0.033306 0.482490 0.190649
O O6 0.041113 0.766075 0.284962
O O7 0.623893 0.509604 0.658391
O O8 0.668444 0.156138 0.646584
O O9 0.616722 0.288291 0.780246
O O10 0.575249 0.140132 0.662771
O O11 0.571618 0.795856 0.584969
O O12 0.664631 0.811567 0.571443
O O13 0.250000 0.000000 0.421314
O O14 0.069729 0.258664 0.084632
O O15 0.486640 0.982558 0.633554
O O16 0.500000 0.000000 0.500000
#
# Coordination Sequence:
#
# PCOD9422628 Si02
#       8
#     8   4   8   8   8   8   8   8
#     4  11  24  39  61  94 129 171 210 277 329 392
#     4  12  22  36  58  90 130 186 224 266 310 394
#     4  10  22  39  66  92 130 170 218 282 327 390
#     4  10  21  42  64  92 124 164 216 268 329 390
#     4  10  23  45  74  98 121 161 220 286 350 415
#     4  12  24  39  58  93 135 180 225 266 330 387
#     4  12  24  36  58  91 138 179 222 262 309 381
#     4  11  21  36  55  91 129 174 221 258 307 381
#
# _framework density 19.660094000000001
#
# number of rings (size 3 to 8) (size 9 to 14) (size 15 to 20)
#    0.000    1.067    2.667    5.600    1.867    3.200 
#    0.000    0.000    0.000   12.000    0.000    0.000 
#    0.000    0.000    0.000    0.000    0.000    0.000 
#
# Total GULP energy -334153.609475 kJ/mol
# GULP energy per Si atom -5569.226825 kJ/mol
# Density = 1.961535 g / cm^3
# Si number density = 19.660094 Si / 1000 Ang^3
#
#
#
# Elastic Constant Matrix: (Units=GPa)
#
#
# Indices 1 2 3 4 5 6 
#
# 1 122.9361 46.2650 34.6732 0.0000 0.0000 0.0000
# 2 46.2650 116.1994 38.4875 0.0000 0.0000 0.0000
# 3 34.6732 38.4875 88.8110 0.0000 0.0000 0.0000
# 4 0.0000 0.0000 0.0000 47.2967 0.0000 0.0000
# 5 0.0000 0.0000 0.0000 0.0000 18.4430 0.0000
# 6 0.0000 0.0000 0.0000 0.0000 0.0000 15.5116
#
#
#
# Elastic Compliance Matrix: (Units=1/GPa)
#
#
# Indices 1 2 3 4 5 6 
#
# 1 0.010041 -0.003152 -0.002554 0.000000 0.000000 0.000000
# 2 -0.003152 0.011038 -0.003553 0.000000 0.000000 0.000000
# 3 -0.002554 -0.003553 0.013797 0.000000 0.000000 0.000000
# 4 0.000000 0.000000 0.000000 0.021143 0.000000 0.000000
# 5 0.000000 0.000000 0.000000 0.000000 0.054221 0.000000
# 6 0.000000 0.000000 0.000000 0.000000 0.000000 0.064468
#
#
# Mechanical properties :
#
#
# Convention : Reuss Voigt Hill
#
# Bulk Modulus (GPa) = 61.13391 62.97757 62.05574
# Shear Modulus (GPa) = 25.16648 30.15166 27.65907
#
# Velocity S-wave (km/s) = 3.58170 3.92043 3.75489
# Velocity P-wave (km/s) = 6.94750 7.25229 7.10153
#
# Compressibility (1/GPa) = 0.01635753
#
# Stress axis : x y z
#
# Youngs Moduli (GPa) = 99.59342 90.60006 72.48095
#
# Poissons Ratio (x) = 0.28555 0.18513
# Poissons Ratio (y) = 0.31389 0.25751
# Poissons Ratio (z) = 0.25439 0.32188
#
# Static dielectric constant tensor:
#      x y z
#    x 1.661410 0.000000 0.000000 
#    y 0.000000 1.740750 0.000000 
#    z 0.000000 0.000000 1.871800 
# 
# From -- ./inp_files/19327.got.cif
#   From: 2010.05.17/outbox.cif.g08.bks.cpg/sg54_10_cif.got.tgz:19327.got - 2010.06.03 13:09:01.
