data_PCOD9422749
_publ_section_title
;
Structure prediction by ZEFSAII (Michael W. Deem and Ramdas Pophale) SiO2 
 PCOD9422749
Probable space group: P C C A
;
_chemical_formula_sum "Si O2"
_cell_formula_units_Z 40
_cell_length_a 17.843679
_cell_length_b 5.169683
_cell_length_c 18.215601
_cell_angle_alpha 90.000000
_cell_angle_beta 90.000000
_cell_angle_gamma 90.000000
_cell_volume 1680.319317
_symmetry_space_group_name_H-M "P C C A"
_symmetry_group_IT_number 54
_symmetry_cell_setting 'orthorhombic'
loop_
_space_group_symop_operation_xyz
x,y,z
1/2-x,-y,z
1/2+x,-y,1/2-z
-x,y,1/2-z
-x,-y,-z
1/2+x,y,-z
1/2-x,y,1/2+z
x,-y,1/2+z
loop_
_atom_site_type_symbol
_atom_site_label
_atom_site_fract_x
_atom_site_fract_y
_atom_site_fract_z
Si Si1 0.418944 0.251148 0.561397
Si Si2 0.904074 0.746618 0.532841
Si Si3 0.000000 0.453123 0.750000
Si Si4 0.119858 0.133138 0.685917
Si Si5 0.250000 0.500000 0.706183
Si Si6 0.363218 0.787680 0.308789
O O1 0.509280 0.273595 0.560027
O O2 0.390214 0.517049 0.525342
O O3 0.397865 0.020525 0.506424
O O4 0.389357 0.128552 0.638249
O O5 0.853665 0.753913 0.605256
O O6 0.041725 0.288780 0.686155
O O7 0.062885 0.631152 0.785694
O O8 0.190728 0.311836 0.665263
O O9 0.126411 0.070465 0.773251
O O10 0.203560 0.679916 0.760515
#
# Coordination Sequence:
#
# PCOD9422749 Si02
#       6
#     8   8   4   8   4   8
#     4  10  23  39  66 103 145 177 226 288 373 420
#     4  10  23  39  66 104 141 181 222 294 361 434
#     4  10  22  34  68 104 126 174 242 288 360 416
#     4  11  23  42  67 100 139 187 237 306 350 441
#     4  10  26  42  70  90 136 184 256 282 364 416
#     4  11  23  42  67  97 133 181 235 294 348 424
#
# _framework density 23.805001000000001
#
# number of rings (size 3 to 8) (size 9 to 14) (size 15 to 20)
#    0.000    1.600    0.000    3.600   19.600    0.000 
#    0.000    1.000    0.000    0.000    0.000    0.000 
#    0.000    0.000    0.000    0.000    0.000    0.000 
#
# Total GULP energy -223639.504971 kJ/mol
# GULP energy per Si atom -5590.987624 kJ/mol
# Density = 2.375082 g / cm^3
# Si number density = 23.805001 Si / 1000 Ang^3
#
#
#
# Elastic Constant Matrix: (Units=GPa)
#
#
# Indices 1 2 3 4 5 6 
#
# 1 94.5733 44.1389 38.6065 0.0000 0.0000 0.0000
# 2 44.1389 122.2142 41.6317 0.0000 0.0000 0.0000
# 3 38.6065 41.6317 143.7576 0.0000 0.0000 0.0000
# 4 0.0000 0.0000 0.0000 38.7349 0.0000 0.0000
# 5 0.0000 0.0000 0.0000 0.0000 11.6556 0.0000
# 6 0.0000 0.0000 0.0000 0.0000 0.0000 27.4916
#
#
#
# Elastic Compliance Matrix: (Units=1/GPa)
#
#
# Indices 1 2 3 4 5 6 
#
# 1 0.013451 -0.004024 -0.002447 0.000000 0.000000 0.000000
# 2 -0.004024 0.010282 -0.001897 0.000000 0.000000 0.000000
# 3 -0.002447 -0.001897 0.008163 0.000000 0.000000 0.000000
# 4 0.000000 0.000000 0.000000 0.025816 0.000000 0.000000
# 5 0.000000 0.000000 0.000000 0.000000 0.085795 0.000000
# 6 0.000000 0.000000 0.000000 0.000000 0.000000 0.036375
#
#
# Mechanical properties :
#
#
# Convention : Reuss Voigt Hill
#
# Bulk Modulus (GPa) = 65.96630 67.69992 66.83311
# Shear Modulus (GPa) = 24.79281 31.32098 28.05690
#
# Velocity S-wave (km/s) = 3.23072 3.63124 3.43682
# Velocity P-wave (km/s) = 6.45663 6.78839 6.62459
#
# Compressibility (1/GPa) = 0.01515926
#
# Stress axis : x y z
#
# Youngs Moduli (GPa) = 74.34439 97.25755 122.51039
#
# Poissons Ratio (x) = 0.39141 0.29976
# Poissons Ratio (y) = 0.29919 0.23238
# Poissons Ratio (z) = 0.18191 0.18448
#
# Static dielectric constant tensor:
#      x y z
#    x 1.965410 0.000000 0.000000 
#    y 0.000000 2.062510 0.000000 
#    z 0.000000 0.000000 1.959740 
# 
# From -- ./inp_files/18420.got.cif
#   From: 2010.05.17/outbox.cif.g08.bks.cpg/sg54_10_cif.got.tgz:18420.got - 2010.06.03 13:09:01.
