data_PCOD9422346
_publ_section_title
;
Structure prediction by ZEFSAII (Michael W. Deem and Ramdas Pophale) SiO2 
 PCOD9422346
Probable space group: P C C A
;
_chemical_formula_sum "Si O2"
_cell_formula_units_Z 32
_cell_length_a 7.984208
_cell_length_b 10.784965
_cell_length_c 16.289971
_cell_angle_alpha 90.000000
_cell_angle_beta 90.000000
_cell_angle_gamma 90.000000
_cell_volume 1402.719691
_symmetry_space_group_name_H-M "P C C A"
_symmetry_group_IT_number 54
_symmetry_cell_setting 'orthorhombic'
loop_
_space_group_symop_operation_xyz
x,y,z
1/2-x,-y,z
1/2+x,-y,1/2-z
-x,y,1/2-z
-x,-y,-z
1/2+x,y,-z
1/2-x,y,1/2+z
x,-y,1/2+z
loop_
_atom_site_type_symbol
_atom_site_label
_atom_site_fract_x
_atom_site_fract_y
_atom_site_fract_z
Si Si1 0.095258 0.315420 0.878644
Si Si2 0.250000 0.000000 0.125516
Si Si3 0.734109 0.746809 0.455588
Si Si4 0.570797 0.434702 0.831833
Si Si5 0.500000 0.868775 0.750000
O O1 0.918529 0.275563 0.919722
O O2 0.060250 0.456837 0.854294
O O3 0.118632 0.226149 0.800686
O O4 0.227115 0.289304 0.949519
O O5 0.190889 0.112331 0.067452
O O6 0.395580 0.049887 0.185839
O O7 0.610574 0.656547 0.405843
O O8 0.750000 0.500000 0.814310
O O9 0.500000 0.371659 0.750000
#
# Coordination Sequence:
#
# PCOD9422346 Si02
#       5
#     8   4   8   8   4
#     4  10  21  41  60  89 122 159 202 258 307 361
#     4  10  24  40  58  94 120 166 210 246 302 372
#     4  10  23  38  61  89 124 158 208 249 306 366
#     4  10  21  38  62  92 124 155 204 255 310 366
#     4  10  22  40  62  82 126 160 208 256 304 366
#
# _framework density 22.812823999999999
#
# number of rings (size 3 to 8) (size 9 to 14) (size 15 to 20)
#    0.000    2.000    1.250    0.750    1.750    9.000 
#    0.000    0.000    0.000    0.000    0.000    0.000 
#    0.000    0.000    0.000    0.000    0.000    0.000 
#
# Total GULP energy -179019.341423 kJ/mol
# GULP energy per Si atom -5594.354419 kJ/mol
# Density = 2.276090 g / cm^3
# Si number density = 22.812824 Si / 1000 Ang^3
#
#
#
# Elastic Constant Matrix: (Units=GPa)
#
#
# Indices 1 2 3 4 5 6 
#
# 1 66.2136 16.5368 7.3140 0.0000 0.0000 0.0000
# 2 16.5368 72.3433 -8.4004 0.0000 0.0000 0.0000
# 3 7.3140 -8.4004 68.0622 0.0000 0.0000 0.0000
# 4 0.0000 0.0000 0.0000 21.3602 0.0000 0.0000
# 5 0.0000 0.0000 0.0000 0.0000 31.3663 0.0000
# 6 0.0000 0.0000 0.0000 0.0000 0.0000 -38.4563
#
#
#
# Elastic Compliance Matrix: (Units=1/GPa)
#
#
# Indices 1 2 3 4 5 6 
#
# 1 0.016350 -0.003999 -0.002251 0.000000 0.000000 0.000000
# 2 -0.003999 0.015002 0.002281 0.000000 0.000000 0.000000
# 3 -0.002251 0.002281 0.015216 0.000000 0.000000 0.000000
# 4 0.000000 0.000000 0.000000 0.046816 0.000000 0.000000
# 5 0.000000 0.000000 0.000000 0.000000 0.031881 0.000000
# 6 0.000000 0.000000 0.000000 0.000000 0.000000 -0.026004
#
#
# Mechanical properties :
#
#
# Convention : Reuss Voigt Hill
#
# Bulk Modulus (GPa) = 25.88541 26.39110 26.13825
# Shear Modulus (GPa) = 41.64077 15.59862 28.61969
#
# Velocity S-wave (km/s) = 4.27701 2.61773 3.54580
# Velocity P-wave (km/s) = 5.98013 4.55306 5.31471
#
# Compressibility (1/GPa) = 0.03863181
#
# Stress axis : x y z
#
# Youngs Moduli (GPa) = 61.16241 66.65812 65.72093
#
# Poissons Ratio (x) = 0.26655 0.14791
# Poissons Ratio (y) = 0.24457 -0.14993
# Poissons Ratio (z) = 0.13765 -0.15207
#
# Static dielectric constant tensor:
#      x y z
#    x 1.873600 0.000000 0.000000 
#    y 0.000000 1.836670 0.000000 
#    z 0.000000 0.000000 1.833330 
# 
# From -- ./inp_files/7305.got.cif
#   From: 2010.05.17/outbox.cif.g08.bks.cpg/sg54_4_cif.got.tgz:7305.got - 2010.06.03 13:09:01.
