data_PCOD9422094
_publ_section_title
;
Structure prediction by ZEFSAII (Michael W. Deem and Ramdas Pophale) SiO2 
 PCOD9422094
Probable space group: P C C A
;
_chemical_formula_sum "Si O2"
_cell_formula_units_Z 48
_cell_length_a 19.960070
_cell_length_b 5.516718
_cell_length_c 24.453756
_cell_angle_alpha 90.000000
_cell_angle_beta 90.000000
_cell_angle_gamma 90.000000
_cell_volume 2692.702782
_symmetry_space_group_name_H-M "P C C A"
_symmetry_group_IT_number 54
_symmetry_cell_setting 'orthorhombic'
loop_
_space_group_symop_operation_xyz
x,y,z
1/2-x,-y,z
1/2+x,-y,1/2-z
-x,y,1/2-z
-x,-y,-z
1/2+x,y,-z
1/2-x,y,1/2+z
x,-y,1/2+z
loop_
_atom_site_type_symbol
_atom_site_label
_atom_site_fract_x
_atom_site_fract_y
_atom_site_fract_z
Si Si1 0.444493 0.770211 0.356499
Si Si2 0.250000 0.000000 0.227029
Si Si3 0.000000 0.010027 0.750000
Si Si4 0.967660 0.008893 0.940378
Si Si5 0.183127 0.619733 0.808370
Si Si6 0.433071 0.487940 0.605563
Si Si7 0.872985 0.689089 0.289967
O O1 0.471006 0.975413 0.397445
O O2 0.366773 0.715624 0.353992
O O3 0.490071 0.542969 0.373700
O O4 0.465180 0.847624 0.295763
O O5 0.291863 0.825366 0.266848
O O6 0.192753 0.849064 0.195807
O O7 0.941122 0.161308 0.779526
O O8 0.924127 0.764946 0.927367
O O9 0.930394 0.261316 0.927817
O O10 0.000000 0.000000 0.000000
O O11 0.250000 0.500000 0.831431
O O12 0.144811 0.434186 0.767935
O O13 0.387992 0.508693 0.659881
#
# Coordination Sequence:
#
# PCOD9422094 Si02
#       7
#     8   4   4   8   8   8   8
#     4  10  21  32  57  84 118 155 188 247 294 355
#     4  10  22  34  50  72 134 156 194 228 286 362
#     4  12  18  34  58  84 126 144 200 224 302 358
#     4  10  22  38  56  87 119 148 194 258 311 346
#     4  10  21  33  49  79 121 160 191 233 287 364
#     4  10  21  35  60  84 116 151 193 245 300 351
#     4  11  20  33  52  85 120 160 193 238 292 368
#
# _framework density 17.825955
#
# number of rings (size 3 to 8) (size 9 to 14) (size 15 to 20)
#    1.000    0.667    3.333    2.500    2.333    0.000 
#    0.000    0.000    0.000    0.000    0.000    7.000 
#    0.000    0.000    0.000    0.000    0.000    0.000 
#
# Total GULP energy -267299.310071 kJ/mol
# GULP energy per Si atom -5568.735626 kJ/mol
# Density = 1.778538 g / cm^3
# Si number density = 17.825955 Si / 1000 Ang^3
#
#
#
# Elastic Constant Matrix: (Units=GPa)
#
#
# Indices 1 2 3 4 5 6 
#
# 1 67.1782 14.7485 -8.2410 0.0000 0.0000 0.0000
# 2 14.7485 87.3977 4.8145 0.0000 0.0000 0.0000
# 3 -8.2410 4.8145 45.6899 0.0000 0.0000 0.0000
# 4 0.0000 0.0000 0.0000 20.7810 0.0000 0.0000
# 5 0.0000 0.0000 0.0000 0.0000 10.1863 0.0000
# 6 0.0000 0.0000 0.0000 0.0000 0.0000 18.8742
#
#
#
# Elastic Compliance Matrix: (Units=1/GPa)
#
#
# Indices 1 2 3 4 5 6 
#
# 1 0.015902 -0.002858 0.003169 0.000000 0.000000 0.000000
# 2 -0.002858 0.012022 -0.001782 0.000000 0.000000 0.000000
# 3 0.003169 -0.001782 0.022646 0.000000 0.000000 0.000000
# 4 0.000000 0.000000 0.000000 0.048121 0.000000 0.000000
# 5 0.000000 0.000000 0.000000 0.000000 0.098171 0.000000
# 6 0.000000 0.000000 0.000000 0.000000 0.000000 0.052982
#
#
# Mechanical properties :
#
#
# Convention : Reuss Voigt Hill
#
# Bulk Modulus (GPa) = 20.99579 24.76772 22.88176
# Shear Modulus (GPa) = 18.61069 22.56457 20.58763
#
# Velocity S-wave (km/s) = 3.23464 3.56171 3.40210
# Velocity P-wave (km/s) = 5.07487 5.55326 5.31944
#
# Compressibility (1/GPa) = 0.04762860
#
# Stress axis : x y z
#
# Youngs Moduli (GPa) = 62.88496 83.17776 44.15759
#
# Poissons Ratio (x) = 0.23773 -0.13995
# Poissons Ratio (y) = 0.17973 0.07870
# Poissons Ratio (z) = -0.19931 0.14825
#
# Static dielectric constant tensor:
#      x y z
#    x 1.454060 0.000000 0.000000 
#    y 0.000000 1.734810 0.000000 
#    z 0.000000 0.000000 1.584070 
# 
# From -- ./inp_files/26589.got.cif
#   From: 2010.05.17/outbox.cif.g08.bks.cpg/sg54_14_cif.got.tgz:26589.got - 2010.06.03 13:09:01.
