data_PCOD9422382
_publ_section_title
;
Structure prediction by ZEFSAII (Michael W. Deem and Ramdas Pophale) SiO2 
 PCOD9422382
Probable space group: P C C A
;
_chemical_formula_sum "Si O2"
_cell_formula_units_Z 60
_cell_length_a 24.468020
_cell_length_b 5.565133
_cell_length_c 19.658817
_cell_angle_alpha 90.000000
_cell_angle_beta 90.000000
_cell_angle_gamma 90.000000
_cell_volume 2676.897577
_symmetry_space_group_name_H-M "P C C A"
_symmetry_group_IT_number 54
_symmetry_cell_setting 'orthorhombic'
loop_
_space_group_symop_operation_xyz
x,y,z
1/2-x,-y,z
1/2+x,-y,1/2-z
-x,y,1/2-z
-x,-y,-z
1/2+x,y,-z
1/2-x,y,1/2+z
x,-y,1/2+z
loop_
_atom_site_type_symbol
_atom_site_label
_atom_site_fract_x
_atom_site_fract_y
_atom_site_fract_z
Si Si1 0.000000 0.392410 0.750000
Si Si2 0.402647 0.689228 0.493304
Si Si3 0.587939 0.743982 0.854252
Si Si4 0.344546 0.767694 0.159226
Si Si5 0.802329 0.660392 0.980312
Si Si6 0.659409 0.064656 0.099028
Si Si7 0.200700 0.686292 0.803843
Si Si8 0.085971 0.471209 0.856839
O O1 0.036472 0.251983 0.695627
O O2 0.043033 0.525886 0.798198
O O3 0.428387 0.757516 0.565563
O O4 0.357628 0.490797 0.511489
O O5 0.367894 0.900779 0.459334
O O6 0.434621 0.578550 0.428825
O O7 0.619746 0.484825 0.843865
O O8 0.621914 0.983327 0.835391
O O9 0.311607 0.803122 0.088943
O O10 0.305628 0.733595 0.223851
O O11 0.750000 0.500000 0.969867
O O12 0.798849 0.783004 0.053346
O O13 0.694256 0.936360 0.156589
O O14 0.606327 0.198714 0.130756
O O15 0.250000 0.500000 0.816211
O O16 0.144114 0.574293 0.832595
#
# Coordination Sequence:
#
# PCOD9422382 Si02
#       8
#     4   8   8   8   8   8   8   8
#     4  12  24  46  72 104 144 194 250 314 372 444
#     4   9  21  41  66  97 142 181 237 304 358 433
#     4  11  24  45  74 104 143 190 240 310 364 437
#     4  11  23  47  69 106 148 189 241 295 368 442
#     4  10  21  38  69 103 138 190 240 293 361 435
#     4  10  21  43  65  95 142 183 240 295 358 442
#     4  11  24  41  67 104 147 193 240 302 368 444
#     4  10  23  43  67 103 139 190 247 299 373 440
#
# _framework density 22.414007000000002
#
# number of rings (size 3 to 8) (size 9 to 14) (size 15 to 20)
#    0.000    1.600    2.667    1.200    0.000    8.000 
#    4.800    2.000    0.000    0.000    0.000    0.933 
#    0.000    0.000    0.000    0.000    0.000    0.000 
#
# Total GULP energy -334575.645585 kJ/mol
# GULP energy per Si atom -5576.260760 kJ/mol
# Density = 2.236299 g / cm^3
# Si number density = 22.414007 Si / 1000 Ang^3
#
#
#
# Elastic Constant Matrix: (Units=GPa)
#
#
# Indices 1 2 3 4 5 6 
#
# 1 64.4330 17.4403 45.8266 0.0000 0.0000 0.0000
# 2 17.4403 63.5092 12.4279 0.0000 0.0000 0.0000
# 3 45.8266 12.4279 149.9260 0.0000 0.0000 0.0000
# 4 0.0000 0.0000 0.0000 31.8800 0.0000 0.0000
# 5 0.0000 0.0000 0.0000 0.0000 16.7795 0.0000
# 6 0.0000 0.0000 0.0000 0.0000 0.0000 8.5885
#
#
#
# Elastic Compliance Matrix: (Units=1/GPa)
#
#
# Indices 1 2 3 4 5 6 
#
# 1 0.021076 -0.004602 -0.006061 0.000000 0.000000 0.000000
# 2 -0.004602 0.017010 -0.000003 0.000000 0.000000 0.000000
# 3 -0.006061 -0.000003 0.008523 0.000000 0.000000 0.000000
# 4 0.000000 0.000000 0.000000 0.031368 0.000000 0.000000
# 5 0.000000 0.000000 0.000000 0.000000 0.059597 0.000000
# 6 0.000000 0.000000 0.000000 0.000000 0.000000 0.116434
#
#
# Mechanical properties :
#
#
# Convention : Reuss Voigt Hill
#
# Bulk Modulus (GPa) = 39.56133 47.69531 43.62832
# Shear Modulus (GPa) = 17.62023 24.92784 21.27403
#
# Velocity S-wave (km/s) = 2.80684 3.33852 3.08415
# Velocity P-wave (km/s) = 5.30971 6.01551 5.67360
#
# Compressibility (1/GPa) = 0.02527721
#
# Stress axis : x y z
#
# Youngs Moduli (GPa) = 47.44713 58.78857 117.33281
#
# Poissons Ratio (x) = 0.27053 0.71112
# Poissons Ratio (y) = 0.21834 0.00041
# Poissons Ratio (z) = 0.28756 0.00020
#
# Static dielectric constant tensor:
#      x y z
#    x 1.810940 0.000000 0.000000 
#    y 0.000000 1.956320 0.000000 
#    z 0.000000 0.000000 1.865450 
# 
# From -- ./inp_files/22328.got.cif
#   From: 2010.05.17/outbox.cif.g08.bks.cpg/sg54_12_cif.got.tgz:22328.got - 2010.06.03 13:09:01.
