data_PCOD9422883
_publ_section_title
;
Structure prediction by ZEFSAII (Michael W. Deem and Ramdas Pophale) SiO2 
 PCOD9422883
Probable space group: P C C A
;
_chemical_formula_sum "Si O2"
_cell_formula_units_Z 40
_cell_length_a 19.549114
_cell_length_b 7.698809
_cell_length_c 12.875589
_cell_angle_alpha 90.000000
_cell_angle_beta 90.000000
_cell_angle_gamma 90.000000
_cell_volume 1937.839168
_symmetry_space_group_name_H-M "P C C A"
_symmetry_group_IT_number 54
_symmetry_cell_setting 'orthorhombic'
loop_
_space_group_symop_operation_xyz
x,y,z
1/2-x,-y,z
1/2+x,-y,1/2-z
-x,y,1/2-z
-x,-y,-z
1/2+x,y,-z
1/2-x,y,1/2+z
x,-y,1/2+z
loop_
_atom_site_type_symbol
_atom_site_label
_atom_site_fract_x
_atom_site_fract_y
_atom_site_fract_z
Si Si1 0.185495 0.134245 0.110077
Si Si2 0.196547 0.259185 0.339860
Si Si3 0.667781 0.348201 0.088913
Si Si4 0.019840 0.198467 0.870005
Si Si5 0.413062 0.900112 0.488749
O O1 0.176467 0.209640 0.224286
O O2 0.250000 0.000000 0.105684
O O3 0.189464 0.294201 0.028046
O O4 0.118534 0.028527 0.074684
O O5 0.181071 0.457475 0.372783
O O6 0.278287 0.231023 0.346713
O O7 0.152448 0.157042 0.423657
O O8 0.589153 0.303267 0.108279
O O9 0.000000 0.210092 0.750000
O O10 0.039648 0.003511 0.907126
O O11 0.957179 0.241428 0.948244
#
# Coordination Sequence:
#
# PCOD9422883 Si02
#       5
#     8   8   8   8   8
#     4  11  23  40  71  97 126 175 221 277 331 386
#     4  11  24  41  68  96 134 171 218 279 335 388
#     4  10  25  43  61 100 136 166 220 273 331 401
#     4  10  22  39  63  92 132 177 218 269 332 391
#     4  10  22  41  64  97 128 170 228 277 311 404
#
# _framework density 20.641546000000002
#
# number of rings (size 3 to 8) (size 9 to 14) (size 15 to 20)
#    0.000    1.600    2.000    1.200    8.400    5.600 
#    0.000    5.000    0.000    0.000    0.000    0.000 
#    0.000    0.000    0.000    0.000    0.000    0.000 
#
# Total GULP energy -223099.571051 kJ/mol
# GULP energy per Si atom -5577.489276 kJ/mol
# Density = 2.059457 g / cm^3
# Si number density = 20.641546 Si / 1000 Ang^3
#
#
#
# Elastic Constant Matrix: (Units=GPa)
#
#
# Indices 1 2 3 4 5 6 
#
# 1 95.8339 33.9978 43.5355 0.0000 0.0000 0.0000
# 2 33.9978 60.0832 55.3948 0.0000 0.0000 0.0000
# 3 43.5355 55.3948 161.6384 0.0000 0.0000 0.0000
# 4 0.0000 0.0000 0.0000 23.2903 0.0000 0.0000
# 5 0.0000 0.0000 0.0000 0.0000 27.2007 0.0000
# 6 0.0000 0.0000 0.0000 0.0000 0.0000 20.1338
#
#
#
# Elastic Compliance Matrix: (Units=1/GPa)
#
#
# Indices 1 2 3 4 5 6 
#
# 1 0.013289 -0.006169 -0.001465 0.000000 0.000000 0.000000
# 2 -0.006169 0.027195 -0.007659 0.000000 0.000000 0.000000
# 3 -0.001465 -0.007659 0.009206 0.000000 0.000000 0.000000
# 4 0.000000 0.000000 0.000000 0.042936 0.000000 0.000000
# 5 0.000000 0.000000 0.000000 0.000000 0.036764 0.000000
# 6 0.000000 0.000000 0.000000 0.000000 0.000000 0.049668
#
#
# Mechanical properties :
#
#
# Convention : Reuss Voigt Hill
#
# Bulk Modulus (GPa) = 52.34191 64.82353 58.58272
# Shear Modulus (GPa) = 23.14707 26.43345 24.79026
#
# Velocity S-wave (km/s) = 3.35234 3.58242 3.46929
# Velocity P-wave (km/s) = 6.35585 6.97024 6.67012
#
# Compressibility (1/GPa) = 0.01910515
#
# Stress axis : x y z
#
# Youngs Moduli (GPa) = 75.25224 36.77155 108.62596
#
# Poissons Ratio (x) = 0.22683 0.15915
# Poissons Ratio (y) = 0.46419 0.83191
# Poissons Ratio (z) = 0.11026 0.28162
#
# Static dielectric constant tensor:
#      x y z
#    x 1.826520 0.000000 0.000000 
#    y 0.000000 2.266750 0.000000 
#    z 0.000000 0.000000 1.713810 
# 
# From -- ./inp_files/8716.got.cif
#   From: 2010.05.17/outbox.cif.g08.bks.cpg/sg54_5_cif.got.tgz:8716.got - 2010.06.03 13:09:01.
