data_PCOD9422121
_publ_section_title
;
Structure prediction by ZEFSAII (Michael W. Deem and Ramdas Pophale) SiO2 
 PCOD9422121
Probable space group: P C C A
;
_chemical_formula_sum "Si O2"
_cell_formula_units_Z 48
_cell_length_a 8.320634
_cell_length_b 14.818020
_cell_length_c 20.097817
_cell_angle_alpha 90.000000
_cell_angle_beta 90.000000
_cell_angle_gamma 90.000000
_cell_volume 2477.966799
_symmetry_space_group_name_H-M "P C C A"
_symmetry_group_IT_number 54
_symmetry_cell_setting 'orthorhombic'
loop_
_space_group_symop_operation_xyz
x,y,z
1/2-x,-y,z
1/2+x,-y,1/2-z
-x,y,1/2-z
-x,-y,-z
1/2+x,y,-z
1/2-x,y,1/2+z
x,-y,1/2+z
loop_
_atom_site_type_symbol
_atom_site_label
_atom_site_fract_x
_atom_site_fract_y
_atom_site_fract_z
Si Si1 0.500000 0.358393 0.250000
Si Si2 0.097074 0.244369 0.624131
Si Si3 0.500000 0.220127 0.750000
Si Si4 0.750000 0.500000 0.291268
Si Si5 0.750000 0.500000 0.006381
Si Si6 0.001268 0.366864 0.978750
Si Si7 0.821408 0.899992 0.284673
Si Si8 0.931137 0.651115 0.867519
O O1 0.508836 0.294385 0.314450
O O2 0.654181 0.423651 0.250972
O O3 0.132770 0.142510 0.643770
O O4 0.267979 0.293246 0.620218
O O5 0.008792 0.271700 0.556688
O O6 0.331767 0.162304 0.741607
O O7 0.478142 0.286115 0.813830
O O8 0.619193 0.556628 0.333784
O O9 0.849842 0.573698 0.045662
O O10 0.640731 0.564037 0.961724
O O11 0.998399 0.361188 0.058701
O O12 0.000000 0.899332 0.250000
O O13 0.750000 0.000000 0.285470
#
# Coordination Sequence:
#
# PCOD9422121 Si02
#       8
#     4   8   4   4   4   8   8   8
#     4  10  21  35  54  80 126 160 210 255 311 350
#     4  10  22  39  58  87 123 159 200 270 309 373
#     4  10  23  41  68  96 130 164 210 269 333 382
#     4  10  21  37  52  82 125 175 212 264 297 357
#     4  10  23  33  56  82 117 175 224 250 287 361
#     4  11  21  39  55  84 122 171 215 256 300 364
#     4  11  22  43  71  99 124 154 205 265 337 404
#     4  10  21  39  56  86 128 171 210 258 306 363
#
# _framework density 19.370719000000001
#
# number of rings (size 3 to 8) (size 9 to 14) (size 15 to 20)
#    0.000    1.667    3.333    1.000    7.000    2.000 
#    0.000    0.000    0.000    5.000    0.000    0.000 
#    0.000    0.000    0.000    0.000    0.000    0.000 
#
# Total GULP energy -267218.504321 kJ/mol
# GULP energy per Si atom -5567.052173 kJ/mol
# Density = 1.932663 g / cm^3
# Si number density = 19.370719 Si / 1000 Ang^3
#
#
#
# Elastic Constant Matrix: (Units=GPa)
#
#
# Indices 1 2 3 4 5 6 
#
# 1 90.7641 45.1636 34.9626 0.0000 0.0000 0.0000
# 2 45.1636 121.0242 49.0358 0.0000 0.0000 0.0000
# 3 34.9626 49.0358 85.8659 0.0000 0.0000 0.0000
# 4 0.0000 0.0000 0.0000 11.8681 0.0000 0.0000
# 5 0.0000 0.0000 0.0000 0.0000 15.2656 0.0000
# 6 0.0000 0.0000 0.0000 0.0000 0.0000 28.5141
#
#
#
# Elastic Compliance Matrix: (Units=1/GPa)
#
#
# Indices 1 2 3 4 5 6 
#
# 1 0.014347 -0.003886 -0.003622 0.000000 0.000000 0.000000
# 2 -0.003886 0.011803 -0.005158 0.000000 0.000000 0.000000
# 3 -0.003622 -0.005158 0.016067 0.000000 0.000000 0.000000
# 4 0.000000 0.000000 0.000000 0.084259 0.000000 0.000000
# 5 0.000000 0.000000 0.000000 0.000000 0.065507 0.000000
# 6 0.000000 0.000000 0.000000 0.000000 0.000000 0.035070
#
#
# Mechanical properties :
#
#
# Convention : Reuss Voigt Hill
#
# Bulk Modulus (GPa) = 59.23057 61.77535 60.50296
# Shear Modulus (GPa) = 19.37887 22.36239 20.87063
#
# Velocity S-wave (km/s) = 3.16637 3.40140 3.28599
# Velocity P-wave (km/s) = 6.63413 6.88377 6.76010
#
# Compressibility (1/GPa) = 0.01688317
#
# Stress axis : x y z
#
# Youngs Moduli (GPa) = 69.70278 84.72481 62.24103
#
# Poissons Ratio (x) = 0.32926 0.22546
# Poissons Ratio (y) = 0.27088 0.32104
# Poissons Ratio (z) = 0.25249 0.43701
#
# Static dielectric constant tensor:
#      x y z
#    x 1.816510 0.000000 0.000000 
#    y 0.000000 1.667440 0.000000 
#    z 0.000000 0.000000 1.731330 
# 
# From -- ./inp_files/16721.got.cif
#   From: 2010.05.17/outbox.cif.g08.bks.cpg/sg54_9_cif.got.tgz:16721.got - 2010.06.03 13:09:01.
