data_PCOD9422955
_publ_section_title
;
Structure prediction by ZEFSAII (Michael W. Deem and Ramdas Pophale) SiO2 
 PCOD9422955
Probable space group: P C C A
;
_chemical_formula_sum "Si O2"
_cell_formula_units_Z 40
_cell_length_a 9.310380
_cell_length_b 12.858386
_cell_length_c 15.509594
_cell_angle_alpha 90.000000
_cell_angle_beta 90.000000
_cell_angle_gamma 90.000000
_cell_volume 1856.753687
_symmetry_space_group_name_H-M "P C C A"
_symmetry_group_IT_number 54
_symmetry_cell_setting 'orthorhombic'
loop_
_space_group_symop_operation_xyz
x,y,z
1/2-x,-y,z
1/2+x,-y,1/2-z
-x,y,1/2-z
-x,-y,-z
1/2+x,y,-z
1/2-x,y,1/2+z
x,-y,1/2+z
loop_
_atom_site_type_symbol
_atom_site_label
_atom_site_fract_x
_atom_site_fract_y
_atom_site_fract_z
Si Si1 0.158259 0.739096 0.429803
Si Si2 0.128617 0.606375 0.581858
Si Si3 0.940798 0.772826 0.657839
Si Si4 0.610936 0.932395 0.445019
Si Si5 0.077189 0.614741 0.157653
O O1 0.193664 0.637577 0.489002
O O2 0.271485 0.767437 0.355636
O O3 0.160354 0.837224 0.493734
O O4 0.006890 0.709295 0.386942
O O5 0.251539 0.632499 0.653350
O O6 0.072881 0.491163 0.600733
O O7 0.999381 0.685735 0.592819
O O8 0.000000 0.743577 0.750000
O O9 0.018375 0.879853 0.630868
O O10 0.750000 0.000000 0.419450
O O11 0.500000 0.000000 0.500000
O O12 0.000000 0.596968 0.250000
#
# Coordination Sequence:
#
# PCOD9422955 Si02
#       5
#     8   8   8   8   8
#     4  11  23  41  68  92 127 169 219 260 319 393
#     4  10  22  40  63  91 132 173 215 250 319 392
#     4  11  23  41  64  97 128 167 211 275 326 374
#     4  11  23  45  67  89 124 168 219 267 323 391
#     4  11  23  39  61  99 132 170 208 266 320 377
#
# _framework density 21.542975999999999
#
# number of rings (size 3 to 8) (size 9 to 14) (size 15 to 20)
#    0.000    1.200    2.000    4.800    2.800    4.000 
#    3.600    0.000    0.000    0.000    0.000    0.000 
#    0.000    0.000    0.000    0.000    0.000    0.000 
#
# Total GULP energy -223150.728754 kJ/mol
# GULP energy per Si atom -5578.768219 kJ/mol
# Density = 2.149394 g / cm^3
# Si number density = 21.542976 Si / 1000 Ang^3
#
#
#
# Elastic Constant Matrix: (Units=GPa)
#
#
# Indices 1 2 3 4 5 6 
#
# 1 92.9271 20.0188 -2.1519 0.0000 0.0000 0.0000
# 2 20.0188 74.2601 -3.3283 0.0000 0.0000 0.0000
# 3 -2.1519 -3.3283 61.7404 0.0000 0.0000 0.0000
# 4 0.0000 0.0000 0.0000 26.3060 0.0000 0.0000
# 5 0.0000 0.0000 0.0000 0.0000 26.5033 0.0000
# 6 0.0000 0.0000 0.0000 0.0000 0.0000 38.3153
#
#
#
# Elastic Compliance Matrix: (Units=1/GPa)
#
#
# Indices 1 2 3 4 5 6 
#
# 1 0.011428 -0.003070 0.000233 0.000000 0.000000 0.000000
# 2 -0.003070 0.014324 0.000665 0.000000 0.000000 0.000000
# 3 0.000233 0.000665 0.016241 0.000000 0.000000 0.000000
# 4 0.000000 0.000000 0.000000 0.038014 0.000000 0.000000
# 5 0.000000 0.000000 0.000000 0.000000 0.037731 0.000000
# 6 0.000000 0.000000 0.000000 0.000000 0.000000 0.026099
#
#
# Mechanical properties :
#
#
# Convention : Reuss Voigt Hill
#
# Bulk Modulus (GPa) = 26.56198 28.66719 27.61458
# Shear Modulus (GPa) = 31.10789 32.51751 31.81270
#
# Velocity S-wave (km/s) = 3.80411 3.88935 3.84697
# Velocity P-wave (km/s) = 5.62597 5.78837 5.70775
#
# Compressibility (1/GPa) = 0.03764779
#
# Stress axis : x y z
#
# Youngs Moduli (GPa) = 87.50492 69.81455 61.57320
#
# Poissons Ratio (x) = 0.21435 -0.01433
# Poissons Ratio (y) = 0.26866 -0.04096
# Poissons Ratio (z) = -0.02037 -0.04644
#
# Static dielectric constant tensor:
#      x y z
#    x 1.791630 0.000000 0.000000 
#    y 0.000000 1.792840 0.000000 
#    z 0.000000 0.000000 1.825080 
# 
# From -- ./inp_files/11475.got.cif
#   From: 2010.05.17/outbox.cif.g08.bks.cpg/sg54_6_cif.got.tgz:11475.got - 2010.06.03 13:09:01.
