data_PCOD9422395
_publ_section_title
;
Structure prediction by ZEFSAII (Michael W. Deem and Ramdas Pophale) SiO2 
 PCOD9422395
Probable space group: P C C A
;
_chemical_formula_sum "Si O2"
_cell_formula_units_Z 36
_cell_length_a 7.689821
_cell_length_b 14.558688
_cell_length_c 15.628036
_cell_angle_alpha 90.000000
_cell_angle_beta 90.000000
_cell_angle_gamma 90.000000
_cell_volume 1749.616528
_symmetry_space_group_name_H-M "P C C A"
_symmetry_group_IT_number 54
_symmetry_cell_setting 'orthorhombic'
loop_
_space_group_symop_operation_xyz
x,y,z
1/2-x,-y,z
1/2+x,-y,1/2-z
-x,y,1/2-z
-x,-y,-z
1/2+x,y,-z
1/2-x,y,1/2+z
x,-y,1/2+z
loop_
_atom_site_type_symbol
_atom_site_label
_atom_site_fract_x
_atom_site_fract_y
_atom_site_fract_z
Si Si1 0.936493 0.838426 0.593194
Si Si2 0.054583 0.758586 0.412457
Si Si3 0.333395 0.401744 0.312892
Si Si4 0.250000 0.000000 0.837496
Si Si5 0.000000 0.719313 0.750000
Si Si6 0.500000 0.138798 0.250000
O O1 0.743645 0.799968 0.599855
O O2 0.996459 0.800936 0.501748
O O3 0.035733 0.786970 0.669694
O O4 0.900384 0.947096 0.607923
O O5 0.086920 0.651065 0.395772
O O6 0.951481 0.798242 0.330955
O O7 0.250000 0.500000 0.332813
O O8 0.500000 0.410976 0.250000
O O9 0.171418 0.342335 0.272396
O O10 0.343934 0.926871 0.777455
#
# Coordination Sequence:
#
# PCOD9422395 Si02
#       6
#     8   8   8   4   4   4
#     4  10  23  39  62  92 133 176 224 275 329 391
#     4  10  23  39  61  93 129 174 216 272 339 394
#     4  11  22  42  70  99 131 172 223 273 337 408
#     4  10  22  38  60  94 126 180 232 270 326 388
#     4  10  23  43  64  98 132 182 226 273 343 396
#     4  10  21  39  60  90 128 170 226 275 323 394
#
# _framework density 20.575938000000001
#
# number of rings (size 3 to 8) (size 9 to 14) (size 15 to 20)
#    0.000    1.778    2.222    0.667    3.111    6.222 
#    0.000    5.556    0.000    0.000    0.000    0.000 
#    0.000    0.000    0.000    0.000    0.000    0.000 
#
# Total GULP energy -200460.668778 kJ/mol
# GULP energy per Si atom -5568.351910 kJ/mol
# Density = 2.052911 g / cm^3
# Si number density = 20.575938 Si / 1000 Ang^3
#
#
#
# Elastic Constant Matrix: (Units=GPa)
#
#
# Indices 1 2 3 4 5 6 
#
# 1 86.5843 41.4303 29.9177 0.0000 0.0000 0.0000
# 2 41.4303 145.5540 78.8750 0.0000 0.0000 0.0000
# 3 29.9177 78.8750 158.8009 0.0000 0.0000 0.0000
# 4 0.0000 0.0000 0.0000 15.3513 0.0000 0.0000
# 5 0.0000 0.0000 0.0000 0.0000 17.4274 0.0000
# 6 0.0000 0.0000 0.0000 0.0000 0.0000 29.0837
#
#
#
# Elastic Compliance Matrix: (Units=1/GPa)
#
#
# Indices 1 2 3 4 5 6 
#
# 1 0.013457 -0.003361 -0.000866 0.000000 0.000000 0.000000
# 2 -0.003361 0.010240 -0.004453 0.000000 0.000000 0.000000
# 3 -0.000866 -0.004453 0.008672 0.000000 0.000000 0.000000
# 4 0.000000 0.000000 0.000000 0.065141 0.000000 0.000000
# 5 0.000000 0.000000 0.000000 0.000000 0.057381 0.000000
# 6 0.000000 0.000000 0.000000 0.000000 0.000000 0.034384
#
#
# Mechanical properties :
#
#
# Convention : Reuss Voigt Hill
#
# Bulk Modulus (GPa) = 66.62568 76.82059 71.72313
# Shear Modulus (GPa) = 23.62535 28.42024 26.02280
#
# Velocity S-wave (km/s) = 3.39219 3.72053 3.56015
# Velocity P-wave (km/s) = 6.91327 7.47480 7.19951
#
# Compressibility (1/GPa) = 0.01500923
#
# Stress axis : x y z
#
# Youngs Moduli (GPa) = 74.31127 97.65600 115.31346
#
# Poissons Ratio (x) = 0.32824 0.09984
# Poissons Ratio (y) = 0.24978 0.51348
# Poissons Ratio (z) = 0.06434 0.43485
#
# Static dielectric constant tensor:
#      x y z
#    x 1.777290 0.000000 0.000000 
#    y 0.000000 1.871640 0.000000 
#    z 0.000000 0.000000 -0.189610 
# 
# From -- ./inp_files/11426.got.cif
#   From: 2010.05.17/outbox.cif.g08.bks.cpg/sg54_6_cif.got.tgz:11426.got - 2010.06.03 13:09:01.
