data_PCOD9422912
_publ_section_title
;
Structure prediction by ZEFSAII (Michael W. Deem and Ramdas Pophale) SiO2 
 PCOD9422912
Probable space group: P C C A
;
_chemical_formula_sum "Si O2"
_cell_formula_units_Z 48
_cell_length_a 9.021739
_cell_length_b 8.480980
_cell_length_c 31.276296
_cell_angle_alpha 90.000000
_cell_angle_beta 90.000000
_cell_angle_gamma 90.000000
_cell_volume 2393.049117
_symmetry_space_group_name_H-M "P C C A"
_symmetry_group_IT_number 54
_symmetry_cell_setting 'orthorhombic'
loop_
_space_group_symop_operation_xyz
x,y,z
1/2-x,-y,z
1/2+x,-y,1/2-z
-x,y,1/2-z
-x,-y,-z
1/2+x,y,-z
1/2-x,y,1/2+z
x,-y,1/2+z
loop_
_atom_site_type_symbol
_atom_site_label
_atom_site_fract_x
_atom_site_fract_y
_atom_site_fract_z
Si Si1 0.250000 0.500000 0.776576
Si Si2 0.302930 0.830441 0.046771
Si Si3 0.830213 0.840736 0.763383
Si Si4 0.750000 0.500000 0.582021
Si Si5 0.282937 0.748742 0.144141
Si Si6 0.418345 0.662855 0.489472
Si Si7 0.997842 0.549563 0.151385
O O1 0.268980 0.334280 0.750718
O O2 0.395069 0.525926 0.806706
O O3 0.308135 0.823334 0.097907
O O4 0.457291 0.784738 0.025158
O O5 0.250000 0.000000 0.032042
O O6 0.178816 0.709924 0.029974
O O7 0.823943 0.847799 0.814536
O O8 0.000000 0.844592 0.750000
O O9 0.750000 0.000000 0.746211
O O10 0.690166 0.365485 0.550545
O O11 0.616532 0.556046 0.612090
O O12 0.112415 0.694046 0.150543
O O13 0.394172 0.599600 0.145918
O O14 0.500000 0.500000 0.500000
#
# Coordination Sequence:
#
# PCOD9422912 Si02
#       7
#     4   8   8   4   8   8   8
#     4  11  24  48  71 104 138 184 235 282 350 419
#     4  12  26  43  64  99 138 174 223 283 351 402
#     4  12  28  46  73 106 144 184 233 288 350 421
#     4  11  20  38  65 102 130 170 241 284 340 401
#     4  11  23  42  68  99 139 179 226 281 346 409
#     4  12  23  41  69  93 128 179 232 280 331 411
#     4  10  22  39  72 101 133 178 232 287 337 409
#
# _framework density 20.058091999999998
#
# number of rings (size 3 to 8) (size 9 to 14) (size 15 to 20)
#    0.000    0.667    5.000    3.000    4.667    0.000 
#    0.000    0.000    0.000    0.000    0.000    0.000 
#    0.000    0.000    0.000    0.000    0.000    0.000 
#
# Total GULP energy -268207.830933 kJ/mol
# GULP energy per Si atom -5587.663144 kJ/mol
# Density = 2.001244 g / cm^3
# Si number density = 20.058092 Si / 1000 Ang^3
#
#
#
# Elastic Constant Matrix: (Units=GPa)
#
#
# Indices 1 2 3 4 5 6 
#
# 1 126.7017 32.9675 36.9502 0.0000 0.0000 0.0000
# 2 32.9675 83.4263 14.6977 0.0000 0.0000 0.0000
# 3 36.9502 14.6977 103.6332 0.0000 0.0000 0.0000
# 4 0.0000 0.0000 0.0000 48.6179 0.0000 0.0000
# 5 0.0000 0.0000 0.0000 0.0000 27.4210 0.0000
# 6 0.0000 0.0000 0.0000 0.0000 0.0000 27.1496
#
#
#
# Elastic Compliance Matrix: (Units=1/GPa)
#
#
# Indices 1 2 3 4 5 6 
#
# 1 0.009608 -0.003275 -0.002961 0.000000 0.000000 0.000000
# 2 -0.003275 0.013410 -0.000734 0.000000 0.000000 0.000000
# 3 -0.002961 -0.000734 0.010809 0.000000 0.000000 0.000000
# 4 0.000000 0.000000 0.000000 0.020569 0.000000 0.000000
# 5 0.000000 0.000000 0.000000 0.000000 0.036468 0.000000
# 6 0.000000 0.000000 0.000000 0.000000 0.000000 0.036833
#
#
# Mechanical properties :
#
#
# Convention : Reuss Voigt Hill
#
# Bulk Modulus (GPa) = 50.28505 53.66579 51.97542
# Shear Modulus (GPa) = 33.72269 35.91409 34.81839
#
# Velocity S-wave (km/s) = 4.10475 4.23603 4.17091
# Velocity P-wave (km/s) = 6.89851 7.12309 7.01170
#
# Compressibility (1/GPa) = 0.01988662
#
# Stress axis : x y z
#
# Youngs Moduli (GPa) = 104.07586 74.57000 92.51212
#
# Poissons Ratio (x) = 0.24423 0.27396
# Poissons Ratio (y) = 0.34087 0.06792
# Poissons Ratio (z) = 0.30820 0.05474
#
# Static dielectric constant tensor:
#      x y z
#    x 1.720640 0.000000 0.000000 
#    y 0.000000 1.739920 0.000000 
#    z 0.000000 0.000000 1.709340 
# 
# From -- ./inp_files/27809.got.cif
#   From: 2010.05.17/outbox.cif.g08.bks.cpg/sg54_14_cif.got.tgz:27809.got - 2010.06.03 13:09:01.
