data_PCOD9422536
_publ_section_title
;
Structure prediction by ZEFSAII (Michael W. Deem and Ramdas Pophale) SiO2 
 PCOD9422536
Probable space group: P C C A
;
_chemical_formula_sum "Si O2"
_cell_formula_units_Z 48
_cell_length_a 8.703472
_cell_length_b 15.473211
_cell_length_c 16.253633
_cell_angle_alpha 90.000000
_cell_angle_beta 90.000000
_cell_angle_gamma 90.000000
_cell_volume 2188.887462
_symmetry_space_group_name_H-M "P C C A"
_symmetry_group_IT_number 54
_symmetry_cell_setting 'orthorhombic'
loop_
_space_group_symop_operation_xyz
x,y,z
1/2-x,-y,z
1/2+x,-y,1/2-z
-x,y,1/2-z
-x,-y,-z
1/2+x,y,-z
1/2-x,y,1/2+z
x,-y,1/2+z
loop_
_atom_site_type_symbol
_atom_site_label
_atom_site_fract_x
_atom_site_fract_y
_atom_site_fract_z
Si Si1 0.750000 0.500000 0.635339
Si Si2 0.180783 0.335388 0.461017
Si Si3 0.370102 0.199318 0.390206
Si Si4 0.682286 0.271194 0.357374
Si Si5 0.444329 0.177610 0.568679
Si Si6 0.000000 0.404676 0.750000
Si Si7 0.635262 0.080246 0.683050
O O1 0.833041 0.570474 0.576190
O O2 0.609823 0.537833 0.690863
O O3 0.326297 0.297674 0.411092
O O4 0.202614 0.327115 0.558319
O O5 0.053641 0.261291 0.444757
O O6 0.544834 0.201619 0.363784
O O7 0.360995 0.158336 0.482091
O O8 0.254731 0.160627 0.323784
O O9 0.833056 0.211947 0.359327
O O10 0.625040 0.340125 0.291732
O O11 0.540516 0.096007 0.598802
O O12 0.500000 0.076456 0.750000
O O13 0.750000 0.000000 0.686705
#
# Coordination Sequence:
#
# PCOD9422536 Si02
#       7
#     4   8   8   8   8   4   8
#     4  12  26  42  56  90 140 176 230 274 340 386
#     4   9  20  42  65  88 129 180 226 274 328 401
#     4   9  19  45  69  96 127 172 231 267 314 401
#     4  10  21  40  66  97 124 171 230 275 333 388
#     4   9  21  41  74  97 122 174 226 273 327 392
#     4  12  28  38  58  98 136 174 228 286 332 398
#     4  11  26  44  67 103 143 173 207 262 337 407
#
# _framework density 21.928948999999999
#
# number of rings (size 3 to 8) (size 9 to 14) (size 15 to 20)
#    0.000    2.000    1.667    1.000    4.667    3.333 
#    1.500    0.833    0.000    0.000    0.000    0.000 
#    0.000    0.000    0.000    0.000    0.000    0.000 
#
# Total GULP energy -267268.934255 kJ/mol
# GULP energy per Si atom -5568.102797 kJ/mol
# Density = 2.187904 g / cm^3
# Si number density = 21.928949 Si / 1000 Ang^3
#
#
#
# Elastic Constant Matrix: (Units=GPa)
#
#
# Indices 1 2 3 4 5 6 
#
# 1 96.2261 30.7152 33.0115 0.0000 0.0000 0.0000
# 2 30.7152 71.6447 53.4954 0.0000 0.0000 0.0000
# 3 33.0115 53.4954 90.5117 0.0000 0.0000 0.0000
# 4 0.0000 0.0000 0.0000 15.4333 0.0000 0.0000
# 5 0.0000 0.0000 0.0000 0.0000 40.7814 0.0000
# 6 0.0000 0.0000 0.0000 0.0000 0.0000 28.7776
#
#
#
# Elastic Compliance Matrix: (Units=1/GPa)
#
#
# Indices 1 2 3 4 5 6 
#
# 1 0.012338 -0.003454 -0.002459 0.000000 0.000000 0.000000
# 2 -0.003454 0.025950 -0.014078 0.000000 0.000000 0.000000
# 3 -0.002459 -0.014078 0.020265 0.000000 0.000000 0.000000
# 4 0.000000 0.000000 0.000000 0.064795 0.000000 0.000000
# 5 0.000000 0.000000 0.000000 0.000000 0.024521 0.000000
# 6 0.000000 0.000000 0.000000 0.000000 0.000000 0.034749
#
#
# Mechanical properties :
#
#
# Convention : Reuss Voigt Hill
#
# Bulk Modulus (GPa) = 53.84065 54.75853 54.29959
# Shear Modulus (GPa) = 21.85414 26.40914 24.13164
#
# Velocity S-wave (km/s) = 3.16030 3.47407 3.32090
# Velocity P-wave (km/s) = 6.15811 6.41228 6.28648
#
# Compressibility (1/GPa) = 0.01857333
#
# Stress axis : x y z
#
# Youngs Moduli (GPa) = 81.04978 38.53589 49.34531
#
# Poissons Ratio (x) = 0.13309 0.12133
# Poissons Ratio (y) = 0.27992 0.69466
# Poissons Ratio (z) = 0.19928 0.54249
#
# Static dielectric constant tensor:
#      x y z
#    x 1.873440 0.000000 0.000000 
#    y 0.000000 1.799930 0.000000 
#    z 0.000000 0.000000 1.862690 
# 
# From -- ./inp_files/16676.got.cif
#   From: 2010.05.17/outbox.cif.g08.bks.cpg/sg54_9_cif.got.tgz:16676.got - 2010.06.03 13:09:01.
