data_PCOD9422468
_publ_section_title
;
Structure prediction by ZEFSAII (Michael W. Deem and Ramdas Pophale) SiO2 
 PCOD9422468
Probable space group: P C C A
;
_chemical_formula_sum "Si O2"
_cell_formula_units_Z 64
_cell_length_a 17.312639
_cell_length_b 8.771245
_cell_length_c 19.768732
_cell_angle_alpha 90.000000
_cell_angle_beta 90.000000
_cell_angle_gamma 90.000000
_cell_volume 3001.949134
_symmetry_space_group_name_H-M "P C C A"
_symmetry_group_IT_number 54
_symmetry_cell_setting 'orthorhombic'
loop_
_space_group_symop_operation_xyz
x,y,z
1/2-x,-y,z
1/2+x,-y,1/2-z
-x,y,1/2-z
-x,-y,-z
1/2+x,y,-z
1/2-x,y,1/2+z
x,-y,1/2+z
loop_
_atom_site_type_symbol
_atom_site_label
_atom_site_fract_x
_atom_site_fract_y
_atom_site_fract_z
Si Si1 0.327746 0.953866 0.495905
Si Si2 0.315879 0.390395 0.775376
Si Si3 0.548047 0.074461 0.902528
Si Si4 0.490597 0.581871 0.428611
Si Si5 0.165928 0.937834 0.720086
Si Si6 0.545780 0.609359 0.686657
Si Si7 0.691680 0.632881 0.071485
Si Si8 0.112630 0.916447 0.362462
O O1 0.405186 0.991826 0.537084
O O2 0.332395 0.050434 0.426018
O O3 0.250000 0.000000 0.534800
O O4 0.314120 0.779621 0.475518
O O5 0.250000 0.500000 0.747248
O O6 0.328224 0.241672 0.732565
O O7 0.394453 0.485335 0.784002
O O8 0.286639 0.335957 0.850069
O O9 0.530507 0.252404 0.921119
O O10 0.601548 0.045821 0.837235
O O11 0.465843 0.002145 0.884337
O O12 0.500000 0.500000 0.500000
O O13 0.512017 0.473342 0.365623
O O14 0.397873 0.588800 0.422408
O O15 0.250000 0.000000 0.700963
O O16 0.142414 0.015965 0.791510
O O17 0.500000 0.678418 0.750000
O O18 0.592873 0.740210 0.648399
O O19 0.750000 0.500000 0.047901
#
# Coordination Sequence:
#
# PCOD9422468 Si02
#       8
#     8   8   8   8   8   8   8   8
#     4  12  26  43  70  99 136 182 231 298 357 424
#     4  10  21  39  66  94 130 165 225 281 330 414
#     4  12  26  45  67 101 144 183 236 299 367 427
#     4  11  24  43  68  95 135 185 230 284 345 431
#     4  12  24  43  69 102 140 186 233 288 363 429
#     4  11  23  39  63  97 132 170 222 284 349 402
#     4  10  23  41  66 102 129 173 232 286 345 413
#     4  12  24  43  71 100 132 183 241 289 346 437
#
# _framework density 21.319481
#
# number of rings (size 3 to 8) (size 9 to 14) (size 15 to 20)
#    0.000    0.750    2.500    5.250    8.750    0.000 
#    0.000    0.000    2.750    0.000    0.000    0.000 
#    0.000    0.000    0.000    0.000    0.000    0.000 
#
# Total GULP energy -357728.871663 kJ/mol
# GULP energy per Si atom -5589.513620 kJ/mol
# Density = 2.127096 g / cm^3
# Si number density = 21.319481 Si / 1000 Ang^3
#
#
#
# Elastic Constant Matrix: (Units=GPa)
#
#
# Indices 1 2 3 4 5 6 
#
# 1 91.8271 13.0169 29.9624 0.0000 0.0000 0.0000
# 2 13.0169 98.6191 24.9987 0.0000 0.0000 0.0000
# 3 29.9624 24.9987 90.6999 0.0000 0.0000 0.0000
# 4 0.0000 0.0000 0.0000 85.9598 0.0000 0.0000
# 5 0.0000 0.0000 0.0000 0.0000 24.1385 0.0000
# 6 0.0000 0.0000 0.0000 0.0000 0.0000 42.6622
#
#
#
# Elastic Compliance Matrix: (Units=1/GPa)
#
#
# Indices 1 2 3 4 5 6 
#
# 1 0.012243 -0.000635 -0.003869 0.000000 0.000000 0.000000
# 2 -0.000635 0.010935 -0.002804 0.000000 0.000000 0.000000
# 3 -0.003869 -0.002804 0.013076 0.000000 0.000000 0.000000
# 4 0.000000 0.000000 0.000000 0.011633 0.000000 0.000000
# 5 0.000000 0.000000 0.000000 0.000000 0.041428 0.000000
# 6 0.000000 0.000000 0.000000 0.000000 0.000000 0.023440
#
#
# Mechanical properties :
#
#
# Convention : Reuss Voigt Hill
#
# Bulk Modulus (GPa) = 46.21734 46.34467 46.28101
# Shear Modulus (GPa) = 37.15166 44.76331 40.95749
#
# Velocity S-wave (km/s) = 4.17899 4.58716 4.38782
# Velocity P-wave (km/s) = 6.70901 7.05984 6.88666
#
# Compressibility (1/GPa) = 0.02163690
#
# Stress axis : x y z
#
# Youngs Moduli (GPa) = 81.68220 91.45261 76.47363
#
# Poissons Ratio (x) = 0.05808 0.29590
# Poissons Ratio (y) = 0.05188 0.21443
# Poissons Ratio (z) = 0.31605 0.25643
#
# Static dielectric constant tensor:
#      x y z
#    x 1.751450 0.000000 0.000000 
#    y 0.000000 1.694650 0.000000 
#    z 0.000000 0.000000 1.814280 
# 
# From -- ./inp_files/21965.got.cif
#   From: 2010.05.17/outbox.cif.g08.bks.cpg/sg54_11_cif.got.tgz:21965.got - 2010.06.03 13:09:01.
