data_PCOD9422654
_publ_section_title
;
Structure prediction by ZEFSAII (Michael W. Deem and Ramdas Pophale) SiO2 
 PCOD9422654
Probable space group: P C C A
;
_chemical_formula_sum "Si O2"
_cell_formula_units_Z 48
_cell_length_a 27.043872
_cell_length_b 9.386338
_cell_length_c 8.959103
_cell_angle_alpha 90.000000
_cell_angle_beta 90.000000
_cell_angle_gamma 90.000000
_cell_volume 2274.204897
_symmetry_space_group_name_H-M "P C C A"
_symmetry_group_IT_number 54
_symmetry_cell_setting 'orthorhombic'
loop_
_space_group_symop_operation_xyz
x,y,z
1/2-x,-y,z
1/2+x,-y,1/2-z
-x,y,1/2-z
-x,-y,-z
1/2+x,y,-z
1/2-x,y,1/2+z
x,-y,1/2+z
loop_
_atom_site_type_symbol
_atom_site_label
_atom_site_fract_x
_atom_site_fract_y
_atom_site_fract_z
Si Si1 0.185205 0.775398 0.498495
Si Si2 0.396526 0.400535 0.675462
Si Si3 0.630367 0.659679 0.987371
Si Si4 0.609804 0.977356 0.057919
Si Si5 0.230133 0.339596 0.690860
Si Si6 0.550991 0.123684 0.827960
O O1 0.142807 0.670879 0.562055
O O2 0.227890 0.764292 0.623574
O O3 0.208243 0.718040 0.345178
O O4 0.158000 0.925053 0.465825
O O5 0.402720 0.560237 0.618914
O O6 0.442771 0.294261 0.670428
O O7 0.375307 0.393035 0.842721
O O8 0.615481 0.824199 0.981318
O O9 0.686092 0.649025 0.928964
O O10 0.563059 0.060132 0.988413
O O11 0.596185 0.938176 0.227499
O O12 0.250000 0.500000 0.712217
O O13 0.500000 0.085952 0.750000
#
# Coordination Sequence:
#
# PCOD9422654 Si02
#       6
#     8   8   8   8   8   8
#     4  11  23  40  61  91 128 166 214 261 318 369
#     4  10  22  39  62  90 124 165 208 267 319 377
#     4  11  22  40  62  89 127 170 214 257 319 371
#     4  10  23  42  65  93 129 170 203 264 333 381
#     4  12  23  36  64  92 125 167 219 259 298 377
#     4  10  21  42  68  96 125 163 214 266 326 398
#
# _framework density 21.106278
#
# number of rings (size 3 to 8) (size 9 to 14) (size 15 to 20)
#    0.000    1.333    1.667    4.000    0.000    2.000 
#    0.000    5.833    0.000    0.000    0.000    0.000 
#    0.000    0.000    0.000    0.000    0.000    0.000 
#
# Total GULP energy -268275.489203 kJ/mol
# GULP energy per Si atom -5589.072692 kJ/mol
# Density = 2.105824 g / cm^3
# Si number density = 21.106278 Si / 1000 Ang^3
#
#
#
# Elastic Constant Matrix: (Units=GPa)
#
#
# Indices 1 2 3 4 5 6 
#
# 1 46.1797 39.2754 28.1481 0.0000 0.0000 0.0000
# 2 39.2754 100.7339 42.1756 0.0000 0.0000 0.0000
# 3 28.1481 42.1756 73.1317 0.0000 0.0000 0.0000
# 4 0.0000 0.0000 0.0000 33.2149 0.0000 0.0000
# 5 0.0000 0.0000 0.0000 0.0000 21.9381 0.0000
# 6 0.0000 0.0000 0.0000 0.0000 0.0000 21.6113
#
#
#
# Elastic Compliance Matrix: (Units=1/GPa)
#
#
# Indices 1 2 3 4 5 6 
#
# 1 0.035215 -0.010619 -0.007430 0.000000 0.000000 0.000000
# 2 -0.010619 0.016289 -0.005307 0.000000 0.000000 0.000000
# 3 -0.007430 -0.005307 0.019594 0.000000 0.000000 0.000000
# 4 0.000000 0.000000 0.000000 0.030107 0.000000 0.000000
# 5 0.000000 0.000000 0.000000 0.000000 0.045583 0.000000
# 6 0.000000 0.000000 0.000000 0.000000 0.000000 0.046272
#
#
# Mechanical properties :
#
#
# Convention : Reuss Voigt Hill
#
# Bulk Modulus (GPa) = 41.00636 48.80481 44.90559
# Shear Modulus (GPa) = 20.16932 22.71595 21.44264
#
# Velocity S-wave (km/s) = 3.09464 3.28421 3.19083
# Velocity P-wave (km/s) = 5.67801 6.12821 5.90740
#
# Compressibility (1/GPa) = 0.02438646
#
# Stress axis : x y z
#
# Youngs Moduli (GPa) = 28.39707 61.38954 51.03550
#
# Poissons Ratio (x) = 0.65191 0.37919
# Poissons Ratio (y) = 0.30156 0.27084
# Poissons Ratio (z) = 0.21099 0.32579
#
# Static dielectric constant tensor:
#      x y z
#    x 1.761290 0.000000 0.000000 
#    y 0.000000 1.773990 0.000000 
#    z 0.000000 0.000000 1.768830 
# 
# From -- ./inp_files/5849.got.cif
#   From: 2010.05.17/outbox.cif.g08.bks.cpg/sg54_3_cif.got.tgz:5849.got - 2010.06.03 13:09:01.
