data_PCOD9422751
_publ_section_title
;
Structure prediction by ZEFSAII (Michael W. Deem and Ramdas Pophale) SiO2 
 PCOD9422751
Probable space group: P C C A
;
_chemical_formula_sum "Si O2"
_cell_formula_units_Z 40
_cell_length_a 18.116339
_cell_length_b 5.287546
_cell_length_c 18.289282
_cell_angle_alpha 90.000000
_cell_angle_beta 90.000000
_cell_angle_gamma 90.000000
_cell_volume 1751.948170
_symmetry_space_group_name_H-M "P C C A"
_symmetry_group_IT_number 54
_symmetry_cell_setting 'orthorhombic'
loop_
_space_group_symop_operation_xyz
x,y,z
1/2-x,-y,z
1/2+x,-y,1/2-z
-x,y,1/2-z
-x,-y,-z
1/2+x,y,-z
1/2-x,y,1/2+z
x,-y,1/2+z
loop_
_atom_site_type_symbol
_atom_site_label
_atom_site_fract_x
_atom_site_fract_y
_atom_site_fract_z
Si Si1 0.250000 0.000000 0.757206
Si Si2 0.660241 0.034882 0.497989
Si Si3 0.661444 0.531049 0.416377
Si Si4 0.882260 0.750380 0.654195
Si Si5 0.868199 0.368990 0.771530
Si Si6 0.000000 0.008135 0.750000
O O1 0.313846 0.114715 0.806220
O O2 0.207418 0.217219 0.714652
O O3 0.637633 0.249411 0.439609
O O4 0.627170 0.157006 0.571815
O O5 0.750000 0.000000 0.505999
O O6 0.636586 0.756764 0.470182
O O7 0.750000 0.500000 0.421641
O O8 0.633622 0.583021 0.333857
O O9 0.871738 0.467763 0.687525
O O10 0.958638 0.841926 0.689473
O O11 0.937436 0.189464 0.782455
#
# Coordination Sequence:
#
# PCOD9422751 Si02
#       6
#     4   8   8   8   8   4
#     4  10  22  34  70 102 124 170 240 276 348 408
#     4  10  23  40  66 102 138 175 225 288 355 420
#     4  10  23  40  66 102 142 174 222 287 361 410
#     4  11  22  42  67  96 134 181 231 288 341 408
#     4  11  24  42  68  99 137 182 230 293 339 417
#     4  10  26  42  66  92 136 180 250 276 346 400
#
# _framework density 22.831724999999999
#
# number of rings (size 3 to 8) (size 9 to 14) (size 15 to 20)
#    0.000    1.600    1.000    2.400   15.400    1.600 
#    0.000    2.000    0.000    0.000    0.000    0.000 
#    0.000    0.000    0.000    0.000    0.000    0.000 
#
# Total GULP energy -223196.254395 kJ/mol
# GULP energy per Si atom -5579.906360 kJ/mol
# Density = 2.277976 g / cm^3
# Si number density = 22.831725 Si / 1000 Ang^3
#
#
#
# Elastic Constant Matrix: (Units=GPa)
#
#
# Indices 1 2 3 4 5 6 
#
# 1 63.2864 34.0139 14.8568 0.0000 0.0000 0.0000
# 2 34.0139 116.5307 35.7796 0.0000 0.0000 0.0000
# 3 14.8568 35.7796 121.2917 0.0000 0.0000 0.0000
# 4 0.0000 0.0000 0.0000 17.9049 0.0000 0.0000
# 5 0.0000 0.0000 0.0000 0.0000 14.9397 0.0000
# 6 0.0000 0.0000 0.0000 0.0000 0.0000 22.3289
#
#
#
# Elastic Compliance Matrix: (Units=1/GPa)
#
#
# Indices 1 2 3 4 5 6 
#
# 1 0.018804 -0.005258 -0.000752 0.000000 0.000000 0.000000
# 2 -0.005258 0.010906 -0.002573 0.000000 0.000000 0.000000
# 3 -0.000752 -0.002573 0.009096 0.000000 0.000000 0.000000
# 4 0.000000 0.000000 0.000000 0.055851 0.000000 0.000000
# 5 0.000000 0.000000 0.000000 0.000000 0.066936 0.000000
# 6 0.000000 0.000000 0.000000 0.000000 0.000000 0.044785
#
#
# Mechanical properties :
#
#
# Convention : Reuss Voigt Hill
#
# Bulk Modulus (GPa) = 46.21204 52.26771 49.23988
# Shear Modulus (GPa) = 21.66792 25.46527 23.56659
#
# Velocity S-wave (km/s) = 3.08397 3.34330 3.21625
# Velocity P-wave (km/s) = 5.74155 6.15190 5.95026
#
# Compressibility (1/GPa) = 0.02163938
#
# Stress axis : x y z
#
# Youngs Moduli (GPa) = 53.18156 91.69173 109.94086
#
# Poissons Ratio (x) = 0.48207 0.08271
# Poissons Ratio (y) = 0.27960 0.28290
# Poissons Ratio (z) = 0.04001 0.23594
#
# Static dielectric constant tensor:
#      x y z
#    x 1.825200 0.000000 0.000000 
#    y 0.000000 2.012560 0.000000 
#    z 0.000000 0.000000 1.891060 
# 
# From -- ./inp_files/18811.got.cif
#   From: 2010.05.17/outbox.cif.g08.bks.cpg/sg54_10_cif.got.tgz:18811.got - 2010.06.03 13:09:01.
