data_PCOD9422281
_publ_section_title
;
Structure prediction by ZEFSAII (Michael W. Deem and Ramdas Pophale) SiO2 
 PCOD9422281
Probable space group: P C C A
;
_chemical_formula_sum "Si O2"
_cell_formula_units_Z 32
_cell_length_a 5.254510
_cell_length_b 7.202788
_cell_length_c 35.741782
_cell_angle_alpha 90.000000
_cell_angle_beta 90.000000
_cell_angle_gamma 90.000000
_cell_volume 1352.723569
_symmetry_space_group_name_H-M "P C C A"
_symmetry_group_IT_number 54
_symmetry_cell_setting 'orthorhombic'
loop_
_space_group_symop_operation_xyz
x,y,z
1/2-x,-y,z
1/2+x,-y,1/2-z
-x,y,1/2-z
-x,-y,-z
1/2+x,y,-z
1/2-x,y,1/2+z
x,-y,1/2+z
loop_
_atom_site_type_symbol
_atom_site_label
_atom_site_fract_x
_atom_site_fract_y
_atom_site_fract_z
Si Si1 0.521051 0.789906 0.015580
Si Si2 0.704968 0.283554 0.365803
Si Si3 0.001530 0.871024 0.208916
Si Si4 0.709530 0.724153 0.098555
O O1 0.606049 0.778739 0.058198
O O2 0.246202 0.703969 0.008946
O O3 0.500000 0.000000 0.000000
O O4 0.750000 0.500000 0.373026
O O5 0.565436 0.260092 0.325953
O O6 0.493968 0.202414 0.393983
O O7 0.992465 0.210777 0.371770
O O8 0.000000 0.777229 0.250000
O O9 0.250000 0.000000 0.209870
O O10 0.750000 0.000000 0.204534
O O11 0.750000 0.500000 0.100151
#
# Coordination Sequence:
#
# PCOD9422281 Si02
#       4
#     8   8   8   8
#     4  10  21  38  53  79 115 148 191 252 295 361
#     4  10  21  40  61  90 122 156 204 248 298 365
#     4  10  21  40  61  90 127 162 201 248 303 362
#     4  10  21  38  60  83 116 156 197 248 304 361
#
# _framework density 23.655978999999999
#
# number of rings (size 3 to 8) (size 9 to 14) (size 15 to 20)
#    0.000    2.000    0.000    3.000    0.000    1.000 
#   27.000    7.500    0.000    0.000    0.000    0.000 
#    0.000    0.000    0.000    0.000    0.000    0.000 
#
# Total GULP energy -178595.816742 kJ/mol
# GULP energy per Si atom -5581.119273 kJ/mol
# Density = 2.360214 g / cm^3
# Si number density = 23.655979 Si / 1000 Ang^3
#
#
#
# Elastic Constant Matrix: (Units=GPa)
#
#
# Indices 1 2 3 4 5 6 
#
# 1 214.1271 32.9959 65.8939 0.0000 0.0000 0.0000
# 2 32.9959 68.9266 -9.3179 0.0000 0.0000 0.0000
# 3 65.8939 -9.3179 119.4064 0.0000 0.0000 0.0000
# 4 0.0000 0.0000 0.0000 35.1850 0.0000 0.0000
# 5 0.0000 0.0000 0.0000 0.0000 203.2432 0.0000
# 6 0.0000 0.0000 0.0000 0.0000 0.0000 -0.7146
#
#
#
# Elastic Compliance Matrix: (Units=1/GPa)
#
#
# Indices 1 2 3 4 5 6 
#
# 1 0.006392 -0.003575 -0.003807 0.000000 0.000000 0.000000
# 2 -0.003575 0.016662 0.003273 0.000000 0.000000 0.000000
# 3 -0.003807 0.003273 0.010731 0.000000 0.000000 0.000000
# 4 0.000000 0.000000 0.000000 0.028421 0.000000 0.000000
# 5 0.000000 0.000000 0.000000 0.000000 0.004920 0.000000
# 6 0.000000 0.000000 0.000000 0.000000 0.000000 -1.399355
#
#
# Mechanical properties :
#
#
# Convention : Reuss Voigt Hill
#
# Bulk Modulus (GPa) = 39.11089 64.62266 51.86678
# Shear Modulus (GPa) = -3.80087 68.40192 32.30053
#
# Velocity S-wave (km/s) = -1.26894 5.38313 3.69918
# Velocity P-wave (km/s) = 3.79765 8.12492 6.34179
#
# Compressibility (1/GPa) = 0.02556833
#
# Stress axis : x y z
#
# Youngs Moduli (GPa) = 156.43660 60.01725 93.18977
#
# Poissons Ratio (x) = 0.21454 0.35473
# Poissons Ratio (y) = 0.55921 -0.30500
# Poissons Ratio (z) = 0.59548 -0.19643
#
# Static dielectric constant tensor:
#      x y z
#    x 1.967340 0.000000 0.000000 
#    y 0.000000 1.820000 0.000000 
#    z 0.000000 0.000000 1.950250 
# 
# From -- ./inp_files/26834.got.cif
#   From: 2010.05.17/outbox.cif.g08.bks.cpg/sg54_14_cif.got.tgz:26834.got - 2010.06.03 13:09:01.
