data_PCOD9422251
_publ_section_title
;
Structure prediction by ZEFSAII (Michael W. Deem and Ramdas Pophale) SiO2 
 PCOD9422251
Probable space group: P C C A
;
_chemical_formula_sum "Si O2"
_cell_formula_units_Z 56
_cell_length_a 13.807513
_cell_length_b 5.835088
_cell_length_c 31.089362
_cell_angle_alpha 90.000000
_cell_angle_beta 90.000000
_cell_angle_gamma 90.000000
_cell_volume 2504.809378
_symmetry_space_group_name_H-M "P C C A"
_symmetry_group_IT_number 54
_symmetry_cell_setting 'orthorhombic'
loop_
_space_group_symop_operation_xyz
x,y,z
1/2-x,-y,z
1/2+x,-y,1/2-z
-x,y,1/2-z
-x,-y,-z
1/2+x,y,-z
1/2-x,y,1/2+z
x,-y,1/2+z
loop_
_atom_site_type_symbol
_atom_site_label
_atom_site_fract_x
_atom_site_fract_y
_atom_site_fract_z
Si Si1 0.011535 0.824805 0.038478
Si Si2 0.357317 0.941926 0.179285
Si Si3 0.003258 0.747019 0.131063
Si Si4 0.135302 0.747207 0.767003
Si Si5 0.648451 0.635004 0.401630
Si Si6 0.644444 0.543289 0.493774
Si Si7 0.138757 0.746885 0.298840
O O1 0.001493 0.900869 0.087610
O O2 0.110462 0.692436 0.028436
O O3 0.928654 0.633527 0.029235
O O4 0.000000 0.000000 0.000000
O O5 0.387520 0.765681 0.216173
O O6 0.344563 0.831691 0.132919
O O7 0.250000 0.000000 0.195215
O O8 0.427903 0.152243 0.168836
O O9 0.056958 0.519427 0.113525
O O10 0.896714 0.731858 0.151539
O O11 0.247935 0.744271 0.784352
O O12 0.098562 0.496285 0.781128
O O13 0.102372 0.000690 0.783428
O O14 0.750000 0.500000 0.398091
O O15 0.642307 0.706496 0.451580
O O16 0.750000 0.500000 0.511444
#
# Coordination Sequence:
#
# PCOD9422251 Si02
#       7
#     8   8   8   8   8   8   8
#     4  10  21  42  65  95 137 169 219 290 336 418
#     4  12  23  39  62  94 126 174 217 277 339 404
#     4  11  25  40  64  99 128 171 231 273 349 401
#     4  10  24  46  67  87 139 176 228 280 343 394
#     4  10  21  37  61  91 130 167 207 276 335 410
#     4   9  20  40  62  94 130 171 218 266 350 417
#     4  10  23  46  64  94 126 180 224 279 334 404
#
# _framework density 22.356992000000002
#
# number of rings (size 3 to 8) (size 9 to 14) (size 15 to 20)
#    0.000    1.714    2.857    0.857    6.000    1.143 
#    2.571    1.429    0.000    0.000    0.000    0.000 
#    0.000    0.000    0.000    0.000    0.000    0.000 
#
# Total GULP energy -311892.586837 kJ/mol
# GULP energy per Si atom -5569.510479 kJ/mol
# Density = 2.230611 g / cm^3
# Si number density = 22.356992 Si / 1000 Ang^3
#
#
#
# Elastic Constant Matrix: (Units=GPa)
#
#
# Indices 1 2 3 4 5 6 
#
# 1 87.9810 9.2545 25.8627 0.0000 0.0000 0.0000
# 2 9.2545 96.7470 25.9386 0.0000 0.0000 0.0000
# 3 25.8627 25.9386 93.1034 0.0000 0.0000 0.0000
# 4 0.0000 0.0000 0.0000 35.7721 0.0000 0.0000
# 5 0.0000 0.0000 0.0000 0.0000 32.0114 0.0000
# 6 0.0000 0.0000 0.0000 0.0000 0.0000 12.9758
#
#
#
# Elastic Compliance Matrix: (Units=1/GPa)
#
#
# Indices 1 2 3 4 5 6 
#
# 1 0.012384 -0.000283 -0.003361 0.000000 0.000000 0.000000
# 2 -0.000283 0.011177 -0.003035 0.000000 0.000000 0.000000
# 3 -0.003361 -0.003035 0.012520 0.000000 0.000000 0.000000
# 4 0.000000 0.000000 0.000000 0.027955 0.000000 0.000000
# 5 0.000000 0.000000 0.000000 0.000000 0.031239 0.000000
# 6 0.000000 0.000000 0.000000 0.000000 0.000000 0.077066
#
#
# Mechanical properties :
#
#
# Convention : Reuss Voigt Hill
#
# Bulk Modulus (GPa) = 44.01113 44.43812 44.22462
# Shear Modulus (GPa) = 25.86994 30.60356 28.23675
#
# Velocity S-wave (km/s) = 3.40535 3.70382 3.55772
# Velocity P-wave (km/s) = 5.93214 6.18149 6.05810
#
# Compressibility (1/GPa) = 0.02272153
#
# Stress axis : x y z
#
# Youngs Moduli (GPa) = 80.74977 89.46856 79.87207
#
# Poissons Ratio (x) = 0.02536 0.26846
# Poissons Ratio (y) = 0.02289 0.24243
# Poissons Ratio (z) = 0.27141 0.27155
#
# Static dielectric constant tensor:
#      x y z
#    x 1.929080 0.000000 0.000000 
#    y 0.000000 1.915590 0.000000 
#    z 0.000000 0.000000 1.848930 
# 
# From -- ./inp_files/28240.got.cif
#   From: 2010.05.17/outbox.cif.g08.bks.cpg/sg54_15_cif.got.tgz:28240.got - 2010.06.03 13:09:01.
