data_PCOD9422129
_publ_section_title
;
Structure prediction by ZEFSAII (Michael W. Deem and Ramdas Pophale) SiO2 
 PCOD9422129
Probable space group: P C C A
;
_chemical_formula_sum "Si O2"
_cell_formula_units_Z 56
_cell_length_a 14.125462
_cell_length_b 9.711482
_cell_length_c 21.017913
_cell_angle_alpha 90.000000
_cell_angle_beta 90.000000
_cell_angle_gamma 90.000000
_cell_volume 2883.219860
_symmetry_space_group_name_H-M "P C C A"
_symmetry_group_IT_number 54
_symmetry_cell_setting 'orthorhombic'
loop_
_space_group_symop_operation_xyz
x,y,z
1/2-x,-y,z
1/2+x,-y,1/2-z
-x,y,1/2-z
-x,-y,-z
1/2+x,y,-z
1/2-x,y,1/2+z
x,-y,1/2+z
loop_
_atom_site_type_symbol
_atom_site_label
_atom_site_fract_x
_atom_site_fract_y
_atom_site_fract_z
Si Si1 0.225132 0.839569 0.423751
Si Si2 0.157794 0.595630 0.202363
Si Si3 0.767025 0.147007 0.875183
Si Si4 0.658509 0.597801 0.652510
Si Si5 0.395272 0.789160 0.507921
Si Si6 0.088983 0.223425 0.040628
Si Si7 0.031579 0.475013 0.585882
O O1 0.190456 0.752846 0.364034
O O2 0.316955 0.766953 0.454208
O O3 0.145004 0.816724 0.476943
O O4 0.250000 0.000000 0.414389
O O5 0.250000 0.500000 0.201207
O O6 0.189544 0.741759 0.172467
O O7 0.123451 0.599190 0.274803
O O8 0.083186 0.532499 0.153733
O O9 0.839395 0.129050 0.935858
O O10 0.750000 0.000000 0.844035
O O11 0.834548 0.807900 0.904267
O O12 0.750000 0.500000 0.647824
O O13 0.578382 0.547352 0.603079
O O14 0.486757 0.847405 0.470848
O O15 0.428030 0.651441 0.544446
O O16 0.061047 0.383107 0.052456
#
# Coordination Sequence:
#
# PCOD9422129 Si02
#       7
#     8   8   8   8   8   8   8
#     4  11  25  39  56  93 128 162 197 239 304 372
#     4  10  21  42  64  87 115 158 204 260 299 352
#     4  10  22  37  59  91 120 163 207 241 302 369
#     4  11  24  41  64  88 119 156 206 255 307 355
#     4  10  21  35  59  88 123 157 192 246 297 361
#     4  11  20  36  61  88 127 153 199 246 308 364
#     4  11  21  38  63  94 115 153 206 255 307 357
#
# _framework density 19.422729
#
# number of rings (size 3 to 8) (size 9 to 14) (size 15 to 20)
#    0.000    1.429    2.857    3.429    2.000    2.857 
#    0.000    0.000    0.000    0.000    3.714    0.000 
#    0.000    0.000    0.000    0.000    0.000    0.000 
#
# Total GULP energy -312319.151875 kJ/mol
# GULP energy per Si atom -5577.127712 kJ/mol
# Density = 1.937852 g / cm^3
# Si number density = 19.422729 Si / 1000 Ang^3
#
#
#
# Elastic Constant Matrix: (Units=GPa)
#
#
# Indices 1 2 3 4 5 6 
#
# 1 106.5768 11.3135 14.3060 0.0000 0.0000 0.0000
# 2 11.3135 106.7602 30.0585 0.0000 0.0000 0.0000
# 3 14.3060 30.0585 64.5099 0.0000 0.0000 0.0000
# 4 0.0000 0.0000 0.0000 19.1255 0.0000 0.0000
# 5 0.0000 0.0000 0.0000 0.0000 24.5979 0.0000
# 6 0.0000 0.0000 0.0000 0.0000 0.0000 17.1528
#
#
#
# Elastic Compliance Matrix: (Units=1/GPa)
#
#
# Indices 1 2 3 4 5 6 
#
# 1 0.009693 -0.000486 -0.001923 0.000000 0.000000 0.000000
# 2 -0.000486 0.010805 -0.004927 0.000000 0.000000 0.000000
# 3 -0.001923 -0.004927 0.018224 0.000000 0.000000 0.000000
# 4 0.000000 0.000000 0.000000 0.052286 0.000000 0.000000
# 5 0.000000 0.000000 0.000000 0.000000 0.040654 0.000000
# 6 0.000000 0.000000 0.000000 0.000000 0.000000 0.058299
#
#
# Mechanical properties :
#
#
# Convention : Reuss Voigt Hill
#
# Bulk Modulus (GPa) = 41.58015 43.24477 42.41246
# Shear Modulus (GPa) = 23.51280 26.98650 25.24965
#
# Velocity S-wave (km/s) = 3.48312 3.73155 3.60947
# Velocity P-wave (km/s) = 6.13438 6.39369 6.26538
#
# Compressibility (1/GPa) = 0.02404994
#
# Stress axis : x y z
#
# Youngs Moduli (GPa) = 103.17138 92.54554 54.87334
#
# Poissons Ratio (x) = 0.04495 0.10553
# Poissons Ratio (y) = 0.05011 0.27037
# Poissons Ratio (z) = 0.19842 0.45598
#
# Static dielectric constant tensor:
#      x y z
#    x 1.703590 0.000000 0.000000 
#    y 0.000000 1.686860 0.000000 
#    z 0.000000 0.000000 1.673920 
# 
# From -- ./inp_files/21627.got.cif
#   From: 2010.05.17/outbox.cif.g08.bks.cpg/sg54_11_cif.got.tgz:21627.got - 2010.06.03 13:09:01.
