data_PCOD9422156
_publ_section_title
;
Structure prediction by ZEFSAII (Michael W. Deem and Ramdas Pophale) SiO2 
 PCOD9422156
Probable space group: P C C A
;
_chemical_formula_sum "Si O2"
_cell_formula_units_Z 56
_cell_length_a 14.681559
_cell_length_b 34.045064
_cell_length_c 5.235359
_cell_angle_alpha 90.000000
_cell_angle_beta 90.000000
_cell_angle_gamma 90.000000
_cell_volume 2616.813654
_symmetry_space_group_name_H-M "P C C A"
_symmetry_group_IT_number 54
_symmetry_cell_setting 'orthorhombic'
loop_
_space_group_symop_operation_xyz
x,y,z
1/2-x,-y,z
1/2+x,-y,1/2-z
-x,y,1/2-z
-x,-y,-z
1/2+x,y,-z
1/2-x,y,1/2+z
x,-y,1/2+z
loop_
_atom_site_type_symbol
_atom_site_label
_atom_site_fract_x
_atom_site_fract_y
_atom_site_fract_z
Si Si1 0.102934 0.983873 0.541886
Si Si2 0.890572 0.522712 0.255294
Si Si3 0.190575 0.392054 0.756777
Si Si4 0.110423 0.179797 0.247465
Si Si5 0.808952 0.309290 0.863495
Si Si6 0.609213 0.225232 0.251508
Si Si7 0.810178 0.093482 0.303793
O O1 0.114173 0.939727 0.639407
O O2 0.145699 0.010561 0.763607
O O3 0.000000 0.000000 0.500000
O O4 0.857720 0.496613 0.492359
O O5 0.862867 0.567816 0.283059
O O6 0.000000 0.520960 0.250000
O O7 0.271269 0.391991 0.545104
O O8 0.141236 0.350613 0.697441
O O9 0.140576 0.196280 0.522052
O O10 0.148063 0.136902 0.187428
O O11 0.000000 0.177979 0.250000
O O12 0.139767 0.209716 0.024256
O O13 0.727221 0.309406 0.653695
O O14 0.861884 0.269410 0.810682
O O15 0.500000 0.223732 0.250000
O O16 0.735770 0.088827 0.527612
#
# Coordination Sequence:
#
# PCOD9422156 Si02
#       7
#     8   8   8   8   8   8   8
#     4  10  23  43  66  92 119 164 203 232 290 359
#     4  10  21  36  54  78 109 146 189 239 294 349
#     4  10  21  36  54  81 112 145 193 237 289 354
#     4  10  23  41  62  87 124 160 196 237 290 357
#     4  10  21  36  57  84 115 152 189 240 295 348
#     4  10  21  39  60  89 116 156 201 239 283 349
#     4  12  26  42  65  98 127 155 200 255 297 340
#
# _framework density 21.400072000000002
#
# number of rings (size 3 to 8) (size 9 to 14) (size 15 to 20)
#    0.000    1.714    0.000    3.429    2.000    7.429 
#    5.143    0.000    0.000   10.286    0.000    0.000 
#    0.000    0.000    0.000    0.000    0.000    0.000 
#
# Total GULP energy -312919.843761 kJ/mol
# GULP energy per Si atom -5587.854353 kJ/mol
# Density = 2.135136 g / cm^3
# Si number density = 21.400072 Si / 1000 Ang^3
#
#
#
# Elastic Constant Matrix: (Units=GPa)
#
#
# Indices 1 2 3 4 5 6 
#
# 1 50.1385 16.5675 4.0979 0.0000 0.0000 0.0000
# 2 16.5675 151.2541 15.9866 0.0000 0.0000 0.0000
# 3 4.0979 15.9866 127.9933 0.0000 0.0000 0.0000
# 4 0.0000 0.0000 0.0000 38.7252 0.0000 0.0000
# 5 0.0000 0.0000 0.0000 0.0000 3.5976 0.0000
# 6 0.0000 0.0000 0.0000 0.0000 0.0000 71.3578
#
#
#
# Elastic Compliance Matrix: (Units=1/GPa)
#
#
# Indices 1 2 3 4 5 6 
#
# 1 0.020712 -0.002228 -0.000385 0.000000 0.000000 0.000000
# 2 -0.002228 0.006940 -0.000795 0.000000 0.000000 0.000000
# 3 -0.000385 -0.000795 0.007925 0.000000 0.000000 0.000000
# 4 0.000000 0.000000 0.000000 0.025823 0.000000 0.000000
# 5 0.000000 0.000000 0.000000 0.000000 0.277967 0.000000
# 6 0.000000 0.000000 0.000000 0.000000 0.000000 0.014014
#
#
# Mechanical properties :
#
#
# Convention : Reuss Voigt Hill
#
# Bulk Modulus (GPa) = 34.77067 44.74333 39.75700
# Shear Modulus (GPa) = 13.52143 42.25170 27.88656
#
# Velocity S-wave (km/s) = 2.51637 4.44821 3.61377
# Velocity P-wave (km/s) = 4.97253 6.88008 6.00256
#
# Compressibility (1/GPa) = 0.02875987
#
# Stress axis : x y z
#
# Youngs Moduli (GPa) = 48.28022 144.10242 126.18964
#
# Poissons Ratio (x) = 0.32107 0.04856
# Poissons Ratio (y) = 0.10757 0.10037
# Poissons Ratio (z) = 0.01858 0.11462
#
# Static dielectric constant tensor:
#      x y z
#    x 1.494320 0.000000 0.000000 
#    y 0.000000 1.760740 0.000000 
#    z 0.000000 0.000000 1.801190 
# 
# From -- ./inp_files/766.got.cif
#   From: 2010.05.17/outbox.cif.g08.bks.cpg/sg54_1_cif.got.tgz:766.got - 2010.06.03 13:09:01.
