data_PCOD9422890
_publ_section_title
;
Structure prediction by ZEFSAII (Michael W. Deem and Ramdas Pophale) SiO2 
 PCOD9422890
Probable space group: P C C A
;
_chemical_formula_sum "Si O2"
_cell_formula_units_Z 64
_cell_length_a 27.364091
_cell_length_b 12.642281
_cell_length_c 8.201327
_cell_angle_alpha 90.000000
_cell_angle_beta 90.000000
_cell_angle_gamma 90.000000
_cell_volume 2837.204196
_symmetry_space_group_name_H-M "P C C A"
_symmetry_group_IT_number 54
_symmetry_cell_setting 'orthorhombic'
loop_
_space_group_symop_operation_xyz
x,y,z
1/2-x,-y,z
1/2+x,-y,1/2-z
-x,y,1/2-z
-x,-y,-z
1/2+x,y,-z
1/2-x,y,1/2+z
x,-y,1/2+z
loop_
_atom_site_type_symbol
_atom_site_label
_atom_site_fract_x
_atom_site_fract_y
_atom_site_fract_z
Si Si1 0.093444 0.630227 0.964117
Si Si2 0.385767 0.589295 0.845151
Si Si3 0.002176 0.880717 0.944548
Si Si4 0.682403 0.783309 0.579887
Si Si5 0.014791 0.329405 0.939790
Si Si6 0.642059 0.973111 0.725937
Si Si7 0.767590 0.890185 0.797053
Si Si8 0.392895 0.859899 0.459143
O O1 0.104034 0.616063 0.156444
O O2 0.033181 0.635131 0.953670
O O3 0.119702 0.535940 0.867586
O O4 0.119067 0.740934 0.911584
O O5 0.342245 0.670103 0.894182
O O6 0.434791 0.606826 0.953807
O O7 0.053108 0.844195 0.028167
O O8 0.000000 0.870240 0.750000
O O9 0.968362 0.789480 0.015490
O O10 0.000000 0.000000 0.000000
O O11 0.724011 0.829933 0.704723
O O12 0.707916 0.802989 0.409096
O O13 0.642400 0.876274 0.601073
O O14 0.000000 0.336948 0.750000
O O15 0.688313 0.052439 0.700153
O O16 0.600114 0.056655 0.686896
O O17 0.637703 0.917677 0.900369
O O18 0.750000 0.000000 0.886235
#
# Coordination Sequence:
#
# PCOD9422890 Si02
#       8
#     8   8   8   8   8   8   8   8
#     4  10  23  42  62  97 134 178 221 277 318 396
#     4  11  23  41  67  91 130 175 229 274 324 386
#     4  11  23  35  54  88 136 182 217 274 341 408
#     4  11  23  38  66  96 124 165 210 274 332 406
#     4   9  21  40  64  89 128 177 224 282 329 384
#     4  11  21  38  66  96 127 162 207 277 338 403
#     4  10  22  39  63  99 127 159 208 271 344 403
#     4  11  23  39  62  96 133 169 225 271 333 403
#
# _framework density 22.55742
#
# number of rings (size 3 to 8) (size 9 to 14) (size 15 to 20)
#    0.000    1.500    2.500    2.625    3.500    4.000 
#    0.000    0.625    0.000    6.000    0.000    0.000 
#    0.000    0.000    0.000    0.000    0.000    0.000 
#
# Total GULP energy -356442.211052 kJ/mol
# GULP energy per Si atom -5569.409548 kJ/mol
# Density = 2.250608 g / cm^3
# Si number density = 22.557420 Si / 1000 Ang^3
#
#
#
# Elastic Constant Matrix: (Units=GPa)
#
#
# Indices 1 2 3 4 5 6 
#
# 1 68.1887 30.8370 20.2971 0.0000 0.0000 0.0000
# 2 30.8370 168.4877 13.4685 0.0000 0.0000 0.0000
# 3 20.2971 13.4685 25.3595 0.0000 0.0000 0.0000
# 4 0.0000 0.0000 0.0000 29.7219 0.0000 0.0000
# 5 0.0000 0.0000 0.0000 0.0000 21.1971 0.0000
# 6 0.0000 0.0000 0.0000 0.0000 0.0000 35.3913
#
#
#
# Elastic Compliance Matrix: (Units=1/GPa)
#
#
# Indices 1 2 3 4 5 6 
#
# 1 0.020223 -0.002514 -0.014850 0.000000 0.000000 0.000000
# 2 -0.002514 0.006511 -0.001446 0.000000 0.000000 0.000000
# 3 -0.014850 -0.001446 0.052087 0.000000 0.000000 0.000000
# 4 0.000000 0.000000 0.000000 0.033645 0.000000 0.000000
# 5 0.000000 0.000000 0.000000 0.000000 0.047176 0.000000
# 6 0.000000 0.000000 0.000000 0.000000 0.000000 0.028256
#
#
# Mechanical properties :
#
#
# Convention : Reuss Voigt Hill
#
# Bulk Modulus (GPa) = 24.27201 43.47123 33.87162
# Shear Modulus (GPa) = 20.89858 30.42428 25.66143
#
# Velocity S-wave (km/s) = 3.04709 3.67651 3.37650
# Velocity P-wave (km/s) = 4.81281 6.11028 5.49994
#
# Compressibility (1/GPa) = 0.04119971
#
# Stress axis : x y z
#
# Youngs Moduli (GPa) = 49.44987 153.58976 19.19876
#
# Poissons Ratio (x) = 0.38613 0.28511
# Poissons Ratio (y) = 0.12432 0.02776
# Poissons Ratio (z) = 0.73435 0.22205
#
# Static dielectric constant tensor:
#      x y z
#    x 2.110480 0.000000 0.000000 
#    y 0.000000 1.947230 0.000000 
#    z 0.000000 0.000000 1.917080 
# 
# From -- ./inp_files/5959.got.cif
#   From: 2010.05.17/outbox.cif.g08.bks.cpg/sg54_3_cif.got.tgz:5959.got - 2010.06.03 13:09:01.
