data_PCOD9422001
_publ_section_title
;
Structure prediction by ZEFSAII (Michael W. Deem and Ramdas Pophale) SiO2 
 PCOD9422001
Probable space group: P C C A
;
_chemical_formula_sum "Si O2"
_cell_formula_units_Z 48
_cell_length_a 12.045360
_cell_length_b 7.875831
_cell_length_c 20.516323
_cell_angle_alpha 90.000000
_cell_angle_beta 90.000000
_cell_angle_gamma 90.000000
_cell_volume 1946.326521
_symmetry_space_group_name_H-M "P C C A"
_symmetry_group_IT_number 54
_symmetry_cell_setting 'orthorhombic'
loop_
_space_group_symop_operation_xyz
x,y,z
1/2-x,-y,z
1/2+x,-y,1/2-z
-x,y,1/2-z
-x,-y,-z
1/2+x,y,-z
1/2-x,y,1/2+z
x,-y,1/2+z
loop_
_atom_site_type_symbol
_atom_site_label
_atom_site_fract_x
_atom_site_fract_y
_atom_site_fract_z
Si Si1 0.549104 0.006903 0.095605
Si Si2 0.433942 0.639405 0.094768
Si Si3 0.127329 0.428420 0.237883
Si Si4 0.372632 0.039242 0.771549
Si Si5 0.139021 0.482043 0.467105
Si Si6 0.650565 0.885774 0.965699
O O1 0.488244 0.824045 0.102778
O O2 0.628276 0.036199 0.155674
O O3 0.612206 0.001486 0.027203
O O4 0.444885 0.129369 0.088268
O O5 0.368801 0.595497 0.159320
O O6 0.536280 0.514598 0.080369
O O7 0.371050 0.616542 0.026000
O O8 0.250000 0.500000 0.256437
O O9 0.121695 0.242920 0.270532
O O10 0.000000 0.503885 0.250000
O O11 0.500000 0.986406 0.750000
O O12 0.250000 0.000000 0.740588
O O13 0.250000 0.500000 0.426950
O O14 0.151683 0.299680 0.502289
O O15 0.750000 0.000000 0.937619
#
# Coordination Sequence:
#
# PCOD9422001 Si02
#       6
#     8   8   8   8   8   8
#     4  10  20  41  64  89 132 170 222 275 333 399
#     4  10  20  41  64  88 133 174 218 274 332 402
#     4  11  24  46  69  98 134 182 231 286 337 399
#     4  11  24  47  70  98 134 181 230 286 340 400
#     4  10  21  37  61  97 131 174 217 274 340 405
#     4  10  21  36  62  96 128 171 215 274 336 404
#
# _framework density 24.661843999999999
#
# number of rings (size 3 to 8) (size 9 to 14) (size 15 to 20)
#    0.000    1.667    3.333    2.000    0.000    3.333 
#    9.000    0.000    0.000    0.000    0.000    0.000 
#    0.000    0.000    0.000    0.000    0.000    0.000 
#
# Total GULP energy -267395.594694 kJ/mol
# GULP energy per Si atom -5570.741556 kJ/mol
# Density = 2.460571 g / cm^3
# Si number density = 24.661844 Si / 1000 Ang^3
#
#
#
# Elastic Constant Matrix: (Units=GPa)
#
#
# Indices 1 2 3 4 5 6 
#
# 1 187.4498 16.7858 17.5352 0.0000 0.0000 0.0000
# 2 16.7858 65.8662 0.9322 0.0000 0.0000 0.0000
# 3 17.5352 0.9322 55.9953 0.0000 0.0000 0.0000
# 4 0.0000 0.0000 0.0000 18.7358 0.0000 0.0000
# 5 0.0000 0.0000 0.0000 0.0000 146.5420 0.0000
# 6 0.0000 0.0000 0.0000 0.0000 0.0000 26.5958
#
#
#
# Elastic Compliance Matrix: (Units=1/GPa)
#
#
# Indices 1 2 3 4 5 6 
#
# 1 0.005623 -0.001409 -0.001738 0.000000 0.000000 0.000000
# 2 -0.001409 0.015539 0.000182 0.000000 0.000000 0.000000
# 3 -0.001738 0.000182 0.018400 0.000000 0.000000 0.000000
# 4 0.000000 0.000000 0.000000 0.053374 0.000000 0.000000
# 5 0.000000 0.000000 0.000000 0.000000 0.006824 0.000000
# 6 0.000000 0.000000 0.000000 0.000000 0.000000 0.037600
#
#
# Mechanical properties :
#
#
# Convention : Reuss Voigt Hill
#
# Bulk Modulus (GPa) = 29.73139 42.20195 35.96667
# Shear Modulus (GPa) = 32.36280 56.64527 44.50404
#
# Velocity S-wave (km/s) = 3.62645 4.79778 4.25263
# Velocity P-wave (km/s) = 5.44211 6.91671 6.22324
#
# Compressibility (1/GPa) = 0.03363449
#
# Stress axis : x y z
#
# Youngs Moduli (GPa) = 177.82736 64.35555 54.34867
#
# Poissons Ratio (x) = 0.09065 0.09443
# Poissons Ratio (y) = 0.25047 -0.00991
# Poissons Ratio (z) = 0.30898 -0.01174
#
# Static dielectric constant tensor:
#      x y z
#    x 2.187690 0.000000 0.000000 
#    y 0.000000 1.843870 0.000000 
#    z 0.000000 0.000000 1.940360 
# 
# From -- ./inp_files/24073.got.cif
#   From: 2010.05.17/outbox.cif.g08.bks.cpg/sg54_13_cif.got.tgz:24073.got - 2010.06.03 13:09:01.
