data_PCOD9422327
_publ_section_title
;
Structure prediction by ZEFSAII (Michael W. Deem and Ramdas Pophale) SiO2 
 PCOD9422327
Probable space group: P C C A
;
_chemical_formula_sum "Si O2"
_cell_formula_units_Z 64
_cell_length_a 24.445181
_cell_length_b 14.447385
_cell_length_c 9.512731
_cell_angle_alpha 90.000000
_cell_angle_beta 90.000000
_cell_angle_gamma 90.000000
_cell_volume 3359.601136
_symmetry_space_group_name_H-M "P C C A"
_symmetry_group_IT_number 54
_symmetry_cell_setting 'orthorhombic'
loop_
_space_group_symop_operation_xyz
x,y,z
1/2-x,-y,z
1/2+x,-y,1/2-z
-x,y,1/2-z
-x,-y,-z
1/2+x,y,-z
1/2-x,y,1/2+z
x,-y,1/2+z
loop_
_atom_site_type_symbol
_atom_site_label
_atom_site_fract_x
_atom_site_fract_y
_atom_site_fract_z
Si Si1 0.623119 0.092017 0.591881
Si Si2 0.405402 0.402849 0.918532
Si Si3 0.094598 0.597151 0.581468
Si Si4 0.805796 0.732078 0.583806
Si Si5 0.876881 0.092017 0.408119
Si Si6 0.500000 0.699498 0.911380
Si Si7 0.000000 0.890321 0.529393
Si Si8 0.694204 0.732078 0.416194
O O1 0.660287 0.176355 0.539009
O O2 0.640477 0.069531 0.750000
O O3 0.559471 0.123295 0.598134
O O4 0.627126 0.000000 0.500000
O O5 0.417468 0.410621 0.750000
O O6 0.346451 0.354511 0.933238
O O7 0.406974 0.500000 1.000000
O O8 0.448730 0.338256 0.999711
O O9 0.051270 0.661744 0.500289
O O10 0.153549 0.645489 0.566762
O O11 0.750000 0.722597 0.500000
O O12 0.794533 0.741327 0.750000
O O13 0.839713 0.176355 0.460991
O O14 0.940529 0.123295 0.401866
O O15 0.500000 0.665897 0.750000
O O16 0.500000 0.811295 0.910976
O O17 0.000000 0.000000 0.500000
#
# Coordination Sequence:
#
# PCOD9422327 Si02
#       8
#     8   8   8   8   8   8   8   8
#     4  10  21  38  61  90 124 164 204 250 306 367
#     4  11  24  44  66  92 126 163 205 256 315 373
#     4  11  24  44  66  92 126 163 205 256 315 373
#     4  10  23  42  63  88 121 163 208 258 312 363
#     4  10  21  38  61  90 124 164 204 250 306 367
#     4  12  24  40  66  99 129 165 207 249 306 371
#     4  10  21  38  60  93 132 159 200 243 303 361
#     4  10  23  42  63  88 121 163 208 258 312 363
#
# _framework density 19.049880000000002
#
# number of rings (size 3 to 8) (size 9 to 14) (size 15 to 20)
#    0.000    1.500    2.500    1.875    0.000    9.000 
#    0.000    5.000    0.000    0.000    0.000    0.000 
#    0.000    0.000    0.000    0.000    0.000    0.000 
#
# Total GULP energy -356860.969546 kJ/mol
# GULP energy per Si atom -5575.952649 kJ/mol
# Density = 1.900652 g / cm^3
# Si number density = 19.049880 Si / 1000 Ang^3
#
#
#
# Elastic Constant Matrix: (Units=GPa)
#
#
# Indices 1 2 3 4 5 6 
#
# 1 124.1775 39.7820 58.5364 0.0000 0.0000 0.0000
# 2 39.7820 124.0619 62.5147 0.0000 0.0000 0.0000
# 3 58.5364 62.5147 114.2314 0.0000 0.0000 0.0000
# 4 0.0000 0.0000 0.0000 30.3131 0.0000 0.0000
# 5 0.0000 0.0000 0.0000 0.0000 7.0524 0.0000
# 6 0.0000 0.0000 0.0000 0.0000 0.0000 10.5766
#
#
#
# Elastic Compliance Matrix: (Units=1/GPa)
#
#
# Indices 1 2 3 4 5 6 
#
# 1 0.010694 -0.000922 -0.004975 0.000000 0.000000 0.000000
# 2 -0.000922 0.011209 -0.005662 0.000000 0.000000 0.000000
# 3 -0.004975 -0.005662 0.014402 0.000000 0.000000 0.000000
# 4 0.000000 0.000000 0.000000 0.032989 0.000000 0.000000
# 5 0.000000 0.000000 0.000000 0.000000 0.141795 0.000000
# 6 0.000000 0.000000 0.000000 0.000000 0.000000 0.094548
#
#
# Mechanical properties :
#
#
# Convention : Reuss Voigt Hill
#
# Bulk Modulus (GPa) = 75.83387 76.01523 75.92455
# Shear Modulus (GPa) = 15.00819 23.03093 19.01956
#
# Velocity S-wave (km/s) = 2.80989 3.48081 3.16319
# Velocity P-wave (km/s) = 7.10083 7.49297 7.29953
#
# Compressibility (1/GPa) = 0.01318672
#
# Stress axis : x y z
#
# Youngs Moduli (GPa) = 93.51335 89.21258 69.43392
#
# Poissons Ratio (x) = 0.08226 0.34545
# Poissons Ratio (y) = 0.08622 0.39313
# Poissons Ratio (z) = 0.46525 0.50511
#
# Static dielectric constant tensor:
#      x y z
#    x 1.649090 0.000000 0.000000 
#    y 0.000000 1.677340 0.000000 
#    z 0.000000 0.000000 1.664620 
# 
# From -- ./inp_files/5310.got.cif
#   From: 2010.05.17/outbox.cif.g08.bks.cpg/sg54_3_cif.got.tgz:5310.got - 2010.06.03 13:09:01.
