data_PCOD9422776
_publ_section_title
;
Structure prediction by ZEFSAII (Michael W. Deem and Ramdas Pophale) SiO2 
 PCOD9422776
Probable space group: P C C A
;
_chemical_formula_sum "Si O2"
_cell_formula_units_Z 36
_cell_length_a 9.264651
_cell_length_b 11.196819
_cell_length_c 18.104943
_cell_angle_alpha 90.000000
_cell_angle_beta 90.000000
_cell_angle_gamma 90.000000
_cell_volume 1878.109388
_symmetry_space_group_name_H-M "P C C A"
_symmetry_group_IT_number 54
_symmetry_cell_setting 'orthorhombic'
loop_
_space_group_symop_operation_xyz
x,y,z
1/2-x,-y,z
1/2+x,-y,1/2-z
-x,y,1/2-z
-x,-y,-z
1/2+x,y,-z
1/2-x,y,1/2+z
x,-y,1/2+z
loop_
_atom_site_type_symbol
_atom_site_label
_atom_site_fract_x
_atom_site_fract_y
_atom_site_fract_z
Si Si1 0.255444 0.356883 0.940206
Si Si2 0.646886 0.713299 0.217438
Si Si3 0.643525 0.892686 0.791450
Si Si4 0.750000 0.500000 0.819177
Si Si5 0.420841 0.306148 0.087844
O O1 0.250000 0.500000 0.947233
O O2 0.347701 0.320979 0.868079
O O3 0.090064 0.317212 0.929111
O O4 0.329014 0.303132 0.012791
O O5 0.500000 0.766090 0.250000
O O6 0.774497 0.804881 0.234640
O O7 0.672828 0.594926 0.266266
O O8 0.500000 0.935338 0.750000
O O9 0.607363 0.808688 0.861087
O O10 0.750000 0.000000 0.811215
O O11 0.637820 0.576533 0.868133
#
# Coordination Sequence:
#
# PCOD9422776 Si02
#       5
#     8   8   8   4   8
#     4  12  23  40  64  99 146 180 212 268 347 414
#     4  11  23  38  67  96 129 173 227 274 334 395
#     4  11  24  48  70  93 126 171 231 291 332 386
#     4  10  22  36  62  96 136 174 224 272 330 388
#     4  11  25  41  62 101 139 176 222 275 327 422
#
# _framework density 19.168213999999999
#
# number of rings (size 3 to 8) (size 9 to 14) (size 15 to 20)
#    0.000    0.889    4.444    2.667    6.222    0.000 
#    0.000    2.222    0.000    0.000    0.000    0.000 
#    0.000    0.000    0.000    0.000    0.000    0.000 
#
# Total GULP energy -201275.260318 kJ/mol
# GULP energy per Si atom -5590.979453 kJ/mol
# Density = 1.912459 g / cm^3
# Si number density = 19.168214 Si / 1000 Ang^3
#
#
#
# Elastic Constant Matrix: (Units=GPa)
#
#
# Indices 1 2 3 4 5 6 
#
# 1 121.0789 53.4869 41.8594 0.0000 0.0000 0.0000
# 2 53.4869 98.7875 49.5594 0.0000 0.0000 0.0000
# 3 41.8594 49.5594 120.6983 0.0000 0.0000 0.0000
# 4 0.0000 0.0000 0.0000 2.3927 0.0000 0.0000
# 5 0.0000 0.0000 0.0000 0.0000 23.0538 0.0000
# 6 0.0000 0.0000 0.0000 0.0000 0.0000 27.4312
#
#
#
# Elastic Compliance Matrix: (Units=1/GPa)
#
#
# Indices 1 2 3 4 5 6 
#
# 1 0.011140 -0.005156 -0.001747 0.000000 0.000000 0.000000
# 2 -0.005156 0.015135 -0.004426 0.000000 0.000000 0.000000
# 3 -0.001747 -0.004426 0.010708 0.000000 0.000000 0.000000
# 4 0.000000 0.000000 0.000000 0.417946 0.000000 0.000000
# 5 0.000000 0.000000 0.000000 0.000000 0.043377 0.000000
# 6 0.000000 0.000000 0.000000 0.000000 0.000000 0.036455
#
#
# Mechanical properties :
#
#
# Convention : Reuss Voigt Hill
#
# Bulk Modulus (GPa) = 69.80195 70.04180 69.92188
# Shear Modulus (GPa) = 8.89372 23.61946 16.25659
#
# Velocity S-wave (km/s) = 2.15636 3.51411 2.91538
# Velocity P-wave (km/s) = 6.53409 7.28596 6.92025
#
# Compressibility (1/GPa) = 0.01432625
#
# Stress axis : x y z
#
# Youngs Moduli (GPa) = 89.76327 66.07308 93.38440
#
# Poissons Ratio (x) = 0.34064 0.16312
# Poissons Ratio (y) = 0.46278 0.41336
# Poissons Ratio (z) = 0.15679 0.29247
#
# Static dielectric constant tensor:
#      x y z
#    x 1.442210 0.000000 0.000000 
#    y 0.000000 1.643730 0.000000 
#    z 0.000000 0.000000 1.638780 
# 
# From -- ./inp_files/16298.got.cif
#   From: 2010.05.17/outbox.cif.g08.bks.cpg/sg54_9_cif.got.tgz:16298.got - 2010.06.03 13:09:01.
