data_PCOD9422534
_publ_section_title
;
Structure prediction by ZEFSAII (Michael W. Deem and Ramdas Pophale) SiO2 
 PCOD9422534
Probable space group: P C C A
;
_chemical_formula_sum "Si O2"
_cell_formula_units_Z 40
_cell_length_a 9.384111
_cell_length_b 12.609469
_cell_length_c 14.637079
_cell_angle_alpha 90.000000
_cell_angle_beta 90.000000
_cell_angle_gamma 90.000000
_cell_volume 1731.985897
_symmetry_space_group_name_H-M "P C C A"
_symmetry_group_IT_number 54
_symmetry_cell_setting 'orthorhombic'
loop_
_space_group_symop_operation_xyz
x,y,z
1/2-x,-y,z
1/2+x,-y,1/2-z
-x,y,1/2-z
-x,-y,-z
1/2+x,y,-z
1/2-x,y,1/2+z
x,-y,1/2+z
loop_
_atom_site_type_symbol
_atom_site_label
_atom_site_fract_x
_atom_site_fract_y
_atom_site_fract_z
Si Si1 0.500000 0.608111 0.250000
Si Si2 0.250000 0.500000 0.142244
Si Si3 0.923631 0.091316 0.405837
Si Si4 0.787425 0.728158 0.438155
Si Si5 0.195029 0.779886 0.854067
Si Si6 0.031259 0.878379 0.385973
O O1 0.393918 0.530720 0.195721
O O2 0.612196 0.687057 0.198938
O O3 0.277263 0.392831 0.087770
O O4 0.822891 0.192426 0.387003
O O5 0.905216 0.080358 0.516066
O O6 0.078551 0.130419 0.374557
O O7 0.921696 0.974123 0.362328
O O8 0.765113 0.735061 0.546308
O O9 0.939240 0.776725 0.412855
O O10 0.340366 0.838429 0.821831
#
# Coordination Sequence:
#
# PCOD9422534 Si02
#       6
#     4   4   8   8   8   8
#     4  12  28  46  64  90 140 182 220 284 354 404
#     4  12  28  46  66  86 130 174 230 290 336 400
#     4   9  16  36  62 101 132 160 206 269 321 389
#     4  10  21  40  66  98 124 169 227 273 315 397
#     4  10  21  40  65  97 132 169 216 270 338 402
#     4   9  18  32  68 100 127 162 211 263 328 392
#
# _framework density 23.094874999999998
#
# number of rings (size 3 to 8) (size 9 to 14) (size 15 to 20)
#    0.000    2.000    2.000    1.200    2.800    6.400 
#    0.000    0.000    8.800    0.000    0.000    0.000 
#    0.000    0.000    0.000    0.000    0.000    0.000 
#
# Total GULP energy -223063.578364 kJ/mol
# GULP energy per Si atom -5576.589459 kJ/mol
# Density = 2.304231 g / cm^3
# Si number density = 23.094875 Si / 1000 Ang^3
#
#
#
# Elastic Constant Matrix: (Units=GPa)
#
#
# Indices 1 2 3 4 5 6 
#
# 1 111.4579 66.6222 24.0331 0.0000 0.0000 0.0000
# 2 66.6222 209.2210 46.6662 0.0000 0.0000 0.0000
# 3 24.0331 46.6662 43.2097 0.0000 0.0000 0.0000
# 4 0.0000 0.0000 0.0000 1.1053 0.0000 0.0000
# 5 0.0000 0.0000 0.0000 0.0000 19.0369 0.0000
# 6 0.0000 0.0000 0.0000 0.0000 0.0000 32.0972
#
#
#
# Elastic Compliance Matrix: (Units=1/GPa)
#
#
# Indices 1 2 3 4 5 6 
#
# 1 0.011405 -0.002920 -0.003190 0.000000 0.000000 0.000000
# 2 -0.002920 0.007044 -0.005983 0.000000 0.000000 0.000000
# 3 -0.003190 -0.005983 0.031379 0.000000 0.000000 0.000000
# 4 0.000000 0.000000 0.000000 0.904741 0.000000 0.000000
# 5 0.000000 0.000000 0.000000 0.000000 0.052530 0.000000
# 6 0.000000 0.000000 0.000000 0.000000 0.000000 0.031155
#
#
# Mechanical properties :
#
#
# Convention : Reuss Voigt Hill
#
# Bulk Modulus (GPa) = 38.99883 70.94796 54.97340
# Shear Modulus (GPa) = 4.66859 25.55236 15.11047
#
# Velocity S-wave (km/s) = 1.42333 3.32988 2.56066
# Velocity P-wave (km/s) = 4.42992 6.75063 5.70943
#
# Compressibility (1/GPa) = 0.02564179
#
# Stress axis : x y z
#
# Youngs Moduli (GPa) = 87.67802 141.96212 31.86849
#
# Poissons Ratio (x) = 0.41458 0.10165
# Poissons Ratio (y) = 0.25605 0.19068
# Poissons Ratio (z) = 0.27966 0.84941
#
# Static dielectric constant tensor:
#      x y z
#    x 1.948800 0.000000 0.000000 
#    y 0.000000 1.855000 0.000000 
#    z 0.000000 0.000000 1.951120 
# 
# From -- ./inp_files/16352.got.cif
#   From: 2010.05.17/outbox.cif.g08.bks.cpg/sg54_9_cif.got.tgz:16352.got - 2010.06.03 13:09:01.
