data_PCOD9422451
_publ_section_title
;
Structure prediction by ZEFSAII (Michael W. Deem and Ramdas Pophale) SiO2 
 PCOD9422451
Probable space group: P C C A
;
_chemical_formula_sum "Si O2"
_cell_formula_units_Z 40
_cell_length_a 14.854669
_cell_length_b 9.060767
_cell_length_c 14.580345
_cell_angle_alpha 90.000000
_cell_angle_beta 90.000000
_cell_angle_gamma 90.000000
_cell_volume 1962.437083
_symmetry_space_group_name_H-M "P C C A"
_symmetry_group_IT_number 54
_symmetry_cell_setting 'orthorhombic'
loop_
_space_group_symop_operation_xyz
x,y,z
1/2-x,-y,z
1/2+x,-y,1/2-z
-x,y,1/2-z
-x,-y,-z
1/2+x,y,-z
1/2-x,y,1/2+z
x,-y,1/2+z
loop_
_atom_site_type_symbol
_atom_site_label
_atom_site_fract_x
_atom_site_fract_y
_atom_site_fract_z
Si Si1 0.050846 0.391551 0.068501
Si Si2 0.232328 0.324121 0.005217
Si Si3 0.252425 0.174607 0.699931
Si Si4 0.871785 0.308571 0.153698
Si Si5 0.896996 0.403959 0.761185
O O1 0.124211 0.309174 0.006129
O O2 0.099565 0.494254 0.146087
O O3 0.973862 0.292759 0.117196
O O4 0.000000 0.500000 0.000000
O O5 0.250000 0.500000 0.014336
O O6 0.253883 0.232979 0.096440
O O7 0.297459 0.274647 0.923427
O O8 0.341937 0.223587 0.754931
O O9 0.169978 0.267500 0.742658
O O10 0.250000 0.000000 0.704325
O O11 0.868220 0.481016 0.182483
O O12 0.000000 0.356754 0.750000
#
# Coordination Sequence:
#
# PCOD9422451 Si02
#       5
#     8   8   8   8   8
#     4  11  21  36  69 104 122 157 213 285 330 375
#     4  12  21  40  68  94 128 161 221 278 323 386
#     4  12  25  42  61  91 138 183 214 262 330 410
#     4  11  23  41  70  96 128 168 223 278 335 382
#     4  10  21  39  64  96 123 162 220 274 320 380
#
# _framework density 20.382819999999999
#
# number of rings (size 3 to 8) (size 9 to 14) (size 15 to 20)
#    0.000    0.800    6.000    1.800    2.800    0.800 
#    3.600    0.000    0.000    3.600    0.000    0.000 
#    0.000    0.000    0.000    0.000    0.000    0.000 
#
# Total GULP energy -223161.051145 kJ/mol
# GULP energy per Si atom -5579.026279 kJ/mol
# Density = 2.033643 g / cm^3
# Si number density = 20.382820 Si / 1000 Ang^3
#
#
#
# Elastic Constant Matrix: (Units=GPa)
#
#
# Indices 1 2 3 4 5 6 
#
# 1 104.7026 17.7267 33.0915 0.0000 0.0000 0.0000
# 2 17.7267 81.7607 15.3232 0.0000 0.0000 0.0000
# 3 33.0915 15.3232 95.3359 0.0000 0.0000 0.0000
# 4 0.0000 0.0000 0.0000 -0.5734 0.0000 0.0000
# 5 0.0000 0.0000 0.0000 0.0000 42.1596 0.0000
# 6 0.0000 0.0000 0.0000 0.0000 0.0000 10.4936
#
#
#
# Elastic Compliance Matrix: (Units=1/GPa)
#
#
# Indices 1 2 3 4 5 6 
#
# 1 0.010956 -0.001714 -0.003527 0.000000 0.000000 0.000000
# 2 -0.001714 0.012879 -0.001475 0.000000 0.000000 0.000000
# 3 -0.003527 -0.001475 0.011951 0.000000 0.000000 0.000000
# 4 0.000000 0.000000 0.000000 -1.743998 0.000000 0.000000
# 5 0.000000 0.000000 0.000000 0.000000 0.023719 0.000000
# 6 0.000000 0.000000 0.000000 0.000000 0.000000 0.095296
#
#
# Mechanical properties :
#
#
# Convention : Reuss Voigt Hill
#
# Bulk Modulus (GPa) = 44.73807 46.00911 45.37359
# Shear Modulus (GPa) = -3.18814 24.79315 10.80251
#
# Velocity S-wave (km/s) = -1.25201 3.49144 2.30463
# Velocity P-wave (km/s) = 4.46167 6.23499 5.42133
#
# Compressibility (1/GPa) = 0.02235233
#
# Stress axis : x y z
#
# Youngs Moduli (GPa) = 91.27491 77.64620 83.67756
#
# Poissons Ratio (x) = 0.13311 0.29516
# Poissons Ratio (y) = 0.15647 0.12342
# Poissons Ratio (z) = 0.32195 0.11453
#
# Static dielectric constant tensor:
#      x y z
#    x 1.796020 0.000000 0.000000 
#    y 0.000000 1.671130 0.000000 
#    z 0.000000 0.000000 1.809970 
# 
# From -- ./inp_files/13250.got.cif
#   From: 2010.05.17/outbox.cif.g08.bks.cpg/sg54_7_cif.got.tgz:13250.got - 2010.06.03 13:09:01.
