data_PCOD9422428
_publ_section_title
;
Structure prediction by ZEFSAII (Michael W. Deem and Ramdas Pophale) SiO2 
 PCOD9422428
Probable space group: P C C A
;
_chemical_formula_sum "Si O2"
_cell_formula_units_Z 40
_cell_length_a 5.173780
_cell_length_b 26.785805
_cell_length_c 13.454746
_cell_angle_alpha 90.000000
_cell_angle_beta 90.000000
_cell_angle_gamma 90.000000
_cell_volume 1864.610666
_symmetry_space_group_name_H-M "P C C A"
_symmetry_group_IT_number 54
_symmetry_cell_setting 'orthorhombic'
loop_
_space_group_symop_operation_xyz
x,y,z
1/2-x,-y,z
1/2+x,-y,1/2-z
-x,y,1/2-z
-x,-y,-z
1/2+x,y,-z
1/2-x,y,1/2+z
x,-y,1/2+z
loop_
_atom_site_type_symbol
_atom_site_label
_atom_site_fract_x
_atom_site_fract_y
_atom_site_fract_z
Si Si1 0.250000 0.500000 0.679125
Si Si2 0.258464 0.766037 0.811100
Si Si3 0.249499 0.054197 0.819229
Si Si4 0.638906 0.851129 0.049019
Si Si5 0.204635 0.395362 0.568748
Si Si6 0.500000 0.331142 0.250000
O O1 0.500000 0.492608 0.750000
O O2 0.205709 0.451996 0.609775
O O3 0.500000 0.787812 0.750000
O O4 0.221064 0.797194 0.909558
O O5 0.322440 0.707223 0.813836
O O6 0.000000 0.772960 0.750000
O O7 0.500000 0.054925 0.750000
O O8 0.262146 0.102569 0.886807
O O9 0.000000 0.056314 0.750000
O O10 0.250000 0.000000 0.873086
O O11 0.329592 0.854998 0.045383
O O12 0.469843 0.386658 0.508674
O O13 0.157336 0.362839 0.668886
#
# Coordination Sequence:
#
# PCOD9422428 Si02
#       6
#     4   8   8   8   8   4
#     4  12  24  46  78 102 146 194 228 280 352 412
#     4  10  23  43  66  87 125 173 222 262 327 397
#     4  10  21  39  63  87 120 169 215 258 326 410
#     4  12  24  38  62  95 128 164 212 278 336 393
#     4  12  27  45  73 108 143 181 234 286 344 412
#     4  10  28  46  74  98 142 190 222 296 346 398
#
# _framework density 21.452199
#
# number of rings (size 3 to 8) (size 9 to 14) (size 15 to 20)
#    0.600    0.400    1.000    5.400    2.800    2.400 
#    0.000    0.000    0.000    0.000    0.000    0.000 
#    0.000    0.000    0.000    0.000    0.000    0.000 
#
# Total GULP energy -223240.393583 kJ/mol
# GULP energy per Si atom -5581.009840 kJ/mol
# Density = 2.140337 g / cm^3
# Si number density = 21.452199 Si / 1000 Ang^3
#
#
#
# Elastic Constant Matrix: (Units=GPa)
#
#
# Indices 1 2 3 4 5 6 
#
# 1 134.0550 9.4319 7.9016 0.0000 0.0000 0.0000
# 2 9.4319 124.5342 45.1248 0.0000 0.0000 0.0000
# 3 7.9016 45.1248 36.8986 0.0000 0.0000 0.0000
# 4 0.0000 0.0000 0.0000 70.9102 0.0000 0.0000
# 5 0.0000 0.0000 0.0000 0.0000 33.3381 0.0000
# 6 0.0000 0.0000 0.0000 0.0000 0.0000 57.3202
#
#
#
# Elastic Compliance Matrix: (Units=1/GPa)
#
#
# Indices 1 2 3 4 5 6 
#
# 1 0.007555 0.000025 -0.001649 0.000000 0.000000 0.000000
# 2 0.000025 0.014420 -0.017640 0.000000 0.000000 0.000000
# 3 -0.001649 -0.017640 0.049027 0.000000 0.000000 0.000000
# 4 0.000000 0.000000 0.000000 0.014102 0.000000 0.000000
# 5 0.000000 0.000000 0.000000 0.000000 0.029996 0.000000
# 6 0.000000 0.000000 0.000000 0.000000 0.000000 0.017446
#
#
# Mechanical properties :
#
#
# Convention : Reuss Voigt Hill
#
# Bulk Modulus (GPa) = 30.79297 46.71160 38.75229
# Shear Modulus (GPa) = 27.48794 47.84900 37.66847
#
# Velocity S-wave (km/s) = 3.58349 4.72793 4.19492
# Velocity P-wave (km/s) = 5.61313 7.18516 6.44724
#
# Compressibility (1/GPa) = 0.03247494
#
# Stress axis : x y z
#
# Youngs Moduli (GPa) = 132.36221 69.34876 20.39689
#
# Poissons Ratio (x) = -0.00175 0.03363
# Poissons Ratio (y) = -0.00334 0.35980
# Poissons Ratio (z) = 0.21822 1.22332
#
# Static dielectric constant tensor:
#      x y z
#    x 1.777400 0.000000 0.000000 
#    y 0.000000 1.799730 0.000000 
#    z 0.000000 0.000000 1.773810 
# 
# From -- ./inp_files/10871.got.cif
#   From: 2010.05.17/outbox.cif.g08.bks.cpg/sg54_6_cif.got.tgz:10871.got - 2010.06.03 13:09:01.
