data_PCOD9422707
_publ_section_title
;
Structure prediction by ZEFSAII (Michael W. Deem and Ramdas Pophale) SiO2 
 PCOD9422707
Probable space group: P C C A
;
_chemical_formula_sum "Si O2"
_cell_formula_units_Z 48
_cell_length_a 9.025800
_cell_length_b 13.564251
_cell_length_c 18.127262
_cell_angle_alpha 90.000000
_cell_angle_beta 90.000000
_cell_angle_gamma 90.000000
_cell_volume 2219.288360
_symmetry_space_group_name_H-M "P C C A"
_symmetry_group_IT_number 54
_symmetry_cell_setting 'orthorhombic'
loop_
_space_group_symop_operation_xyz
x,y,z
1/2-x,-y,z
1/2+x,-y,1/2-z
-x,y,1/2-z
-x,-y,-z
1/2+x,y,-z
1/2-x,y,1/2+z
x,-y,1/2+z
loop_
_atom_site_type_symbol
_atom_site_label
_atom_site_fract_x
_atom_site_fract_y
_atom_site_fract_z
Si Si1 0.562552 0.240083 0.176472
Si Si2 0.596369 0.622085 0.934835
Si Si3 0.376487 0.080691 0.950433
Si Si4 0.617858 0.063816 0.390216
Si Si5 0.939126 0.605873 0.909839
Si Si6 0.590780 0.766673 0.179797
O O1 0.500000 0.287423 0.250000
O O2 0.513434 0.304842 0.107481
O O3 0.480138 0.134746 0.160696
O O4 0.735170 0.237260 0.194399
O O5 0.771289 0.644133 0.924889
O O6 0.572797 0.511952 0.902488
O O7 0.545576 0.621355 0.019607
O O8 0.401601 0.169522 0.894707
O O9 0.250000 0.000000 0.931590
O O10 0.522783 0.019365 0.931079
O O11 0.338103 0.119502 0.032992
O O12 0.750000 0.000000 0.354175
O O13 0.010795 0.664851 0.842257
O O14 0.500000 0.808788 0.250000
#
# Coordination Sequence:
#
# PCOD9422707 Si02
#       6
#     8   8   8   8   8   8
#     4  12  26  43  61  96 135 175 220 272 333 399
#     4  10  22  42  70 100 132 167 219 274 328 398
#     4  10  21  44  65  94 125 165 219 269 322 387
#     4  10  23  40  70  95 124 166 216 274 328 388
#     4  10  22  42  70 101 129 171 217 271 334 393
#     4  12  26  42  64  93 134 179 222 268 334 400
#
# _framework density 21.628556
#
# number of rings (size 3 to 8) (size 9 to 14) (size 15 to 20)
#    0.000    1.333    1.667    3.000    4.667    3.333 
#    0.000    0.000    0.000    0.000    0.000    0.000 
#    0.000    0.000    0.000    0.000    0.000    0.000 
#
# Total GULP energy -267491.652836 kJ/mol
# GULP energy per Si atom -5572.742767 kJ/mol
# Density = 2.157933 g / cm^3
# Si number density = 21.628556 Si / 1000 Ang^3
#
#
#
# Elastic Constant Matrix: (Units=GPa)
#
#
# Indices 1 2 3 4 5 6 
#
# 1 146.8687 27.9342 13.4538 0.0000 0.0000 0.0000
# 2 27.9342 38.2719 14.5204 0.0000 0.0000 0.0000
# 3 13.4538 14.5204 52.1719 0.0000 0.0000 0.0000
# 4 0.0000 0.0000 0.0000 -13.1075 0.0000 0.0000
# 5 0.0000 0.0000 0.0000 0.0000 32.1848 0.0000
# 6 0.0000 0.0000 0.0000 0.0000 0.0000 23.3110
#
#
#
# Elastic Compliance Matrix: (Units=1/GPa)
#
#
# Indices 1 2 3 4 5 6 
#
# 1 0.007917 -0.005595 -0.000484 0.000000 0.000000 0.000000
# 2 -0.005595 0.033167 -0.007788 0.000000 0.000000 0.000000
# 3 -0.000484 -0.007788 0.021460 0.000000 0.000000 0.000000
# 4 0.000000 0.000000 0.000000 -0.076292 0.000000 0.000000
# 5 0.000000 0.000000 0.000000 0.000000 0.031071 0.000000
# 6 0.000000 0.000000 0.000000 0.000000 0.000000 0.042898
#
#
# Mechanical properties :
#
#
# Convention : Reuss Voigt Hill
#
# Bulk Modulus (GPa) = 28.72805 38.79214 33.76009
# Shear Modulus (GPa) = 50.22107 20.57126 35.39617
#
# Velocity S-wave (km/s) = 4.82392 3.08736 4.04982
# Velocity P-wave (km/s) = 6.65870 5.53928 6.12462
#
# Compressibility (1/GPa) = 0.03480919
#
# Stress axis : x y z
#
# Youngs Moduli (GPa) = 126.30515 30.15011 46.59842
#
# Poissons Ratio (x) = 0.16869 0.02258
# Poissons Ratio (y) = 0.70667 0.36292
# Poissons Ratio (z) = 0.06119 0.23482
#
# Static dielectric constant tensor:
#      x y z
#    x 1.904180 0.000000 0.000000 
#    y 0.000000 1.763710 0.000000 
#    z 0.000000 0.000000 1.731680 
# 
# From -- ./inp_files/16605.got.cif
#   From: 2010.05.17/outbox.cif.g08.bks.cpg/sg54_9_cif.got.tgz:16605.got - 2010.06.03 13:09:01.
