data_PCOD9422209
_publ_section_title
;
Structure prediction by ZEFSAII (Michael W. Deem and Ramdas Pophale) SiO2 
 PCOD9422209
Probable space group: P C C A
;
_chemical_formula_sum "Si O2"
_cell_formula_units_Z 56
_cell_length_a 14.237550
_cell_length_b 32.943118
_cell_length_c 5.298595
_cell_angle_alpha 90.000000
_cell_angle_beta 90.000000
_cell_angle_gamma 90.000000
_cell_volume 2485.196249
_symmetry_space_group_name_H-M "P C C A"
_symmetry_group_IT_number 54
_symmetry_cell_setting 'orthorhombic'
loop_
_space_group_symop_operation_xyz
x,y,z
1/2-x,-y,z
1/2+x,-y,1/2-z
-x,y,1/2-z
-x,-y,-z
1/2+x,y,-z
1/2-x,y,1/2+z
x,-y,1/2+z
loop_
_atom_site_type_symbol
_atom_site_label
_atom_site_fract_x
_atom_site_fract_y
_atom_site_fract_z
Si Si1 0.809490 0.113500 0.804039
Si Si2 0.812881 0.690478 0.832765
Si Si3 0.894287 0.483359 0.465484
Si Si4 0.394592 0.193850 0.038517
Si Si5 0.886748 0.023548 0.756132
Si Si6 0.687113 0.599101 0.334310
Si Si7 0.105863 0.772997 0.537621
O O1 0.767608 0.118699 0.524632
O O2 0.886048 0.147880 0.868421
O O3 0.849027 0.068078 0.815583
O O4 0.737330 0.694233 0.061037
O O5 0.852717 0.644797 0.851055
O O6 0.851194 0.799755 0.737213
O O7 0.850887 0.489873 0.741149
O O8 0.885803 0.437060 0.379718
O O9 0.000000 0.500000 0.500000
O O10 0.350727 0.220820 0.261463
O O11 0.385779 0.273304 0.623261
O O12 0.500289 0.210320 0.000365
O O13 0.000000 0.025392 0.750000
O O14 0.858118 0.006817 0.481674
O O15 0.762685 0.595316 0.562553
#
# Coordination Sequence:
#
# PCOD9422209 Si02
#       7
#     8   8   8   8   8   8   8
#     4  12  26  42  65  98 129 167 209 264 318 360
#     4  10  21  37  61  90 121 155 198 254 308 368
#     4  10  21  37  55  82 118 157 197 244 300 354
#     4  10  23  40  59  91 123 162 207 249 305 372
#     4  10  23  44  68  96 127 171 212 252 310 374
#     4  10  21  37  58  87 119 154 197 250 309 366
#     4  10  21  40  62  86 118 169 203 250 305 369
#
# _framework density 22.533429999999999
#
# number of rings (size 3 to 8) (size 9 to 14) (size 15 to 20)
#    0.000    1.714    0.000    3.429    2.000    6.857 
#    5.143    5.714    0.000    0.000    0.000    0.000 
#    0.000    0.000    0.000    0.000    0.000    0.000 
#
# Total GULP energy -312873.787568 kJ/mol
# GULP energy per Si atom -5587.031921 kJ/mol
# Density = 2.248214 g / cm^3
# Si number density = 22.533430 Si / 1000 Ang^3
#
#
#
# Elastic Constant Matrix: (Units=GPa)
#
#
# Indices 1 2 3 4 5 6 
#
# 1 84.1496 37.5655 -0.6986 0.0000 0.0000 0.0000
# 2 37.5655 185.1262 19.3393 0.0000 0.0000 0.0000
# 3 -0.6986 19.3393 171.7091 0.0000 0.0000 0.0000
# 4 0.0000 0.0000 0.0000 41.3719 0.0000 0.0000
# 5 0.0000 0.0000 0.0000 0.0000 7.9178 0.0000
# 6 0.0000 0.0000 0.0000 0.0000 0.0000 45.9164
#
#
#
# Elastic Compliance Matrix: (Units=1/GPa)
#
#
# Indices 1 2 3 4 5 6 
#
# 1 0.013089 -0.002693 0.000357 0.000000 0.000000 0.000000
# 2 -0.002693 0.006020 -0.000689 0.000000 0.000000 0.000000
# 3 0.000357 -0.000689 0.005903 0.000000 0.000000 0.000000
# 4 0.000000 0.000000 0.000000 0.024171 0.000000 0.000000
# 5 0.000000 0.000000 0.000000 0.000000 0.126298 0.000000
# 6 0.000000 0.000000 0.000000 0.000000 0.000000 0.021779
#
#
# Mechanical properties :
#
#
# Convention : Reuss Voigt Hill
#
# Bulk Modulus (GPa) = 52.74084 61.48858 57.11471
# Shear Modulus (GPa) = 23.85142 44.69312 34.27227
#
# Velocity S-wave (km/s) = 3.25697 4.45839 3.90417
# Velocity P-wave (km/s) = 6.13190 7.33825 6.76203
#
# Compressibility (1/GPa) = 0.01896064
#
# Stress axis : x y z
#
# Youngs Moduli (GPa) = 76.40092 166.10747 169.40953
#
# Poissons Ratio (x) = 0.44736 -0.06041
# Poissons Ratio (y) = 0.20576 0.11672
# Poissons Ratio (z) = -0.02724 0.11445
#
# Static dielectric constant tensor:
#      x y z
#    x 1.652280 0.000000 0.000000 
#    y 0.000000 1.812450 0.000000 
#    z 0.000000 0.000000 1.922600 
# 
# From -- ./inp_files/762.got.cif
#   From: 2010.05.17/outbox.cif.g08.bks.cpg/sg54_1_cif.got.tgz:762.got - 2010.06.03 13:09:01.
