data_PCOD9422207
_publ_section_title
;
Structure prediction by ZEFSAII (Michael W. Deem and Ramdas Pophale) SiO2 
 PCOD9422207
Probable space group: P C C A
;
_chemical_formula_sum "Si O2"
_cell_formula_units_Z 32
_cell_length_a 40.897989
_cell_length_b 7.026337
_cell_length_c 5.177563
_cell_angle_alpha 90.000000
_cell_angle_beta 90.000000
_cell_angle_gamma 90.000000
_cell_volume 1487.840313
_symmetry_space_group_name_H-M "P C C A"
_symmetry_group_IT_number 54
_symmetry_cell_setting 'orthorhombic'
loop_
_space_group_symop_operation_xyz
x,y,z
1/2-x,-y,z
1/2+x,-y,1/2-z
-x,y,1/2-z
-x,-y,-z
1/2+x,y,-z
1/2-x,y,1/2+z
x,-y,1/2+z
loop_
_atom_site_type_symbol
_atom_site_label
_atom_site_fract_x
_atom_site_fract_y
_atom_site_fract_z
Si Si1 0.236416 0.213171 0.869154
Si Si2 0.534870 0.125974 0.195569
Si Si3 0.169617 0.630909 0.214102
Si Si4 0.598680 0.375168 0.191849
O O1 0.259721 0.302009 0.651340
O O2 0.199767 0.229554 0.766907
O O3 0.250000 0.000000 0.911678
O O4 0.500000 0.226991 0.250000
O O5 0.566887 0.249963 0.238308
O O6 0.535280 0.956028 0.405879
O O7 0.171550 0.465430 0.432952
O O8 0.133797 0.722129 0.254893
O O9 0.598088 0.546335 0.400268
#
# Coordination Sequence:
#
# PCOD9422207 Si02
#       4
#     8   8   8   8
#     4  10  21  37  53  78 110 138 181 234 271 335
#     4  10  21  38  58  87 122 155 193 235 282 337
#     4  10  21  37  57  81 110 145 183 231 282 332
#     4  10  21  38  59  86 118 150 195 238 284 342
#
# _framework density 21.507683
#
# number of rings (size 3 to 8) (size 9 to 14) (size 15 to 20)
#    0.000    2.000    0.000    3.000    0.000    4.000 
#    9.000    0.000    0.000    0.000    0.000    0.000 
#    0.000    0.000    0.000    0.000    0.000    0.000 
#
# Total GULP energy -178600.666557 kJ/mol
# GULP energy per Si atom -5581.270830 kJ/mol
# Density = 2.145873 g / cm^3
# Si number density = 21.507683 Si / 1000 Ang^3
#
#
#
# Elastic Constant Matrix: (Units=GPa)
#
#
# Indices 1 2 3 4 5 6 
#
# 1 203.8375 28.4670 -9.2951 0.0000 0.0000 0.0000
# 2 28.4670 30.0627 -16.0091 0.0000 0.0000 0.0000
# 3 -9.2951 -16.0091 113.6233 0.0000 0.0000 0.0000
# 4 0.0000 0.0000 0.0000 10.3026 0.0000 0.0000
# 5 0.0000 0.0000 0.0000 0.0000 31.5709 0.0000
# 6 0.0000 0.0000 0.0000 0.0000 0.0000 32.3554
#
#
#
# Elastic Compliance Matrix: (Units=1/GPa)
#
#
# Indices 1 2 3 4 5 6 
#
# 1 0.005664 -0.005532 -0.000316 0.000000 0.000000 0.000000
# 2 -0.005532 0.041364 0.005376 0.000000 0.000000 0.000000
# 3 -0.000316 0.005376 0.009533 0.000000 0.000000 0.000000
# 4 0.000000 0.000000 0.000000 0.097063 0.000000 0.000000
# 5 0.000000 0.000000 0.000000 0.000000 0.031675 0.000000
# 6 0.000000 0.000000 0.000000 0.000000 0.000000 0.030907
#
#
# Mechanical properties :
#
#
# Convention : Reuss Voigt Hill
#
# Bulk Modulus (GPa) = 17.98020 39.31657 28.64838
# Shear Modulus (GPa) = 21.21443 37.80316 29.50879
#
# Velocity S-wave (km/s) = 3.14405 4.19699 3.70809
# Velocity P-wave (km/s) = 4.64307 6.46578 5.62869
#
# Compressibility (1/GPa) = 0.05561675
#
# Stress axis : x y z
#
# Youngs Moduli (GPa) = 176.55425 24.17536 104.90365
#
# Poissons Ratio (x) = 0.13373 0.03315
# Poissons Ratio (y) = 0.97663 -0.56392
# Poissons Ratio (z) = 0.05580 -0.12996
#
# Static dielectric constant tensor:
#      x y z
#    x 1.813930 0.000000 0.000000 
#    y 0.000000 1.427920 0.000000 
#    z 0.000000 0.000000 1.819360 
# 
# From -- ./inp_files/2062.got.cif
#   From: 2010.05.17/outbox.cif.g08.bks.cpg/sg54_2_cif.got.tgz:2062.got - 2010.06.03 13:09:01.
