data_PCOD9422674
_publ_section_title
;
Structure prediction by ZEFSAII (Michael W. Deem and Ramdas Pophale) SiO2 
 PCOD9422674
Probable space group: P C C A
;
_chemical_formula_sum "Si O2"
_cell_formula_units_Z 48
_cell_length_a 17.322563
_cell_length_b 5.141936
_cell_length_c 27.872190
_cell_angle_alpha 90.000000
_cell_angle_beta 90.000000
_cell_angle_gamma 90.000000
_cell_volume 2482.618059
_symmetry_space_group_name_H-M "P C C A"
_symmetry_group_IT_number 54
_symmetry_cell_setting 'orthorhombic'
loop_
_space_group_symop_operation_xyz
x,y,z
1/2-x,-y,z
1/2+x,-y,1/2-z
-x,y,1/2-z
-x,-y,-z
1/2+x,y,-z
1/2-x,y,1/2+z
x,-y,1/2+z
loop_
_atom_site_type_symbol
_atom_site_label
_atom_site_fract_x
_atom_site_fract_y
_atom_site_fract_z
Si Si1 0.582024 0.591987 0.019725
Si Si2 0.419916 0.795001 0.646128
Si Si3 0.068628 0.954515 0.886553
Si Si4 0.522910 0.278328 0.805133
Si Si5 0.696199 0.248547 0.438446
Si Si6 0.198367 0.245054 0.927183
O O1 0.630389 0.739336 0.978978
O O2 0.506128 0.858128 0.888138
O O3 0.500000 0.500000 0.000000
O O4 0.572164 0.770500 0.066941
O O5 0.441012 0.546697 0.677465
O O6 0.346858 0.754789 0.612684
O O7 0.418465 0.046904 0.680309
O O8 0.145874 0.125229 0.884937
O O9 0.050898 0.785529 0.839246
O O10 0.500000 0.277061 0.750000
O O11 0.750000 0.500000 0.443308
O O12 0.864368 0.347973 0.534851
O O13 0.750000 0.000000 0.442866
O O14 0.250000 0.500000 0.916102
O O15 0.250000 0.000000 0.943460
#
# Coordination Sequence:
#
# PCOD9422674 Si02
#       6
#     8   8   8   8   8   8
#     4  12  27  44  65  98 139 186 237 279 318 404
#     4  10  23  44  66 104 130 176 220 283 335 400
#     4  10  24  42  66  98 132 180 221 278 337 390
#     4  10  21  42  75 105 126 165 230 287 344 399
#     4  12  28  43  65  98 139 187 230 270 337 406
#     4  12  25  42  61  92 134 179 220 275 332 390
#
# _framework density 19.334427000000002
#
# number of rings (size 3 to 8) (size 9 to 14) (size 15 to 20)
#    1.000    0.000    1.667    5.000    7.000    1.333 
#    0.000    0.000    0.000    4.000    4.333    0.000 
#    0.000    0.000    0.000    0.000    0.000    0.000 
#
# Total GULP energy -268061.119411 kJ/mol
# GULP energy per Si atom -5584.606654 kJ/mol
# Density = 1.929042 g / cm^3
# Si number density = 19.334427 Si / 1000 Ang^3
#
#
#
# Elastic Constant Matrix: (Units=GPa)
#
#
# Indices 1 2 3 4 5 6 
#
# 1 112.4964 48.8852 50.2255 0.0000 0.0000 0.0000
# 2 48.8852 144.1419 55.0127 0.0000 0.0000 0.0000
# 3 50.2255 55.0127 146.3073 0.0000 0.0000 0.0000
# 4 0.0000 0.0000 0.0000 15.3161 0.0000 0.0000
# 5 0.0000 0.0000 0.0000 0.0000 15.5886 0.0000
# 6 0.0000 0.0000 0.0000 0.0000 0.0000 8.2256
#
#
#
# Elastic Compliance Matrix: (Units=1/GPa)
#
#
# Indices 1 2 3 4 5 6 
#
# 1 0.011368 -0.002762 -0.002864 0.000000 0.000000 0.000000
# 2 -0.002762 0.008771 -0.002350 0.000000 0.000000 0.000000
# 3 -0.002864 -0.002350 0.008702 0.000000 0.000000 0.000000
# 4 0.000000 0.000000 0.000000 0.065291 0.000000 0.000000
# 5 0.000000 0.000000 0.000000 0.000000 0.064149 0.000000
# 6 0.000000 0.000000 0.000000 0.000000 0.000000 0.121571
#
#
# Mechanical properties :
#
#
# Convention : Reuss Voigt Hill
#
# Bulk Modulus (GPa) = 77.58605 79.02139 78.30372
# Shear Modulus (GPa) = 16.66105 24.41421 20.53763
#
# Velocity S-wave (km/s) = 2.93871 3.55735 3.26272
# Velocity P-wave (km/s) = 7.19237 7.60477 7.40144
#
# Compressibility (1/GPa) = 0.01288891
#
# Stress axis : x y z
#
# Youngs Moduli (GPa) = 87.96459 114.00833 114.92161
#
# Poissons Ratio (x) = 0.31495 0.32912
# Poissons Ratio (y) = 0.24300 0.27004
# Poissons Ratio (z) = 0.25192 0.26789
#
# Static dielectric constant tensor:
#      x y z
#    x 1.687450 0.000000 0.000000 
#    y 0.000000 1.703560 0.000000 
#    z 0.000000 0.000000 1.658580 
# 
# From -- ./inp_files/24706.got.cif
#   From: 2010.05.17/outbox.cif.g08.bks.cpg/sg54_13_cif.got.tgz:24706.got - 2010.06.03 13:09:01.
