data_PCOD9422306
_publ_section_title
;
Structure prediction by ZEFSAII (Michael W. Deem and Ramdas Pophale) SiO2 
 PCOD9422306
Probable space group: P C C A
;
_chemical_formula_sum "Si O2"
_cell_formula_units_Z 40
_cell_length_a 5.357538
_cell_length_b 20.797360
_cell_length_c 16.478923
_cell_angle_alpha 90.000000
_cell_angle_beta 90.000000
_cell_angle_gamma 90.000000
_cell_volume 1836.125212
_symmetry_space_group_name_H-M "P C C A"
_symmetry_group_IT_number 54
_symmetry_cell_setting 'orthorhombic'
loop_
_space_group_symop_operation_xyz
x,y,z
1/2-x,-y,z
1/2+x,-y,1/2-z
-x,y,1/2-z
-x,-y,-z
1/2+x,y,-z
1/2-x,y,1/2+z
x,-y,1/2+z
loop_
_atom_site_type_symbol
_atom_site_label
_atom_site_fract_x
_atom_site_fract_y
_atom_site_fract_z
Si Si1 0.322086 0.598553 0.022146
Si Si2 0.249103 0.820544 0.304177
Si Si3 0.250279 0.577558 0.202051
Si Si4 0.766797 0.075382 0.053210
Si Si5 0.840406 0.741524 0.042995
O O1 0.263239 0.610518 0.115393
O O2 0.586553 0.564515 0.016853
O O3 0.345869 0.665302 0.973307
O O4 0.500000 0.816591 0.250000
O O5 0.263972 0.879955 0.367496
O O6 0.216056 0.759988 0.364936
O O7 0.000000 0.826028 0.250000
O O8 0.250000 0.500000 0.188578
O O9 0.500000 0.593823 0.250000
O O10 0.000000 0.594049 0.250000
O O11 0.750000 0.000000 0.076090
O O12 0.522365 0.086734 0.997113
O O13 0.608413 0.766386 0.988284
#
# Coordination Sequence:
#
# PCOD9422306 Si02
#       5
#     8   8   8   8   8
#     4  10  21  38  59  85 114 152 195 236 282 341
#     4  12  24  38  60  89 120 153 193 246 297 340
#     4  10  21  38  60  88 120 150 186 237 294 347
#     4  10  21  39  63  88 118 158 196 234 288 353
#     4  10  21  41  60  80 114 155 198 239 283 343
#
# _framework density 21.785008000000001
#
# number of rings (size 3 to 8) (size 9 to 14) (size 15 to 20)
#    0.000    1.600    0.000    4.800    0.000    1.600 
#    0.000   24.000    0.000    0.000    0.000    0.000 
#    0.000    0.000    0.000    0.000    0.000    0.000 
#
# Total GULP energy -223596.785569 kJ/mol
# GULP energy per Si atom -5589.919639 kJ/mol
# Density = 2.173542 g / cm^3
# Si number density = 21.785008 Si / 1000 Ang^3
#
#
#
# Elastic Constant Matrix: (Units=GPa)
#
#
# Indices 1 2 3 4 5 6 
#
# 1 223.2940 11.2927 89.6886 0.0000 0.0000 0.0000
# 2 11.2927 68.9751 38.7726 0.0000 0.0000 0.0000
# 3 89.6886 38.7726 173.4458 0.0000 0.0000 0.0000
# 4 0.0000 0.0000 0.0000 23.2213 0.0000 0.0000
# 5 0.0000 0.0000 0.0000 0.0000 51.9285 0.0000
# 6 0.0000 0.0000 0.0000 0.0000 0.0000 19.8219
#
#
#
# Elastic Compliance Matrix: (Units=1/GPa)
#
#
# Indices 1 2 3 4 5 6 
#
# 1 0.005693 0.000827 -0.003129 0.000000 0.000000 0.000000
# 2 0.000827 0.016702 -0.004161 0.000000 0.000000 0.000000
# 3 -0.003129 -0.004161 0.008314 0.000000 0.000000 0.000000
# 4 0.000000 0.000000 0.000000 0.043064 0.000000 0.000000
# 5 0.000000 0.000000 0.000000 0.000000 0.019257 0.000000
# 6 0.000000 0.000000 0.000000 0.000000 0.000000 0.050449
#
#
# Mechanical properties :
#
#
# Convention : Reuss Voigt Hill
#
# Bulk Modulus (GPa) = 56.23594 82.80252 69.51923
# Shear Modulus (GPa) = 30.80096 40.72507 35.76302
#
# Velocity S-wave (km/s) = 3.76421 4.32836 4.05610
# Velocity P-wave (km/s) = 6.69048 7.94173 7.34280
#
# Compressibility (1/GPa) = 0.01778222
#
# Stress axis : x y z
#
# Youngs Moduli (GPa) = 175.64473 59.87437 120.28557
#
# Poissons Ratio (x) = -0.04950 0.37635
# Poissons Ratio (y) = -0.14520 0.50051
# Poissons Ratio (z) = 0.54956 0.24914
#
# Static dielectric constant tensor:
#      x y z
#    x 1.870780 0.000000 0.000000 
#    y 0.000000 1.801620 0.000000 
#    z 0.000000 0.000000 1.749020 
# 
# From -- ./inp_files/6426.got.cif
#   From: 2010.05.17/outbox.cif.g08.bks.cpg/sg54_4_cif.got.tgz:6426.got - 2010.06.03 13:09:01.
