data_PCOD9422644
_publ_section_title
;
Structure prediction by ZEFSAII (Michael W. Deem and Ramdas Pophale) SiO2 
 PCOD9422644
Probable space group: P C C A
;
_chemical_formula_sum "Si O2"
_cell_formula_units_Z 60
_cell_length_a 14.538990
_cell_length_b 12.103823
_cell_length_c 16.786570
_cell_angle_alpha 90.000000
_cell_angle_beta 90.000000
_cell_angle_gamma 90.000000
_cell_volume 2954.056298
_symmetry_space_group_name_H-M "P C C A"
_symmetry_group_IT_number 54
_symmetry_cell_setting 'orthorhombic'
loop_
_space_group_symop_operation_xyz
x,y,z
1/2-x,-y,z
1/2+x,-y,1/2-z
-x,y,1/2-z
-x,-y,-z
1/2+x,y,-z
1/2-x,y,1/2+z
x,-y,1/2+z
loop_
_atom_site_type_symbol
_atom_site_label
_atom_site_fract_x
_atom_site_fract_y
_atom_site_fract_z
Si Si1 0.638867 0.194130 0.438466
Si Si2 0.328510 0.650999 0.842414
Si Si3 0.667922 0.583706 0.842363
Si Si4 0.750000 0.000000 0.863157
Si Si5 0.019061 0.514722 0.905922
Si Si6 0.632534 0.274720 0.615741
Si Si7 0.960577 0.850926 0.163951
Si Si8 0.654257 0.054200 0.706673
O O1 0.669971 0.308537 0.397805
O O2 0.631327 0.211951 0.531861
O O3 0.540244 0.164453 0.400102
O O4 0.709655 0.098815 0.414421
O O5 0.323863 0.621705 0.749041
O O6 0.396739 0.565114 0.883452
O O7 0.226540 0.655437 0.877049
O O8 0.374903 0.771123 0.852834
O O9 0.750000 0.500000 0.861206
O O10 0.570522 0.524753 0.858128
O O11 0.829391 0.959409 0.801536
O O12 0.049162 0.638745 0.883659
O O13 0.000000 0.500000 0.000000
O O14 0.637877 0.179877 0.682486
O O15 0.000000 0.814187 0.250000
O O16 0.925629 0.975209 0.175035
O O17 0.750000 0.000000 0.674137
#
# Coordination Sequence:
#
# PCOD9422644 Si02
#       8
#     8   8   8   4   8   8   8   8
#     4  12  25  43  69 101 137 182 237 287 360 434
#     4  12  23  44  77  96 136 189 230 285 352 431
#     4  12  25  45  71 101 135 187 240 284 350 430
#     4  10  22  42  70  98 134 184 240 290 348 432
#     4  12  25  45  67 103 143 182 234 292 356 424
#     4  12  26  43  68 106 143 181 231 301 367 415
#     4  12  19  43  75  95 132 185 230 283 347 430
#     4  10  21  42  67  98 137 176 228 294 351 418
#
# _framework density 20.311055
#
# number of rings (size 3 to 8) (size 9 to 14) (size 15 to 20)
#    0.400    0.000    6.667    2.400    2.800    0.533 
#    2.400    1.333    0.000    0.000    0.000    0.000 
#    0.000    0.000    0.000    0.000    0.000    0.000 
#
# Total GULP energy -335598.835084 kJ/mol
# GULP energy per Si atom -5593.313918 kJ/mol
# Density = 2.026483 g / cm^3
# Si number density = 20.311055 Si / 1000 Ang^3
#
#
#
# Elastic Constant Matrix: (Units=GPa)
#
#
# Indices 1 2 3 4 5 6 
#
# 1 90.0108 46.8418 3.6260 0.0000 0.0000 0.0000
# 2 46.8418 129.6045 -0.3492 0.0000 0.0000 0.0000
# 3 3.6260 -0.3492 45.0256 0.0000 0.0000 0.0000
# 4 0.0000 0.0000 0.0000 24.3751 0.0000 0.0000
# 5 0.0000 0.0000 0.0000 0.0000 20.5750 0.0000
# 6 0.0000 0.0000 0.0000 0.0000 0.0000 56.6912
#
#
#
# Elastic Compliance Matrix: (Units=1/GPa)
#
#
# Indices 1 2 3 4 5 6 
#
# 1 0.013742 -0.004970 -0.001145 0.000000 0.000000 0.000000
# 2 -0.004970 0.009513 0.000474 0.000000 0.000000 0.000000
# 3 -0.001145 0.000474 0.022305 0.000000 0.000000 0.000000
# 4 0.000000 0.000000 0.000000 0.041025 0.000000 0.000000
# 5 0.000000 0.000000 0.000000 0.000000 0.048603 0.000000
# 6 0.000000 0.000000 0.000000 0.000000 0.000000 0.017639
#
#
# Mechanical properties :
#
#
# Convention : Reuss Voigt Hill
#
# Bulk Modulus (GPa) = 29.17246 40.54200 34.85723
# Shear Modulus (GPa) = 28.48407 34.62977 31.55692
#
# Velocity S-wave (km/s) = 3.74892 4.13361 3.94595
# Velocity P-wave (km/s) = 5.75614 6.54112 6.16114
#
# Compressibility (1/GPa) = 0.03427890
#
# Stress axis : x y z
#
# Youngs Moduli (GPa) = 72.76853 105.11650 44.83201
#
# Poissons Ratio (x) = 0.52241 0.05134
# Poissons Ratio (y) = 0.36165 -0.02125
# Poissons Ratio (z) = 0.08334 -0.04983
#
# Static dielectric constant tensor:
#      x y z
#    x 1.716930 0.000000 0.000000 
#    y 0.000000 1.733700 0.000000 
#    z 0.000000 0.000000 1.701110 
# 
# From -- ./inp_files/18200.got.cif
#   From: 2010.05.17/outbox.cif.g08.bks.cpg/sg54_10_cif.got.tgz:18200.got - 2010.06.03 13:09:01.
