data_PCOD9422817
_publ_section_title
;
Structure prediction by ZEFSAII (Michael W. Deem and Ramdas Pophale) SiO2 
 PCOD9422817
Probable space group: P C C A
;
_chemical_formula_sum "Si O2"
_cell_formula_units_Z 40
_cell_length_a 7.883544
_cell_length_b 8.485297
_cell_length_c 25.608844
_cell_angle_alpha 90.000000
_cell_angle_beta 90.000000
_cell_angle_gamma 90.000000
_cell_volume 1713.083446
_symmetry_space_group_name_H-M "P C C A"
_symmetry_group_IT_number 54
_symmetry_cell_setting 'orthorhombic'
loop_
_space_group_symop_operation_xyz
x,y,z
1/2-x,-y,z
1/2+x,-y,1/2-z
-x,y,1/2-z
-x,-y,-z
1/2+x,y,-z
1/2-x,y,1/2+z
x,-y,1/2+z
loop_
_atom_site_type_symbol
_atom_site_label
_atom_site_fract_x
_atom_site_fract_y
_atom_site_fract_z
Si Si1 0.788995 0.319986 0.986272
Si Si2 0.573817 0.122067 0.041859
Si Si3 0.538610 0.863297 0.663212
Si Si4 0.705423 0.316416 0.871448
Si Si5 0.089918 0.213291 0.303160
O O1 0.750000 0.500000 0.997716
O O2 0.700373 0.264539 0.932034
O O3 0.981571 0.291097 0.969208
O O4 0.758495 0.187226 0.029531
O O5 0.560140 0.086850 0.102464
O O6 0.500000 0.000000 0.000000
O O7 0.356422 0.773601 0.660763
O O8 0.707137 0.772835 0.685365
O O9 0.542879 0.027660 0.693547
O O10 0.750000 0.500000 0.871951
O O11 0.521021 0.292793 0.847988
O O12 0.000000 0.273290 0.250000
#
# Coordination Sequence:
#
# PCOD9422817 Si02
#       5
#     8   8   8   8   8
#     4  10  22  38  60  91 132 176 206 251 330 395
#     4  11  22  37  63  98 131 170 214 272 317 391
#     4  10  25  42  67 103 129 171 229 272 332 398
#     4  10  23  45  66  96 137 171 217 278 329 402
#     4  11  25  43  69  95 125 177 221 285 338 390
#
# _framework density 23.349709000000001
#
# number of rings (size 3 to 8) (size 9 to 14) (size 15 to 20)
#    0.000    1.600    0.000    3.000   14.000    4.000 
#    3.600    0.000    0.000    0.000    0.000    0.000 
#    0.000    0.000    0.000    0.000    0.000    0.000 
#
# Total GULP energy -222883.073335 kJ/mol
# GULP energy per Si atom -5572.076833 kJ/mol
# Density = 2.329656 g / cm^3
# Si number density = 23.349709 Si / 1000 Ang^3
#
#
#
# Elastic Constant Matrix: (Units=GPa)
#
#
# Indices 1 2 3 4 5 6 
#
# 1 46.8889 12.1710 -0.3998 0.0000 0.0000 0.0000
# 2 12.1710 32.9022 -2.5334 0.0000 0.0000 0.0000
# 3 -0.3998 -2.5334 67.6302 0.0000 0.0000 0.0000
# 4 0.0000 0.0000 0.0000 -25.3970 0.0000 0.0000
# 5 0.0000 0.0000 0.0000 0.0000 25.6106 0.0000
# 6 0.0000 0.0000 0.0000 0.0000 0.0000 40.3395
#
#
#
# Elastic Compliance Matrix: (Units=1/GPa)
#
#
# Indices 1 2 3 4 5 6 
#
# 1 0.023595 -0.008742 -0.000188 0.000000 0.000000 0.000000
# 2 -0.008742 0.033720 0.001211 0.000000 0.000000 0.000000
# 3 -0.000188 0.001211 0.014831 0.000000 0.000000 0.000000
# 4 0.000000 0.000000 0.000000 -0.039375 0.000000 0.000000
# 5 0.000000 0.000000 0.000000 0.000000 0.039046 0.000000
# 6 0.000000 0.000000 0.000000 0.000000 0.000000 0.024790
#
#
# Mechanical properties :
#
#
# Convention : Reuss Voigt Hill
#
# Bulk Modulus (GPa) = 17.63435 18.43300 18.03368
# Shear Modulus (GPa) = 38.18328 17.32286 27.75307
#
# Velocity S-wave (km/s) = 4.04825 2.72672 3.45132
# Velocity P-wave (km/s) = 5.42400 4.22194 4.86027
#
# Compressibility (1/GPa) = 0.05670750
#
# Stress axis : x y z
#
# Youngs Moduli (GPa) = 42.38242 29.65571 67.42829
#
# Poissons Ratio (x) = 0.25926 0.01268
# Poissons Ratio (y) = 0.37053 -0.08169
# Poissons Ratio (z) = 0.00797 -0.03593
#
# Static dielectric constant tensor:
#      x y z
#    x 2.083000 0.000000 0.000000 
#    y 0.000000 1.897240 0.000000 
#    z 0.000000 0.000000 1.626150 
# 
# From -- ./inp_files/23275.got.cif
#   From: 2010.05.17/outbox.cif.g08.bks.cpg/sg54_12_cif.got.tgz:23275.got - 2010.06.03 13:09:01.
