data_PCOD9422650
_publ_section_title
;
Structure prediction by ZEFSAII (Michael W. Deem and Ramdas Pophale) SiO2 
 PCOD9422650
Probable space group: P C C A
;
_chemical_formula_sum "Si O2"
_cell_formula_units_Z 36
_cell_length_a 25.070568
_cell_length_b 5.173199
_cell_length_c 10.174577
_cell_angle_alpha 90.000000
_cell_angle_beta 90.000000
_cell_angle_gamma 90.000000
_cell_volume 1319.592144
_symmetry_space_group_name_H-M "P C C A"
_symmetry_group_IT_number 54
_symmetry_cell_setting 'orthorhombic'
loop_
_space_group_symop_operation_xyz
x,y,z
1/2-x,-y,z
1/2+x,-y,1/2-z
-x,y,1/2-z
-x,-y,-z
1/2+x,y,-z
1/2-x,y,1/2+z
x,-y,1/2+z
loop_
_atom_site_type_symbol
_atom_site_label
_atom_site_fract_x
_atom_site_fract_y
_atom_site_fract_z
Si Si1 0.536403 0.709092 0.129882
Si Si2 0.250000 0.000000 0.444536
Si Si3 0.653542 0.024272 0.849702
Si Si4 0.935526 0.210808 0.544206
Si Si5 0.301479 0.541634 0.758054
O O1 0.500000 0.620479 0.250000
O O2 0.579014 0.495045 0.091634
O O3 0.561773 0.988246 0.152800
O O4 0.495549 0.750783 0.009609
O O5 0.199189 0.024000 0.539690
O O6 0.231817 0.740788 0.360036
O O7 0.602116 0.113757 0.929351
O O8 0.671241 0.256804 0.751673
O O9 0.653189 0.743341 0.784441
O O10 0.250000 0.500000 0.661972
#
# Coordination Sequence:
#
# PCOD9422650 Si02
#       5
#     8   4   8   8   8
#     4  10  21  42  68  94 136 169 215 278 345 410
#     4  12  26  42  70  90 138 184 232 286 358 402
#     4  12  26  43  68  96 139 177 234 291 340 414
#     4  10  23  41  65 100 127 174 220 274 342 410
#     4  12  24  44  62  95 130 181 229 283 339 407
#
# _framework density 27.281157
#
# number of rings (size 3 to 8) (size 9 to 14) (size 15 to 20)
#    0.000    0.889    4.444    2.000    3.111    3.556 
#    0.000    0.000    0.000    0.000    0.000    0.000 
#    0.000    0.000    0.000    0.000    0.000    0.000 
#
# Total GULP energy -200787.466194 kJ/mol
# GULP energy per Si atom -5577.429617 kJ/mol
# Density = 2.721906 g / cm^3
# Si number density = 27.281157 Si / 1000 Ang^3
#
#
#
# Elastic Constant Matrix: (Units=GPa)
#
#
# Indices 1 2 3 4 5 6 
#
# 1 79.9175 38.2450 20.4142 0.0000 0.0000 0.0000
# 2 38.2450 221.3000 47.6701 0.0000 0.0000 0.0000
# 3 20.4142 47.6701 85.7408 0.0000 0.0000 0.0000
# 4 0.0000 0.0000 0.0000 36.5175 0.0000 0.0000
# 5 0.0000 0.0000 0.0000 0.0000 53.6325 0.0000
# 6 0.0000 0.0000 0.0000 0.0000 0.0000 38.4588
#
#
#
# Elastic Compliance Matrix: (Units=1/GPa)
#
#
# Indices 1 2 3 4 5 6 
#
# 1 0.014017 -0.001935 -0.002261 0.000000 0.000000 0.000000
# 2 -0.001935 0.005401 -0.002542 0.000000 0.000000 0.000000
# 3 -0.002261 -0.002542 0.013615 0.000000 0.000000 0.000000
# 4 0.000000 0.000000 0.000000 0.027384 0.000000 0.000000
# 5 0.000000 0.000000 0.000000 0.000000 0.018645 0.000000
# 6 0.000000 0.000000 0.000000 0.000000 0.000000 0.026002
#
#
# Mechanical properties :
#
#
# Convention : Reuss Voigt Hill
#
# Bulk Modulus (GPa) = 51.13738 66.62411 58.88075
# Shear Modulus (GPa) = 39.98116 44.43036 42.20576
#
# Velocity S-wave (km/s) = 3.83237 4.03998 3.93754
# Velocity P-wave (km/s) = 6.19419 6.79972 6.50401
#
# Compressibility (1/GPa) = 0.01955517
#
# Stress axis : x y z
#
# Youngs Moduli (GPa) = 71.34364 185.15906 73.44990
#
# Poissons Ratio (x) = 0.35833 0.16609
# Poissons Ratio (y) = 0.13807 0.18671
# Poissons Ratio (z) = 0.16133 0.47066
#
# Static dielectric constant tensor:
#      x y z
#    x 2.212680 0.000000 0.000000 
#    y 0.000000 2.350240 0.000000 
#    z 0.000000 0.000000 2.279770 
# 
# From -- ./inp_files/10409.got.cif
#   From: 2010.05.17/outbox.cif.g08.bks.cpg/sg54_6_cif.got.tgz:10409.got - 2010.06.03 13:09:01.
