data_PCOD9422759
_publ_section_title
;
Structure prediction by ZEFSAII (Michael W. Deem and Ramdas Pophale) SiO2 
 PCOD9422759
Probable space group: P C C A
;
_chemical_formula_sum "Si O2"
_cell_formula_units_Z 56
_cell_length_a 9.418713
_cell_length_b 15.356823
_cell_length_c 19.242016
_cell_angle_alpha 90.000000
_cell_angle_beta 90.000000
_cell_angle_gamma 90.000000
_cell_volume 2783.194219
_symmetry_space_group_name_H-M "P C C A"
_symmetry_group_IT_number 54
_symmetry_cell_setting 'orthorhombic'
loop_
_space_group_symop_operation_xyz
x,y,z
1/2-x,-y,z
1/2+x,-y,1/2-z
-x,y,1/2-z
-x,-y,-z
1/2+x,y,-z
1/2-x,y,1/2+z
x,-y,1/2+z
loop_
_atom_site_type_symbol
_atom_site_label
_atom_site_fract_x
_atom_site_fract_y
_atom_site_fract_z
Si Si1 0.970339 0.174628 0.910893
Si Si2 0.828699 0.407810 0.756788
Si Si3 0.922424 0.992046 0.574384
Si Si4 0.130128 0.563423 0.484885
Si Si5 0.814729 0.301222 0.622971
Si Si6 0.222013 0.307588 0.108365
Si Si7 0.960381 0.795993 0.573997
O O1 0.820505 0.223598 0.907793
O O2 0.999167 0.074440 0.890848
O O3 0.075874 0.225649 0.860444
O O4 0.009036 0.191327 0.993153
O O5 0.750000 0.500000 0.758635
O O6 0.772234 0.353809 0.690574
O O7 0.787149 0.355679 0.825828
O O8 0.000000 0.416902 0.750000
O O9 0.750000 0.000000 0.568609
O O10 0.947766 0.894507 0.601802
O O11 0.000000 0.000000 0.500000
O O12 0.250000 0.500000 0.455775
O O13 0.097378 0.633843 0.426636
O O14 0.195526 0.618379 0.549108
O O15 0.000000 0.500000 0.500000
O O16 0.687122 0.256431 0.580508
O O17 0.069183 0.263232 0.115972
#
# Coordination Sequence:
#
# PCOD9422759 Si02
#       7
#     8   8   8   8   8   8   8
#     4  11  20  41  66  99 139 169 218 269 336 398
#     4  12  30  48  67  93 133 181 228 274 337 404
#     4  10  22  35  61 102 142 172 210 273 337 406
#     4  12  24  39  64  95 128 167 219 284 333 378
#     4  12  23  43  66  93 132 175 221 273 334 395
#     4  12  25  43  68  95 134 176 228 274 332 406
#     4  11  22  39  67 101 133 171 219 274 335 397
#
# _framework density 20.120766
#
# number of rings (size 3 to 8) (size 9 to 14) (size 15 to 20)
#    0.000    0.571    5.714    2.571   10.000    0.000 
#    0.000    0.000    0.000    5.143    0.000    0.000 
#    0.000    0.000    0.000    0.000    0.000    0.000 
#
# Total GULP energy -312263.188012 kJ/mol
# GULP energy per Si atom -5576.128357 kJ/mol
# Density = 2.007497 g / cm^3
# Si number density = 20.120766 Si / 1000 Ang^3
#
#
#
# Elastic Constant Matrix: (Units=GPa)
#
#
# Indices 1 2 3 4 5 6 
#
# 1 60.4502 14.4470 -9.1583 0.0000 0.0000 0.0000
# 2 14.4470 143.7193 24.0117 0.0000 0.0000 0.0000
# 3 -9.1583 24.0117 64.1611 0.0000 0.0000 0.0000
# 4 0.0000 0.0000 0.0000 18.4228 0.0000 0.0000
# 5 0.0000 0.0000 0.0000 0.0000 19.6476 0.0000
# 6 0.0000 0.0000 0.0000 0.0000 0.0000 37.0545
#
#
#
# Elastic Compliance Matrix: (Units=1/GPa)
#
#
# Indices 1 2 3 4 5 6 
#
# 1 0.017614 -0.002337 0.003389 0.000000 0.000000 0.000000
# 2 -0.002337 0.007732 -0.003227 0.000000 0.000000 0.000000
# 3 0.003389 -0.003227 0.017277 0.000000 0.000000 0.000000
# 4 0.000000 0.000000 0.000000 0.054281 0.000000 0.000000
# 5 0.000000 0.000000 0.000000 0.000000 0.050897 0.000000
# 6 0.000000 0.000000 0.000000 0.000000 0.000000 0.026987
#
#
# Mechanical properties :
#
#
# Convention : Reuss Voigt Hill
#
# Bulk Modulus (GPa) = 26.12787 36.32571 31.22679
# Shear Modulus (GPa) = 26.05565 30.96030 28.50797
#
# Velocity S-wave (km/s) = 3.60246 3.92691 3.76818
# Velocity P-wave (km/s) = 5.50612 6.21723 5.87245
#
# Compressibility (1/GPa) = 0.03827331
#
# Stress axis : x y z
#
# Youngs Moduli (GPa) = 56.77158 129.33096 57.87954
#
# Poissons Ratio (x) = 0.30222 -0.19614
# Poissons Ratio (y) = 0.13267 0.18679
# Poissons Ratio (z) = -0.19239 0.41738
#
# Static dielectric constant tensor:
#      x y z
#    x 46.600220 0.000000 0.000000 
#    y 0.000000 1.825140 0.000000 
#    z 0.000000 0.000000 1.753640 
# 
# From -- ./inp_files/20514.got.cif
#   From: 2010.05.17/outbox.cif.g08.bks.cpg/sg54_11_cif.got.tgz:20514.got - 2010.06.03 13:09:01.
