data_PCOD9422835
_publ_section_title
;
Structure prediction by ZEFSAII (Michael W. Deem and Ramdas Pophale) SiO2 
 PCOD9422835
Probable space group: P C C A
;
_chemical_formula_sum "Si O2"
_cell_formula_units_Z 40
_cell_length_a 26.468626
_cell_length_b 5.092913
_cell_length_c 12.950905
_cell_angle_alpha 90.000000
_cell_angle_beta 90.000000
_cell_angle_gamma 90.000000
_cell_volume 1745.813199
_symmetry_space_group_name_H-M "P C C A"
_symmetry_group_IT_number 54
_symmetry_cell_setting 'orthorhombic'
loop_
_space_group_symop_operation_xyz
x,y,z
1/2-x,-y,z
1/2+x,-y,1/2-z
-x,y,1/2-z
-x,-y,-z
1/2+x,y,-z
1/2-x,y,1/2+z
x,-y,1/2+z
loop_
_atom_site_type_symbol
_atom_site_label
_atom_site_fract_x
_atom_site_fract_y
_atom_site_fract_z
Si Si1 0.470256 0.109010 0.849734
Si Si2 0.810191 0.491438 0.275727
Si Si3 0.555977 0.718406 0.470127
Si Si4 0.370256 0.679252 0.415230
Si Si5 0.852873 0.008145 0.893708
O O1 0.500000 0.022218 0.750000
O O2 0.413381 0.210964 0.838049
O O3 0.463015 0.875334 0.930318
O O4 0.506127 0.332142 0.902500
O O5 0.750000 0.500000 0.275350
O O6 0.830763 0.457836 0.159354
O O7 0.836699 0.748773 0.323021
O O8 0.824881 0.244821 0.348348
O O9 0.596178 0.501128 0.506969
O O10 0.588522 0.925421 0.402059
O O11 0.343905 0.897104 0.487612
#
# Coordination Sequence:
#
# PCOD9422835 Si02
#       5
#     8   8   8   8   8
#     4  10  22  38  68 109 150 196 243 295 363 446
#     4  12  28  49  76 110 142 190 255 310 378 440
#     4  10  22  43  68 108 146 198 240 299 367 448
#     4  11  25  45  77 104 155 191 250 306 373 441
#     4  11  25  49  75 104 148 189 240 310 368 440
#
# _framework density 22.911961000000002
#
# number of rings (size 3 to 8) (size 9 to 14) (size 15 to 20)
#    0.000    1.200    2.000    2.400    8.400    1.600 
#    3.600    0.000    0.000    0.000    0.000    0.000 
#    0.000    0.000    0.000    0.000    0.000    0.000 
#
# Total GULP energy -223466.553920 kJ/mol
# GULP energy per Si atom -5586.663848 kJ/mol
# Density = 2.285981 g / cm^3
# Si number density = 22.911961 Si / 1000 Ang^3
#
#
#
# Elastic Constant Matrix: (Units=GPa)
#
#
# Indices 1 2 3 4 5 6 
#
# 1 109.6573 52.0976 67.0198 0.0000 0.0000 0.0000
# 2 52.0976 117.4335 19.3899 0.0000 0.0000 0.0000
# 3 67.0198 19.3899 70.7347 0.0000 0.0000 0.0000
# 4 0.0000 0.0000 0.0000 27.1710 0.0000 0.0000
# 5 0.0000 0.0000 0.0000 0.0000 16.6743 0.0000
# 6 0.0000 0.0000 0.0000 0.0000 0.0000 22.4787
#
#
#
# Elastic Compliance Matrix: (Units=1/GPa)
#
#
# Indices 1 2 3 4 5 6 
#
# 1 0.027768 -0.008353 -0.024020 0.000000 0.000000 0.000000
# 2 -0.008353 0.011432 0.004781 0.000000 0.000000 0.000000
# 3 -0.024020 0.004781 0.035586 0.000000 0.000000 0.000000
# 4 0.000000 0.000000 0.000000 0.036804 0.000000 0.000000
# 5 0.000000 0.000000 0.000000 0.000000 0.059972 0.000000
# 6 0.000000 0.000000 0.000000 0.000000 0.000000 0.044487
#
#
# Mechanical properties :
#
#
# Convention : Reuss Voigt Hill
#
# Bulk Modulus (GPa) = 51.01927 63.87112 57.44519
# Shear Modulus (GPa) = 18.00070 23.88603 20.94336
#
# Velocity S-wave (km/s) = 2.80598 3.23230 3.02666
# Velocity P-wave (km/s) = 5.72834 6.47052 6.11071
#
# Compressibility (1/GPa) = 0.01960044
#
# Stress axis : x y z
#
# Youngs Moduli (GPa) = 36.01232 87.47557 28.10131
#
# Poissons Ratio (x) = 0.73067 0.67500
# Poissons Ratio (y) = 0.30081 -0.13434
# Poissons Ratio (z) = 0.86502 -0.41818
#
# Static dielectric constant tensor:
#      x y z
#    x 1.832510 0.000000 0.000000 
#    y 0.000000 1.930180 0.000000 
#    z 0.000000 0.000000 1.869420 
# 
# From -- ./inp_files/10136.got.cif
#   From: 2010.05.17/outbox.cif.g08.bks.cpg/sg54_6_cif.got.tgz:10136.got - 2010.06.03 13:09:01.
