data_PCOD9422603
_publ_section_title
;
Structure prediction by ZEFSAII (Michael W. Deem and Ramdas Pophale) SiO2 
 PCOD9422603
Probable space group: P C C A
;
_chemical_formula_sum "Si O2"
_cell_formula_units_Z 40
_cell_length_a 9.091460
_cell_length_b 13.679698
_cell_length_c 13.542167
_cell_angle_alpha 90.000000
_cell_angle_beta 90.000000
_cell_angle_gamma 90.000000
_cell_volume 1684.218010
_symmetry_space_group_name_H-M "P C C A"
_symmetry_group_IT_number 54
_symmetry_cell_setting 'orthorhombic'
loop_
_space_group_symop_operation_xyz
x,y,z
1/2-x,-y,z
1/2+x,-y,1/2-z
-x,y,1/2-z
-x,-y,-z
1/2+x,y,-z
1/2-x,y,1/2+z
x,-y,1/2+z
loop_
_atom_site_type_symbol
_atom_site_label
_atom_site_fract_x
_atom_site_fract_y
_atom_site_fract_z
Si Si1 0.640817 0.091926 0.554370
Si Si2 0.653650 0.404036 0.302968
Si Si3 0.910306 0.037874 0.842873
Si Si4 0.012587 0.616484 0.489962
Si Si5 0.289265 0.700066 0.378350
O O1 0.601612 0.107274 0.438865
O O2 0.713602 0.185116 0.603327
O O3 0.750000 0.000000 0.554552
O O4 0.499085 0.056027 0.614676
O O5 0.750000 0.500000 0.322676
O O6 0.500000 0.433834 0.250000
O O7 0.599453 0.354072 0.402561
O O8 0.742373 0.334067 0.229722
O O9 0.000000 0.078200 0.750000
O O10 0.750000 0.000000 0.812013
O O11 0.951257 0.664322 0.589262
O O12 0.000000 0.500000 0.500000
O O13 0.170939 0.647965 0.450677
#
# Coordination Sequence:
#
# PCOD9422603 Si02
#       5
#     8   8   8   8   8
#     4  10  24  46  70 100 147 193 245 309 371 449
#     4  10  21  41  67 102 140 185 237 300 362 437
#     4  10  22  44  72 101 137 191 243 304 379 442
#     4  11  23  43  71 102 142 190 236 301 375 436
#     4  11  24  42  68 103 140 186 244 296 367 444
#
# _framework density 23.749893
#
# number of rings (size 3 to 8) (size 9 to 14) (size 15 to 20)
#    0.000    1.600    0.000    4.800    8.400    0.800 
#   10.800    3.000    0.000    0.000    0.000    0.000 
#    0.000    0.000    0.000    0.000    0.000    0.000 
#
# Total GULP energy -224020.426861 kJ/mol
# GULP energy per Si atom -5600.510672 kJ/mol
# Density = 2.369584 g / cm^3
# Si number density = 23.749893 Si / 1000 Ang^3
#
#
#
# Elastic Constant Matrix: (Units=GPa)
#
#
# Indices 1 2 3 4 5 6 
#
# 1 81.3641 5.1358 30.8253 0.0000 0.0000 0.0000
# 2 5.1358 95.5613 -17.1408 0.0000 0.0000 0.0000
# 3 30.8253 -17.1408 64.5071 0.0000 0.0000 0.0000
# 4 0.0000 0.0000 0.0000 1.0310 0.0000 0.0000
# 5 0.0000 0.0000 0.0000 0.0000 49.7422 0.0000
# 6 0.0000 0.0000 0.0000 0.0000 0.0000 25.4567
#
#
#
# Elastic Compliance Matrix: (Units=1/GPa)
#
#
# Indices 1 2 3 4 5 6 
#
# 1 0.015460 -0.002264 -0.007989 0.000000 0.000000 0.000000
# 2 -0.002264 0.011320 0.004090 0.000000 0.000000 0.000000
# 3 -0.007989 0.004090 0.020407 0.000000 0.000000 0.000000
# 4 0.000000 0.000000 0.000000 0.969910 0.000000 0.000000
# 5 0.000000 0.000000 0.000000 0.000000 0.020104 0.000000
# 6 0.000000 0.000000 0.000000 0.000000 0.000000 0.039282
#
#
# Mechanical properties :
#
#
# Convention : Reuss Voigt Hill
#
# Bulk Modulus (GPa) = 28.68666 31.00814 29.84740
# Shear Modulus (GPa) = 4.54368 30.08680 17.31524
#
# Velocity S-wave (km/s) = 1.38466 3.56310 2.70305
# Velocity P-wave (km/s) = 3.82900 5.47832 4.72617
#
# Compressibility (1/GPa) = 0.03485941
#
# Stress axis : x y z
#
# Youngs Moduli (GPa) = 64.68246 88.34138 49.00358
#
# Poissons Ratio (x) = 0.20000 0.39151
# Poissons Ratio (y) = 0.14644 -0.20041
# Poissons Ratio (z) = 0.51677 -0.36129
#
# Static dielectric constant tensor:
#      x y z
#    x 1.925290 0.000000 0.000000 
#    y 0.000000 1.845620 0.000000 
#    z 0.000000 0.000000 1.944710 
# 
# From -- ./inp_files/11486.got.cif
#   From: 2010.05.17/outbox.cif.g08.bks.cpg/sg54_6_cif.got.tgz:11486.got - 2010.06.03 13:09:01.
