data_PCOD9422787
_publ_section_title
;
Structure prediction by ZEFSAII (Michael W. Deem and Ramdas Pophale) SiO2 
 PCOD9422787
Probable space group: P C C A
;
_chemical_formula_sum "Si O2"
_cell_formula_units_Z 36
_cell_length_a 28.907096
_cell_length_b 5.270650
_cell_length_c 8.858211
_cell_angle_alpha 90.000000
_cell_angle_beta 90.000000
_cell_angle_gamma 90.000000
_cell_volume 1349.629813
_symmetry_space_group_name_H-M "P C C A"
_symmetry_group_IT_number 54
_symmetry_cell_setting 'orthorhombic'
loop_
_space_group_symop_operation_xyz
x,y,z
1/2-x,-y,z
1/2+x,-y,1/2-z
-x,y,1/2-z
-x,-y,-z
1/2+x,y,-z
1/2-x,y,1/2+z
x,-y,1/2+z
loop_
_atom_site_type_symbol
_atom_site_label
_atom_site_fract_x
_atom_site_fract_y
_atom_site_fract_z
Si Si1 0.750000 0.000000 0.321581
Si Si2 0.108152 0.132675 0.321928
Si Si3 0.310154 0.222656 0.414344
Si Si4 0.110533 0.490709 0.560517
Si Si5 0.030184 0.159850 0.117057
O O1 0.730676 0.219310 0.209507
O O2 0.789091 0.094286 0.436280
O O3 0.099485 0.217832 0.492766
O O4 0.151330 0.949579 0.331983
O O5 0.064733 0.015636 0.234700
O O6 0.116685 0.394095 0.227667
O O7 0.339670 0.451912 0.482971
O O8 0.064257 0.654463 0.523728
O O9 0.000000 0.298888 0.250000
O O10 0.000000 0.000000 0.000000
#
# Coordination Sequence:
#
# PCOD9422787 Si02
#       5
#     4   8   8   8   8
#     4  10  22  36  70  96 130 168 220 272 318 398
#     4  10  24  42  67  95 129 178 214 265 327 396
#     4  11  21  44  64  95 132 174 216 268 332 379
#     4  10  24  42  67  94 132 176 213 267 325 399
#     4  10  22  43  65  97 126 169 218 267 324 380
#
# _framework density 26.673978999999999
#
# number of rings (size 3 to 8) (size 9 to 14) (size 15 to 20)
#    1.333    0.444    2.222    1.333    3.111    0.889 
#    4.000    6.667    0.000    0.000    0.000    0.000 
#    0.000    0.000    0.000    0.000    0.000    0.000 
#
# Total GULP energy -200544.730549 kJ/mol
# GULP energy per Si atom -5570.686960 kJ/mol
# Density = 2.661327 g / cm^3
# Si number density = 26.673979 Si / 1000 Ang^3
#
#
#
# Elastic Constant Matrix: (Units=GPa)
#
#
# Indices 1 2 3 4 5 6 
#
# 1 105.0921 7.0392 29.9222 0.0000 0.0000 0.0000
# 2 7.0392 24.7735 6.3831 0.0000 0.0000 0.0000
# 3 29.9222 6.3831 114.9700 0.0000 0.0000 0.0000
# 4 0.0000 0.0000 0.0000 799.8654 0.0000 0.0000
# 5 0.0000 0.0000 0.0000 0.0000 53.8104 0.0000
# 6 0.0000 0.0000 0.0000 0.0000 0.0000 13.3690
#
#
#
# Elastic Compliance Matrix: (Units=1/GPa)
#
#
# Indices 1 2 3 4 5 6 
#
# 1 0.010404 -0.002291 -0.002580 0.000000 0.000000 0.000000
# 2 -0.002291 0.041456 -0.001705 0.000000 0.000000 0.000000
# 3 -0.002580 -0.001705 0.009464 0.000000 0.000000 0.000000
# 4 0.000000 0.000000 0.000000 0.001250 0.000000 0.000000
# 5 0.000000 0.000000 0.000000 0.000000 0.018584 0.000000
# 6 0.000000 0.000000 0.000000 0.000000 0.000000 0.074800
#
#
# Mechanical properties :
#
#
# Convention : Reuss Voigt Hill
#
# Bulk Modulus (GPa) = 20.75983 36.83604 28.79794
# Shear Modulus (GPa) = 27.00246 186.84172 106.92209
#
# Velocity S-wave (km/s) = 3.18514 8.37845 6.33812
# Velocity P-wave (km/s) = 4.61807 10.36522 8.02385
#
# Compressibility (1/GPa) = 0.04816994
#
# Stress axis : x y z
#
# Youngs Moduli (GPa) = 96.12012 24.12192 105.66143
#
# Poissons Ratio (x) = 0.05527 0.27265
# Poissons Ratio (y) = 0.22023 0.18018
# Poissons Ratio (z) = 0.24803 0.04114
#
# Static dielectric constant tensor:
#      x y z
#    x 2.250730 0.000000 0.000000 
#    y 0.000000 2.163790 0.000000 
#    z 0.000000 0.000000 2.052060 
# 
# From -- ./inp_files/10410.got.cif
#   From: 2010.05.17/outbox.cif.g08.bks.cpg/sg54_6_cif.got.tgz:10410.got - 2010.06.03 13:09:01.
