data_PCOD9422359
_publ_section_title
;
Structure prediction by ZEFSAII (Michael W. Deem and Ramdas Pophale) SiO2 
 PCOD9422359
Probable space group: P C C A
;
_chemical_formula_sum "Si O2"
_cell_formula_units_Z 40
_cell_length_a 15.838846
_cell_length_b 11.917181
_cell_length_c 9.055118
_cell_angle_alpha 90.000000
_cell_angle_beta 90.000000
_cell_angle_gamma 90.000000
_cell_volume 1709.193316
_symmetry_space_group_name_H-M "P C C A"
_symmetry_group_IT_number 54
_symmetry_cell_setting 'orthorhombic'
loop_
_space_group_symop_operation_xyz
x,y,z
1/2-x,-y,z
1/2+x,-y,1/2-z
-x,y,1/2-z
-x,-y,-z
1/2+x,y,-z
1/2-x,y,1/2+z
x,-y,1/2+z
loop_
_atom_site_type_symbol
_atom_site_label
_atom_site_fract_x
_atom_site_fract_y
_atom_site_fract_z
Si Si1 0.670144 0.394381 0.868485
Si Si2 0.644368 0.609585 0.016467
Si Si3 0.642102 0.148276 0.974322
Si Si4 0.855786 0.986862 0.230543
Si Si5 0.942400 0.147439 0.988439
O O1 0.663208 0.403164 0.691306
O O2 0.641713 0.275074 0.926679
O O3 0.614188 0.490849 0.948283
O O4 0.767677 0.387744 0.924077
O O5 0.589979 0.723034 0.994925
O O6 0.682910 0.073411 0.847094
O O7 0.687061 0.103894 0.122082
O O8 0.542078 0.130201 0.996106
O O9 0.912208 0.908449 0.336365
O O10 0.901402 0.075131 0.120633
#
# Coordination Sequence:
#
# PCOD9422359 Si02
#       5
#     8   8   8   8   8
#     4  11  25  44  65  87 121 162 204 253 307 362
#     4  11  25  44  65  87 121 162 204 253 307 362
#     4  11  21  39  66  94 124 160 204 248 299 361
#     4  10  21  38  63  94 129 164 195 244 307 362
#     4  11  21  39  66  94 124 160 204 248 299 361
#
# _framework density 23.402853
#
# number of rings (size 3 to 8) (size 9 to 14) (size 15 to 20)
#    0.000    1.200    2.000    7.200    5.600    0.800 
#    0.000    6.000    0.000    0.000    0.000    0.000 
#    0.000    0.000    0.000    0.000    0.000    0.000 
#
# Total GULP energy -223234.884192 kJ/mol
# GULP energy per Si atom -5580.872105 kJ/mol
# Density = 2.334959 g / cm^3
# Si number density = 23.402853 Si / 1000 Ang^3
#
#
#
# Elastic Constant Matrix: (Units=GPa)
#
#
# Indices 1 2 3 4 5 6 
#
# 1 58.5686 28.6988 24.2224 0.0000 0.0000 0.0000
# 2 28.6988 209.6990 78.9994 0.0000 0.0000 0.0000
# 3 24.2224 78.9994 180.7726 0.0000 0.0000 0.0000
# 4 0.0000 0.0000 0.0000 31.7113 0.0000 0.0000
# 5 0.0000 0.0000 0.0000 0.0000 24.5971 0.0000
# 6 0.0000 0.0000 0.0000 0.0000 0.0000 36.1801
#
#
#
# Elastic Compliance Matrix: (Units=1/GPa)
#
#
# Indices 1 2 3 4 5 6 
#
# 1 0.018709 -0.001935 -0.001661 0.000000 0.000000 0.000000
# 2 -0.001935 0.005909 -0.002323 0.000000 0.000000 0.000000
# 3 -0.001661 -0.002323 0.006770 0.000000 0.000000 0.000000
# 4 0.000000 0.000000 0.000000 0.031535 0.000000 0.000000
# 5 0.000000 0.000000 0.000000 0.000000 0.040655 0.000000
# 6 0.000000 0.000000 0.000000 0.000000 0.000000 0.027640
#
#
# Mechanical properties :
#
#
# Convention : Reuss Voigt Hill
#
# Bulk Modulus (GPa) = 51.15254 79.20907 65.18080
# Shear Modulus (GPa) = 33.42900 39.63900 36.53400
#
# Velocity S-wave (km/s) = 3.78354 4.12001 3.95535
# Velocity P-wave (km/s) = 6.40248 7.52011 6.98369
#
# Compressibility (1/GPa) = 0.01954937
#
# Stress axis : x y z
#
# Youngs Moduli (GPa) = 53.45003 169.24498 147.71985
#
# Poissons Ratio (x) = 0.32741 0.24543
# Poissons Ratio (y) = 0.10340 0.34314
# Poissons Ratio (z) = 0.08881 0.39314
#
# Static dielectric constant tensor:
#      x y z
#    x 2.030230 0.000000 0.000000 
#    y 0.000000 2.613720 0.000000 
#    z 0.000000 0.000000 1.878980 
# 
# From -- ./inp_files/3990.got.cif
#   From: 2010.05.17/outbox.cif.g08.bks.cpg/sg54_2_cif.got.tgz:3990.got - 2010.06.03 13:09:01.
