data_PCOD9422531
_publ_section_title
;
Structure prediction by ZEFSAII (Michael W. Deem and Ramdas Pophale) SiO2 
 PCOD9422531
Probable space group: P C C A
;
_chemical_formula_sum "Si O2"
_cell_formula_units_Z 32
_cell_length_a 4.990700
_cell_length_b 23.019578
_cell_length_c 12.855265
_cell_angle_alpha 90.000000
_cell_angle_beta 90.000000
_cell_angle_gamma 90.000000
_cell_volume 1476.861795
_symmetry_space_group_name_H-M "P C C A"
_symmetry_group_IT_number 54
_symmetry_cell_setting 'orthorhombic'
loop_
_space_group_symop_operation_xyz
x,y,z
1/2-x,-y,z
1/2+x,-y,1/2-z
-x,y,1/2-z
-x,-y,-z
1/2+x,y,-z
1/2-x,y,1/2+z
x,-y,1/2+z
loop_
_atom_site_type_symbol
_atom_site_label
_atom_site_fract_x
_atom_site_fract_y
_atom_site_fract_z
Si Si1 0.500000 0.201735 0.250000
Si Si2 0.603981 0.885200 0.566728
Si Si3 0.750000 0.000000 0.681999
Si Si4 0.612460 0.621219 0.423529
Si Si5 0.250000 0.500000 0.078274
Si Si6 0.000000 0.284818 0.250000
O O1 0.507141 0.159122 0.348321
O O2 0.248419 0.242994 0.271682
O O3 0.409688 0.877142 0.468630
O O4 0.609492 0.949927 0.614150
O O5 0.500000 0.024546 0.750000
O O6 0.329896 0.623003 0.483770
O O7 0.698388 0.561017 0.364722
O O8 0.598148 0.673672 0.343385
O O9 0.500000 0.500000 0.000000
#
# Coordination Sequence:
#
# PCOD9422531 Si02
#       6
#     4   8   4   8   4   4
#     4  12  28  46  64  96 138 176 230 286 326 400
#     4  12  26  46  72 101 133 180 225 277 347 411
#     4  12  24  44  76 104 142 172 214 290 354 406
#     4  10  21  40  65  93 129 168 216 276 334 397
#     4   8  16  34  60  90 122 158 202 264 332 386
#     4  12  26  42  66  96 130 182 232 272 338 404
#
# _framework density 21.667565
#
# number of rings (size 3 to 8) (size 9 to 14) (size 15 to 20)
#    0.000    1.000    1.250    5.250    1.750    6.000 
#    0.000    8.750    0.000    0.000    0.000    0.000 
#    0.000    0.000    0.000    0.000    0.000    0.000 
#
# Total GULP energy -178589.237079 kJ/mol
# GULP energy per Si atom -5580.913659 kJ/mol
# Density = 2.161825 g / cm^3
# Si number density = 21.667565 Si / 1000 Ang^3
#
#
#
# Elastic Constant Matrix: (Units=GPa)
#
#
# Indices 1 2 3 4 5 6 
#
# 1 108.8564 5.6803 -5.4521 0.0000 0.0000 0.0000
# 2 5.6803 131.1673 39.9530 0.0000 0.0000 0.0000
# 3 -5.4521 39.9530 45.3822 0.0000 0.0000 0.0000
# 4 0.0000 0.0000 0.0000 4.0986 0.0000 0.0000
# 5 0.0000 0.0000 0.0000 0.0000 29.7884 0.0000
# 6 0.0000 0.0000 0.0000 0.0000 0.0000 55.6318
#
#
#
# Elastic Compliance Matrix: (Units=1/GPa)
#
#
# Indices 1 2 3 4 5 6 
#
# 1 0.009341 -0.001020 0.002020 0.000000 0.000000 0.000000
# 2 -0.001020 0.010529 -0.009392 0.000000 0.000000 0.000000
# 3 0.002020 -0.009392 0.030546 0.000000 0.000000 0.000000
# 4 0.000000 0.000000 0.000000 0.243983 0.000000 0.000000
# 5 0.000000 0.000000 0.000000 0.000000 0.033570 0.000000
# 6 0.000000 0.000000 0.000000 0.000000 0.000000 0.017975
#
#
# Mechanical properties :
#
#
# Convention : Reuss Voigt Hill
#
# Bulk Modulus (GPa) = 29.73321 40.64090 35.18706
# Shear Modulus (GPa) = 13.37122 34.25209 23.81165
#
# Velocity S-wave (km/s) = 2.48686 3.98024 3.31864
# Velocity P-wave (km/s) = 4.69022 6.31826 5.56411
#
# Compressibility (1/GPa) = 0.03363242
#
# Stress axis : x y z
#
# Youngs Moduli (GPa) = 107.05719 94.97896 32.73778
#
# Poissons Ratio (x) = 0.09686 -0.06613
# Poissons Ratio (y) = 0.10918 0.30746
# Poissons Ratio (z) = -0.21625 0.89200
#
# Static dielectric constant tensor:
#      x y z
#    x 1.752630 0.000000 0.000000 
#    y 0.000000 1.862310 0.000000 
#    z 0.000000 0.000000 1.784530 
# 
# From -- ./inp_files/6313.got.cif
#   From: 2010.05.17/outbox.cif.g08.bks.cpg/sg54_4_cif.got.tgz:6313.got - 2010.06.03 13:09:01.
