data_PCOD9422464
_publ_section_title
;
Structure prediction by ZEFSAII (Michael W. Deem and Ramdas Pophale) SiO2 
 PCOD9422464
Probable space group: P C C A
;
_chemical_formula_sum "Si O2"
_cell_formula_units_Z 60
_cell_length_a 9.806173
_cell_length_b 15.474204
_cell_length_c 17.468932
_cell_angle_alpha 90.000000
_cell_angle_beta 90.000000
_cell_angle_gamma 90.000000
_cell_volume 2650.783283
_symmetry_space_group_name_H-M "P C C A"
_symmetry_group_IT_number 54
_symmetry_cell_setting 'orthorhombic'
loop_
_space_group_symop_operation_xyz
x,y,z
1/2-x,-y,z
1/2+x,-y,1/2-z
-x,y,1/2-z
-x,-y,-z
1/2+x,y,-z
1/2-x,y,1/2+z
x,-y,1/2+z
loop_
_atom_site_type_symbol
_atom_site_label
_atom_site_fract_x
_atom_site_fract_y
_atom_site_fract_z
Si Si1 0.618399 0.055300 0.039985
Si Si2 0.407328 0.748288 0.932644
Si Si3 0.500000 0.318665 0.750000
Si Si4 0.049987 0.569554 0.595029
Si Si5 0.796956 0.253096 0.738477
Si Si6 0.673363 0.641541 0.985047
Si Si7 0.359956 0.935397 0.774939
Si Si8 0.126824 0.434005 0.695868
O O1 0.596364 0.157807 0.025735
O O2 0.634473 0.062909 0.132802
O O3 0.750000 0.000000 0.014835
O O4 0.500000 0.000000 0.000000
O O5 0.379142 0.743167 0.841507
O O6 0.552751 0.702674 0.950028
O O7 0.271906 0.701089 0.963096
O O8 0.475284 0.376862 0.673797
O O9 0.633816 0.262187 0.731527
O O10 0.198333 0.600314 0.563606
O O11 0.069308 0.468569 0.615352
O O12 0.918344 0.581921 0.541845
O O13 0.836699 0.157499 0.764150
O O14 0.833691 0.335417 0.790260
O O15 0.500000 0.973552 0.750000
O O16 0.250000 0.000000 0.745708
O O17 0.250000 0.500000 0.715842
O O18 0.000000 0.449278 0.750000
#
# Coordination Sequence:
#
# PCOD9422464 Si02
#       8
#     8   8   4   8   8   8   8   8
#     4  10  21  39  65  98 139 182 235 296 362 442
#     4  10  21  41  69 102 140 191 248 297 372 458
#     4  12  22  44  74 110 140 196 270 310 376 452
#     4  11  23  46  71 106 144 197 257 310 379 462
#     4  11  24  42  75 104 146 189 251 316 370 441
#     4  10  23  42  69  99 150 195 242 310 383 439
#     4  10  24  45  68 109 151 187 240 305 375 445
#     4  12  25  43  73 102 139 184 255 309 367 445
#
# _framework density 22.634819
#
# number of rings (size 3 to 8) (size 9 to 14) (size 15 to 20)
#    0.000    1.333    3.333    1.200    2.800    2.667 
#    0.000    0.667    0.000    0.000    0.000    0.000 
#    0.000    0.000    0.000    0.000    0.000    0.000 
#
# Total GULP energy -334571.517589 kJ/mol
# GULP energy per Si atom -5576.191960 kJ/mol
# Density = 2.258330 g / cm^3
# Si number density = 22.634819 Si / 1000 Ang^3
#
#
#
# Elastic Constant Matrix: (Units=GPa)
#
#
# Indices 1 2 3 4 5 6 
#
# 1 210.5703 79.6242 45.5194 0.0000 0.0000 0.0000
# 2 79.6242 140.3881 47.2466 0.0000 0.0000 0.0000
# 3 45.5194 47.2466 62.2639 0.0000 0.0000 0.0000
# 4 0.0000 0.0000 0.0000 20.5990 0.0000 0.0000
# 5 0.0000 0.0000 0.0000 0.0000 34.9124 0.0000
# 6 0.0000 0.0000 0.0000 0.0000 0.0000 47.3743
#
#
#
# Elastic Compliance Matrix: (Units=1/GPa)
#
#
# Indices 1 2 3 4 5 6 
#
# 1 0.006335 -0.002732 -0.002558 0.000000 0.000000 0.000000
# 2 -0.002732 0.010744 -0.006156 0.000000 0.000000 0.000000
# 3 -0.002558 -0.006156 0.022602 0.000000 0.000000 0.000000
# 4 0.000000 0.000000 0.000000 0.048546 0.000000 0.000000
# 5 0.000000 0.000000 0.000000 0.000000 0.028643 0.000000
# 6 0.000000 0.000000 0.000000 0.000000 0.000000 0.021108
#
#
# Mechanical properties :
#
#
# Convention : Reuss Voigt Hill
#
# Bulk Modulus (GPa) = 59.56126 84.22250 71.89188
# Shear Modulus (GPa) = 30.03594 36.63262 33.33428
#
# Velocity S-wave (km/s) = 3.64673 4.02732 3.84174
# Velocity P-wave (km/s) = 6.64098 7.67566 7.17699
#
# Compressibility (1/GPa) = 0.01678944
#
# Stress axis : x y z
#
# Youngs Moduli (GPa) = 157.84929 93.07250 44.24420
#
# Poissons Ratio (x) = 0.25429 0.11319
# Poissons Ratio (y) = 0.43127 0.27235
# Poissons Ratio (z) = 0.40382 0.57291
#
# Static dielectric constant tensor:
#      x y z
#    x 1.827510 0.000000 0.000000 
#    y 0.000000 1.899320 0.000000 
#    z 0.000000 0.000000 1.943610 
# 
# From -- ./inp_files/16808.got.cif
#   From: 2010.05.17/outbox.cif.g08.bks.cpg/sg54_9_cif.got.tgz:16808.got - 2010.06.03 13:09:01.
