data_PCOD9422622
_publ_section_title
;
Structure prediction by ZEFSAII (Michael W. Deem and Ramdas Pophale) SiO2 
 PCOD9422622
Probable space group: P C C A
;
_chemical_formula_sum "Si O2"
_cell_formula_units_Z 32
_cell_length_a 4.873380
_cell_length_b 21.529632
_cell_length_c 12.175002
_cell_angle_alpha 90.000000
_cell_angle_beta 90.000000
_cell_angle_gamma 90.000000
_cell_volume 1277.426509
_symmetry_space_group_name_H-M "P C C A"
_symmetry_group_IT_number 54
_symmetry_cell_setting 'orthorhombic'
loop_
_space_group_symop_operation_xyz
x,y,z
1/2-x,-y,z
1/2+x,-y,1/2-z
-x,y,1/2-z
-x,-y,-z
1/2+x,y,-z
1/2-x,y,1/2+z
x,-y,1/2+z
loop_
_atom_site_type_symbol
_atom_site_label
_atom_site_fract_x
_atom_site_fract_y
_atom_site_fract_z
Si Si1 0.950376 0.875403 0.066916
Si Si2 0.790289 0.427687 0.925971
Si Si3 0.250000 0.000000 0.821265
Si Si4 0.000000 0.657815 0.750000
Si Si5 0.175747 0.259098 0.919353
O O1 0.843927 0.812407 0.122482
O O2 0.871708 0.941662 0.114568
O O3 0.774180 0.872614 0.953712
O O4 0.750000 0.500000 0.895692
O O5 0.682450 0.385011 0.829519
O O6 0.598939 0.417146 0.033493
O O7 0.500000 0.025061 0.750000
O O8 0.204671 0.699528 0.822763
O O9 0.382027 0.268766 0.023066
#
# Coordination Sequence:
#
# PCOD9422622 Si02
#       5
#     8   8   4   4   8
#     4  10  21  42  63  85 126 174 213 262 335 391
#     4  10  24  44  66  97 136 171 216 269 319 388
#     4  12  24  36  62  98 126 158 222 278 320 388
#     4  12  24  42  74 100 134 178 224 264 342 384
#     4  10  24  43  64  97 134 173 222 275 325 396
#
# _framework density 25.050367000000001
#
# number of rings (size 3 to 8) (size 9 to 14) (size 15 to 20)
#    0.000    1.500    0.000    3.750    1.750    7.000 
#    0.000    0.000    0.000    0.000    0.000    0.000 
#    0.000    0.000    0.000    0.000    0.000    0.000 
#
# Total GULP energy -179313.872230 kJ/mol
# GULP energy per Si atom -5603.558507 kJ/mol
# Density = 2.499335 g / cm^3
# Si number density = 25.050367 Si / 1000 Ang^3
#
#
#
# Elastic Constant Matrix: (Units=GPa)
#
#
# Indices 1 2 3 4 5 6 
#
# 1 96.3923 -2.6491 0.2209 0.0000 0.0000 0.0000
# 2 -2.6491 147.8989 61.6062 0.0000 0.0000 0.0000
# 3 0.2209 61.6062 70.5527 0.0000 0.0000 0.0000
# 4 0.0000 0.0000 0.0000 4.3553 0.0000 0.0000
# 5 0.0000 0.0000 0.0000 0.0000 17.9902 0.0000
# 6 0.0000 0.0000 0.0000 0.0000 0.0000 21.1053
#
#
#
# Elastic Compliance Matrix: (Units=1/GPa)
#
#
# Indices 1 2 3 4 5 6 
#
# 1 0.010384 0.000314 -0.000306 0.000000 0.000000 0.000000
# 2 0.000314 0.010636 -0.009288 0.000000 0.000000 0.000000
# 3 -0.000306 -0.009288 0.022285 0.000000 0.000000 0.000000
# 4 0.000000 0.000000 0.000000 0.229606 0.000000 0.000000
# 5 0.000000 0.000000 0.000000 0.000000 0.055586 0.000000
# 6 0.000000 0.000000 0.000000 0.000000 0.000000 0.047381
#
#
# Mechanical properties :
#
#
# Convention : Reuss Voigt Hill
#
# Bulk Modulus (GPa) = 40.41583 48.13333 44.27458
# Shear Modulus (GPa) = 12.41659 25.73456 19.07558
#
# Velocity S-wave (km/s) = 2.22877 3.20865 2.76250
# Velocity P-wave (km/s) = 4.77410 5.74313 5.28089
#
# Compressibility (1/GPa) = 0.02474278
#
# Stress axis : x y z
#
# Youngs Moduli (GPa) = 96.30579 94.02093 44.87286
#
# Poissons Ratio (x) = -0.02948 0.01375
# Poissons Ratio (y) = -0.03020 0.41679
# Poissons Ratio (z) = 0.02950 0.87329
#
# Static dielectric constant tensor:
#      x y z
#    x 1.919080 0.000000 0.000000 
#    y 0.000000 2.048710 0.000000 
#    z 0.000000 0.000000 1.979970 
# 
# From -- ./inp_files/6270.got.cif
#   From: 2010.05.17/outbox.cif.g08.bks.cpg/sg54_4_cif.got.tgz:6270.got - 2010.06.03 13:09:01.
