data_PCOD9422668
_publ_section_title
;
Structure prediction by ZEFSAII (Michael W. Deem and Ramdas Pophale) SiO2 
 PCOD9422668
Probable space group: P C C A
;
_chemical_formula_sum "Si O2"
_cell_formula_units_Z 40
_cell_length_a 13.874469
_cell_length_b 13.379306
_cell_length_c 9.431915
_cell_angle_alpha 90.000000
_cell_angle_beta 90.000000
_cell_angle_gamma 90.000000
_cell_volume 1750.853609
_symmetry_space_group_name_H-M "P C C A"
_symmetry_group_IT_number 54
_symmetry_cell_setting 'orthorhombic'
loop_
_space_group_symop_operation_xyz
x,y,z
1/2-x,-y,z
1/2+x,-y,1/2-z
-x,y,1/2-z
-x,-y,-z
1/2+x,y,-z
1/2-x,y,1/2+z
x,-y,1/2+z
loop_
_atom_site_type_symbol
_atom_site_label
_atom_site_fract_x
_atom_site_fract_y
_atom_site_fract_z
Si Si1 0.348614 0.703594 0.100265
Si Si2 0.805852 0.399712 0.100470
Si Si3 0.435925 0.129656 0.113269
Si Si4 0.915834 0.917287 0.867706
Si Si5 0.535733 0.346454 0.411345
O O1 0.340472 0.649840 0.252818
O O2 0.346455 0.822203 0.136724
O O3 0.269163 0.667736 0.987969
O O4 0.447741 0.677370 0.017448
O O5 0.750000 0.500000 0.138949
O O6 0.893811 0.422672 0.991682
O O7 0.500000 0.142245 0.250000
O O8 0.401759 0.242145 0.088701
O O9 0.372571 0.029446 0.128073
O O10 0.518451 0.101461 0.003067
O O11 0.000000 0.913667 0.750000
O O12 0.500000 0.369640 0.250000
#
# Coordination Sequence:
#
# PCOD9422668 Si02
#       5
#     8   8   8   8   8
#     4  11  23  42  67  94 130 173 218 273 332 390
#     4  12  26  44  65  95 133 173 226 283 326 377
#     4   8  15  29  57  94 125 158 203 254 313 385
#     4   9  16  31  58  91 124 162 207 255 315 385
#     4  10  21  42  71  99 130 169 213 266 333 398
#
# _framework density 22.846
#
# number of rings (size 3 to 8) (size 9 to 14) (size 15 to 20)
#    0.000    2.000    0.000    4.800    0.000    0.800 
#    0.000    5.000    0.000    2.400    0.000    0.000 
#    0.000    0.000    0.000    0.000    0.000    0.000 
#
# Total GULP energy -222985.278337 kJ/mol
# GULP energy per Si atom -5574.631958 kJ/mol
# Density = 2.279400 g / cm^3
# Si number density = 22.846000 Si / 1000 Ang^3
#
#
#
# Elastic Constant Matrix: (Units=GPa)
#
#
# Indices 1 2 3 4 5 6 
#
# 1 70.2293 33.4072 36.8548 0.0000 0.0000 0.0000
# 2 33.4072 98.1061 31.1306 0.0000 0.0000 0.0000
# 3 36.8548 31.1306 149.2381 0.0000 0.0000 0.0000
# 4 0.0000 0.0000 0.0000 13.4533 0.0000 0.0000
# 5 0.0000 0.0000 0.0000 0.0000 19.0019 0.0000
# 6 0.0000 0.0000 0.0000 0.0000 0.0000 39.6578
#
#
#
# Elastic Compliance Matrix: (Units=1/GPa)
#
#
# Indices 1 2 3 4 5 6 
#
# 1 0.018550 -0.005208 -0.003495 0.000000 0.000000 0.000000
# 2 -0.005208 0.012378 -0.001296 0.000000 0.000000 0.000000
# 3 -0.003495 -0.001296 0.007834 0.000000 0.000000 0.000000
# 4 0.000000 0.000000 0.000000 0.074331 0.000000 0.000000
# 5 0.000000 0.000000 0.000000 0.000000 0.052626 0.000000
# 6 0.000000 0.000000 0.000000 0.000000 0.000000 0.025216
#
#
# Mechanical properties :
#
#
# Convention : Reuss Voigt Hill
#
# Bulk Modulus (GPa) = 53.29019 57.81763 55.55391
# Shear Modulus (GPa) = 23.02163 28.83466 25.92815
#
# Velocity S-wave (km/s) = 3.17785 3.55650 3.37250
# Velocity P-wave (km/s) = 6.06972 6.49826 6.28764
#
# Compressibility (1/GPa) = 0.01876518
#
# Stress axis : x y z
#
# Youngs Moduli (GPa) = 53.90735 80.79096 127.64804
#
# Poissons Ratio (x) = 0.42075 0.44609
# Poissons Ratio (y) = 0.28074 0.16541
# Poissons Ratio (z) = 0.18839 0.10469
#
# Static dielectric constant tensor:
#      x y z
#    x 1.835640 0.000000 0.000000 
#    y 0.000000 1.954000 0.000000 
#    z 0.000000 0.000000 1.767540 
# 
# From -- ./inp_files/3420.got.cif
#   From: 2010.05.17/outbox.cif.g08.bks.cpg/sg54_2_cif.got.tgz:3420.got - 2010.06.03 13:09:01.
