data_PCOD9422130
_publ_section_title
;
Structure prediction by ZEFSAII (Michael W. Deem and Ramdas Pophale) SiO2 
 PCOD9422130
Probable space group: P C C A
;
_chemical_formula_sum "Si O2"
_cell_formula_units_Z 40
_cell_length_a 28.785787
_cell_length_b 13.950321
_cell_length_c 5.384355
_cell_angle_alpha 90.000000
_cell_angle_beta 90.000000
_cell_angle_gamma 90.000000
_cell_volume 2162.200654
_symmetry_space_group_name_H-M "P C C A"
_symmetry_group_IT_number 54
_symmetry_cell_setting 'orthorhombic'
loop_
_space_group_symop_operation_xyz
x,y,z
1/2-x,-y,z
1/2+x,-y,1/2-z
-x,y,1/2-z
-x,-y,-z
1/2+x,y,-z
1/2-x,y,1/2+z
x,-y,1/2+z
loop_
_atom_site_type_symbol
_atom_site_label
_atom_site_fract_x
_atom_site_fract_y
_atom_site_fract_z
Si Si1 0.531547 0.407830 0.448341
Si Si2 0.556036 0.056612 0.750891
Si Si3 0.375177 0.640329 0.738220
Si Si4 0.408819 0.727286 0.252005
Si Si5 0.769407 0.607449 0.184004
O O1 0.500000 0.349447 0.250000
O O2 0.500000 0.500000 0.500000
O O3 0.581407 0.431217 0.317266
O O4 0.547977 0.342520 0.676184
O O5 0.500000 0.063811 0.750000
O O6 0.576192 0.163219 0.752637
O O7 0.569670 0.000525 0.500056
O O8 0.375941 0.705787 0.490105
O O9 0.324301 0.598750 0.773218
O O10 0.388185 0.695666 0.989508
O O11 0.750000 0.500000 0.161665
O O12 0.744647 0.654307 0.422354
#
# Coordination Sequence:
#
# PCOD9422130 Si02
#       5
#     8   8   8   8   8
#     4  10  26  36  55  82 120 175 216 239 289 354
#     4  10  21  35  60  88 116 158 207 250 303 367
#     4  10  23  39  58  84 116 163 208 257 304 353
#     4  10  23  39  60  80 129 153 209 254 304 353
#     4  10  21  38  60  80 109 152 205 262 305 352
#
# _framework density 18.499669999999998
#
# number of rings (size 3 to 8) (size 9 to 14) (size 15 to 20)
#    1.200    0.800    0.000    2.400    5.600    4.000 
#    0.000    0.000    0.000    0.000    0.000    0.000 
#    0.000   56.000    0.000    0.000    0.000    0.000 
#
# Total GULP energy -222981.830904 kJ/mol
# GULP energy per Si atom -5574.545773 kJ/mol
# Density = 1.845756 g / cm^3
# Si number density = 18.499670 Si / 1000 Ang^3
#
#
#
# Elastic Constant Matrix: (Units=GPa)
#
#
# Indices 1 2 3 4 5 6 
#
# 1 83.2088 29.5554 2.7943 0.0000 0.0000 0.0000
# 2 29.5554 110.1470 40.6519 0.0000 0.0000 0.0000
# 3 2.7943 40.6519 141.4330 0.0000 0.0000 0.0000
# 4 0.0000 0.0000 0.0000 18.1141 0.0000 0.0000
# 5 0.0000 0.0000 0.0000 0.0000 18.9355 0.0000
# 6 0.0000 0.0000 0.0000 0.0000 0.0000 20.4997
#
#
#
# Elastic Compliance Matrix: (Units=1/GPa)
#
#
# Indices 1 2 3 4 5 6 
#
# 1 0.013377 -0.003906 0.000858 0.000000 0.000000 0.000000
# 2 -0.003906 0.011297 -0.003170 0.000000 0.000000 0.000000
# 3 0.000858 -0.003170 0.007965 0.000000 0.000000 0.000000
# 4 0.000000 0.000000 0.000000 0.055206 0.000000 0.000000
# 5 0.000000 0.000000 0.000000 0.000000 0.052811 0.000000
# 6 0.000000 0.000000 0.000000 0.000000 0.000000 0.048781
#
#
# Mechanical properties :
#
#
# Convention : Reuss Voigt Hill
#
# Bulk Modulus (GPa) = 49.49774 53.42134 51.45954
# Shear Modulus (GPa) = 23.96874 28.96233 26.46554
#
# Velocity S-wave (km/s) = 3.60339 3.96101 3.78642
# Velocity P-wave (km/s) = 6.64279 7.06109 6.85513
#
# Compressibility (1/GPa) = 0.02020294
#
# Stress axis : x y z
#
# Youngs Moduli (GPa) = 74.75761 88.52074 125.55510
#
# Poissons Ratio (x) = 0.34577 -0.10778
# Poissons Ratio (y) = 0.29201 0.39799
# Poissons Ratio (z) = -0.06418 0.28060
#
# Static dielectric constant tensor:
#      x y z
#    x 1.673250 0.000000 0.000000 
#    y 0.000000 1.572670 0.000000 
#    z 0.000000 0.000000 1.879520 
# 
# From -- ./inp_files/2104.got.cif
#   From: 2010.05.17/outbox.cif.g08.bks.cpg/sg54_2_cif.got.tgz:2104.got - 2010.06.03 13:09:01.
