data_PCOD9422042
_publ_section_title
;
Structure prediction by ZEFSAII (Michael W. Deem and Ramdas Pophale) SiO2 
 PCOD9422042
Probable space group: P C C A
;
_chemical_formula_sum "Si O2"
_cell_formula_units_Z 48
_cell_length_a 14.998857
_cell_length_b 10.420017
_cell_length_c 16.634687
_cell_angle_alpha 90.000000
_cell_angle_beta 90.000000
_cell_angle_gamma 90.000000
_cell_volume 2599.807700
_symmetry_space_group_name_H-M "P C C A"
_symmetry_group_IT_number 54
_symmetry_cell_setting 'orthorhombic'
loop_
_space_group_symop_operation_xyz
x,y,z
1/2-x,-y,z
1/2+x,-y,1/2-z
-x,y,1/2-z
-x,-y,-z
1/2+x,y,-z
1/2-x,y,1/2+z
x,-y,1/2+z
loop_
_atom_site_type_symbol
_atom_site_label
_atom_site_fract_x
_atom_site_fract_y
_atom_site_fract_z
Si Si1 0.410995 0.722749 0.303434
Si Si2 0.687865 0.883492 0.852819
Si Si3 0.983273 0.629671 0.950954
Si Si4 0.694993 0.629758 0.342585
Si Si5 0.652585 0.985423 0.673001
Si Si6 0.501941 0.120516 0.059867
O O1 0.500000 0.726777 0.250000
O O2 0.437813 0.656378 0.386661
O O3 0.339598 0.649097 0.248832
O O4 0.382155 0.869684 0.315613
O O5 0.743584 0.753012 0.860304
O O6 0.667773 0.918741 0.759537
O O7 0.593803 0.874106 0.897086
O O8 0.750000 0.000000 0.883736
O O9 0.891119 0.625899 0.900636
O O10 0.000000 0.500000 0.000000
O O11 0.981229 0.750171 0.010730
O O12 0.750000 0.500000 0.351195
O O13 0.580834 0.906749 0.622714
O O14 0.750000 0.000000 0.633319
O O15 0.500000 0.000000 0.000000
#
# Coordination Sequence:
#
# PCOD9422042 Si02
#       6
#     8   8   8   8   8   8
#     4  10  20  42  69  89 126 169 211 265 321 373
#     4  11  22  40  65  95 126 165 219 269 313 376
#     4  11  25  45  62  93 136 174 206 260 325 387
#     4  11  23  43  68  93 124 170 219 264 316 380
#     4  11  22  40  67  99 125 162 221 270 313 376
#     4  12  24  39  64  94 132 171 208 262 329 383
#
# _framework density 18.462904999999999
#
# number of rings (size 3 to 8) (size 9 to 14) (size 15 to 20)
#    0.000    1.000    5.000    3.500    0.000    3.333 
#    3.000    3.333    0.000    0.000    0.000    0.000 
#    0.000    0.000    0.000    0.000    0.000    0.000 
#
# Total GULP energy -268250.492083 kJ/mol
# GULP energy per Si atom -5588.551918 kJ/mol
# Density = 1.842088 g / cm^3
# Si number density = 18.462905 Si / 1000 Ang^3
#
#
#
# Elastic Constant Matrix: (Units=GPa)
#
#
# Indices 1 2 3 4 5 6 
#
# 1 137.6102 71.6975 65.9908 0.0000 0.0000 0.0000
# 2 71.6975 183.8267 73.6430 0.0000 0.0000 0.0000
# 3 65.9908 73.6430 102.2238 0.0000 0.0000 0.0000
# 4 0.0000 0.0000 0.0000 17.1483 0.0000 0.0000
# 5 0.0000 0.0000 0.0000 0.0000 17.7271 0.0000
# 6 0.0000 0.0000 0.0000 0.0000 0.0000 39.6777
#
#
#
# Elastic Compliance Matrix: (Units=1/GPa)
#
#
# Indices 1 2 3 4 5 6 
#
# 1 0.011044 -0.002040 -0.005660 0.000000 0.000000 0.000000
# 2 -0.002040 0.008024 -0.004463 0.000000 0.000000 0.000000
# 3 -0.005660 -0.004463 0.016652 0.000000 0.000000 0.000000
# 4 0.000000 0.000000 0.000000 0.058315 0.000000 0.000000
# 5 0.000000 0.000000 0.000000 0.000000 0.056411 0.000000
# 6 0.000000 0.000000 0.000000 0.000000 0.000000 0.025203
#
#
# Mechanical properties :
#
#
# Convention : Reuss Voigt Hill
#
# Bulk Modulus (GPa) = 87.77461 94.03590 90.90525
# Shear Modulus (GPa) = 24.53726 29.06593 26.80159
#
# Velocity S-wave (km/s) = 3.64950 3.97203 3.81418
# Velocity P-wave (km/s) = 8.08720 8.48993 8.29101
#
# Compressibility (1/GPa) = 0.01139282
#
# Stress axis : x y z
#
# Youngs Moduli (GPa) = 90.54733 124.63146 60.05453
#
# Poissons Ratio (x) = 0.25426 0.33989
# Poissons Ratio (y) = 0.18472 0.26804
# Poissons Ratio (z) = 0.51247 0.55627
#
# Static dielectric constant tensor:
#      x y z
#    x 1.639600 0.000000 0.000000 
#    y 0.000000 1.581550 0.000000 
#    z 0.000000 0.000000 1.642870 
# 
# From -- ./inp_files/18050.got.cif
#   From: 2010.05.17/outbox.cif.g08.bks.cpg/sg54_10_cif.got.tgz:18050.got - 2010.06.03 13:09:01.
