data_PCOD9422576
_publ_section_title
;
Structure prediction by ZEFSAII (Michael W. Deem and Ramdas Pophale) SiO2 
 PCOD9422576
Probable space group: P C C A
;
_chemical_formula_sum "Si O2"
_cell_formula_units_Z 48
_cell_length_a 13.237907
_cell_length_b 33.034387
_cell_length_c 5.409453
_cell_angle_alpha 90.000000
_cell_angle_beta 90.000000
_cell_angle_gamma 90.000000
_cell_volume 2365.587027
_symmetry_space_group_name_H-M "P C C A"
_symmetry_group_IT_number 54
_symmetry_cell_setting 'orthorhombic'
loop_
_space_group_symop_operation_xyz
x,y,z
1/2-x,-y,z
1/2+x,-y,1/2-z
-x,y,1/2-z
-x,-y,-z
1/2+x,y,-z
1/2-x,y,1/2+z
x,-y,1/2+z
loop_
_atom_site_type_symbol
_atom_site_label
_atom_site_fract_x
_atom_site_fract_y
_atom_site_fract_z
Si Si1 0.134312 0.483843 0.343229
Si Si2 0.815130 0.796508 0.255378
Si Si3 0.500000 0.641943 0.750000
Si Si4 0.000000 0.858057 0.250000
Si Si5 0.000000 0.410352 0.250000
Si Si6 0.184870 0.296508 0.755378
Si Si7 0.865688 0.983843 0.843229
Si Si8 0.500000 0.910352 0.250000
O O1 0.250000 0.500000 0.367369
O O2 0.093849 0.489135 0.618916
O O3 0.099979 0.439142 0.261838
O O4 0.754418 0.801397 0.512173
O O5 0.903042 0.829082 0.244273
O O6 0.853575 0.750000 0.250000
O O7 0.502786 0.615494 0.500195
O O8 0.403042 0.670918 0.744273
O O9 0.997214 0.884506 0.499805
O O10 0.254418 0.301397 0.512174
O O11 0.900021 0.939142 0.761838
O O12 0.750000 0.000000 0.867370
O O13 0.906151 0.010865 0.618916
#
# Coordination Sequence:
#
# PCOD9422576 Si02
#       8
#     8   8   4   4   4   8   8   4
#     4  10  21  41  63  86 117 169 220 259 321 393
#     4  10  22  44  70  97 135 182 220 255 312 399
#     4  12  25  43  64 106 137 168 213 276 340 369
#     4  12  25  43  64 106 137 168 213 276 340 369
#     4  12  24  41  63  96 133 162 215 286 325 379
#     4  10  22  44  70  97 135 182 220 255 312 399
#     4  10  21  41  63  86 117 169 220 259 321 393
#     4  12  24  41  63  96 133 162 215 286 325 379
#
# _framework density 20.290945000000001
#
# number of rings (size 3 to 8) (size 9 to 14) (size 15 to 20)
#    0.000    1.333    0.000    5.500    0.000    0.000 
#   36.000    6.667    0.000    0.000    0.000    0.000 
#    0.000    0.000    0.000    0.000    0.000    0.000 
#
# Total GULP energy -267645.839637 kJ/mol
# GULP energy per Si atom -5575.954992 kJ/mol
# Density = 2.024476 g / cm^3
# Si number density = 20.290945 Si / 1000 Ang^3
#
#
#
# Elastic Constant Matrix: (Units=GPa)
#
#
# Indices 1 2 3 4 5 6 
#
# 1 105.2322 72.1672 40.1990 0.0000 0.0000 0.0000
# 2 72.1672 154.1152 71.6972 0.0000 0.0000 0.0000
# 3 40.1990 71.6972 188.9964 0.0000 0.0000 0.0000
# 4 0.0000 0.0000 0.0000 0.8405 0.0000 0.0000
# 5 0.0000 0.0000 0.0000 0.0000 21.5938 0.0000
# 6 0.0000 0.0000 0.0000 0.0000 0.0000 -5.7413
#
#
#
# Elastic Compliance Matrix: (Units=1/GPa)
#
#
# Indices 1 2 3 4 5 6 
#
# 1 0.014054 -0.006303 -0.000598 0.000000 0.000000 0.000000
# 2 -0.006303 0.010706 -0.002721 0.000000 0.000000 0.000000
# 3 -0.000598 -0.002721 0.006450 0.000000 0.000000 0.000000
# 4 0.000000 0.000000 0.000000 1.189778 0.000000 0.000000
# 5 0.000000 0.000000 0.000000 0.000000 0.046310 0.000000
# 6 0.000000 0.000000 0.000000 0.000000 0.000000 -0.174177
#
#
# Mechanical properties :
#
#
# Convention : Reuss Voigt Hill
#
# Bulk Modulus (GPa) = 83.56539 90.71898 87.14219
# Shear Modulus (GPa) = 4.47887 20.95729 12.71808
#
# Velocity S-wave (km/s) = 1.48732 3.21727 2.50629
# Velocity P-wave (km/s) = 6.65000 7.65554 7.17042
#
# Compressibility (1/GPa) = 0.01196668
#
# Stress axis : x y z
#
# Youngs Moduli (GPa) = 71.15656 93.40854 155.02705
#
# Poissons Ratio (x) = 0.58871 0.09274
# Poissons Ratio (y) = 0.44846 0.42179
# Poissons Ratio (z) = 0.04257 0.25414
#
# Static dielectric constant tensor:
#      x y z
#    x 1.706900 0.000000 0.000000 
#    y 0.000000 1.711300 0.000000 
#    z 0.000000 0.000000 1.726560 
# 
# From -- ./inp_files/663.got.cif
#   From: 2010.05.17/outbox.cif.g08.bks.cpg/sg54_1_cif.got.tgz:663.got - 2010.06.03 13:09:01.
