data_PCOD9422085
_publ_section_title
;
Structure prediction by ZEFSAII (Michael W. Deem and Ramdas Pophale) SiO2 
 PCOD9422085
Probable space group: P C C A
;
_chemical_formula_sum "Si O2"
_cell_formula_units_Z 32
_cell_length_a 11.652947
_cell_length_b 9.562965
_cell_length_c 12.637098
_cell_angle_alpha 90.000000
_cell_angle_beta 90.000000
_cell_angle_gamma 90.000000
_cell_volume 1408.236806
_symmetry_space_group_name_H-M "P C C A"
_symmetry_group_IT_number 54
_symmetry_cell_setting 'orthorhombic'
loop_
_space_group_symop_operation_xyz
x,y,z
1/2-x,-y,z
1/2+x,-y,1/2-z
-x,y,1/2-z
-x,-y,-z
1/2+x,y,-z
1/2-x,y,1/2+z
x,-y,1/2+z
loop_
_atom_site_type_symbol
_atom_site_label
_atom_site_fract_x
_atom_site_fract_y
_atom_site_fract_z
Si Si1 0.750000 0.000000 0.602663
Si Si2 0.437927 0.147163 0.020721
Si Si3 0.250000 0.500000 0.718103
Si Si4 0.415199 0.714452 0.149937
Si Si5 0.818019 0.204060 0.768065
O O1 0.816339 0.884166 0.535654
O O2 0.667128 0.910771 0.678690
O O3 0.514107 0.254261 0.954327
O O4 0.410992 0.191732 0.139815
O O5 0.500000 0.000000 0.000000
O O6 0.148292 0.565618 0.648924
O O7 0.301325 0.637127 0.775276
O O8 0.500000 0.721254 0.250000
O O9 0.308404 0.818263 0.176501
#
# Coordination Sequence:
#
# PCOD9422085 Si02
#       5
#     4   8   4   8   8
#     4  12  22  42  66  94 140 176 226 286 328 420
#     4  12  24  38  68 101 134 179 225 286 344 393
#     4   8  22  44  66  98 134 176 232 276 324 430
#     4  10  20  45  67  91 139 182 211 282 339 391
#     4  10  23  43  64 101 131 174 236 269 341 418
#
# _framework density 22.723452999999999
#
# number of rings (size 3 to 8) (size 9 to 14) (size 15 to 20)
#    1.500    0.000    2.500    3.750    0.000    1.000 
#    4.500    5.000    0.000    0.000    0.000    0.000 
#    0.000    0.000    0.000    0.000    0.000    0.000 
#
# Total GULP energy -178482.968225 kJ/mol
# GULP energy per Si atom -5577.592757 kJ/mol
# Density = 2.267173 g / cm^3
# Si number density = 22.723453 Si / 1000 Ang^3
#
#
#
# Elastic Constant Matrix: (Units=GPa)
#
#
# Indices 1 2 3 4 5 6 
#
# 1 87.5298 -3.6789 15.8745 0.0000 0.0000 0.0000
# 2 -3.6789 88.2484 16.7820 0.0000 0.0000 0.0000
# 3 15.8745 16.7820 67.0241 0.0000 0.0000 0.0000
# 4 0.0000 0.0000 0.0000 -6.4229 0.0000 0.0000
# 5 0.0000 0.0000 0.0000 0.0000 24.8115 0.0000
# 6 0.0000 0.0000 0.0000 0.0000 0.0000 54.5858
#
#
#
# Elastic Compliance Matrix: (Units=1/GPa)
#
#
# Indices 1 2 3 4 5 6 
#
# 1 0.012038 0.001096 -0.003126 0.000000 0.000000 0.000000
# 2 0.001096 0.011998 -0.003264 0.000000 0.000000 0.000000
# 3 -0.003126 -0.003264 0.016477 0.000000 0.000000 0.000000
# 4 0.000000 0.000000 0.000000 -0.155694 0.000000 0.000000
# 5 0.000000 0.000000 0.000000 0.000000 0.040304 0.000000
# 6 0.000000 0.000000 0.000000 0.000000 0.000000 0.018320
#
#
# Mechanical properties :
#
#
# Convention : Reuss Voigt Hill
#
# Bulk Modulus (GPa) = 33.41483 33.41752 33.41617
# Shear Modulus (GPa) = -138.90807 28.84986 -55.02910
#
# Velocity S-wave (km/s) = -7.82704 3.56702 -4.92640
# Velocity P-wave (km/s) = 8.18208 5.63054 4.19783
#
# Compressibility (1/GPa) = 0.02992683
#
# Stress axis : x y z
#
# Youngs Moduli (GPa) = 83.07302 83.34715 60.68886
#
# Poissons Ratio (x) = -0.09136 0.18969
# Poissons Ratio (y) = -0.09106 0.19808
# Poissons Ratio (z) = 0.25965 0.27203
#
# Static dielectric constant tensor:
#      x y z
#    x 1.919920 0.000000 0.000000 
#    y 0.000000 1.908180 0.000000 
#    z 0.000000 0.000000 1.807500 
# 
# From -- ./inp_files/7322.got.cif
#   From: 2010.05.17/outbox.cif.g08.bks.cpg/sg54_4_cif.got.tgz:7322.got - 2010.06.03 13:09:01.
