data_PCOD9422884
_publ_section_title
;
Structure prediction by ZEFSAII (Michael W. Deem and Ramdas Pophale) SiO2 
 PCOD9422884
Probable space group: P C C A
;
_chemical_formula_sum "Si O2"
_cell_formula_units_Z 36
_cell_length_a 15.642700
_cell_length_b 7.287156
_cell_length_c 14.797900
_cell_angle_alpha 90.000000
_cell_angle_beta 90.000000
_cell_angle_gamma 90.000000
_cell_volume 1686.824388
_symmetry_space_group_name_H-M "P C C A"
_symmetry_group_IT_number 54
_symmetry_cell_setting 'orthorhombic'
loop_
_space_group_symop_operation_xyz
x,y,z
1/2-x,-y,z
1/2+x,-y,1/2-z
-x,y,1/2-z
-x,-y,-z
1/2+x,y,-z
1/2-x,y,1/2+z
x,-y,1/2+z
loop_
_atom_site_type_symbol
_atom_site_label
_atom_site_fract_x
_atom_site_fract_y
_atom_site_fract_z
Si Si1 0.921920 0.049515 0.067544
Si Si2 0.687856 0.342368 0.355606
Si Si3 0.353635 0.543243 0.454994
Si Si4 0.750000 0.000000 0.467795
Si Si5 0.576067 0.732377 0.690783
O O1 0.893407 0.261811 0.079104
O O2 0.944185 0.936202 0.156663
O O3 0.834001 0.967668 0.026885
O O4 0.000000 0.000000 0.000000
O O5 0.750000 0.500000 0.323717
O O6 0.631794 0.437780 0.436205
O O7 0.648431 0.259943 0.266050
O O8 0.733374 0.178378 0.408429
O O9 0.250000 0.500000 0.445820
O O10 0.400186 0.389408 0.395886
O O11 0.500000 0.648434 0.750000
#
# Coordination Sequence:
#
# PCOD9422884 Si02
#       5
#     8   8   8   4   8
#     4  11  24  44  68  95 131 178 227 277 341 411
#     4  10  22  39  63  93 123 166 220 272 335 404
#     4  10  23  45  68  93 132 179 224 279 350 415
#     4  10  22  42  68  90 130 180 216 280 348 400
#     4  12  25  39  63  98 132 174 225 278 336 408
#
# _framework density 21.34188
#
# number of rings (size 3 to 8) (size 9 to 14) (size 15 to 20)
#    0.000    1.333    0.000    7.333    0.000   10.667 
#    0.000    0.000    0.000    0.000    0.000    0.000 
#    0.000    0.000    0.000    0.000    0.000    0.000 
#
# Total GULP energy -200669.375291 kJ/mol
# GULP energy per Si atom -5574.149314 kJ/mol
# Density = 2.129330 g / cm^3
# Si number density = 21.341880 Si / 1000 Ang^3
#
#
#
# Elastic Constant Matrix: (Units=GPa)
#
#
# Indices 1 2 3 4 5 6 
#
# 1 78.1630 26.0458 27.6098 0.0000 0.0000 0.0000
# 2 26.0458 106.4688 36.6377 0.0000 0.0000 0.0000
# 3 27.6098 36.6377 71.7123 0.0000 0.0000 0.0000
# 4 0.0000 0.0000 0.0000 9.7452 0.0000 0.0000
# 5 0.0000 0.0000 0.0000 0.0000 23.5300 0.0000
# 6 0.0000 0.0000 0.0000 0.0000 0.0000 17.6223
#
#
#
# Elastic Compliance Matrix: (Units=1/GPa)
#
#
# Indices 1 2 3 4 5 6 
#
# 1 0.015173 -0.002064 -0.004787 0.000000 0.000000 0.000000
# 2 -0.002064 0.011677 -0.005171 0.000000 0.000000 0.000000
# 3 -0.004787 -0.005171 0.018429 0.000000 0.000000 0.000000
# 4 0.000000 0.000000 0.000000 0.102614 0.000000 0.000000
# 5 0.000000 0.000000 0.000000 0.000000 0.042499 0.000000
# 6 0.000000 0.000000 0.000000 0.000000 0.000000 0.056746
#
#
# Mechanical properties :
#
#
# Convention : Reuss Voigt Hill
#
# Bulk Modulus (GPa) = 47.09323 48.54786 47.82054
# Shear Modulus (GPa) = 17.96874 21.24954 19.60914
#
# Velocity S-wave (km/s) = 2.90478 3.15885 3.03448
# Velocity P-wave (km/s) = 5.77619 6.00846 5.89347
#
# Compressibility (1/GPa) = 0.02123448
#
# Stress axis : x y z
#
# Youngs Moduli (GPa) = 65.90837 85.63964 54.26131
#
# Poissons Ratio (x) = 0.17680 0.25974
# Poissons Ratio (y) = 0.13607 0.28058
# Poissons Ratio (z) = 0.31549 0.44283
#
# Static dielectric constant tensor:
#      x y z
#    x 1.861010 0.000000 0.000000 
#    y 0.000000 1.831750 0.000000 
#    z 0.000000 0.000000 1.874910 
# 
# From -- ./inp_files/13086.got.cif
#   From: 2010.05.17/outbox.cif.g08.bks.cpg/sg54_7_cif.got.tgz:13086.got - 2010.06.03 13:09:01.
