data_PCOD9422398
_publ_section_title
;
Structure prediction by ZEFSAII (Michael W. Deem and Ramdas Pophale) SiO2 
 PCOD9422398
Probable space group: P C C A
;
_chemical_formula_sum "Si O2"
_cell_formula_units_Z 64
_cell_length_a 9.743841
_cell_length_b 14.192705
_cell_length_c 24.281740
_cell_angle_alpha 90.000000
_cell_angle_beta 90.000000
_cell_angle_gamma 90.000000
_cell_volume 3357.957297
_symmetry_space_group_name_H-M "P C C A"
_symmetry_group_IT_number 54
_symmetry_cell_setting 'orthorhombic'
loop_
_space_group_symop_operation_xyz
x,y,z
1/2-x,-y,z
1/2+x,-y,1/2-z
-x,y,1/2-z
-x,-y,-z
1/2+x,y,-z
1/2-x,y,1/2+z
x,-y,1/2+z
loop_
_atom_site_type_symbol
_atom_site_label
_atom_site_fract_x
_atom_site_fract_y
_atom_site_fract_z
Si Si1 0.602334 0.701080 0.459580
Si Si2 0.354395 0.085629 0.779058
Si Si3 0.578444 0.777792 0.129279
Si Si4 0.349853 0.679163 0.914883
Si Si5 0.143872 0.665702 0.116956
Si Si6 0.391642 0.447027 0.790096
Si Si7 0.010663 0.513019 0.909075
Si Si8 0.828763 0.272706 0.287020
O O1 0.501354 0.774361 0.429121
O O2 0.636381 0.716003 0.523006
O O3 0.746176 0.701476 0.427210
O O4 0.527215 0.598113 0.450064
O O5 0.500000 0.061381 0.750000
O O6 0.375881 0.125782 0.841034
O O7 0.299952 0.174979 0.743564
O O8 0.250000 0.000000 0.777586
O O9 0.715689 0.715492 0.116844
O O10 0.458947 0.744548 0.172395
O O11 0.491374 0.708542 0.885257
O O12 0.369804 0.564820 0.920550
O O13 0.209632 0.685500 0.175460
O O14 0.116677 0.557061 0.101075
O O15 0.250000 0.500000 0.795565
O O16 0.500000 0.498523 0.750000
O O17 0.457567 0.441934 0.850038
O O18 0.359264 0.350623 0.758744
#
# Coordination Sequence:
#
# PCOD9422398 Si02
#       8
#     8   8   8   8   8   8   8   8
#     4  11  19  38  56  73 115 163 197 250 291 342
#     4  10  22  41  66  97 119 152 185 234 307 374
#     4  10  22  39  60  85 114 149 198 237 301 358
#     4  10  23  35  52  82 110 154 206 252 289 326
#     4   9  21  35  50  77 108 151 201 244 287 330
#     4  12  24  35  54  78 115 162 200 238 286 350
#     4  10  23  33  49  78 112 152 214 243 287 327
#     4  10  21  39  61  79 121 158 189 233 301 363
#
# _framework density 19.059207000000001
#
# number of rings (size 3 to 8) (size 9 to 14) (size 15 to 20)
#    0.750    1.000    0.000    5.625    5.250    1.000 
#    2.250    0.625    0.000    0.750    0.000    4.375 
#    0.000    0.000    0.000    0.000    0.000    0.000 
#
# Total GULP energy -356688.932584 kJ/mol
# GULP energy per Si atom -5573.264572 kJ/mol
# Density = 1.901583 g / cm^3
# Si number density = 19.059207 Si / 1000 Ang^3
#
#
#
# Elastic Constant Matrix: (Units=GPa)
#
#
# Indices 1 2 3 4 5 6 
#
# 1 102.3695 19.4945 22.0705 0.0000 0.0000 0.0000
# 2 19.4945 48.1422 13.9478 0.0000 0.0000 0.0000
# 3 22.0705 13.9478 92.5640 0.0000 0.0000 0.0000
# 4 0.0000 0.0000 0.0000 15.4405 0.0000 0.0000
# 5 0.0000 0.0000 0.0000 0.0000 25.5129 0.0000
# 6 0.0000 0.0000 0.0000 0.0000 0.0000 -19.8575
#
#
#
# Elastic Compliance Matrix: (Units=1/GPa)
#
#
# Indices 1 2 3 4 5 6 
#
# 1 0.010937 -0.003841 -0.002029 0.000000 0.000000 0.000000
# 2 -0.003841 0.023069 -0.002560 0.000000 0.000000 0.000000
# 3 -0.002029 -0.002560 0.011673 0.000000 0.000000 0.000000
# 4 0.000000 0.000000 0.000000 0.064765 0.000000 0.000000
# 5 0.000000 0.000000 0.000000 0.000000 0.039196 0.000000
# 6 0.000000 0.000000 0.000000 0.000000 0.000000 -0.050359
#
#
# Mechanical properties :
#
#
# Convention : Reuss Voigt Hill
#
# Bulk Modulus (GPa) = 34.69995 39.34459 37.02227
# Shear Modulus (GPa) = 39.76207 16.72339 28.24273
#
# Velocity S-wave (km/s) = 4.57249 2.96538 3.85365
# Velocity P-wave (km/s) = 6.79138 5.69323 6.26640
#
# Compressibility (1/GPa) = 0.02881849
#
# Stress axis : x y z
#
# Youngs Moduli (GPa) = 91.42886 43.34828 85.66831
#
# Poissons Ratio (x) = 0.16650 0.17383
# Poissons Ratio (y) = 0.35119 0.21933
# Poissons Ratio (z) = 0.18552 0.11098
#
# Static dielectric constant tensor:
#      x y z
#    x 1.724790 0.000000 0.000000 
#    y 0.000000 1.686170 0.000000 
#    z 0.000000 0.000000 1.683090 
# 
# From -- ./inp_files/23692.got.cif
#   From: 2010.05.17/outbox.cif.g08.bks.cpg/sg54_12_cif.got.tgz:23692.got - 2010.06.03 13:09:01.
