data_PCOD9422462
_publ_section_title
;
Structure prediction by ZEFSAII (Michael W. Deem and Ramdas Pophale) SiO2 
 PCOD9422462
Probable space group: P C C A
;
_chemical_formula_sum "Si O2"
_cell_formula_units_Z 40
_cell_length_a 26.583174
_cell_length_b 12.627596
_cell_length_c 5.247737
_cell_angle_alpha 90.000000
_cell_angle_beta 90.000000
_cell_angle_gamma 90.000000
_cell_volume 1761.568656
_symmetry_space_group_name_H-M "P C C A"
_symmetry_group_IT_number 54
_symmetry_cell_setting 'orthorhombic'
loop_
_space_group_symop_operation_xyz
x,y,z
1/2-x,-y,z
1/2+x,-y,1/2-z
-x,y,1/2-z
-x,-y,-z
1/2+x,y,-z
1/2-x,y,1/2+z
x,-y,1/2+z
loop_
_atom_site_type_symbol
_atom_site_label
_atom_site_fract_x
_atom_site_fract_y
_atom_site_fract_z
Si Si1 0.123598 0.430792 0.611427
Si Si2 0.784360 0.269382 0.923358
Si Si3 0.432399 0.959799 0.351049
Si Si4 0.180552 0.042663 0.742538
Si Si5 0.465840 0.268689 0.999832
O O1 0.123155 0.520749 0.394263
O O2 0.173525 0.359835 0.585479
O O3 0.074929 0.358835 0.556390
O O4 0.745362 0.276752 0.688739
O O5 0.812333 0.156887 0.880873
O O6 0.436245 0.840773 0.447414
O O7 0.454806 0.035364 0.568464
O O8 0.376724 0.006086 0.293569
O O9 0.201598 0.961224 0.530385
O O10 0.500000 0.256604 0.250000
O O11 0.500000 0.291177 0.750000
#
# Coordination Sequence:
#
# PCOD9422462 Si02
#       5
#     8   8   8   8   8
#     4  12  28  50  76 102 136 183 236 304 371 423
#     4  12  27  46  72 106 142 184 237 292 352 424
#     4  10  21  39  65  97 141 185 225 274 332 406
#     4  10  21  39  65  97 141 183 222 272 330 405
#     4  12  27  46  72 107 144 186 240 296 355 426
#
# _framework density 22.707035000000001
#
# number of rings (size 3 to 8) (size 9 to 14) (size 15 to 20)
#    0.000    0.800    0.000    7.200    0.000   16.000 
#    0.000    0.000    0.000    0.000    0.000    0.000 
#    0.000    0.000    0.000    0.000    0.000    0.000 
#
# Total GULP energy -223784.312083 kJ/mol
# GULP energy per Si atom -5594.607802 kJ/mol
# Density = 2.265535 g / cm^3
# Si number density = 22.707035 Si / 1000 Ang^3
#
#
#
# Elastic Constant Matrix: (Units=GPa)
#
#
# Indices 1 2 3 4 5 6 
#
# 1 129.5080 32.3954 21.3946 0.0000 0.0000 0.0000
# 2 32.3954 71.7339 -7.3372 0.0000 0.0000 0.0000
# 3 21.3946 -7.3372 149.2449 0.0000 0.0000 0.0000
# 4 0.0000 0.0000 0.0000 40.5931 0.0000 0.0000
# 5 0.0000 0.0000 0.0000 0.0000 29.5557 0.0000
# 6 0.0000 0.0000 0.0000 0.0000 0.0000 40.4842
#
#
#
# Elastic Compliance Matrix: (Units=1/GPa)
#
#
# Indices 1 2 3 4 5 6 
#
# 1 0.009028 -0.004231 -0.001502 0.000000 0.000000 0.000000
# 2 -0.004231 0.015993 0.001393 0.000000 0.000000 0.000000
# 3 -0.001502 0.001393 0.006984 0.000000 0.000000 0.000000
# 4 0.000000 0.000000 0.000000 0.024635 0.000000 0.000000
# 5 0.000000 0.000000 0.000000 0.000000 0.033834 0.000000
# 6 0.000000 0.000000 0.000000 0.000000 0.000000 0.024701
#
#
# Mechanical properties :
#
#
# Convention : Reuss Voigt Hill
#
# Bulk Modulus (GPa) = 42.87175 49.26582 46.06878
# Shear Modulus (GPa) = 37.98491 42.39553 40.19022
#
# Velocity S-wave (km/s) = 4.09446 4.32564 4.21164
# Velocity P-wave (km/s) = 6.42449 6.83313 6.63196
#
# Compressibility (1/GPa) = 0.02332538
#
# Stress axis : x y z
#
# Youngs Moduli (GPa) = 110.76680 62.52546 143.18010
#
# Poissons Ratio (x) = 0.26453 0.21508
# Poissons Ratio (y) = 0.46862 -0.19942
# Poissons Ratio (z) = 0.16639 -0.08708
#
# Static dielectric constant tensor:
#      x y z
#    x 2.356170 0.000000 0.000000 
#    y 0.000000 1.801370 0.000000 
#    z 0.000000 0.000000 1.963830 
# 
# From -- ./inp_files/1824.got.cif
#   From: 2010.05.17/outbox.cif.g08.bks.cpg/sg54_1_cif.got.tgz:1824.got - 2010.06.03 13:09:01.
