data_PCOD9422230
_publ_section_title
;
Structure prediction by ZEFSAII (Michael W. Deem and Ramdas Pophale) SiO2 
 PCOD9422230
Probable space group: P C C A
;
_chemical_formula_sum "Si O2"
_cell_formula_units_Z 48
_cell_length_a 26.370837
_cell_length_b 9.553574
_cell_length_c 8.766835
_cell_angle_alpha 90.000000
_cell_angle_beta 90.000000
_cell_angle_gamma 90.000000
_cell_volume 2208.679087
_symmetry_space_group_name_H-M "P C C A"
_symmetry_group_IT_number 54
_symmetry_cell_setting 'orthorhombic'
loop_
_space_group_symop_operation_xyz
x,y,z
1/2-x,-y,z
1/2+x,-y,1/2-z
-x,y,1/2-z
-x,-y,-z
1/2+x,y,-z
1/2-x,y,1/2+z
x,-y,1/2+z
loop_
_atom_site_type_symbol
_atom_site_label
_atom_site_fract_x
_atom_site_fract_y
_atom_site_fract_z
Si Si1 0.630237 0.648414 0.964693
Si Si2 0.951224 0.883758 0.153159
Si Si3 0.591765 0.391036 0.122538
Si Si4 0.682271 0.782932 0.500867
Si Si5 0.113487 0.042268 0.565619
Si Si6 0.267534 0.653133 0.703072
O O1 0.606282 0.620091 0.799015
O O2 0.689824 0.624723 0.928088
O O3 0.598169 0.551131 0.077137
O O4 0.625077 0.809501 0.011319
O O5 0.954325 0.718650 0.109604
O O6 0.902122 0.916810 0.261829
O O7 0.000000 0.920644 0.250000
O O8 0.936482 0.972510 0.006819
O O9 0.633693 0.318035 0.014208
O O10 0.709041 0.751798 0.664638
O O11 0.720601 0.730962 0.373002
O O12 0.659772 0.935078 0.459417
O O13 0.250000 0.500000 0.761374
#
# Coordination Sequence:
#
# PCOD9422230 Si02
#       6
#     8   8   8   8   8   8
#     4  10  21  37  59  86 125 167 208 257 312 367
#     4  10  21  42  68  92 121 162 212 269 333 401
#     4   9  20  38  59  88 121 162 208 260 314 374
#     4  10  22  38  59  89 126 169 212 261 307 366
#     4  10  23  42  61  93 130 163 207 266 334 381
#     4  11  21  36  64  89 124 171 224 253 300 371
#
# _framework density 21.732448000000002
#
# number of rings (size 3 to 8) (size 9 to 14) (size 15 to 20)
#    0.000    2.000    1.667    2.000    2.333    4.667 
#    0.000    9.167    0.000    0.000    0.000    0.000 
#    0.000    0.000    0.000    0.000    0.000    0.000 
#
# Total GULP energy -267592.745425 kJ/mol
# GULP energy per Si atom -5574.848863 kJ/mol
# Density = 2.168298 g / cm^3
# Si number density = 21.732448 Si / 1000 Ang^3
#
#
#
# Elastic Constant Matrix: (Units=GPa)
#
#
# Indices 1 2 3 4 5 6 
#
# 1 35.0598 32.5373 29.6063 0.0000 0.0000 0.0000
# 2 32.5373 157.8761 39.9158 0.0000 0.0000 0.0000
# 3 29.6063 39.9158 45.1586 0.0000 0.0000 0.0000
# 4 0.0000 0.0000 0.0000 18.6271 0.0000 0.0000
# 5 0.0000 0.0000 0.0000 0.0000 -94.1590 0.0000
# 6 0.0000 0.0000 0.0000 0.0000 0.0000 4.8093
#
#
#
# Elastic Compliance Matrix: (Units=1/GPa)
#
#
# Indices 1 2 3 4 5 6 
#
# 1 0.065279 -0.003391 -0.039800 0.000000 0.000000 0.000000
# 2 -0.003391 0.008333 -0.005143 0.000000 0.000000 0.000000
# 3 -0.039800 -0.005143 0.052783 0.000000 0.000000 0.000000
# 4 0.000000 0.000000 0.000000 0.053685 0.000000 0.000000
# 5 0.000000 0.000000 0.000000 0.000000 -0.010620 0.000000
# 6 0.000000 0.000000 0.000000 0.000000 0.000000 0.207931
#
#
# Mechanical properties :
#
#
# Convention : Reuss Voigt Hill
#
# Bulk Modulus (GPa) = 33.63850 49.13480 41.38665
# Shear Modulus (GPa) = 10.33126 -5.07551 2.62788
#
# Velocity S-wave (km/s) = 2.18270 -1.52988 1.10083
# Velocity P-wave (km/s) = 4.67593 4.42011 4.54981
#
# Compressibility (1/GPa) = 0.02972784
#
# Stress axis : x y z
#
# Youngs Moduli (GPa) = 15.31884 120.00302 18.94547
#
# Poissons Ratio (x) = 0.40692 0.75403
# Poissons Ratio (y) = 0.05195 0.09743
# Poissons Ratio (z) = 0.60969 0.61712
#
# Static dielectric constant tensor:
#      x y z
#    x 1.841590 0.000000 0.000000 
#    y 0.000000 1.844270 0.000000 
#    z 0.000000 0.000000 1.812070 
# 
# From -- ./inp_files/5821.got.cif
#   From: 2010.05.17/outbox.cif.g08.bks.cpg/sg54_3_cif.got.tgz:5821.got - 2010.06.03 13:09:01.
