data_PCOD9422236
_publ_section_title
;
Structure prediction by ZEFSAII (Michael W. Deem and Ramdas Pophale) SiO2 
 PCOD9422236
Probable space group: P C C A
;
_chemical_formula_sum "Si O2"
_cell_formula_units_Z 40
_cell_length_a 13.109079
_cell_length_b 10.848732
_cell_length_c 11.705512
_cell_angle_alpha 90.000000
_cell_angle_beta 90.000000
_cell_angle_gamma 90.000000
_cell_volume 1664.721452
_symmetry_space_group_name_H-M "P C C A"
_symmetry_group_IT_number 54
_symmetry_cell_setting 'orthorhombic'
loop_
_space_group_symop_operation_xyz
x,y,z
1/2-x,-y,z
1/2+x,-y,1/2-z
-x,y,1/2-z
-x,-y,-z
1/2+x,y,-z
1/2-x,y,1/2+z
x,-y,1/2+z
loop_
_atom_site_type_symbol
_atom_site_label
_atom_site_fract_x
_atom_site_fract_y
_atom_site_fract_z
Si Si1 0.777555 0.869601 0.716753
Si Si2 0.547071 0.130576 0.538553
Si Si3 0.201780 0.304533 0.597268
Si Si4 0.018372 0.535530 0.132983
Si Si5 0.129261 0.266689 0.939074
O O1 0.765742 0.756679 0.802004
O O2 0.686732 0.844966 0.624545
O O3 0.750000 0.000000 0.773558
O O4 0.614199 0.124454 0.652923
O O5 0.624561 0.197015 0.448898
O O6 0.448273 0.218134 0.535414
O O7 0.500000 0.000000 0.500000
O O8 0.133476 0.417693 0.633273
O O9 0.277984 0.338656 0.495933
O O10 0.000000 0.458942 0.250000
O O11 0.938630 0.649974 0.143174
O O12 0.000000 0.500000 0.000000
#
# Coordination Sequence:
#
# PCOD9422236 Si02
#       5
#     8   8   8   8   8
#     4  11  21  36  65  97 139 197 236 289 372 444
#     4  10  21  37  59  93 141 184 236 289 359 452
#     4  10  24  41  66  98 140 185 238 303 365 451
#     4  11  24  50  77 102 139 188 245 315 381 437
#     4  10  22  44  63  96 142 179 234 307 361 444
#
# _framework density 24.028044000000001
#
# number of rings (size 3 to 8) (size 9 to 14) (size 15 to 20)
#    0.000    1.600    4.000    0.000    2.800    1.600 
#   10.800    2.000    0.000    0.000    0.000    0.000 
#    0.000    0.000    0.000    0.000    0.000    0.000 
#
# Total GULP energy -223252.414564 kJ/mol
# GULP energy per Si atom -5581.310364 kJ/mol
# Density = 2.397336 g / cm^3
# Si number density = 24.028044 Si / 1000 Ang^3
#
#
#
# Elastic Constant Matrix: (Units=GPa)
#
#
# Indices 1 2 3 4 5 6 
#
# 1 125.4981 8.2978 34.4203 0.0000 0.0000 0.0000
# 2 8.2978 32.5781 10.4709 0.0000 0.0000 0.0000
# 3 34.4203 10.4709 103.3485 0.0000 0.0000 0.0000
# 4 0.0000 0.0000 0.0000 31.9458 0.0000 0.0000
# 5 0.0000 0.0000 0.0000 0.0000 37.4686 0.0000
# 6 0.0000 0.0000 0.0000 0.0000 0.0000 23.8853
#
#
#
# Elastic Compliance Matrix: (Units=1/GPa)
#
#
# Indices 1 2 3 4 5 6 
#
# 1 0.008826 -0.001347 -0.002803 0.000000 0.000000 0.000000
# 2 -0.001347 0.031934 -0.002787 0.000000 0.000000 0.000000
# 3 -0.002803 -0.002787 0.010892 0.000000 0.000000 0.000000
# 4 0.000000 0.000000 0.000000 0.031303 0.000000 0.000000
# 5 0.000000 0.000000 0.000000 0.000000 0.026689 0.000000
# 6 0.000000 0.000000 0.000000 0.000000 0.000000 0.041867
#
#
# Mechanical properties :
#
#
# Convention : Reuss Voigt Hill
#
# Bulk Modulus (GPa) = 26.47020 40.86698 33.66859
# Shear Modulus (GPa) = 28.09338 32.54233 30.31786
#
# Velocity S-wave (km/s) = 3.42305 3.68414 3.55599
# Velocity P-wave (km/s) = 5.16366 5.92808 5.55902
#
# Compressibility (1/GPa) = 0.03777833
#
# Stress axis : x y z
#
# Youngs Moduli (GPa) = 113.30016 31.31430 91.81129
#
# Poissons Ratio (x) = 0.04218 0.25735
# Poissons Ratio (y) = 0.15263 0.25586
# Poissons Ratio (z) = 0.31759 0.08727
#
# Static dielectric constant tensor:
#      x y z
#    x 1.884360 0.000000 0.000000 
#    y 0.000000 1.976780 0.000000 
#    z 0.000000 0.000000 2.004380 
# 
# From -- ./inp_files/8209.got.cif
#   From: 2010.05.17/outbox.cif.g08.bks.cpg/sg54_5_cif.got.tgz:8209.got - 2010.06.03 13:09:01.
