data_PCOD9422304
_publ_section_title
;
Structure prediction by ZEFSAII (Michael W. Deem and Ramdas Pophale) SiO2 
 PCOD9422304
Probable space group: P C C A
;
_chemical_formula_sum "Si O2"
_cell_formula_units_Z 36
_cell_length_a 5.505161
_cell_length_b 12.076212
_cell_length_c 23.149641
_cell_angle_alpha 90.000000
_cell_angle_beta 90.000000
_cell_angle_gamma 90.000000
_cell_volume 1539.022657
_symmetry_space_group_name_H-M "P C C A"
_symmetry_group_IT_number 54
_symmetry_cell_setting 'orthorhombic'
loop_
_space_group_symop_operation_xyz
x,y,z
1/2-x,-y,z
1/2+x,-y,1/2-z
-x,y,1/2-z
-x,-y,-z
1/2+x,y,-z
1/2-x,y,1/2+z
x,-y,1/2+z
loop_
_atom_site_type_symbol
_atom_site_label
_atom_site_fract_x
_atom_site_fract_y
_atom_site_fract_z
Si Si1 0.129105 0.388889 0.193515
Si Si2 0.541066 0.276667 0.115961
Si Si3 0.748862 0.870098 0.214220
Si Si4 0.995293 0.046342 0.934827
Si Si5 0.250000 0.500000 0.892723
O O1 0.250000 0.500000 0.218671
O O2 0.322217 0.314777 0.158568
O O3 0.000000 0.341817 0.250000
O O4 0.947693 0.439794 0.146875
O O5 0.731379 0.214865 0.159752
O O6 0.479627 0.178371 0.071747
O O7 0.623227 0.388968 0.082411
O O8 0.500000 0.863598 0.250000
O O9 0.000000 0.849928 0.250000
O O10 0.750000 0.000000 0.198989
O O11 0.250000 0.000000 0.912737
O O12 0.750000 0.000000 0.905579
O O13 0.000000 0.000000 0.000000
#
# Coordination Sequence:
#
# PCOD9422304 Si02
#       5
#     8   8   8   8   4
#     4  10  21  38  58  92 142 205 250 285 335 413
#     4  11  25  39  68  99 144 193 245 302 357 435
#     4  10  24  41  57  89 137 189 238 288 340 399
#     4  10  24  48  80 110 134 175 241 311 382 447
#     4  10  24  38  60  98 142 196 242 292 354 424
#
# _framework density 23.391469000000001
#
# number of rings (size 3 to 8) (size 9 to 14) (size 15 to 20)
#    0.000    1.778    1.111    0.667    9.333    2.667 
#    4.000    0.000    0.000    5.333    0.000    0.000 
#    0.000    0.000    0.000    0.000    0.000    0.000 
#
# Total GULP energy -200588.862693 kJ/mol
# GULP energy per Si atom -5571.912853 kJ/mol
# Density = 2.333823 g / cm^3
# Si number density = 23.391469 Si / 1000 Ang^3
#
#
#
# Elastic Constant Matrix: (Units=GPa)
#
#
# Indices 1 2 3 4 5 6 
#
# 1 147.0059 46.9027 18.5686 0.0000 0.0000 0.0000
# 2 46.9027 249.6409 43.9927 0.0000 0.0000 0.0000
# 3 18.5686 43.9927 61.8919 0.0000 0.0000 0.0000
# 4 0.0000 0.0000 0.0000 41.6125 0.0000 0.0000
# 5 0.0000 0.0000 0.0000 0.0000 -17.2006 0.0000
# 6 0.0000 0.0000 0.0000 0.0000 0.0000 -40.2209
#
#
#
# Elastic Compliance Matrix: (Units=1/GPa)
#
#
# Indices 1 2 3 4 5 6 
#
# 1 0.007340 -0.001133 -0.001397 0.000000 0.000000 0.000000
# 2 -0.001133 0.004754 -0.003039 0.000000 0.000000 0.000000
# 3 -0.001397 -0.003039 0.018737 0.000000 0.000000 0.000000
# 4 0.000000 0.000000 0.000000 0.024031 0.000000 0.000000
# 5 0.000000 0.000000 0.000000 0.000000 -0.058137 0.000000
# 6 0.000000 0.000000 0.000000 0.000000 0.000000 -0.024863
#
#
# Mechanical properties :
#
#
# Convention : Reuss Voigt Hill
#
# Bulk Modulus (GPa) = 50.78011 75.27405 63.02708
# Shear Modulus (GPa) = -479.16682 20.10983 -229.52849
#
# Velocity S-wave (km/s) = -14.32800 2.93526 -9.91655
# Velocity P-wave (km/s) = 15.87344 6.61344 10.20364
#
# Compressibility (1/GPa) = 0.01969275
#
# Stress axis : x y z
#
# Youngs Moduli (GPa) = 136.23302 210.33919 53.37118
#
# Poissons Ratio (x) = 0.23830 0.07456
# Poissons Ratio (y) = 0.15434 0.16222
# Poissons Ratio (z) = 0.19031 0.63930
#
# Static dielectric constant tensor:
#      x y z
#    x 2.111200 0.000000 0.000000 
#    y 0.000000 1.954250 0.000000 
#    z 0.000000 0.000000 5.372580 
# 
# From -- ./inp_files/22688.got.cif
#   From: 2010.05.17/outbox.cif.g08.bks.cpg/sg54_12_cif.got.tgz:22688.got - 2010.06.03 13:09:01.
