data_PCOD9422264
_publ_section_title
;
Structure prediction by ZEFSAII (Michael W. Deem and Ramdas Pophale) SiO2 
 PCOD9422264
Probable space group: P C C A
;
_chemical_formula_sum "Si O2"
_cell_formula_units_Z 48
_cell_length_a 17.985902
_cell_length_b 11.513672
_cell_length_c 10.546720
_cell_angle_alpha 90.000000
_cell_angle_beta 90.000000
_cell_angle_gamma 90.000000
_cell_volume 2184.054605
_symmetry_space_group_name_H-M "P C C A"
_symmetry_group_IT_number 54
_symmetry_cell_setting 'orthorhombic'
loop_
_space_group_symop_operation_xyz
x,y,z
1/2-x,-y,z
1/2+x,-y,1/2-z
-x,y,1/2-z
-x,-y,-z
1/2+x,y,-z
1/2-x,y,1/2+z
x,-y,1/2+z
loop_
_atom_site_type_symbol
_atom_site_label
_atom_site_fract_x
_atom_site_fract_y
_atom_site_fract_z
Si Si1 0.284778 0.754377 0.747002
Si Si2 0.250000 0.000000 0.258141
Si Si3 0.554432 0.822454 0.643088
Si Si4 0.014881 0.632656 0.972178
Si Si5 0.606144 0.947392 0.083477
Si Si6 0.824780 0.281948 0.015294
Si Si7 0.000000 0.213688 0.250000
O O1 0.367790 0.775224 0.801706
O O2 0.290820 0.678701 0.619291
O O3 0.232498 0.721860 0.866901
O O4 0.250769 0.875987 0.692922
O O5 0.177797 0.003915 0.344824
O O6 0.500000 0.873663 0.750000
O O7 0.509660 0.714583 0.587295
O O8 0.566944 0.931150 0.545998
O O9 0.102958 0.644350 0.948484
O O10 0.971908 0.696064 0.856769
O O11 0.000000 0.500000 0.000000
O O12 0.638491 0.847764 0.992333
O O13 0.558245 0.870517 0.181310
#
# Coordination Sequence:
#
# PCOD9422264 Si02
#       7
#     8   4   8   8   8   8   4
#     4  10  21  37  63  96 136 177 225 272 346 417
#     4   8  18  32  56  88 134 170 204 256 336 414
#     4  11  21  38  68 101 134 180 225 289 349 418
#     4  11  26  44  68  94 133 182 237 292 346 413
#     4   9  19  36  60 100 134 170 213 277 344 413
#     4  10  22  41  65  98 135 178 226 280 343 424
#     4  10  22  38  62  98 134 168 224 284 348 412
#
# _framework density 21.977474000000001
#
# number of rings (size 3 to 8) (size 9 to 14) (size 15 to 20)
#    0.000    2.000    2.500    0.000    1.167   13.333 
#    0.000    0.833    0.000    6.000    0.000    0.000 
#    0.000    0.000    0.000    0.000    0.000    0.000 
#
# Total GULP energy -267365.134140 kJ/mol
# GULP energy per Si atom -5570.106961 kJ/mol
# Density = 2.192745 g / cm^3
# Si number density = 21.977474 Si / 1000 Ang^3
#
#
#
# Elastic Constant Matrix: (Units=GPa)
#
#
# Indices 1 2 3 4 5 6 
#
# 1 119.8047 34.0510 46.6786 0.0000 0.0000 0.0000
# 2 34.0510 101.6304 25.9337 0.0000 0.0000 0.0000
# 3 46.6786 25.9337 92.4475 0.0000 0.0000 0.0000
# 4 0.0000 0.0000 0.0000 14.8108 0.0000 0.0000
# 5 0.0000 0.0000 0.0000 0.0000 42.5879 0.0000
# 6 0.0000 0.0000 0.0000 0.0000 0.0000 13.3110
#
#
#
# Elastic Compliance Matrix: (Units=1/GPa)
#
#
# Indices 1 2 3 4 5 6 
#
# 1 0.010919 -0.002425 -0.004833 0.000000 0.000000 0.000000
# 2 -0.002425 0.011137 -0.001900 0.000000 0.000000 0.000000
# 3 -0.004833 -0.001900 0.013790 0.000000 0.000000 0.000000
# 4 0.000000 0.000000 0.000000 0.067519 0.000000 0.000000
# 5 0.000000 0.000000 0.000000 0.000000 0.023481 0.000000
# 6 0.000000 0.000000 0.000000 0.000000 0.000000 0.075126
#
#
# Mechanical properties :
#
#
# Convention : Reuss Voigt Hill
#
# Bulk Modulus (GPa) = 57.04325 58.57883 57.81104
# Shear Modulus (GPa) = 22.11112 27.95655 25.03384
#
# Velocity S-wave (km/s) = 3.17532 3.57046 3.37867
# Velocity P-wave (km/s) = 6.28134 6.61131 6.44844
#
# Compressibility (1/GPa) = 0.01753056
#
# Stress axis : x y z
#
# Youngs Moduli (GPa) = 91.58120 89.79184 72.51562
#
# Poissons Ratio (x) = 0.21776 0.35047
# Poissons Ratio (y) = 0.22210 0.13775
# Poissons Ratio (z) = 0.44261 0.17057
#
# Static dielectric constant tensor:
#      x y z
#    x 1.849660 0.000000 0.000000 
#    y 0.000000 1.845550 0.000000 
#    z 0.000000 0.000000 1.918690 
# 
# From -- ./inp_files/8970.got.cif
#   From: 2010.05.17/outbox.cif.g08.bks.cpg/sg54_5_cif.got.tgz:8970.got - 2010.06.03 13:09:01.
