data_PCOD9422739
_publ_section_title
;
Structure prediction by ZEFSAII (Michael W. Deem and Ramdas Pophale) SiO2 
 PCOD9422739
Probable space group: P C C A
;
_chemical_formula_sum "Si O2"
_cell_formula_units_Z 48
_cell_length_a 9.315686
_cell_length_b 15.915633
_cell_length_c 15.079604
_cell_angle_alpha 90.000000
_cell_angle_beta 90.000000
_cell_angle_gamma 90.000000
_cell_volume 2235.778083
_symmetry_space_group_name_H-M "P C C A"
_symmetry_group_IT_number 54
_symmetry_cell_setting 'orthorhombic'
loop_
_space_group_symop_operation_xyz
x,y,z
1/2-x,-y,z
1/2+x,-y,1/2-z
-x,y,1/2-z
-x,-y,-z
1/2+x,y,-z
1/2-x,y,1/2+z
x,-y,1/2+z
loop_
_atom_site_type_symbol
_atom_site_label
_atom_site_fract_x
_atom_site_fract_y
_atom_site_fract_z
Si Si1 0.500000 0.488003 0.250000
Si Si2 0.804668 0.380999 0.884143
Si Si3 0.578793 0.619911 0.513540
Si Si4 0.429912 0.818639 0.962702
Si Si5 0.250000 0.500000 0.357772
Si Si6 0.236369 0.183124 0.617697
Si Si7 0.659107 0.082968 0.210610
O O1 0.394073 0.427574 0.191886
O O2 0.379580 0.540629 0.301254
O O3 0.781240 0.282881 0.863438
O O4 0.910210 0.391865 0.969744
O O5 0.648493 0.408495 0.920241
O O6 0.601227 0.718457 0.533578
O O7 0.663643 0.567433 0.586255
O O8 0.597207 0.834532 0.944082
O O9 0.354769 0.862692 0.879070
O O10 0.371453 0.844726 0.058674
O O11 0.230513 0.135990 0.710280
O O12 0.500000 0.063991 0.250000
O O13 0.750000 0.000000 0.193683
#
# Coordination Sequence:
#
# PCOD9422739 Si02
#       7
#     4   8   8   8   4   8   8
#     4  10  22  34  52  82 110 140 186 228 276 318
#     4   9  19  34  57  78 105 142 185 225 268 323
#     4   9  19  35  54  78 106 143 185 222 273 322
#     4   9  19  37  58  80 111 145 186 227 269 329
#     4  10  22  34  52  78 112 146 184 228 270 322
#     4   9  19  35  59  82 106 146 185 222 275 324
#     4  10  22  37  58  83 113 147 181 225 278 334
#
# _framework density 21.469037
#
# number of rings (size 3 to 8) (size 9 to 14) (size 15 to 20)
#    0.000    2.667    0.000    0.000    8.167    6.667 
#    0.000    3.333    1.833    0.000    0.000    0.000 
#    0.000    0.000    0.000    0.000    0.000    0.000 
#
# Total GULP energy -267728.445397 kJ/mol
# GULP energy per Si atom -5577.675946 kJ/mol
# Density = 2.142017 g / cm^3
# Si number density = 21.469037 Si / 1000 Ang^3
#
#
#
# Elastic Constant Matrix: (Units=GPa)
#
#
# Indices 1 2 3 4 5 6 
#
# 1 38.6613 26.3621 4.6399 0.0000 0.0000 0.0000
# 2 26.3621 49.7790 17.5087 0.0000 0.0000 0.0000
# 3 4.6399 17.5087 33.8068 0.0000 0.0000 0.0000
# 4 0.0000 0.0000 0.0000 19.5133 0.0000 0.0000
# 5 0.0000 0.0000 0.0000 0.0000 43.3960 0.0000
# 6 0.0000 0.0000 0.0000 0.0000 0.0000 27.6261
#
#
#
# Elastic Compliance Matrix: (Units=1/GPa)
#
#
# Indices 1 2 3 4 5 6 
#
# 1 0.041799 -0.024599 0.007003 0.000000 0.000000 0.000000
# 2 -0.024599 0.039040 -0.016843 0.000000 0.000000 0.000000
# 3 0.007003 -0.016843 0.037342 0.000000 0.000000 0.000000
# 4 0.000000 0.000000 0.000000 0.051247 0.000000 0.000000
# 5 0.000000 0.000000 0.000000 0.000000 0.023044 0.000000
# 6 0.000000 0.000000 0.000000 0.000000 0.000000 0.036198
#
#
# Mechanical properties :
#
#
# Convention : Reuss Voigt Hill
#
# Bulk Modulus (GPa) = 20.28274 24.36317 22.32295
# Shear Modulus (GPa) = 15.92452 23.02283 19.47368
#
# Velocity S-wave (km/s) = 2.72645 3.27826 3.01501
# Velocity P-wave (km/s) = 4.40220 5.06972 4.74770
#
# Compressibility (1/GPa) = 0.04930301
#
# Stress axis : x y z
#
# Youngs Moduli (GPa) = 23.92419 25.61457 26.77967
#
# Poissons Ratio (x) = 0.63010 -0.18755
# Poissons Ratio (y) = 0.58852 0.45105
# Poissons Ratio (z) = -0.16755 0.43143
#
# Static dielectric constant tensor:
#      x y z
#    x 1.811600 0.000000 0.000000 
#    y 0.000000 1.759990 0.000000 
#    z 0.000000 0.000000 1.868470 
# 
# From -- ./inp_files/12670.got.cif
#   From: 2010.05.17/outbox.cif.g08.bks.cpg/sg54_7_cif.got.tgz:12670.got - 2010.06.03 13:09:01.
