data_PCOD9422276
_publ_section_title
;
Structure prediction by ZEFSAII (Michael W. Deem and Ramdas Pophale) SiO2 
 PCOD9422276
Probable space group: P C C A
;
_chemical_formula_sum "Si O2"
_cell_formula_units_Z 48
_cell_length_a 24.358110
_cell_length_b 7.409385
_cell_length_c 10.029557
_cell_angle_alpha 90.000000
_cell_angle_beta 90.000000
_cell_angle_gamma 90.000000
_cell_volume 1810.120555
_symmetry_space_group_name_H-M "P C C A"
_symmetry_group_IT_number 54
_symmetry_cell_setting 'orthorhombic'
loop_
_space_group_symop_operation_xyz
x,y,z
1/2-x,-y,z
1/2+x,-y,1/2-z
-x,y,1/2-z
-x,-y,-z
1/2+x,y,-z
1/2-x,y,1/2+z
x,-y,1/2+z
loop_
_atom_site_type_symbol
_atom_site_label
_atom_site_fract_x
_atom_site_fract_y
_atom_site_fract_z
Si Si1 0.681689 0.237250 0.442463
Si Si2 0.939265 0.712846 0.514033
Si Si3 0.440262 0.008879 0.789674
Si Si4 0.258763 0.218103 0.786836
Si Si5 0.147023 0.168651 0.092946
Si Si6 0.561268 0.348742 0.106265
O O1 0.620971 0.319012 0.453555
O O2 0.721439 0.286313 0.568069
O O3 0.705062 0.278938 0.295184
O O4 0.674701 0.017736 0.459738
O O5 0.937930 0.560965 0.631845
O O6 0.000019 0.687181 0.453703
O O7 0.935836 0.919902 0.560432
O O8 0.500000 0.069635 0.750000
O O9 0.435541 0.795507 0.776412
O O10 0.394835 0.101546 0.704583
O O11 0.305952 0.264054 0.678822
O O12 0.250000 0.000000 0.795273
O O13 0.111560 0.285103 0.988940
#
# Coordination Sequence:
#
# PCOD9422276 Si02
#       6
#     8   8   8   8   8   8
#     4  11  22  42  70 103 141 192 239 302 356 427
#     4  11  23  43  67 102 145 188 234 296 367 430
#     4  12  22  39  68 103 140 188 235 292 358 448
#     4  10  21  37  68 102 137 185 246 295 356 420
#     4  11  20  39  69  96 141 184 242 295 361 427
#     4  11  24  42  67 104 145 184 233 297 363 443
#
# _framework density 26.517572999999999
#
# number of rings (size 3 to 8) (size 9 to 14) (size 15 to 20)
#    0.000    1.000    5.000    3.000    0.000    2.000 
#    3.000    0.833    0.000   10.000    0.000    0.000 
#    0.000    0.000    0.000    0.000    0.000    0.000 
#
# Total GULP energy -268173.505925 kJ/mol
# GULP energy per Si atom -5586.948040 kJ/mol
# Density = 2.645722 g / cm^3
# Si number density = 26.517573 Si / 1000 Ang^3
#
#
#
# Elastic Constant Matrix: (Units=GPa)
#
#
# Indices 1 2 3 4 5 6 
#
# 1 133.8980 11.7009 48.8151 0.0000 0.0000 0.0000
# 2 11.7009 91.1350 0.6317 0.0000 0.0000 0.0000
# 3 48.8151 0.6317 59.4477 0.0000 0.0000 0.0000
# 4 0.0000 0.0000 0.0000 9.9466 0.0000 0.0000
# 5 0.0000 0.0000 0.0000 0.0000 67.1819 0.0000
# 6 0.0000 0.0000 0.0000 0.0000 0.0000 3.0167
#
#
#
# Elastic Compliance Matrix: (Units=1/GPa)
#
#
# Indices 1 2 3 4 5 6 
#
# 1 0.010818 -0.001327 -0.008869 0.000000 0.000000 0.000000
# 2 -0.001327 0.011136 0.000972 0.000000 0.000000 0.000000
# 3 -0.008869 0.000972 0.024094 0.000000 0.000000 0.000000
# 4 0.000000 0.000000 0.000000 0.100537 0.000000 0.000000
# 5 0.000000 0.000000 0.000000 0.000000 0.014885 0.000000
# 6 0.000000 0.000000 0.000000 0.000000 0.000000 0.331489
#
#
# Mechanical properties :
#
#
# Convention : Reuss Voigt Hill
#
# Bulk Modulus (GPa) = 36.23349 45.19735 40.71542
# Shear Modulus (GPa) = 9.60416 30.91790 20.26103
#
# Velocity S-wave (km/s) = 1.90517 3.41829 2.76716
# Velocity P-wave (km/s) = 4.30502 5.71497 5.05935
#
# Compressibility (1/GPa) = 0.02759877
#
# Stress axis : x y z
#
# Youngs Moduli (GPa) = 92.44172 89.79544 41.50467
#
# Poissons Ratio (x) = 0.11920 0.36809
# Poissons Ratio (y) = 0.12271 -0.04033
# Poissons Ratio (z) = 0.81984 -0.08725
#
# Static dielectric constant tensor:
#      x y z
#    x -2.160620 0.000000 0.000000 
#    y 0.000000 2.035120 0.000000 
#    z 0.000000 0.000000 2.715390 
# 
# From -- ./inp_files/9902.got.cif
#   From: 2010.05.17/outbox.cif.g08.bks.cpg/sg54_5_cif.got.tgz:9902.got - 2010.06.03 13:09:01.
