data_PCOD9422339
_publ_section_title
;
Structure prediction by ZEFSAII (Michael W. Deem and Ramdas Pophale) SiO2 
 PCOD9422339
Probable space group: P C C A
;
_chemical_formula_sum "Si O2"
_cell_formula_units_Z 40
_cell_length_a 9.262749
_cell_length_b 13.143642
_cell_length_c 15.875148
_cell_angle_alpha 90.000000
_cell_angle_beta 90.000000
_cell_angle_gamma 90.000000
_cell_volume 1932.739845
_symmetry_space_group_name_H-M "P C C A"
_symmetry_group_IT_number 54
_symmetry_cell_setting 'orthorhombic'
loop_
_space_group_symop_operation_xyz
x,y,z
1/2-x,-y,z
1/2+x,-y,1/2-z
-x,y,1/2-z
-x,-y,-z
1/2+x,y,-z
1/2-x,y,1/2+z
x,-y,1/2+z
loop_
_atom_site_type_symbol
_atom_site_label
_atom_site_fract_x
_atom_site_fract_y
_atom_site_fract_z
Si Si1 0.907403 0.280763 0.444318
Si Si2 0.726884 0.272660 0.609894
Si Si3 0.331213 0.393379 0.723761
Si Si4 0.409263 0.960256 0.076721
Si Si5 0.626866 0.924666 0.200922
O O1 0.846679 0.293800 0.538902
O O2 0.827865 0.338490 0.367561
O O3 0.895997 0.160796 0.426037
O O4 0.076460 0.305794 0.434099
O O5 0.740361 0.329840 0.699244
O O6 0.705157 0.153871 0.637344
O O7 0.250000 0.500000 0.717887
O O8 0.500000 0.405412 0.750000
O O9 0.509253 0.994276 0.153997
O O10 0.250000 0.000000 0.075941
O O11 0.500000 0.000000 0.000000
O O12 0.500000 0.859688 0.250000
O O13 0.750000 0.000000 0.236342
#
# Coordination Sequence:
#
# PCOD9422339 Si02
#       5
#     8   8   8   8   8
#     4  10  21  38  62  89 123 163 202 250 309 371
#     4  10  21  40  62  88 121 158 200 252 308 370
#     4  10  23  43  63  85 118 157 203 259 315 368
#     4  11  20  34  57  87 123 160 197 243 299 370
#     4  11  22  37  57  85 121 162 204 248 303 367
#
# _framework density 20.696009
#
# number of rings (size 3 to 8) (size 9 to 14) (size 15 to 20)
#    0.000    1.600    0.000    7.800    0.000    2.400 
#    0.000    5.000    0.000    0.000    0.000    0.000 
#    0.000    0.000    0.000    0.000    0.000    0.000 
#
# Total GULP energy -222788.012167 kJ/mol
# GULP energy per Si atom -5569.700304 kJ/mol
# Density = 2.064890 g / cm^3
# Si number density = 20.696009 Si / 1000 Ang^3
#
#
#
# Elastic Constant Matrix: (Units=GPa)
#
#
# Indices 1 2 3 4 5 6 
#
# 1 75.3128 39.8381 38.8248 0.0000 0.0000 0.0000
# 2 39.8381 84.7964 35.8880 0.0000 0.0000 0.0000
# 3 38.8248 35.8880 106.7310 0.0000 0.0000 0.0000
# 4 0.0000 0.0000 0.0000 19.7862 0.0000 0.0000
# 5 0.0000 0.0000 0.0000 0.0000 44.6912 0.0000
# 6 0.0000 0.0000 0.0000 0.0000 0.0000 33.2957
#
#
#
# Elastic Compliance Matrix: (Units=1/GPa)
#
#
# Indices 1 2 3 4 5 6 
#
# 1 0.019483 -0.007175 -0.004675 0.000000 0.000000 0.000000
# 2 -0.007175 0.016392 -0.002902 0.000000 0.000000 0.000000
# 3 -0.004675 -0.002902 0.012046 0.000000 0.000000 0.000000
# 4 0.000000 0.000000 0.000000 0.050540 0.000000 0.000000
# 5 0.000000 0.000000 0.000000 0.000000 0.022376 0.000000
# 6 0.000000 0.000000 0.000000 0.000000 0.000000 0.030034
#
#
# Mechanical properties :
#
#
# Convention : Reuss Voigt Hill
#
# Bulk Modulus (GPa) = 54.29522 55.10468 54.69995
# Shear Modulus (GPa) = 26.80785 29.70723 28.25754
#
# Velocity S-wave (km/s) = 3.60295 3.79279 3.69909
# Velocity P-wave (km/s) = 6.60303 6.77229 6.68819
#
# Compressibility (1/GPa) = 0.01841783
#
# Stress axis : x y z
#
# Youngs Moduli (GPa) = 51.32646 61.00580 83.01823
#
# Poissons Ratio (x) = 0.43771 0.38809
# Poissons Ratio (y) = 0.36826 0.24090
# Poissons Ratio (z) = 0.23994 0.17702
#
# Static dielectric constant tensor:
#      x y z
#    x 1.742060 0.000000 0.000000 
#    y 0.000000 1.465090 0.000000 
#    z 0.000000 0.000000 2.042820 
# 
# From -- ./inp_files/11477.got.cif
#   From: 2010.05.17/outbox.cif.g08.bks.cpg/sg54_6_cif.got.tgz:11477.got - 2010.06.03 13:09:01.
