data_PCOD9422223
_publ_section_title
;
Structure prediction by ZEFSAII (Michael W. Deem and Ramdas Pophale) SiO2 
 PCOD9422223
Probable space group: P C C A
;
_chemical_formula_sum "Si O2"
_cell_formula_units_Z 64
_cell_length_a 9.489197
_cell_length_b 17.583711
_cell_length_c 14.650290
_cell_angle_alpha 90.000000
_cell_angle_beta 90.000000
_cell_angle_gamma 90.000000
_cell_volume 2444.478499
_symmetry_space_group_name_H-M "P C C A"
_symmetry_group_IT_number 54
_symmetry_cell_setting 'orthorhombic'
loop_
_space_group_symop_operation_xyz
x,y,z
1/2-x,-y,z
1/2+x,-y,1/2-z
-x,y,1/2-z
-x,-y,-z
1/2+x,y,-z
1/2-x,y,1/2+z
x,-y,1/2+z
loop_
_atom_site_type_symbol
_atom_site_label
_atom_site_fract_x
_atom_site_fract_y
_atom_site_fract_z
Si Si1 0.281044 0.164402 0.864549
Si Si2 0.390551 0.049062 0.423447
Si Si3 0.554640 0.917972 0.342952
Si Si4 0.444650 0.572707 0.611340
Si Si5 0.293310 0.329808 0.365959
Si Si6 0.724364 0.688188 0.413196
Si Si7 0.520733 0.405629 0.609498
Si Si8 0.329467 0.850342 0.576830
O O1 0.447233 0.153555 0.848826
O O2 0.226423 0.244567 0.829505
O O3 0.192673 0.089766 0.837146
O O4 0.262984 0.153713 0.974532
O O5 0.513260 0.117329 0.432474
O O6 0.750000 0.000000 0.538115
O O7 0.501182 0.979279 0.414234
O O8 0.500000 0.954226 0.250000
O O9 0.713944 0.896026 0.363510
O O10 0.564515 0.626309 0.652261
O O11 0.299303 0.614361 0.627485
O O12 0.458822 0.486041 0.640422
O O13 0.461608 0.579912 0.500171
O O14 0.280817 0.317871 0.476467
O O15 0.167609 0.387016 0.343771
O O16 0.565823 0.673108 0.381870
O O17 0.812610 0.763147 0.390646
#
# Coordination Sequence:
#
# PCOD9422223 Si02
#       8
#     8   8   8   8   8   8   8   8
#     4  10  21  37  58  85 117 154 201 250 298 358
#     4  10  23  37  55  80 109 145 192 239 294 356
#     4  11  25  42  61  88 120 154 194 245 307 364
#     4   9  15  23  38  63 101 144 186 227 280 343
#     4   9  16  27  43  67 102 143 187 235 286 342
#     4   9  17  27  43  69 102 143 187 231 285 343
#     4   9  15  23  37  63 102 147 184 224 281 348
#     4  11  21  37  61  85 116 157 197 246 302 358
#
# _framework density 26.181453000000001
#
# number of rings (size 3 to 8) (size 9 to 14) (size 15 to 20)
#    0.000    2.250    0.000    3.375    0.000   15.500 
#    0.000    0.000    0.000    0.000    0.000    0.000 
#    0.000   16.000    0.000    0.000    0.000    0.000 
#
# Total GULP energy -356635.533646 kJ/mol
# GULP energy per Si atom -5572.430213 kJ/mol
# Density = 2.612186 g / cm^3
# Si number density = 26.181453 Si / 1000 Ang^3
#
#
#
# Elastic Constant Matrix: (Units=GPa)
#
#
# Indices 1 2 3 4 5 6 
#
# 1 148.7089 39.5837 23.1702 0.0000 0.0000 0.0000
# 2 39.5837 159.9593 16.2500 0.0000 0.0000 0.0000
# 3 23.1702 16.2500 74.4187 0.0000 0.0000 0.0000
# 4 0.0000 0.0000 0.0000 19.7061 0.0000 0.0000
# 5 0.0000 0.0000 0.0000 0.0000 6.7217 0.0000
# 6 0.0000 0.0000 0.0000 0.0000 0.0000 45.3465
#
#
#
# Elastic Compliance Matrix: (Units=1/GPa)
#
#
# Indices 1 2 3 4 5 6 
#
# 1 0.007470 -0.001649 -0.001966 0.000000 0.000000 0.000000
# 2 -0.001649 0.006757 -0.000962 0.000000 0.000000 0.000000
# 3 -0.001966 -0.000962 0.014260 0.000000 0.000000 0.000000
# 4 0.000000 0.000000 0.000000 0.050746 0.000000 0.000000
# 5 0.000000 0.000000 0.000000 0.000000 0.148772 0.000000
# 6 0.000000 0.000000 0.000000 0.000000 0.000000 0.022052
#
#
# Mechanical properties :
#
#
# Convention : Reuss Voigt Hill
#
# Bulk Modulus (GPa) = 51.72397 60.12165 55.92281
# Shear Modulus (GPa) = 18.82144 34.62706 26.72425
#
# Velocity S-wave (km/s) = 2.68411 3.64067 3.19836
# Velocity P-wave (km/s) = 5.42262 6.37856 5.91991
#
# Compressibility (1/GPa) = 0.01933340
#
# Stress axis : x y z
#
# Youngs Moduli (GPa) = 133.87442 147.98720 70.12822
#
# Poissons Ratio (x) = 0.24400 0.13785
# Poissons Ratio (y) = 0.22073 0.06748
# Poissons Ratio (z) = 0.26315 0.14239
#
# Static dielectric constant tensor:
#      x y z
#    x 2.038250 0.000000 0.000000 
#    y 0.000000 2.179890 0.000000 
#    z 0.000000 0.000000 2.452090 
# 
# From -- ./inp_files/20674.got.cif
#   From: 2010.05.17/outbox.cif.g08.bks.cpg/sg54_11_cif.got.tgz:20674.got - 2010.06.03 13:09:01.
