data_PCOD9422944
_publ_section_title
;
Structure prediction by ZEFSAII (Michael W. Deem and Ramdas Pophale) SiO2 
 PCOD9422944
Probable space group: P C C A
;
_chemical_formula_sum "Si O2"
_cell_formula_units_Z 48
_cell_length_a 8.151751
_cell_length_b 17.374824
_cell_length_c 15.616826
_cell_angle_alpha 90.000000
_cell_angle_beta 90.000000
_cell_angle_gamma 90.000000
_cell_volume 2211.892882
_symmetry_space_group_name_H-M "P C C A"
_symmetry_group_IT_number 54
_symmetry_cell_setting 'orthorhombic'
loop_
_space_group_symop_operation_xyz
x,y,z
1/2-x,-y,z
1/2+x,-y,1/2-z
-x,y,1/2-z
-x,-y,-z
1/2+x,y,-z
1/2-x,y,1/2+z
x,-y,1/2+z
loop_
_atom_site_type_symbol
_atom_site_label
_atom_site_fract_x
_atom_site_fract_y
_atom_site_fract_z
Si Si1 0.750000 0.000000 0.838745
Si Si2 0.000000 0.783406 0.750000
Si Si3 0.561197 0.527465 0.092766
Si Si4 0.004065 0.115156 0.088335
Si Si5 0.772386 0.328269 0.154737
Si Si6 0.500000 0.112583 0.250000
Si Si7 0.500000 0.568989 0.750000
Si Si8 0.649952 0.821147 0.583605
O O1 0.606493 0.037329 0.897382
O O2 0.847476 0.059316 0.778429
O O3 0.053264 0.835023 0.670886
O O4 0.145854 0.729640 0.779230
O O5 0.750000 0.500000 0.098280
O O6 0.587494 0.617682 0.112450
O O7 0.459824 0.487179 0.169586
O O8 0.500000 0.500000 0.000000
O O9 0.807465 0.121765 0.089360
O O10 0.056627 0.155834 0.001449
O O11 0.641280 0.378007 0.208512
O O12 0.697766 0.269221 0.085123
O O13 0.455121 0.163030 0.331967
#
# Coordination Sequence:
#
# PCOD9422944 Si02
#       8
#     4   4   8   8   8   4   4   8
#     4  12  24  42  68  94 132 176 216 278 338 380
#     4  10  22  42  64  92 126 164 212 262 318 386
#     4  10  23  39  60  92 124 160 208 254 307 378
#     4  11  25  42  64  96 129 168 222 271 324 397
#     4  10  22  40  64  91 128 172 207 262 325 374
#     4  12  24  42  68  96 130 174 222 276 334 400
#     4  10  22  40  62  92 124 162 212 254 314 386
#     4  11  25  43  65  96 131 171 221 270 327 398
#
# _framework density 21.700870999999999
#
# number of rings (size 3 to 8) (size 9 to 14) (size 15 to 20)
#    0.000    1.333    0.000    5.500    0.000   14.667 
#    0.000    0.000    0.000    0.000    0.000    0.000 
#    0.000    0.000    0.000    0.000    0.000    0.000 
#
# Total GULP energy -268058.804641 kJ/mol
# GULP energy per Si atom -5584.558430 kJ/mol
# Density = 2.165148 g / cm^3
# Si number density = 21.700871 Si / 1000 Ang^3
#
#
#
# Elastic Constant Matrix: (Units=GPa)
#
#
# Indices 1 2 3 4 5 6 
#
# 1 66.4388 19.0230 24.5887 0.0000 0.0000 0.0000
# 2 19.0230 68.6890 37.7843 0.0000 0.0000 0.0000
# 3 24.5887 37.7843 165.4563 0.0000 0.0000 0.0000
# 4 0.0000 0.0000 0.0000 35.7220 0.0000 0.0000
# 5 0.0000 0.0000 0.0000 0.0000 31.6121 0.0000
# 6 0.0000 0.0000 0.0000 0.0000 0.0000 -76.2285
#
#
#
# Elastic Compliance Matrix: (Units=1/GPa)
#
#
# Indices 1 2 3 4 5 6 
#
# 1 0.016725 -0.003734 -0.001633 0.000000 0.000000 0.000000
# 2 -0.003734 0.017483 -0.003438 0.000000 0.000000 0.000000
# 3 -0.001633 -0.003438 0.007072 0.000000 0.000000 0.000000
# 4 0.000000 0.000000 0.000000 0.027994 0.000000 0.000000
# 5 0.000000 0.000000 0.000000 0.000000 0.031633 0.000000
# 6 0.000000 0.000000 0.000000 0.000000 0.000000 -0.013118
#
#
# Mechanical properties :
#
#
# Convention : Reuss Voigt Hill
#
# Bulk Modulus (GPa) = 42.24514 51.48623 46.86568
# Shear Modulus (GPa) = 44.13544 12.83365 28.48455
#
# Velocity S-wave (km/s) = 4.51467 2.43449 3.62691
# Velocity P-wave (km/s) = 6.83269 5.62843 6.25959
#
# Compressibility (1/GPa) = 0.02367136
#
# Stress axis : x y z
#
# Youngs Moduli (GPa) = 59.79154 57.19713 141.41058
#
# Poissons Ratio (x) = 0.21355 0.23091
# Poissons Ratio (y) = 0.22324 0.48613
# Poissons Ratio (z) = 0.09763 0.19663
#
# Static dielectric constant tensor:
#      x y z
#    x 1.818500 0.000000 0.000000 
#    y 0.000000 1.911060 0.000000 
#    z 0.000000 0.000000 1.843970 
# 
# From -- ./inp_files/11796.got.cif
#   From: 2010.05.17/outbox.cif.g08.bks.cpg/sg54_6_cif.got.tgz:11796.got - 2010.06.03 13:09:01.
