data_PCOD9422150
_publ_section_title
;
Structure prediction by ZEFSAII (Michael W. Deem and Ramdas Pophale) SiO2 
 PCOD9422150
Probable space group: P C C A
;
_chemical_formula_sum "Si O2"
_cell_formula_units_Z 48
_cell_length_a 5.331274
_cell_length_b 22.898805
_cell_length_c 17.785097
_cell_angle_alpha 90.000000
_cell_angle_beta 90.000000
_cell_angle_gamma 90.000000
_cell_volume 2171.201151
_symmetry_space_group_name_H-M "P C C A"
_symmetry_group_IT_number 54
_symmetry_cell_setting 'orthorhombic'
loop_
_space_group_symop_operation_xyz
x,y,z
1/2-x,-y,z
1/2+x,-y,1/2-z
-x,y,1/2-z
-x,-y,-z
1/2+x,y,-z
1/2-x,y,1/2+z
x,-y,1/2+z
loop_
_atom_site_type_symbol
_atom_site_label
_atom_site_fract_x
_atom_site_fract_y
_atom_site_fract_z
Si Si1 0.000485 0.963720 0.839360
Si Si2 0.347594 0.266513 0.956171
Si Si3 0.752348 0.270327 0.219193
Si Si4 0.271823 0.429611 0.543669
Si Si5 0.374453 0.874114 0.459143
Si Si6 0.249055 0.401018 0.715162
O O1 0.000000 0.954788 0.750000
O O2 0.030187 0.903272 0.883008
O O3 0.750000 0.000000 0.859707
O O4 0.250000 0.000000 0.858921
O O5 0.277577 0.281672 0.869945
O O6 0.365399 0.195938 0.955348
O O7 0.619373 0.285155 0.988691
O O8 0.500000 0.240456 0.250000
O O9 0.749932 0.333318 0.260188
O O10 0.000000 0.238907 0.250000
O O11 0.250000 0.500000 0.550549
O O12 0.540257 0.413184 0.509480
O O13 0.244404 0.404512 0.626318
O O14 0.591842 0.891892 0.518467
O O15 0.500000 0.427698 0.750000
O O16 0.000000 0.428257 0.750000
#
# Coordination Sequence:
#
# PCOD9422150 Si02
#       6
#     8   8   8   8   8   8
#     4  10  21  36  53  78 112 146 181 221 271 330
#     4  10  21  39  60  83 113 147 188 238 287 340
#     4  10  21  39  58  84 116 148 192 238 289 348
#     4  10  21  38  60  86 117 155 196 238 289 345
#     4  10  21  36  56  82 108 141 185 228 275 327
#     4  10  21  38  57  85 118 149 191 238 286 344
#
# _framework density 22.107579000000001
#
# number of rings (size 3 to 8) (size 9 to 14) (size 15 to 20)
#    0.000    2.000    0.000    3.000    0.000    3.333 
#    0.000   22.500    0.000    0.000    0.000    0.000 
#    0.000    0.000    0.000    0.000    0.000    0.000 
#
# Total GULP energy -268241.324529 kJ/mol
# GULP energy per Si atom -5588.360928 kJ/mol
# Density = 2.205726 g / cm^3
# Si number density = 22.107579 Si / 1000 Ang^3
#
#
#
# Elastic Constant Matrix: (Units=GPa)
#
#
# Indices 1 2 3 4 5 6 
#
# 1 180.7249 4.3659 46.5562 0.0000 0.0000 0.0000
# 2 4.3659 45.4793 9.0177 0.0000 0.0000 0.0000
# 3 46.5562 9.0177 138.0102 0.0000 0.0000 0.0000
# 4 0.0000 0.0000 0.0000 -0.4929 0.0000 0.0000
# 5 0.0000 0.0000 0.0000 0.0000 35.5179 0.0000
# 6 0.0000 0.0000 0.0000 0.0000 0.0000 11.3422
#
#
#
# Elastic Compliance Matrix: (Units=1/GPa)
#
#
# Indices 1 2 3 4 5 6 
#
# 1 0.006061 -0.000179 -0.002033 0.000000 0.000000 0.000000
# 2 -0.000179 0.022282 -0.001396 0.000000 0.000000 0.000000
# 3 -0.002033 -0.001396 0.008023 0.000000 0.000000 0.000000
# 4 0.000000 0.000000 0.000000 -2.028713 0.000000 0.000000
# 5 0.000000 0.000000 0.000000 0.000000 0.028155 0.000000
# 6 0.000000 0.000000 0.000000 0.000000 0.000000 0.088166
#
#
# Mechanical properties :
#
#
# Convention : Reuss Voigt Hill
#
# Bulk Modulus (GPa) = 34.30384 53.78822 44.04603
# Shear Modulus (GPa) = -2.68948 29.55841 13.43447
#
# Velocity S-wave (km/s) = -1.10417 3.66050 2.46780
# Velocity P-wave (km/s) = 3.73161 6.49990 5.29970
#
# Compressibility (1/GPa) = 0.02915125
#
# Stress axis : x y z
#
# Youngs Moduli (GPa) = 164.98062 44.87946 124.64394
#
# Poissons Ratio (x) = 0.00802 0.25341
# Poissons Ratio (y) = 0.02949 0.17396
# Poissons Ratio (z) = 0.33541 0.06263
#
# Static dielectric constant tensor:
#      x y z
#    x 1.928930 0.000000 0.000000 
#    y 0.000000 1.786710 0.000000 
#    z 0.000000 0.000000 1.759660 
# 
# From -- ./inp_files/10916.got.cif
#   From: 2010.05.17/outbox.cif.g08.bks.cpg/sg54_6_cif.got.tgz:10916.got - 2010.06.03 13:09:01.
