data_PCOD9422991
_publ_section_title
;
Structure prediction by ZEFSAII (Michael W. Deem and Ramdas Pophale) SiO2 
 PCOD9422991
Probable space group: P C C A
;
_chemical_formula_sum "Si O2"
_cell_formula_units_Z 40
_cell_length_a 17.573336
_cell_length_b 10.694603
_cell_length_c 8.782174
_cell_angle_alpha 90.000000
_cell_angle_beta 90.000000
_cell_angle_gamma 90.000000
_cell_volume 1650.520481
_symmetry_space_group_name_H-M "P C C A"
_symmetry_group_IT_number 54
_symmetry_cell_setting 'orthorhombic'
loop_
_space_group_symop_operation_xyz
x,y,z
1/2-x,-y,z
1/2+x,-y,1/2-z
-x,y,1/2-z
-x,-y,-z
1/2+x,y,-z
1/2-x,y,1/2+z
x,-y,1/2+z
loop_
_atom_site_type_symbol
_atom_site_label
_atom_site_fract_x
_atom_site_fract_y
_atom_site_fract_z
Si Si1 0.555072 0.928207 0.381184
Si Si2 0.187625 0.767579 0.511307
Si Si3 0.596362 0.624102 0.986781
Si Si4 0.168895 0.148640 0.668955
Si Si5 0.000000 0.471586 0.250000
Si Si6 0.750000 0.500000 0.988014
O O1 0.500000 0.885127 0.250000
O O2 0.604192 0.813939 0.444879
O O3 0.500000 0.000000 0.500000
O O4 0.618291 0.025123 0.313680
O O5 0.251395 0.859217 0.580699
O O6 0.187591 0.782615 0.328539
O O7 0.211937 0.630270 0.573010
O O8 0.617809 0.761520 0.935865
O O9 0.563305 0.556252 0.835798
O O10 0.535508 0.609312 0.116866
O O11 0.673144 0.560296 0.053181
#
# Coordination Sequence:
#
# PCOD9422991 Si02
#       6
#     8   8   8   8   4   4
#     4  12  27  49  77 114 158 207 263 336 416 492
#     4  11  26  48  76 111 155 208 273 329 408 488
#     4  10  23  43  69 104 149 200 264 331 411 492
#     4  11  26  46  74 108 154 204 263 332 400 499
#     4  10  22  40  66 106 150 202 260 338 418 490
#     4  10  24  48  74 106 150 210 266 330 396 494
#
# _framework density 24.234779
#
# number of rings (size 3 to 8) (size 9 to 14) (size 15 to 20)
#    0.000    1.200    2.000    1.800    4.200   15.200 
#    3.600    0.000    0.000    0.000    0.000    0.000 
#    0.000    0.000    0.000    0.000    0.000    0.000 
#
# Total GULP energy -223475.252987 kJ/mol
# GULP energy per Si atom -5586.881325 kJ/mol
# Density = 2.417962 g / cm^3
# Si number density = 24.234779 Si / 1000 Ang^3
#
#
#
# Elastic Constant Matrix: (Units=GPa)
#
#
# Indices 1 2 3 4 5 6 
#
# 1 115.1876 53.1651 13.5446 0.0000 0.0000 0.0000
# 2 53.1651 119.3029 19.7455 0.0000 0.0000 0.0000
# 3 13.5446 19.7455 80.6433 0.0000 0.0000 0.0000
# 4 0.0000 0.0000 0.0000 8.9882 0.0000 0.0000
# 5 0.0000 0.0000 0.0000 0.0000 17.8598 0.0000
# 6 0.0000 0.0000 0.0000 0.0000 0.0000 53.4848
#
#
#
# Elastic Compliance Matrix: (Units=1/GPa)
#
#
# Indices 1 2 3 4 5 6 
#
# 1 0.010964 -0.004775 -0.000672 0.000000 0.000000 0.000000
# 2 -0.004775 0.010815 -0.001846 0.000000 0.000000 0.000000
# 3 -0.000672 -0.001846 0.012965 0.000000 0.000000 0.000000
# 4 0.000000 0.000000 0.000000 0.111257 0.000000 0.000000
# 5 0.000000 0.000000 0.000000 0.000000 0.055992 0.000000
# 6 0.000000 0.000000 0.000000 0.000000 0.000000 0.018697
#
#
# Mechanical properties :
#
#
# Convention : Reuss Voigt Hill
#
# Bulk Modulus (GPa) = 49.60757 54.22712 51.91734
# Shear Modulus (GPa) = 20.66140 31.31179 25.98659
#
# Velocity S-wave (km/s) = 2.92302 3.59837 3.27813
# Velocity P-wave (km/s) = 5.64854 6.29989 5.98309
#
# Compressibility (1/GPa) = 0.02015821
#
# Stress axis : x y z
#
# Youngs Moduli (GPa) = 91.20459 92.46099 77.12918
#
# Poissons Ratio (x) = 0.44148 0.05186
# Poissons Ratio (y) = 0.43548 0.14239
# Poissons Ratio (z) = 0.06133 0.17070
#
# Static dielectric constant tensor:
#      x y z
#    x 1.160660 0.000000 0.000000 
#    y 0.000000 1.966650 0.000000 
#    z 0.000000 0.000000 1.945830 
# 
# From -- ./inp_files/4024.got.cif
#   From: 2010.05.17/outbox.cif.g08.bks.cpg/sg54_3_cif.got.tgz:4024.got - 2010.06.03 13:09:01.
