data_PCOD9422405
_publ_section_title
;
Structure prediction by ZEFSAII (Michael W. Deem and Ramdas Pophale) SiO2 
 PCOD9422405
Probable space group: P C C A
;
_chemical_formula_sum "Si O2"
_cell_formula_units_Z 60
_cell_length_a 10.958083
_cell_length_b 11.936485
_cell_length_c 22.769365
_cell_angle_alpha 90.000000
_cell_angle_beta 90.000000
_cell_angle_gamma 90.000000
_cell_volume 2978.255560
_symmetry_space_group_name_H-M "P C C A"
_symmetry_group_IT_number 54
_symmetry_cell_setting 'orthorhombic'
loop_
_space_group_symop_operation_xyz
x,y,z
1/2-x,-y,z
1/2+x,-y,1/2-z
-x,y,1/2-z
-x,-y,-z
1/2+x,y,-z
1/2-x,y,1/2+z
x,-y,1/2+z
loop_
_atom_site_type_symbol
_atom_site_label
_atom_site_fract_x
_atom_site_fract_y
_atom_site_fract_z
Si Si1 0.726784 0.753715 0.474825
Si Si2 0.331721 0.191409 0.654206
Si Si3 0.250000 0.000000 0.233354
Si Si4 0.466659 0.378182 0.977147
Si Si5 0.793488 0.126273 0.594897
Si Si6 0.739907 0.629614 0.249981
Si Si7 0.602413 0.189955 0.201557
Si Si8 0.406833 0.298010 0.855880
O O1 0.730304 0.806609 0.409733
O O2 0.851586 0.682778 0.489451
O O3 0.597790 0.685679 0.477957
O O4 0.708676 0.843581 0.526609
O O5 0.270840 0.288693 0.694283
O O6 0.470449 0.228268 0.648078
O O7 0.330353 0.074629 0.689052
O O8 0.195069 0.905494 0.275346
O O9 0.423337 0.383901 0.909299
O O10 0.500000 0.500000 0.000000
O O11 0.914198 0.157466 0.633256
O O12 0.697183 0.211487 0.624394
O O13 0.750000 0.000000 0.601835
O O14 0.750000 0.500000 0.265420
O O15 0.849549 0.683588 0.211562
O O16 0.626509 0.647300 0.205908
O O17 0.500000 0.176383 0.250000
#
# Coordination Sequence:
#
# PCOD9422405 Si02
#       8
#     8   8   4   8   8   8   8   8
#     4  10  23  40  59  94 126 162 219 259 319 386
#     4  10  22  39  58  88 123 163 208 257 317 382
#     4  10  22  36  56  82 116 156 198 256 312 364
#     4  10  21  40  64  89 125 168 211 266 321 385
#     4  10  21  39  61  89 123 165 208 262 313 383
#     4  10  22  39  60  89 123 159 207 267 318 380
#     4  10  22  37  59  91 119 156 210 256 316 380
#     4   9  21  39  59  89 118 162 214 249 320 390
#
# _framework density 20.146021999999999
#
# number of rings (size 3 to 8) (size 9 to 14) (size 15 to 20)
#    0.000    2.133    0.667    0.800    2.800    8.533 
#    0.000    2.000    0.000    0.000    0.000    0.000 
#    0.000    0.000    0.000    0.000    0.000    0.000 
#
# Total GULP energy -334150.070509 kJ/mol
# GULP energy per Si atom -5569.167842 kJ/mol
# Density = 2.010017 g / cm^3
# Si number density = 20.146022 Si / 1000 Ang^3
#
#
#
# Elastic Constant Matrix: (Units=GPa)
#
#
# Indices 1 2 3 4 5 6 
#
# 1 42.4092 -5.0273 10.1737 0.0000 0.0000 0.0000
# 2 -5.0273 83.8724 37.6726 0.0000 0.0000 0.0000
# 3 10.1737 37.6726 141.2735 0.0000 0.0000 0.0000
# 4 0.0000 0.0000 0.0000 22.3318 0.0000 0.0000
# 5 0.0000 0.0000 0.0000 0.0000 34.5424 0.0000
# 6 0.0000 0.0000 0.0000 0.0000 0.0000 7.2947
#
#
#
# Elastic Compliance Matrix: (Units=1/GPa)
#
#
# Indices 1 2 3 4 5 6 
#
# 1 0.024471 0.002566 -0.002446 0.000000 0.000000 0.000000
# 2 0.002566 0.013814 -0.003869 0.000000 0.000000 0.000000
# 3 -0.002446 -0.003869 0.008286 0.000000 0.000000 0.000000
# 4 0.000000 0.000000 0.000000 0.044779 0.000000 0.000000
# 5 0.000000 0.000000 0.000000 0.000000 0.028950 0.000000
# 6 0.000000 0.000000 0.000000 0.000000 0.000000 0.137086
#
#
# Mechanical properties :
#
#
# Convention : Reuss Voigt Hill
#
# Bulk Modulus (GPa) = 25.59334 39.24368 32.41851
# Shear Modulus (GPa) = 17.99148 27.81618 22.90383
#
# Velocity S-wave (km/s) = 2.99164 3.71985 3.37544
# Velocity P-wave (km/s) = 4.96636 6.16211 5.59626
#
# Compressibility (1/GPa) = 0.03907267
#
# Stress axis : x y z
#
# Youngs Moduli (GPa) = 40.86504 72.38887 120.68190
#
# Poissons Ratio (x) = -0.18572 0.29524
# Poissons Ratio (y) = -0.10484 0.46686
# Poissons Ratio (z) = 0.09997 0.28004
#
# Static dielectric constant tensor:
#      x y z
#    x 1.836060 0.000000 0.000000 
#    y 0.000000 1.664670 0.000000 
#    z 0.000000 0.000000 1.788620 
# 
# From -- ./inp_files/21242.got.cif
#   From: 2010.05.17/outbox.cif.g08.bks.cpg/sg54_11_cif.got.tgz:21242.got - 2010.06.03 13:09:01.
