data_PCOD9422368
_publ_section_title
;
Structure prediction by ZEFSAII (Michael W. Deem and Ramdas Pophale) SiO2 
 PCOD9422368
Probable space group: P C C A
;
_chemical_formula_sum "Si O2"
_cell_formula_units_Z 36
_cell_length_a 14.608973
_cell_length_b 6.114066
_cell_length_c 19.984353
_cell_angle_alpha 90.000000
_cell_angle_beta 90.000000
_cell_angle_gamma 90.000000
_cell_volume 1785.006909
_symmetry_space_group_name_H-M "P C C A"
_symmetry_group_IT_number 54
_symmetry_cell_setting 'orthorhombic'
loop_
_space_group_symop_operation_xyz
x,y,z
1/2-x,-y,z
1/2+x,-y,1/2-z
-x,y,1/2-z
-x,-y,-z
1/2+x,y,-z
1/2-x,y,1/2+z
x,-y,1/2+z
loop_
_atom_site_type_symbol
_atom_site_label
_atom_site_fract_x
_atom_site_fract_y
_atom_site_fract_z
Si Si1 0.598256 0.711554 0.567660
Si Si2 0.520004 0.068571 0.326643
Si Si3 0.507595 0.683691 0.432243
Si Si4 0.250000 0.000000 0.500009
Si Si5 0.834344 0.341615 0.894174
O O1 0.559735 0.788396 0.638609
O O2 0.528909 0.771101 0.506298
O O3 0.588326 0.447845 0.569735
O O4 0.687643 0.842073 0.545667
O O5 0.500000 0.021544 0.250000
O O6 0.614978 0.199856 0.337187
O O7 0.518843 0.857211 0.374055
O O8 0.588302 0.507801 0.420310
O O9 0.196753 0.166857 0.549620
O O10 0.750000 0.500000 0.875103
#
# Coordination Sequence:
#
# PCOD9422368 Si02
#       5
#     8   8   8   4   8
#     4  10  22  37  65  96 124 162 215 271 321 388
#     4  11  24  42  64  91 131 175 213 262 327 397
#     4  10  21  38  64  95 123 165 221 267 319 382
#     4  12  22  38  64 102 130 160 208 282 336 376
#     4  11  21  38  66  97 125 164 215 268 328 387
#
# _framework density 20.167988000000001
#
# number of rings (size 3 to 8) (size 9 to 14) (size 15 to 20)
#    0.000    1.333    4.444    0.667    6.222    3.556 
#    0.000    3.333    4.889    0.000    0.000    0.000 
#    0.000    0.000    0.000    0.000    0.000    0.000 
#
# Total GULP energy -200740.207531 kJ/mol
# GULP energy per Si atom -5576.116876 kJ/mol
# Density = 2.012208 g / cm^3
# Si number density = 20.167988 Si / 1000 Ang^3
#
#
#
# Elastic Constant Matrix: (Units=GPa)
#
#
# Indices 1 2 3 4 5 6 
#
# 1 78.7947 21.0109 8.1078 0.0000 0.0000 0.0000
# 2 21.0109 60.9351 9.8490 0.0000 0.0000 0.0000
# 3 8.1078 9.8490 120.5545 0.0000 0.0000 0.0000
# 4 0.0000 0.0000 0.0000 11.8043 0.0000 0.0000
# 5 0.0000 0.0000 0.0000 0.0000 22.0680 0.0000
# 6 0.0000 0.0000 0.0000 0.0000 0.0000 42.3122
#
#
#
# Elastic Compliance Matrix: (Units=1/GPa)
#
#
# Indices 1 2 3 4 5 6 
#
# 1 0.014013 -0.004742 -0.000555 0.000000 0.000000 0.000000
# 2 -0.004742 0.018235 -0.001171 0.000000 0.000000 0.000000
# 3 -0.000555 -0.001171 0.008428 0.000000 0.000000 0.000000
# 4 0.000000 0.000000 0.000000 0.084715 0.000000 0.000000
# 5 0.000000 0.000000 0.000000 0.000000 0.045314 0.000000
# 6 0.000000 0.000000 0.000000 0.000000 0.000000 0.023634
#
#
# Mechanical properties :
#
#
# Convention : Reuss Voigt Hill
#
# Bulk Modulus (GPa) = 36.04871 37.57998 36.81435
# Shear Modulus (GPa) = 23.09241 29.99135 26.54188
#
# Velocity S-wave (km/s) = 3.38746 3.86045 3.63166
# Velocity P-wave (km/s) = 5.76306 6.20844 5.98989
#
# Compressibility (1/GPa) = 0.02774024
#
# Stress axis : x y z
#
# Youngs Moduli (GPa) = 71.36338 54.83889 118.65232
#
# Poissons Ratio (x) = 0.26005 0.06585
# Poissons Ratio (y) = 0.33841 0.13893
# Poissons Ratio (z) = 0.03961 0.06421
#
# Static dielectric constant tensor:
#      x y z
#    x 1.800450 0.000000 0.000000 
#    y 0.000000 1.808320 0.000000 
#    z 0.000000 0.000000 1.653580 
# 
# From -- ./inp_files/21317.got.cif
#   From: 2010.05.17/outbox.cif.g08.bks.cpg/sg54_11_cif.got.tgz:21317.got - 2010.06.03 13:09:01.
