data_PCOD9422942
_publ_section_title
;
Structure prediction by ZEFSAII (Michael W. Deem and Ramdas Pophale) SiO2 
 PCOD9422942
Probable space group: P C C A
;
_chemical_formula_sum "Si O2"
_cell_formula_units_Z 48
_cell_length_a 10.110412
_cell_length_b 8.567443
_cell_length_c 27.323919
_cell_angle_alpha 90.000000
_cell_angle_beta 90.000000
_cell_angle_gamma 90.000000
_cell_volume 2366.808206
_symmetry_space_group_name_H-M "P C C A"
_symmetry_group_IT_number 54
_symmetry_cell_setting 'orthorhombic'
loop_
_space_group_symop_operation_xyz
x,y,z
1/2-x,-y,z
1/2+x,-y,1/2-z
-x,y,1/2-z
-x,-y,-z
1/2+x,y,-z
1/2-x,y,1/2+z
x,-y,1/2+z
loop_
_atom_site_type_symbol
_atom_site_label
_atom_site_fract_x
_atom_site_fract_y
_atom_site_fract_z
Si Si1 0.470584 0.802782 0.655895
Si Si2 0.518256 0.831039 0.367563
Si Si3 0.384354 0.297062 0.531922
Si Si4 0.086667 0.332817 0.550144
Si Si5 0.262199 0.186820 0.812238
Si Si6 0.277299 0.683026 0.208450
O O1 0.430094 0.714374 0.606332
O O2 0.616471 0.755441 0.673539
O O3 0.360644 0.767901 0.696194
O O4 0.469228 0.986567 0.644723
O O5 0.557435 0.800345 0.423180
O O6 0.368157 0.784823 0.354935
O O7 0.616688 0.737124 0.331785
O O8 0.227069 0.271733 0.529618
O O9 0.407056 0.479664 0.545410
O O10 0.465188 0.270405 0.482260
O O11 0.315454 0.265756 0.762954
O O12 0.250000 0.000000 0.804143
O O13 0.250000 0.500000 0.205478
#
# Coordination Sequence:
#
# PCOD9422942 Si02
#       6
#     8   8   8   8   8   8
#     4  11  23  41  64  90 124 164 204 252 305 360
#     4  11  23  41  64  90 124 164 204 252 305 360
#     4  10  22  40  62  90 124 161 201 248 302 361
#     4  10  22  40  62  90 124 161 201 248 302 361
#     4  10  24  42  61  90 125 162 205 250 302 362
#     4  12  24  40  63  92 123 160 207 254 306 364
#
# _framework density 20.280477999999999
#
# number of rings (size 3 to 8) (size 9 to 14) (size 15 to 20)
#    0.000    1.333    1.667    3.500    2.333    7.333 
#    0.000    0.000    0.000    0.000    0.000    0.000 
#    0.000    0.000    0.000    0.000    0.000    0.000 
#
# Total GULP energy -268464.253595 kJ/mol
# GULP energy per Si atom -5593.005283 kJ/mol
# Density = 2.023432 g / cm^3
# Si number density = 20.280478 Si / 1000 Ang^3
#
#
#
# Elastic Constant Matrix: (Units=GPa)
#
#
# Indices 1 2 3 4 5 6 
#
# 1 61.3071 -5.8320 -11.4598 0.0000 0.0000 0.0000
# 2 -5.8320 15.9855 -2.8686 0.0000 0.0000 0.0000
# 3 -11.4598 -2.8686 32.3780 0.0000 0.0000 0.0000
# 4 0.0000 0.0000 0.0000 33.0838 0.0000 0.0000
# 5 0.0000 0.0000 0.0000 0.0000 37.1323 0.0000
# 6 0.0000 0.0000 0.0000 0.0000 0.0000 15.8934
#
#
#
# Elastic Compliance Matrix: (Units=1/GPa)
#
#
# Indices 1 2 3 4 5 6 
#
# 1 0.018426 0.008020 0.007232 0.000000 0.000000 0.000000
# 2 0.008020 0.067059 0.008780 0.000000 0.000000 0.000000
# 3 0.007232 0.008780 0.034223 0.000000 0.000000 0.000000
# 4 0.000000 0.000000 0.000000 0.030226 0.000000 0.000000
# 5 0.000000 0.000000 0.000000 0.000000 0.026931 0.000000
# 6 0.000000 0.000000 0.000000 0.000000 0.000000 0.062919
#
#
# Mechanical properties :
#
#
# Convention : Reuss Voigt Hill
#
# Bulk Modulus (GPa) = 5.96045 7.70553 6.83299
# Shear Modulus (GPa) = 20.19037 25.87729 23.03383
#
# Velocity S-wave (km/s) = 3.15867 3.57595 3.37377
# Velocity P-wave (km/s) = 4.03092 4.56701 4.30731
#
# Compressibility (1/GPa) = 0.16777251
#
# Stress axis : x y z
#
# Youngs Moduli (GPa) = 54.27065 14.91235 29.22024
#
# Poissons Ratio (x) = -0.11960 -0.21133
# Poissons Ratio (y) = -0.43527 -0.25655
# Poissons Ratio (z) = -0.39250 -0.13093
#
# Static dielectric constant tensor:
#      x y z
#    x 1.722820 0.000000 0.000000 
#    y 0.000000 1.703440 0.000000 
#    z 0.000000 0.000000 1.664470 
# 
# From -- ./inp_files/27738.got.cif
#   From: 2010.05.17/outbox.cif.g08.bks.cpg/sg54_14_cif.got.tgz:27738.got - 2010.06.03 13:09:01.
