data_PCOD9422371
_publ_section_title
;
Structure prediction by ZEFSAII (Michael W. Deem and Ramdas Pophale) SiO2 
 PCOD9422371
Probable space group: P C C A
;
_chemical_formula_sum "Si O2"
_cell_formula_units_Z 40
_cell_length_a 23.259151
_cell_length_b 5.597641
_cell_length_c 13.504250
_cell_angle_alpha 90.000000
_cell_angle_beta 90.000000
_cell_angle_gamma 90.000000
_cell_volume 1758.204428
_symmetry_space_group_name_H-M "P C C A"
_symmetry_group_IT_number 54
_symmetry_cell_setting 'orthorhombic'
loop_
_space_group_symop_operation_xyz
x,y,z
1/2-x,-y,z
1/2+x,-y,1/2-z
-x,y,1/2-z
-x,-y,-z
1/2+x,y,-z
1/2-x,y,1/2+z
x,-y,1/2+z
loop_
_atom_site_type_symbol
_atom_site_label
_atom_site_fract_x
_atom_site_fract_y
_atom_site_fract_z
Si Si1 0.558469 0.540544 0.717649
Si Si2 0.123174 0.472417 0.097292
Si Si3 0.854156 0.766948 0.584711
Si Si4 0.282597 0.757741 0.224123
Si Si5 0.446527 0.148862 0.461673
O O1 0.500000 0.411628 0.750000
O O2 0.595807 0.620560 0.812080
O O3 0.598994 0.378940 0.649547
O O4 0.539397 0.752766 0.646582
O O5 0.163180 0.279973 0.151588
O O6 0.158011 0.619151 0.015017
O O7 0.069758 0.355546 0.039119
O O8 0.802910 0.796867 0.662107
O O9 0.887330 0.002972 0.551147
O O10 0.250000 0.500000 0.219931
O O11 0.250000 0.000000 0.194596
O O12 0.500000 0.000000 0.500000
#
# Coordination Sequence:
#
# PCOD9422371 Si02
#       5
#     8   8   8   8   8
#     4  10  21  38  64  98 144 182 231 281 354 433
#     4  10  24  44  68 100 140 185 234 299 361 434
#     4  10  24  43  68  97 144 179 234 301 355 433
#     4  11  28  49  75 104 140 189 251 305 366 421
#     4  11  23  40  70 106 140 186 233 290 367 442
#
# _framework density 22.750482999999999
#
# number of rings (size 3 to 8) (size 9 to 14) (size 15 to 20)
#    0.000    1.600    0.000    2.400   11.200    9.600 
#    0.000    0.000    0.000    0.000    0.000    0.000 
#    0.000    0.000    0.000    0.000    0.000    0.000 
#
# Total GULP energy -223516.503652 kJ/mol
# GULP energy per Si atom -5587.912591 kJ/mol
# Density = 2.269870 g / cm^3
# Si number density = 22.750483 Si / 1000 Ang^3
#
#
#
# Elastic Constant Matrix: (Units=GPa)
#
#
# Indices 1 2 3 4 5 6 
#
# 1 64.9542 18.6159 32.3311 0.0000 0.0000 0.0000
# 2 18.6159 59.4758 30.0416 0.0000 0.0000 0.0000
# 3 32.3311 30.0416 157.6623 0.0000 0.0000 0.0000
# 4 0.0000 0.0000 0.0000 -0.2147 0.0000 0.0000
# 5 0.0000 0.0000 0.0000 0.0000 29.8926 0.0000
# 6 0.0000 0.0000 0.0000 0.0000 0.0000 36.5000
#
#
#
# Elastic Compliance Matrix: (Units=1/GPa)
#
#
# Indices 1 2 3 4 5 6 
#
# 1 0.018038 -0.004180 -0.002903 0.000000 0.000000 0.000000
# 2 -0.004180 0.019573 -0.002872 0.000000 0.000000 0.000000
# 3 -0.002903 -0.002872 0.007485 0.000000 0.000000 0.000000
# 4 0.000000 0.000000 0.000000 -4.657529 0.000000 0.000000
# 5 0.000000 0.000000 0.000000 0.000000 0.033453 0.000000
# 6 0.000000 0.000000 0.000000 0.000000 0.000000 0.027397
#
#
# Mechanical properties :
#
#
# Convention : Reuss Voigt Hill
#
# Bulk Modulus (GPa) = 39.70366 49.34106 44.52236
# Shear Modulus (GPa) = -1.10539 26.64249 12.76855
#
# Velocity S-wave (km/s) = -0.69780 3.42581 2.37163
# Velocity P-wave (km/s) = 4.10371 6.11418 5.20690
#
# Compressibility (1/GPa) = 0.02518660
#
# Stress axis : x y z
#
# Youngs Moduli (GPa) = 55.43804 51.09165 133.59722
#
# Poissons Ratio (x) = 0.21355 0.38777
# Poissons Ratio (y) = 0.23172 0.38373
# Poissons Ratio (z) = 0.16091 0.14675
#
# Static dielectric constant tensor:
#      x y z
#    x 1.812490 0.000000 0.000000 
#    y 0.000000 1.918240 0.000000 
#    z 0.000000 0.000000 1.858310 
# 
# From -- ./inp_files/10132.got.cif
#   From: 2010.05.17/outbox.cif.g08.bks.cpg/sg54_6_cif.got.tgz:10132.got - 2010.06.03 13:09:01.
