data_PCOD9422960
_publ_section_title
;
Structure prediction by ZEFSAII (Michael W. Deem and Ramdas Pophale) SiO2 
 PCOD9422960
Probable space group: P C C A
;
_chemical_formula_sum "Si O2"
_cell_formula_units_Z 48
_cell_length_a 8.712512
_cell_length_b 18.627895
_cell_length_c 13.789305
_cell_angle_alpha 90.000000
_cell_angle_beta 90.000000
_cell_angle_gamma 90.000000
_cell_volume 2237.945717
_symmetry_space_group_name_H-M "P C C A"
_symmetry_group_IT_number 54
_symmetry_cell_setting 'orthorhombic'
loop_
_space_group_symop_operation_xyz
x,y,z
1/2-x,-y,z
1/2+x,-y,1/2-z
-x,y,1/2-z
-x,-y,-z
1/2+x,y,-z
1/2-x,y,1/2+z
x,-y,1/2+z
loop_
_atom_site_type_symbol
_atom_site_label
_atom_site_fract_x
_atom_site_fract_y
_atom_site_fract_z
Si Si1 0.867045 0.553482 0.463426
Si Si2 0.068109 0.983986 0.650360
Si Si3 0.277827 0.329693 0.655849
Si Si4 0.637714 0.343467 0.624108
Si Si5 0.675308 0.212154 0.480907
Si Si6 0.919530 0.889269 0.039539
O O1 0.750000 0.500000 0.412604
O O2 0.859852 0.622199 0.391011
O O3 0.800782 0.589808 0.561643
O O4 0.000000 0.500000 0.500000
O O5 0.000000 0.954772 0.750000
O O6 0.048753 0.930102 0.561176
O O7 0.250000 0.000000 0.658935
O O8 0.970600 0.055382 0.622190
O O9 0.451856 0.353627 0.626688
O O10 0.286387 0.335353 0.771346
O O11 0.258189 0.250277 0.610031
O O12 0.666852 0.271826 0.563279
O O13 0.510420 0.184856 0.447917
O O14 0.749066 0.139922 0.524588
#
# Coordination Sequence:
#
# PCOD9422960 Si02
#       6
#     8   8   8   8   8   8
#     4  11  22  41  64  91 130 171 209 258 323 384
#     4  11  26  42  64  96 131 168 216 273 322 385
#     4  10  22  40  63  95 126 165 214 270 317 380
#     4  10  22  40  64  93 127 163 217 268 318 379
#     4  11  22  41  66  92 125 173 210 270 326 385
#     4  11  24  43  64  90 131 170 218 261 327 390
#
# _framework density 21.448242
#
# number of rings (size 3 to 8) (size 9 to 14) (size 15 to 20)
#    0.000    1.333    5.000    0.000    2.333    3.333 
#    0.000    1.667    0.000    0.000    0.000    0.000 
#    0.000    0.000    0.000    0.000    0.000    0.000 
#
# Total GULP energy -267411.932192 kJ/mol
# GULP energy per Si atom -5571.081921 kJ/mol
# Density = 2.139942 g / cm^3
# Si number density = 21.448242 Si / 1000 Ang^3
#
#
#
# Elastic Constant Matrix: (Units=GPa)
#
#
# Indices 1 2 3 4 5 6 
#
# 1 51.0068 11.7589 4.1532 0.0000 0.0000 0.0000
# 2 11.7589 77.3027 13.7573 0.0000 0.0000 0.0000
# 3 4.1532 13.7573 85.5648 0.0000 0.0000 0.0000
# 4 0.0000 0.0000 0.0000 9.4639 0.0000 0.0000
# 5 0.0000 0.0000 0.0000 0.0000 25.6570 0.0000
# 6 0.0000 0.0000 0.0000 0.0000 0.0000 46.3192
#
#
#
# Elastic Compliance Matrix: (Units=1/GPa)
#
#
# Indices 1 2 3 4 5 6 
#
# 1 0.020339 -0.003004 -0.000504 0.000000 0.000000 0.000000
# 2 -0.003004 0.013761 -0.002067 0.000000 0.000000 0.000000
# 3 -0.000504 -0.002067 0.012044 0.000000 0.000000 0.000000
# 4 0.000000 0.000000 0.000000 0.105665 0.000000 0.000000
# 5 0.000000 0.000000 0.000000 0.000000 0.038976 0.000000
# 6 0.000000 0.000000 0.000000 0.000000 0.000000 0.021589
#
#
# Mechanical properties :
#
#
# Convention : Reuss Voigt Hill
#
# Bulk Modulus (GPa) = 28.57669 30.35700 29.46685
# Shear Modulus (GPa) = 21.25960 28.56836 24.91398
#
# Velocity S-wave (km/s) = 3.15176 3.65357 3.41190
# Velocity P-wave (km/s) = 5.15725 5.65530 5.41201
#
# Compressibility (1/GPa) = 0.03499356
#
# Stress axis : x y z
#
# Youngs Moduli (GPa) = 49.16701 72.66954 83.03020
#
# Poissons Ratio (x) = 0.21831 0.04187
# Poissons Ratio (y) = 0.14770 0.17160
# Poissons Ratio (z) = 0.02479 0.15019
#
# Static dielectric constant tensor:
#      x y z
#    x 2.432420 0.000000 0.000000 
#    y 0.000000 1.793420 0.000000 
#    z 0.000000 0.000000 1.738950 
# 
# From -- ./inp_files/11735.got.cif
#   From: 2010.05.17/outbox.cif.g08.bks.cpg/sg54_6_cif.got.tgz:11735.got - 2010.06.03 13:09:01.
