data_PCOD9422458
_publ_section_title
;
Structure prediction by ZEFSAII (Michael W. Deem and Ramdas Pophale) SiO2 
 PCOD9422458
Probable space group: P C C A
;
_chemical_formula_sum "Si O2"
_cell_formula_units_Z 48
_cell_length_a 25.009179
_cell_length_b 5.276549
_cell_length_c 18.507748
_cell_angle_alpha 90.000000
_cell_angle_beta 90.000000
_cell_angle_gamma 90.000000
_cell_volume 2442.322374
_symmetry_space_group_name_H-M "P C C A"
_symmetry_group_IT_number 54
_symmetry_cell_setting 'orthorhombic'
loop_
_space_group_symop_operation_xyz
x,y,z
1/2-x,-y,z
1/2+x,-y,1/2-z
-x,y,1/2-z
-x,-y,-z
1/2+x,y,-z
1/2-x,y,1/2+z
x,-y,1/2+z
loop_
_atom_site_type_symbol
_atom_site_label
_atom_site_fract_x
_atom_site_fract_y
_atom_site_fract_z
Si Si1 0.812398 0.998965 0.094700
Si Si2 0.313304 0.501778 0.497576
Si Si3 0.479920 0.792576 0.444044
Si Si4 0.579683 0.509249 0.927643
Si Si5 0.903508 0.826907 0.692732
Si Si6 0.061691 0.677587 0.228412
O O1 0.823688 0.720239 0.061756
O O2 0.750000 0.000000 0.111700
O O3 0.822679 0.217637 0.034765
O O4 0.846114 0.087747 0.163000
O O5 0.250000 0.500000 0.518019
O O6 0.358324 0.451615 0.557965
O O7 0.445044 0.608562 0.496200
O O8 0.535841 0.703026 0.410242
O O9 0.441447 0.850713 0.377818
O O10 0.500000 0.000000 0.500000
O O11 0.573422 0.677949 0.856830
O O12 0.907347 0.550813 0.729639
O O13 0.923059 0.045412 0.745159
O O14 0.000000 0.631787 0.250000
#
# Coordination Sequence:
#
# PCOD9422458 Si02
#       6
#     8   8   8   8   8   8
#     4  10  21  40  66  94 123 162 217 270 313 370
#     4  10  21  39  65  94 125 161 212 272 323 367
#     4  11  23  38  67  91 122 162 222 266 304 376
#     4  11  24  40  61  98 125 167 212 268 316 380
#     4  12  24  42  63  92 127 169 212 254 319 387
#     4  12  26  42  60  92 137 173 202 256 336 385
#
# _framework density 19.653427000000001
#
# number of rings (size 3 to 8) (size 9 to 14) (size 15 to 20)
#    0.000    1.000    3.333    3.500    4.667    0.000 
#    0.000    1.667    0.000    0.000    0.000    0.000 
#    0.000    0.000    0.000    0.000    0.000    0.000 
#
# Total GULP energy -267653.884146 kJ/mol
# GULP energy per Si atom -5576.122586 kJ/mol
# Density = 1.960869 g / cm^3
# Si number density = 19.653427 Si / 1000 Ang^3
#
#
#
# Elastic Constant Matrix: (Units=GPa)
#
#
# Indices 1 2 3 4 5 6 
#
# 1 91.4496 -9.9218 11.8065 0.0000 0.0000 0.0000
# 2 -9.9218 51.2612 -4.8074 0.0000 0.0000 0.0000
# 3 11.8065 -4.8074 70.1780 0.0000 0.0000 0.0000
# 4 0.0000 0.0000 0.0000 35.3759 0.0000 0.0000
# 5 0.0000 0.0000 0.0000 0.0000 10.6606 0.0000
# 6 0.0000 0.0000 0.0000 0.0000 0.0000 4.5255
#
#
#
# Elastic Compliance Matrix: (Units=1/GPa)
#
#
# Indices 1 2 3 4 5 6 
#
# 1 0.011385 0.002037 -0.001776 0.000000 0.000000 0.000000
# 2 0.002037 0.019999 0.001027 0.000000 0.000000 0.000000
# 3 -0.001776 0.001027 0.014619 0.000000 0.000000 0.000000
# 4 0.000000 0.000000 0.000000 0.028268 0.000000 0.000000
# 5 0.000000 0.000000 0.000000 0.000000 0.093804 0.000000
# 6 0.000000 0.000000 0.000000 0.000000 0.000000 0.220971
#
#
# Mechanical properties :
#
#
# Convention : Reuss Voigt Hill
#
# Bulk Modulus (GPa) = 20.58484 23.00483 21.79483
# Shear Modulus (GPa) = 12.41741 24.49982 18.45861
#
# Velocity S-wave (km/s) = 2.51633 3.53454 3.06797
# Velocity P-wave (km/s) = 4.35192 5.32804 4.86452
#
# Compressibility (1/GPa) = 0.04857944
#
# Stress axis : x y z
#
# Youngs Moduli (GPa) = 87.83271 50.00355 68.40593
#
# Poissons Ratio (x) = -0.10186 0.12148
# Poissons Ratio (y) = -0.17893 -0.07027
# Poissons Ratio (z) = 0.15598 -0.05136
#
# Static dielectric constant tensor:
#      x y z
#    x 1.860350 0.000000 0.000000 
#    y 0.000000 1.743460 0.000000 
#    z 0.000000 0.000000 1.674680 
# 
# From -- ./inp_files/19056.got.cif
#   From: 2010.05.17/outbox.cif.g08.bks.cpg/sg54_10_cif.got.tgz:19056.got - 2010.06.03 13:09:01.
