data_PCOD9422937
_publ_section_title
;
Structure prediction by ZEFSAII (Michael W. Deem and Ramdas Pophale) SiO2 
 PCOD9422937
Probable space group: P C C A
;
_chemical_formula_sum "Si O2"
_cell_formula_units_Z 60
_cell_length_a 29.499360
_cell_length_b 11.118956
_cell_length_c 8.875451
_cell_angle_alpha 90.000000
_cell_angle_beta 90.000000
_cell_angle_gamma 90.000000
_cell_volume 2911.166441
_symmetry_space_group_name_H-M "P C C A"
_symmetry_group_IT_number 54
_symmetry_cell_setting 'orthorhombic'
loop_
_space_group_symop_operation_xyz
x,y,z
1/2-x,-y,z
1/2+x,-y,1/2-z
-x,y,1/2-z
-x,-y,-z
1/2+x,y,-z
1/2-x,y,1/2+z
x,-y,1/2+z
loop_
_atom_site_type_symbol
_atom_site_label
_atom_site_fract_x
_atom_site_fract_y
_atom_site_fract_z
Si Si1 0.053533 0.653450 0.730637
Si Si2 0.744695 0.630522 0.599669
Si Si3 0.250000 0.000000 0.637372
Si Si4 0.104198 0.486242 0.968059
Si Si5 0.295175 0.764168 0.179805
Si Si6 0.342865 0.360141 0.204737
Si Si7 0.848355 0.096431 0.938099
Si Si8 0.614225 0.127864 0.773834
O O1 0.078615 0.589328 0.871989
O O2 0.070876 0.583035 0.582163
O O3 0.069331 0.792600 0.721300
O O4 0.000000 0.643161 0.750000
O O5 0.750000 0.500000 0.532085
O O6 0.727614 0.719549 0.472652
O O7 0.790019 0.673610 0.682096
O O8 0.707730 0.624855 0.732698
O O9 0.267692 0.116097 0.726845
O O10 0.203130 0.042389 0.557492
O O11 0.125638 0.395626 0.846413
O O12 0.142549 0.549299 0.071631
O O13 0.347047 0.790754 0.147859
O O14 0.347685 0.223593 0.147840
O O15 0.880574 0.000889 0.852477
O O16 0.867894 0.113474 0.104035
#
# Coordination Sequence:
#
# PCOD9422937 Si02
#       8
#     8   8   4   8   8   8   8   8
#     4  11  23  46  73 104 136 169 223 284 349 422
#     4  12  27  38  58  92 137 182 221 271 328 388
#     4  10  22  40  62  88 118 176 230 268 304 366
#     4  10  24  42  74 100 132 179 222 274 352 412
#     4  11  25  41  61  90 130 175 230 277 323 382
#     4  11  24  43  66  96 138 179 227 277 332 408
#     4  11  24  43  68  95 137 178 231 279 326 397
#     4  11  26  43  68  96 131 176 223 280 346 391
#
# _framework density 20.610295000000001
#
# number of rings (size 3 to 8) (size 9 to 14) (size 15 to 20)
#    0.000    1.067    2.667    2.400   13.067    2.667 
#    0.000    0.667    0.000    0.000    0.000    0.000 
#    0.000    0.000    0.000    0.000    0.000    0.000 
#
# Total GULP energy -335666.885166 kJ/mol
# GULP energy per Si atom -5594.448086 kJ/mol
# Density = 2.056339 g / cm^3
# Si number density = 20.610295 Si / 1000 Ang^3
#
#
#
# Elastic Constant Matrix: (Units=GPa)
#
#
# Indices 1 2 3 4 5 6 
#
# 1 68.4960 21.4699 23.7082 0.0000 0.0000 0.0000
# 2 21.4699 108.2924 43.6288 0.0000 0.0000 0.0000
# 3 23.7082 43.6288 110.9906 0.0000 0.0000 0.0000
# 4 0.0000 0.0000 0.0000 26.5888 0.0000 0.0000
# 5 0.0000 0.0000 0.0000 0.0000 21.5339 0.0000
# 6 0.0000 0.0000 0.0000 0.0000 0.0000 27.6668
#
#
#
# Elastic Compliance Matrix: (Units=1/GPa)
#
#
# Indices 1 2 3 4 5 6 
#
# 1 0.016178 -0.002157 -0.002608 0.000000 0.000000 0.000000
# 2 -0.002157 0.011259 -0.003965 0.000000 0.000000 0.000000
# 3 -0.002608 -0.003965 0.011126 0.000000 0.000000 0.000000
# 4 0.000000 0.000000 0.000000 0.037610 0.000000 0.000000
# 5 0.000000 0.000000 0.000000 0.000000 0.046438 0.000000
# 6 0.000000 0.000000 0.000000 0.000000 0.000000 0.036144
#
#
# Mechanical properties :
#
#
# Convention : Reuss Voigt Hill
#
# Bulk Modulus (GPa) = 47.38625 51.71031 49.54828
# Shear Modulus (GPa) = 27.28515 28.42269 27.85392
#
# Velocity S-wave (km/s) = 3.64244 3.71759 3.68020
# Velocity P-wave (km/s) = 6.38210 6.60086 6.49240
#
# Compressibility (1/GPa) = 0.02110317
#
# Stress axis : x y z
#
# Youngs Moduli (GPa) = 61.81195 88.81506 89.88359
#
# Poissons Ratio (x) = 0.19155 0.23441
# Poissons Ratio (y) = 0.13331 0.35641
# Poissons Ratio (z) = 0.16120 0.35217
#
# Static dielectric constant tensor:
#      x y z
#    x 1.722000 0.000000 0.000000 
#    y 0.000000 1.769720 0.000000 
#    z 0.000000 0.000000 1.727070 
# 
# From -- ./inp_files/5579.got.cif
#   From: 2010.05.17/outbox.cif.g08.bks.cpg/sg54_3_cif.got.tgz:5579.got - 2010.06.03 13:09:01.
