data_PCOD9422687
_publ_section_title
;
Structure prediction by ZEFSAII (Michael W. Deem and Ramdas Pophale) SiO2 
 PCOD9422687
Probable space group: P C C A
;
_chemical_formula_sum "Si O2"
_cell_formula_units_Z 48
_cell_length_a 16.206829
_cell_length_b 8.637757
_cell_length_c 14.187623
_cell_angle_alpha 90.000000
_cell_angle_beta 90.000000
_cell_angle_gamma 90.000000
_cell_volume 1986.134575
_symmetry_space_group_name_H-M "P C C A"
_symmetry_group_IT_number 54
_symmetry_cell_setting 'orthorhombic'
loop_
_space_group_symop_operation_xyz
x,y,z
1/2-x,-y,z
1/2+x,-y,1/2-z
-x,y,1/2-z
-x,-y,-z
1/2+x,y,-z
1/2-x,y,1/2+z
x,-y,1/2+z
loop_
_atom_site_type_symbol
_atom_site_label
_atom_site_fract_x
_atom_site_fract_y
_atom_site_fract_z
Si Si1 0.966675 0.745045 0.641156
Si Si2 0.403839 0.117668 0.500384
Si Si3 0.851551 0.151628 0.872894
Si Si4 0.653129 0.013414 0.677258
Si Si5 0.301932 0.359693 0.600954
Si Si6 0.046776 0.552859 0.154736
O O1 0.876246 0.813427 0.653247
O O2 0.000000 0.756733 0.750000
O O3 0.016566 0.852020 0.566238
O O4 0.982715 0.568934 0.608107
O O5 0.350170 0.267632 0.522429
O O6 0.356818 0.966731 0.541076
O O7 0.402725 0.095280 0.389510
O O8 0.763775 0.238011 0.856975
O O9 0.917732 0.289338 0.887930
O O10 0.865916 0.043925 0.782339
O O11 0.750000 0.000000 0.659594
O O12 0.250000 0.500000 0.560074
O O13 0.371224 0.442571 0.666142
O O14 0.000000 0.596189 0.250000
#
# Coordination Sequence:
#
# PCOD9422687 Si02
#       6
#     8   8   8   8   8   8
#     4  10  21  43  67  89 131 181 219 272 342 403
#     4  11  22  41  68  96 136 173 222 281 335 408
#     4  11  22  38  66  94 129 170 228 277 336 395
#     4  12  25  38  67 107 133 171 227 281 346 411
#     4   9  19  39  63  90 126 181 210 268 338 400
#     4   9  21  37  64  87 125 173 225 263 338 399
#
# _framework density 24.167546000000002
#
# number of rings (size 3 to 8) (size 9 to 14) (size 15 to 20)
#    0.000    1.667    1.667    3.000    7.000    0.000 
#    0.000    3.333   18.333    0.000    0.000    0.000 
#    0.000    0.000    0.000    0.000    0.000    0.000 
#
# Total GULP energy -268016.789458 kJ/mol
# GULP energy per Si atom -5583.683114 kJ/mol
# Density = 2.411254 g / cm^3
# Si number density = 24.167546 Si / 1000 Ang^3
#
#
#
# Elastic Constant Matrix: (Units=GPa)
#
#
# Indices 1 2 3 4 5 6 
#
# 1 97.3290 48.9903 -1.1051 0.0000 0.0000 0.0000
# 2 48.9903 102.4789 -2.9787 0.0000 0.0000 0.0000
# 3 -1.1051 -2.9787 78.0690 0.0000 0.0000 0.0000
# 4 0.0000 0.0000 0.0000 15.6522 0.0000 0.0000
# 5 0.0000 0.0000 0.0000 0.0000 19.3272 0.0000
# 6 0.0000 0.0000 0.0000 0.0000 0.0000 58.4355
#
#
#
# Elastic Compliance Matrix: (Units=1/GPa)
#
#
# Indices 1 2 3 4 5 6 
#
# 1 0.013530 -0.006470 -0.000055 0.000000 0.000000 0.000000
# 2 -0.006470 0.012863 0.000399 0.000000 0.000000 0.000000
# 3 -0.000055 0.000399 0.012824 0.000000 0.000000 0.000000
# 4 0.000000 0.000000 0.000000 0.063889 0.000000 0.000000
# 5 0.000000 0.000000 0.000000 0.000000 0.051741 0.000000
# 6 0.000000 0.000000 0.000000 0.000000 0.000000 0.017113
#
#
# Mechanical properties :
#
#
# Convention : Reuss Voigt Hill
#
# Bulk Modulus (GPa) = 37.08554 40.85442 38.96998
# Shear Modulus (GPa) = 25.88007 34.21436 30.04721
#
# Velocity S-wave (km/s) = 3.27595 3.76668 3.52985
# Velocity P-wave (km/s) = 5.44864 5.98820 5.72478
#
# Compressibility (1/GPa) = 0.02696469
#
# Stress axis : x y z
#
# Youngs Moduli (GPa) = 73.90785 77.74462 77.98105
#
# Poissons Ratio (x) = 0.50299 0.00431
# Poissons Ratio (y) = 0.47817 -0.03113
# Poissons Ratio (z) = 0.00409 -0.03104
#
# Static dielectric constant tensor:
#      x y z
#    x 2.005800 0.000000 0.000000 
#    y 0.000000 1.936940 0.000000 
#    z 0.000000 0.000000 1.896750 
# 
# From -- ./inp_files/14090.got.cif
#   From: 2010.05.17/outbox.cif.g08.bks.cpg/sg54_8_cif.got.tgz:14090.got - 2010.06.03 13:09:01.
