data_PCOD9422161
_publ_section_title
;
Structure prediction by ZEFSAII (Michael W. Deem and Ramdas Pophale) SiO2 
 PCOD9422161
Probable space group: P C C A
;
_chemical_formula_sum "Si O2"
_cell_formula_units_Z 48
_cell_length_a 14.767491
_cell_length_b 28.894288
_cell_length_c 5.263576
_cell_angle_alpha 90.000000
_cell_angle_beta 90.000000
_cell_angle_gamma 90.000000
_cell_volume 2245.947551
_symmetry_space_group_name_H-M "P C C A"
_symmetry_group_IT_number 54
_symmetry_cell_setting 'orthorhombic'
loop_
_space_group_symop_operation_xyz
x,y,z
1/2-x,-y,z
1/2+x,-y,1/2-z
-x,y,1/2-z
-x,-y,-z
1/2+x,y,-z
1/2-x,y,1/2+z
x,-y,1/2+z
loop_
_atom_site_type_symbol
_atom_site_label
_atom_site_fract_x
_atom_site_fract_y
_atom_site_fract_z
Si Si1 0.191132 0.624538 0.358601
Si Si2 0.110211 0.876675 0.748375
Si Si3 0.191400 0.722494 0.244997
Si Si4 0.352154 0.981001 0.372876
Si Si5 0.891210 0.525778 0.247689
Si Si6 0.608590 0.177472 0.251093
O O1 0.228928 0.624187 0.645780
O O2 0.142365 0.673611 0.302480
O O3 0.136141 0.578167 0.308290
O O4 0.147168 0.927873 0.793367
O O5 0.139484 0.854470 0.482518
O O6 0.000000 0.879946 0.750000
O O7 0.138459 0.843603 0.980227
O O8 0.270866 0.722353 0.457769
O O9 0.138273 0.769819 0.283679
O O10 0.250000 0.000000 0.408060
O O11 0.395794 0.989438 0.646512
O O12 0.858284 0.507277 0.519558
O O13 0.000000 0.523167 0.250000
O O14 0.500000 0.176148 0.250000
#
# Coordination Sequence:
#
# PCOD9422161 Si02
#       6
#     8   8   8   8   8   8
#     4  10  21  36  57  80 114 150 189 237 279 339
#     4  10  21  38  59  82 110 144 183 224 272 325
#     4  10  21  39  56  86 116 146 187 232 285 331
#     4  10  21  38  53  78 112 140 177 223 262 321
#     4  10  21  36  54  81 115 149 193 241 284 334
#     4  10  21  39  60  85 113 145 185 229 275 336
#
# _framework density 21.371827
#
# number of rings (size 3 to 8) (size 9 to 14) (size 15 to 20)
#    0.000    2.000    0.000    3.000    0.000    3.333 
#   18.000    0.000    0.000   12.000    0.000    0.000 
#    0.000    0.000    0.000    0.000    0.000    0.000 
#
# Total GULP energy -268211.397317 kJ/mol
# GULP energy per Si atom -5587.737444 kJ/mol
# Density = 2.132318 g / cm^3
# Si number density = 21.371827 Si / 1000 Ang^3
#
#
#
# Elastic Constant Matrix: (Units=GPa)
#
#
# Indices 1 2 3 4 5 6 
#
# 1 39.4746 5.1760 2.2806 0.0000 0.0000 0.0000
# 2 5.1760 108.9088 -11.3141 0.0000 0.0000 0.0000
# 3 2.2806 -11.3141 101.5154 0.0000 0.0000 0.0000
# 4 0.0000 0.0000 0.0000 39.3348 0.0000 0.0000
# 5 0.0000 0.0000 0.0000 0.0000 1.4019 0.0000
# 6 0.0000 0.0000 0.0000 0.0000 0.0000 62.6791
#
#
#
# Elastic Compliance Matrix: (Units=1/GPa)
#
#
# Indices 1 2 3 4 5 6 
#
# 1 0.025543 -0.001288 -0.000717 0.000000 0.000000 0.000000
# 2 -0.001288 0.009355 0.001072 0.000000 0.000000 0.000000
# 3 -0.000717 0.001072 0.009986 0.000000 0.000000 0.000000
# 4 0.000000 0.000000 0.000000 0.025423 0.000000 0.000000
# 5 0.000000 0.000000 0.000000 0.000000 0.713325 0.000000
# 6 0.000000 0.000000 0.000000 0.000000 0.000000 0.015954
#
#
# Mechanical properties :
#
#
# Convention : Reuss Voigt Hill
#
# Bulk Modulus (GPa) = 23.24765 26.90933 25.07849
# Shear Modulus (GPa) = 6.12901 37.60025 21.86463
#
# Velocity S-wave (km/s) = 1.69529 4.19900 3.20200
# Velocity P-wave (km/s) = 3.83841 6.01058 5.04284
#
# Compressibility (1/GPa) = 0.04301510
#
# Stress axis : x y z
#
# Youngs Moduli (GPa) = 39.14945 106.89991 100.13758
#
# Poissons Ratio (x) = 0.13774 0.07184
# Poissons Ratio (y) = 0.05044 -0.10730
# Poissons Ratio (z) = 0.02809 -0.11455
#
# Static dielectric constant tensor:
#      x y z
#    x 1.742740 0.000000 0.000000 
#    y 0.000000 1.750960 0.000000 
#    z 0.000000 0.000000 1.805330 
# 
# From -- ./inp_files/1023.got.cif
#   From: 2010.05.17/outbox.cif.g08.bks.cpg/sg54_1_cif.got.tgz:1023.got - 2010.06.03 13:09:01.
