data_PCOD9422943
_publ_section_title
;
Structure prediction by ZEFSAII (Michael W. Deem and Ramdas Pophale) SiO2 
 PCOD9422943
Probable space group: P C C A
;
_chemical_formula_sum "Si O2"
_cell_formula_units_Z 32
_cell_length_a 4.958900
_cell_length_b 7.509959
_cell_length_c 36.595199
_cell_angle_alpha 90.000000
_cell_angle_beta 90.000000
_cell_angle_gamma 90.000000
_cell_volume 1362.846771
_symmetry_space_group_name_H-M "P C C A"
_symmetry_group_IT_number 54
_symmetry_cell_setting 'orthorhombic'
loop_
_space_group_symop_operation_xyz
x,y,z
1/2-x,-y,z
1/2+x,-y,1/2-z
-x,y,1/2-z
-x,-y,-z
1/2+x,y,-z
1/2-x,y,1/2+z
x,-y,1/2+z
loop_
_atom_site_type_symbol
_atom_site_label
_atom_site_fract_x
_atom_site_fract_y
_atom_site_fract_z
Si Si1 0.843711 0.205068 0.330186
Si Si2 0.247388 0.285668 0.477646
Si Si3 0.356042 0.305265 0.285221
Si Si4 0.990935 0.121746 0.095776
O O1 0.591948 0.315443 0.315139
O O2 0.096948 0.214358 0.303023
O O3 0.926599 0.253511 0.371512
O O4 0.750000 0.000000 0.331889
O O5 0.250000 0.500000 0.475013
O O6 0.545504 0.231251 0.489681
O O7 0.133879 0.208974 0.440200
O O8 0.250000 0.500000 0.274196
O O9 0.500000 0.219196 0.250000
O O10 0.750000 0.000000 0.111528
O O11 0.250000 0.000000 0.086962
#
# Coordination Sequence:
#
# PCOD9422943 Si02
#       4
#     8   8   8   8
#     4  11  24  44  67  95 131 169 214 264 318 381
#     4  10  22  40  62  91 127 166 211 261 313 375
#     4  12  25  45  68  95 130 167 212 266 320 380
#     4  11  23  41  64  93 129 166 212 265 314 375
#
# _framework density 23.480263999999998
#
# number of rings (size 3 to 8) (size 9 to 14) (size 15 to 20)
#    0.000    1.000    0.000    8.250    0.000    6.000 
#    0.000   12.500    0.000    0.000    0.000    0.000 
#    0.000    0.000    0.000    0.000    0.000    0.000 
#
# Total GULP energy -179168.633697 kJ/mol
# GULP energy per Si atom -5599.019803 kJ/mol
# Density = 2.342682 g / cm^3
# Si number density = 23.480264 Si / 1000 Ang^3
#
#
#
# Elastic Constant Matrix: (Units=GPa)
#
#
# Indices 1 2 3 4 5 6 
#
# 1 160.4313 24.9145 43.8374 0.0000 0.0000 0.0000
# 2 24.9145 28.3217 19.4330 0.0000 0.0000 0.0000
# 3 43.8374 19.4330 127.7496 0.0000 0.0000 0.0000
# 4 0.0000 0.0000 0.0000 35.9614 0.0000 0.0000
# 5 0.0000 0.0000 0.0000 0.0000 29.9468 0.0000
# 6 0.0000 0.0000 0.0000 0.0000 0.0000 41.6633
#
#
#
# Elastic Compliance Matrix: (Units=1/GPa)
#
#
# Indices 1 2 3 4 5 6 
#
# 1 0.007561 -0.005439 -0.001767 0.000000 0.000000 0.000000
# 2 -0.005439 0.043336 -0.004726 0.000000 0.000000 0.000000
# 3 -0.001767 -0.004726 0.009153 0.000000 0.000000 0.000000
# 4 0.000000 0.000000 0.000000 0.027808 0.000000 0.000000
# 5 0.000000 0.000000 0.000000 0.000000 0.033393 0.000000
# 6 0.000000 0.000000 0.000000 0.000000 0.000000 0.024002
#
#
# Mechanical properties :
#
#
# Convention : Reuss Voigt Hill
#
# Bulk Modulus (GPa) = 27.63486 54.76361 41.19923
# Shear Modulus (GPa) = 27.59738 36.73549 32.16643
#
# Velocity S-wave (km/s) = 3.43205 3.95970 3.70528
# Velocity P-wave (km/s) = 5.24407 6.65429 5.99082
#
# Compressibility (1/GPa) = 0.03618618
#
# Stress axis : x y z
#
# Youngs Moduli (GPa) = 132.26372 23.07573 109.25257
#
# Poissons Ratio (x) = 0.12550 0.19306
# Poissons Ratio (y) = 0.71932 0.51632
# Poissons Ratio (z) = 0.23373 0.10905
#
# Static dielectric constant tensor:
#      x y z
#    x 1.865410 0.000000 0.000000 
#    y 0.000000 1.912830 0.000000 
#    z 0.000000 0.000000 1.892560 
# 
# From -- ./inp_files/26840.got.cif
#   From: 2010.05.17/outbox.cif.g08.bks.cpg/sg54_14_cif.got.tgz:26840.got - 2010.06.03 13:09:01.
