data_PCOD9422317
_publ_section_title
;
Structure prediction by ZEFSAII (Michael W. Deem and Ramdas Pophale) SiO2 
 PCOD9422317
Probable space group: P C C A
;
_chemical_formula_sum "Si O2"
_cell_formula_units_Z 52
_cell_length_a 5.176882
_cell_length_b 22.213721
_cell_length_c 23.889964
_cell_angle_alpha 90.000000
_cell_angle_beta 90.000000
_cell_angle_gamma 90.000000
_cell_volume 2747.293598
_symmetry_space_group_name_H-M "P C C A"
_symmetry_group_IT_number 54
_symmetry_cell_setting 'orthorhombic'
loop_
_space_group_symop_operation_xyz
x,y,z
1/2-x,-y,z
1/2+x,-y,1/2-z
-x,y,1/2-z
-x,-y,-z
1/2+x,y,-z
1/2-x,y,1/2+z
x,-y,1/2+z
loop_
_atom_site_type_symbol
_atom_site_label
_atom_site_fract_x
_atom_site_fract_y
_atom_site_fract_z
Si Si1 0.518558 0.866943 0.854057
Si Si2 0.000000 0.041451 0.750000
Si Si3 0.070124 0.321497 0.884663
Si Si4 0.698149 0.564491 0.539669
Si Si5 0.514356 0.821744 0.190757
Si Si6 0.575522 0.687249 0.310055
Si Si7 0.943560 0.200999 0.539018
O O1 0.482972 0.920495 0.808649
O O2 0.309594 0.819868 0.827645
O O3 0.453271 0.856974 0.919485
O O4 0.823944 0.853666 0.851990
O O5 0.250000 0.000000 0.746394
O O6 0.154161 0.379080 0.920822
O O7 0.316571 0.311818 0.845803
O O8 0.028112 0.262423 0.923619
O O9 0.817294 0.334851 0.846633
O O10 0.750000 0.500000 0.569589
O O11 0.446254 0.566899 0.500448
O O12 0.500000 0.855055 0.250000
O O13 0.373817 0.758076 0.200227
O O14 0.500000 0.659042 0.250000
O O15 0.676439 0.201687 0.505270
#
# Coordination Sequence:
#
# PCOD9422317 Si02
#       7
#     8   4   8   8   8   8   8
#     4  12  22  40  63  89 128 161 197 258 310 370
#     4  12  26  44  68 100 124 156 210 270 320 364
#     4  12  21  38  58  89 127 168 205 261 316 376
#     4  10  21  38  60  86 117 163 219 270 316 366
#     4  11  18  34  57  89 118 159 194 240 312 377
#     4  11  22  34  56  89 128 155 207 250 319 390
#     4  12  24  38  58  91 130 166 205 245 314 385
#
# _framework density 18.927719
#
# number of rings (size 3 to 8) (size 9 to 14) (size 15 to 20)
#    0.000    0.615    4.615    5.077    0.000    2.462 
#    0.000    0.000    0.000    4.615    0.000    0.000 
#    0.000    0.000    0.000    0.000    0.000    0.000 
#
# Total GULP energy -289488.659328 kJ/mol
# GULP energy per Si atom -5567.089602 kJ/mol
# Density = 1.888464 g / cm^3
# Si number density = 18.927719 Si / 1000 Ang^3
#
#
#
# Elastic Constant Matrix: (Units=GPa)
#
#
# Indices 1 2 3 4 5 6 
#
# 1 136.4428 21.2906 37.5680 0.0000 0.0000 0.0000
# 2 21.2906 85.1814 41.8635 0.0000 0.0000 0.0000
# 3 37.5680 41.8635 104.1568 0.0000 0.0000 0.0000
# 4 0.0000 0.0000 0.0000 35.6728 0.0000 0.0000
# 5 0.0000 0.0000 0.0000 0.0000 72.3307 0.0000
# 6 0.0000 0.0000 0.0000 0.0000 0.0000 39.5023
#
#
#
# Elastic Compliance Matrix: (Units=1/GPa)
#
#
# Indices 1 2 3 4 5 6 
#
# 1 0.008174 -0.000740 -0.002651 0.000000 0.000000 0.000000
# 2 -0.000740 0.014697 -0.005640 0.000000 0.000000 0.000000
# 3 -0.002651 -0.005640 0.012824 0.000000 0.000000 0.000000
# 4 0.000000 0.000000 0.000000 0.028033 0.000000 0.000000
# 5 0.000000 0.000000 0.000000 0.000000 0.013825 0.000000
# 6 0.000000 0.000000 0.000000 0.000000 0.000000 0.025315
#
#
# Mechanical properties :
#
#
# Convention : Reuss Voigt Hill
#
# Bulk Modulus (GPa) = 56.71304 58.58057 57.64681
# Shear Modulus (GPa) = 39.42984 44.50510 41.96747
#
# Velocity S-wave (km/s) = 4.56914 4.85430 4.71388
# Velocity P-wave (km/s) = 7.60684 7.90163 7.75564
#
# Compressibility (1/GPa) = 0.01763263
#
# Stress axis : x y z
#
# Youngs Moduli (GPa) = 122.33185 68.04341 77.97960
#
# Poissons Ratio (x) = 0.05038 0.20671
# Poissons Ratio (y) = 0.09057 0.43980
# Poissons Ratio (z) = 0.32428 0.38376
#
# Static dielectric constant tensor:
#      x y z
#    x 1.633000 0.000000 0.000000 
#    y 0.000000 1.728880 0.000000 
#    z 0.000000 0.000000 1.718080 
# 
# From -- ./inp_files/19825.got.cif
#   From: 2010.05.17/outbox.cif.g08.bks.cpg/sg54_10_cif.got.tgz:19825.got - 2010.06.03 13:09:01.
