data_PCOD9422454
_publ_section_title
;
Structure prediction by ZEFSAII (Michael W. Deem and Ramdas Pophale) SiO2 
 PCOD9422454
Probable space group: P C C A
;
_chemical_formula_sum "Si O2"
_cell_formula_units_Z 48
_cell_length_a 8.723816
_cell_length_b 14.955917
_cell_length_c 17.686024
_cell_angle_alpha 90.000000
_cell_angle_beta 90.000000
_cell_angle_gamma 90.000000
_cell_volume 2307.542738
_symmetry_space_group_name_H-M "P C C A"
_symmetry_group_IT_number 54
_symmetry_cell_setting 'orthorhombic'
loop_
_space_group_symop_operation_xyz
x,y,z
1/2-x,-y,z
1/2+x,-y,1/2-z
-x,y,1/2-z
-x,-y,-z
1/2+x,y,-z
1/2-x,y,1/2+z
x,-y,1/2+z
loop_
_atom_site_type_symbol
_atom_site_label
_atom_site_fract_x
_atom_site_fract_y
_atom_site_fract_z
Si Si1 0.216407 0.729328 0.188038
Si Si2 0.915374 0.457467 0.572126
Si Si3 0.287919 0.093888 0.101901
Si Si4 0.139527 0.272861 0.857600
Si Si5 0.881465 0.439225 0.309853
Si Si6 0.154224 0.089095 0.934504
O O1 0.264256 0.824735 0.154950
O O2 0.227709 0.712641 0.278269
O O3 0.302668 0.645363 0.150146
O O4 0.037308 0.732496 0.168002
O O5 0.750000 0.500000 0.577977
O O6 0.874359 0.352871 0.581827
O O7 0.000000 0.500000 0.500000
O O8 0.025041 0.491814 0.638891
O O9 0.469994 0.087452 0.080392
O O10 0.250000 0.000000 0.140435
O O11 0.194526 0.098829 0.023154
O O12 0.200706 0.180965 0.893018
O O13 0.750000 0.500000 0.272756
O O14 0.000000 0.402948 0.250000
O O15 0.250000 0.000000 0.909918
#
# Coordination Sequence:
#
# PCOD9422454 Si02
#       6
#     8   8   8   8   8   8
#     4  10  22  41  64  93 125 176 212 269 331 394
#     4  12  27  43  65  96 130 170 218 280 335 401
#     4  10  21  40  64  91 129 165 215 274 329 401
#     4  10  22  42  65  91 134 167 218 270 337 397
#     4  12  23  42  67  92 132 176 221 267 333 401
#     4  10  21  39  65  91 125 171 211 272 340 393
#
# _framework density 20.801348000000001
#
# number of rings (size 3 to 8) (size 9 to 14) (size 15 to 20)
#    0.000    1.333    1.667    5.000    2.333    2.000 
#    9.000    0.000    0.000    0.000    0.000    0.000 
#    0.000    0.000    0.000    0.000    0.000    0.000 
#
# Total GULP energy -267477.593619 kJ/mol
# GULP energy per Si atom -5572.449867 kJ/mol
# Density = 2.075400 g / cm^3
# Si number density = 20.801348 Si / 1000 Ang^3
#
#
#
# Elastic Constant Matrix: (Units=GPa)
#
#
# Indices 1 2 3 4 5 6 
#
# 1 77.9276 45.6009 18.8571 0.0000 0.0000 0.0000
# 2 45.6009 184.9069 37.4949 0.0000 0.0000 0.0000
# 3 18.8571 37.4949 45.2745 0.0000 0.0000 0.0000
# 4 0.0000 0.0000 0.0000 28.0263 0.0000 0.0000
# 5 0.0000 0.0000 0.0000 0.0000 16.8706 0.0000
# 6 0.0000 0.0000 0.0000 0.0000 0.0000 36.2357
#
#
#
# Elastic Compliance Matrix: (Units=1/GPa)
#
#
# Indices 1 2 3 4 5 6 
#
# 1 0.015569 -0.003034 -0.003972 0.000000 0.000000 0.000000
# 2 -0.003034 0.007091 -0.004609 0.000000 0.000000 0.000000
# 3 -0.003972 -0.004609 0.027559 0.000000 0.000000 0.000000
# 4 0.000000 0.000000 0.000000 0.035681 0.000000 0.000000
# 5 0.000000 0.000000 0.000000 0.000000 0.059275 0.000000
# 6 0.000000 0.000000 0.000000 0.000000 0.000000 0.027597
#
#
# Mechanical properties :
#
#
# Convention : Reuss Voigt Hill
#
# Bulk Modulus (GPa) = 37.05195 56.89054 46.97124
# Shear Modulus (GPa) = 24.39061 29.97025 27.18043
#
# Velocity S-wave (km/s) = 3.42797 3.79988 3.61871
# Velocity P-wave (km/s) = 5.78955 6.83088 6.33166
#
# Compressibility (1/GPa) = 0.02698913
#
# Stress axis : x y z
#
# Youngs Moduli (GPa) = 64.23008 141.02480 36.28632
#
# Poissons Ratio (x) = 0.42789 0.14412
# Poissons Ratio (y) = 0.19489 0.16723
# Poissons Ratio (z) = 0.25511 0.64995
#
# Static dielectric constant tensor:
#      x y z
#    x 1.752050 0.000000 0.000000 
#    y 0.000000 1.846810 0.000000 
#    z 0.000000 0.000000 1.775300 
# 
# From -- ./inp_files/16590.got.cif
#   From: 2010.05.17/outbox.cif.g08.bks.cpg/sg54_9_cif.got.tgz:16590.got - 2010.06.03 13:09:01.
