data_PCOD9422928
_publ_section_title
;
Structure prediction by ZEFSAII (Michael W. Deem and Ramdas Pophale) SiO2 
 PCOD9422928
Probable space group: P C C A
;
_chemical_formula_sum "Si O2"
_cell_formula_units_Z 40
_cell_length_a 9.259168
_cell_length_b 18.620538
_cell_length_c 10.855329
_cell_angle_alpha 90.000000
_cell_angle_beta 90.000000
_cell_angle_gamma 90.000000
_cell_volume 1871.574759
_symmetry_space_group_name_H-M "P C C A"
_symmetry_group_IT_number 54
_symmetry_cell_setting 'orthorhombic'
loop_
_space_group_symop_operation_xyz
x,y,z
1/2-x,-y,z
1/2+x,-y,1/2-z
-x,y,1/2-z
-x,-y,-z
1/2+x,y,-z
1/2-x,y,1/2+z
x,-y,1/2+z
loop_
_atom_site_type_symbol
_atom_site_label
_atom_site_fract_x
_atom_site_fract_y
_atom_site_fract_z
Si Si1 0.920400 0.250926 0.875266
Si Si2 0.642385 0.089470 0.413932
Si Si3 0.414921 0.699268 0.124095
Si Si4 0.051379 0.939664 0.631681
Si Si5 0.916421 0.526411 0.876657
O O1 0.924011 0.164116 0.875776
O O2 0.751983 0.274480 0.875395
O O3 0.000000 0.276677 0.750000
O O4 0.001214 0.275189 0.000543
O O5 0.581909 0.061039 0.542174
O O6 0.812381 0.098468 0.426617
O O7 0.605648 0.019561 0.333067
O O8 0.500000 0.720592 0.250000
O O9 0.413961 0.612764 0.121028
O O10 0.000000 0.898171 0.750000
O O11 0.750000 0.500000 0.875792
O O12 0.000000 0.504002 0.750000
O O13 0.000000 0.500000 0.000000
#
# Coordination Sequence:
#
# PCOD9422928 Si02
#       5
#     8   8   8   8   8
#     4  12  25  42  66  93 130 174 215 260 317 382
#     4  10  23  39  60  89 117 159 212 256 313 375
#     4  11  26  45  65  97 134 169 211 259 312 376
#     4  10  22  40  61  85 120 156 203 267 318 367
#     4  11  24  43  70 100 131 168 211 259 312 370
#
# _framework density 21.372377
#
# number of rings (size 3 to 8) (size 9 to 14) (size 15 to 20)
#    0.000    1.200    0.000    4.800    0.000   19.200 
#    0.000    0.000    0.000    0.000    0.000    0.000 
#    0.000    0.000    0.000    0.000    0.000    0.000 
#
# Total GULP energy -223237.988204 kJ/mol
# GULP energy per Si atom -5580.949705 kJ/mol
# Density = 2.132373 g / cm^3
# Si number density = 21.372377 Si / 1000 Ang^3
#
#
#
# Elastic Constant Matrix: (Units=GPa)
#
#
# Indices 1 2 3 4 5 6 
#
# 1 203.1512 38.4899 121.3648 0.0000 0.0000 0.0000
# 2 38.4899 101.8493 40.0460 0.0000 0.0000 0.0000
# 3 121.3648 40.0460 173.1954 0.0000 0.0000 0.0000
# 4 0.0000 0.0000 0.0000 -43.4877 0.0000 0.0000
# 5 0.0000 0.0000 0.0000 0.0000 37.9677 0.0000
# 6 0.0000 0.0000 0.0000 0.0000 0.0000 49.9820
#
#
#
# Elastic Compliance Matrix: (Units=1/GPa)
#
#
# Indices 1 2 3 4 5 6 
#
# 1 0.008552 -0.000963 -0.005770 0.000000 0.000000 0.000000
# 2 -0.000963 0.010909 -0.001847 0.000000 0.000000 0.000000
# 3 -0.005770 -0.001847 0.010244 0.000000 0.000000 0.000000
# 4 0.000000 0.000000 0.000000 -0.022995 0.000000 0.000000
# 5 0.000000 0.000000 0.000000 0.000000 0.026338 0.000000
# 6 0.000000 0.000000 0.000000 0.000000 0.000000 0.020007
#
#
# Mechanical properties :
#
#
# Convention : Reuss Voigt Hill
#
# Bulk Modulus (GPa) = 79.72004 97.55524 88.63764
# Shear Modulus (GPa) = 67.20623 27.44542 47.32583
#
# Velocity S-wave (km/s) = 5.61370 3.58740 4.71079
# Velocity P-wave (km/s) = 8.91065 7.93119 8.43515
#
# Compressibility (1/GPa) = 0.01254390
#
# Stress axis : x y z
#
# Youngs Moduli (GPa) = 116.93173 91.66916 97.61578
#
# Poissons Ratio (x) = 0.08829 0.56324
# Poissons Ratio (y) = 0.11263 0.18033
# Poissons Ratio (z) = 0.67470 0.16935
#
# Static dielectric constant tensor:
#      x y z
#    x 1.821170 0.000000 0.000000 
#    y 0.000000 1.793480 0.000000 
#    z 0.000000 0.000000 1.854710 
# 
# From -- ./inp_files/6875.got.cif
#   From: 2010.05.17/outbox.cif.g08.bks.cpg/sg54_4_cif.got.tgz:6875.got - 2010.06.03 13:09:01.
