data_PCOD9422358
_publ_section_title
;
Structure prediction by ZEFSAII (Michael W. Deem and Ramdas Pophale) SiO2 
 PCOD9422358
Probable space group: P C C A
;
_chemical_formula_sum "Si O2"
_cell_formula_units_Z 60
_cell_length_a 13.011629
_cell_length_b 11.419087
_cell_length_c 19.305072
_cell_angle_alpha 90.000000
_cell_angle_beta 90.000000
_cell_angle_gamma 90.000000
_cell_volume 2868.365427
_symmetry_space_group_name_H-M "P C C A"
_symmetry_group_IT_number 54
_symmetry_cell_setting 'orthorhombic'
loop_
_space_group_symop_operation_xyz
x,y,z
1/2-x,-y,z
1/2+x,-y,1/2-z
-x,y,1/2-z
-x,-y,-z
1/2+x,y,-z
1/2-x,y,1/2+z
x,-y,1/2+z
loop_
_atom_site_type_symbol
_atom_site_label
_atom_site_fract_x
_atom_site_fract_y
_atom_site_fract_z
Si Si1 0.750000 0.000000 0.351841
Si Si2 0.575299 0.257612 0.159495
Si Si3 0.664588 0.239408 0.303251
Si Si4 0.297212 0.873719 0.927213
Si Si5 0.179547 0.603850 0.077215
Si Si6 0.891593 0.721515 0.564762
Si Si7 0.528095 0.481330 0.081229
Si Si8 0.432572 0.909449 0.048206
O O1 0.718080 0.113161 0.307176
O O2 0.852965 0.028911 0.398287
O O3 0.644206 0.287002 0.226266
O O4 0.454892 0.235692 0.171914
O O5 0.617385 0.135407 0.130880
O O6 0.584473 0.362341 0.103269
O O7 0.722927 0.318655 0.360281
O O8 0.208412 0.785145 0.907961
O O9 0.250000 0.000000 0.936594
O O10 0.353845 0.841901 0.997835
O O11 0.250000 0.500000 0.047565
O O12 0.084589 0.534863 0.112606
O O13 0.135975 0.687931 0.016050
O O14 0.914913 0.598981 0.601241
O O15 0.985653 0.812122 0.572207
O O16 0.500000 0.500000 0.000000
O O17 0.500000 0.000000 0.000000
#
# Coordination Sequence:
#
# PCOD9422358 Si02
#       8
#     4   8   8   8   8   8   8   8
#     4  12  24  38  70  96 130 176 230 274 342 426
#     4  10  23  44  67  85 132 171 226 267 340 399
#     4  10  23  44  64  92 120 182 219 275 316 408
#     4  12  23  36  61  94 127 167 204 268 337 406
#     4  10  21  38  63  92 127 169 221 263 330 405
#     4  11  24  36  62  96 132 162 210 278 345 397
#     4   9  20  39  62  93 124 165 208 277 331 392
#     4  12  21  40  59  97 137 170 211 278 351 407
#
# _framework density 20.917835
#
# number of rings (size 3 to 8) (size 9 to 14) (size 15 to 20)
#    0.000    1.333    2.000    4.800    8.400    0.000 
#    2.400    0.000    0.000    0.000    0.000    0.000 
#    0.000    0.000    0.000    0.000    0.000    0.000 
#
# Total GULP energy -334201.455054 kJ/mol
# GULP energy per Si atom -5570.024251 kJ/mol
# Density = 2.087023 g / cm^3
# Si number density = 20.917835 Si / 1000 Ang^3
#
#
#
# Elastic Constant Matrix: (Units=GPa)
#
#
# Indices 1 2 3 4 5 6 
#
# 1 80.2600 36.8704 7.1236 0.0000 0.0000 0.0000
# 2 36.8704 88.7825 18.8441 0.0000 0.0000 0.0000
# 3 7.1236 18.8441 56.2919 0.0000 0.0000 0.0000
# 4 0.0000 0.0000 0.0000 23.9517 0.0000 0.0000
# 5 0.0000 0.0000 0.0000 0.0000 22.5984 0.0000
# 6 0.0000 0.0000 0.0000 0.0000 0.0000 44.7894
#
#
#
# Elastic Compliance Matrix: (Units=1/GPa)
#
#
# Indices 1 2 3 4 5 6 
#
# 1 0.015399 -0.006439 0.000207 0.000000 0.000000 0.000000
# 2 -0.006439 0.014817 -0.004145 0.000000 0.000000 0.000000
# 3 0.000207 -0.004145 0.019126 0.000000 0.000000 0.000000
# 4 0.000000 0.000000 0.000000 0.041751 0.000000 0.000000
# 5 0.000000 0.000000 0.000000 0.000000 0.044251 0.000000
# 6 0.000000 0.000000 0.000000 0.000000 0.000000 0.022327
#
#
# Mechanical properties :
#
#
# Convention : Reuss Voigt Hill
#
# Bulk Modulus (GPa) = 34.98045 39.00117 36.99081
# Shear Modulus (GPa) = 26.60209 29.10100 27.85154
#
# Velocity S-wave (km/s) = 3.57002 3.73393 3.65289
# Velocity P-wave (km/s) = 5.80969 6.10533 5.95934
#
# Compressibility (1/GPa) = 0.02858740
#
# Stress axis : x y z
#
# Youngs Moduli (GPa) = 64.93872 67.48839 52.28470
#
# Poissons Ratio (x) = 0.43456 -0.01081
# Poissons Ratio (y) = 0.41814 0.21674
# Poissons Ratio (z) = -0.01343 0.27976
#
# Static dielectric constant tensor:
#      x y z
#    x 1.795000 0.000000 0.000000 
#    y 0.000000 1.784760 0.000000 
#    z 0.000000 0.000000 1.826850 
# 
# From -- ./inp_files/21232.got.cif
#   From: 2010.05.17/outbox.cif.g08.bks.cpg/sg54_11_cif.got.tgz:21232.got - 2010.06.03 13:09:01.
