data_PCOD9422789
_publ_section_title
;
Structure prediction by ZEFSAII (Michael W. Deem and Ramdas Pophale) SiO2 
 PCOD9422789
Probable space group: P C C A
;
_chemical_formula_sum "Si O2"
_cell_formula_units_Z 48
_cell_length_a 27.161121
_cell_length_b 7.847558
_cell_length_c 9.165941
_cell_angle_alpha 90.000000
_cell_angle_beta 90.000000
_cell_angle_gamma 90.000000
_cell_volume 1953.706322
_symmetry_space_group_name_H-M "P C C A"
_symmetry_group_IT_number 54
_symmetry_cell_setting 'orthorhombic'
loop_
_space_group_symop_operation_xyz
x,y,z
1/2-x,-y,z
1/2+x,-y,1/2-z
-x,y,1/2-z
-x,-y,-z
1/2+x,y,-z
1/2-x,y,1/2+z
x,-y,1/2+z
loop_
_atom_site_type_symbol
_atom_site_label
_atom_site_fract_x
_atom_site_fract_y
_atom_site_fract_z
Si Si1 0.604178 0.019100 0.183312
Si Si2 0.263420 0.309004 0.142542
Si Si3 0.034331 0.291277 0.936463
Si Si4 0.631747 0.779414 0.965561
Si Si5 0.709396 0.857626 0.576476
Si Si6 0.436614 0.531232 0.659795
O O1 0.556004 0.112316 0.116671
O O2 0.610481 0.079279 0.350168
O O3 0.653550 0.095908 0.108729
O O4 0.610244 0.827375 0.123913
O O5 0.250000 0.500000 0.106333
O O6 0.309608 0.231865 0.052005
O O7 0.277284 0.292009 0.310787
O O8 0.217638 0.195249 0.089971
O O9 0.060840 0.430951 0.830534
O O10 0.977549 0.333942 0.904983
O O11 0.047865 0.348158 0.099374
O O12 0.613948 0.598073 0.904506
O O13 0.750000 0.000000 0.614401
#
# Coordination Sequence:
#
# PCOD9422789 Si02
#       6
#     8   8   8   8   8   8
#     4  10  22  37  57  84 112 152 190 235 288 346
#     4  11  24  39  58  86 116 152 195 243 294 346
#     4   9  19  37  59  83 115 150 189 234 293 346
#     4  10  22  39  56  85 115 148 194 237 289 346
#     4  11  22  40  60  82 116 156 194 239 291 351
#     4   9  19  37  58  84 116 149 186 240 288 345
#
# _framework density 24.568688000000002
#
# number of rings (size 3 to 8) (size 9 to 14) (size 15 to 20)
#    0.000    2.000    1.667    1.000    4.667    2.000 
#    3.000    0.000    0.000    0.000    0.000    0.000 
#    0.000    0.000    0.000    0.000    0.000    0.000 
#
# Total GULP energy -267963.516685 kJ/mol
# GULP energy per Si atom -5582.573264 kJ/mol
# Density = 2.451277 g / cm^3
# Si number density = 24.568688 Si / 1000 Ang^3
#
#
#
# Elastic Constant Matrix: (Units=GPa)
#
#
# Indices 1 2 3 4 5 6 
#
# 1 59.8398 -4.7354 -1.6419 0.0000 0.0000 0.0000
# 2 -4.7354 34.2626 4.0205 0.0000 0.0000 0.0000
# 3 -1.6419 4.0205 58.5346 0.0000 0.0000 0.0000
# 4 0.0000 0.0000 0.0000 27.2626 0.0000 0.0000
# 5 0.0000 0.0000 0.0000 0.0000 16.9182 0.0000
# 6 0.0000 0.0000 0.0000 0.0000 0.0000 28.5612
#
#
#
# Elastic Compliance Matrix: (Units=1/GPa)
#
#
# Indices 1 2 3 4 5 6 
#
# 1 0.016902 0.002299 0.000316 0.000000 0.000000 0.000000
# 2 0.002299 0.029736 -0.001978 0.000000 0.000000 0.000000
# 3 0.000316 -0.001978 0.017229 0.000000 0.000000 0.000000
# 4 0.000000 0.000000 0.000000 0.036680 0.000000 0.000000
# 5 0.000000 0.000000 0.000000 0.000000 0.059108 0.000000
# 6 0.000000 0.000000 0.000000 0.000000 0.000000 0.035012
#
#
# Mechanical properties :
#
#
# Convention : Reuss Voigt Hill
#
# Bulk Modulus (GPa) = 15.35133 16.43594 15.89363
# Shear Modulus (GPa) = 23.24425 24.88133 24.06279
#
# Velocity S-wave (km/s) = 3.07920 3.18579 3.13295
# Velocity P-wave (km/s) = 4.34786 4.49851 4.42383
#
# Compressibility (1/GPa) = 0.06514094
#
# Stress axis : x y z
#
# Youngs Moduli (GPa) = 59.16503 33.62903 58.04289
#
# Poissons Ratio (x) = -0.07731 -0.01835
# Poissons Ratio (y) = -0.13602 0.11481
# Poissons Ratio (z) = -0.01871 0.06652
#
# Static dielectric constant tensor:
#      x y z
#    x 1.907670 0.000000 0.000000 
#    y 0.000000 1.992380 0.000000 
#    z 0.000000 0.000000 1.934700 
# 
# From -- ./inp_files/5820.got.cif
#   From: 2010.05.17/outbox.cif.g08.bks.cpg/sg54_3_cif.got.tgz:5820.got - 2010.06.03 13:09:01.
