data_PCOD9422448
_publ_section_title
;
Structure prediction by ZEFSAII (Michael W. Deem and Ramdas Pophale) SiO2 
 PCOD9422448
Probable space group: P C C A
;
_chemical_formula_sum "Si O2"
_cell_formula_units_Z 48
_cell_length_a 8.996982
_cell_length_b 8.249079
_cell_length_c 27.890831
_cell_angle_alpha 90.000000
_cell_angle_beta 90.000000
_cell_angle_gamma 90.000000
_cell_volume 2069.968652
_symmetry_space_group_name_H-M "P C C A"
_symmetry_group_IT_number 54
_symmetry_cell_setting 'orthorhombic'
loop_
_space_group_symop_operation_xyz
x,y,z
1/2-x,-y,z
1/2+x,-y,1/2-z
-x,y,1/2-z
-x,-y,-z
1/2+x,y,-z
1/2-x,y,1/2+z
x,-y,1/2+z
loop_
_atom_site_type_symbol
_atom_site_label
_atom_site_fract_x
_atom_site_fract_y
_atom_site_fract_z
Si Si1 0.466871 0.317402 0.381378
Si Si2 0.016344 0.698750 0.634949
Si Si3 0.701961 0.186505 0.314733
Si Si4 0.346951 0.347942 0.775799
Si Si5 0.377737 0.384098 0.025407
Si Si6 0.306340 0.819398 0.434026
O O1 0.482761 0.509759 0.373596
O O2 0.539848 0.224765 0.336339
O O3 0.553659 0.283311 0.431180
O O4 0.300926 0.269316 0.395763
O O5 0.916129 0.753154 0.680599
O O6 0.969057 0.802868 0.589314
O O7 0.185521 0.718981 0.650089
O O8 0.744133 0.253563 0.262158
O O9 0.750000 0.000000 0.316595
O O10 0.250000 0.500000 0.792547
O O11 0.500000 0.406818 0.750000
O O12 0.250000 0.500000 0.045408
O O13 0.500000 0.500000 0.000000
O O14 0.308360 0.274621 0.983856
O O15 0.250000 0.000000 0.439645
#
# Coordination Sequence:
#
# PCOD9422448 Si02
#       6
#     8   8   8   8   8   8
#     4  12  24  43  72  93 133 180 228 278 328 409
#     4  11  22  43  67  93 127 175 225 275 327 405
#     4  11  24  41  63  97 133 170 220 276 343 397
#     4  10  21  39  64  93 126 166 223 275 325 403
#     4  12  23  44  68  97 130 176 230 274 327 400
#     4  12  26  42  63  99 136 170 220 279 346 394
#
# _framework density 23.188756999999999
#
# number of rings (size 3 to 8) (size 9 to 14) (size 15 to 20)
#    0.000    0.667    3.333    6.000    0.000    2.000 
#    0.000    9.167    0.000    0.000    0.000    0.000 
#    0.000    0.000    0.000    0.000    0.000    0.000 
#
# Total GULP energy -268641.607071 kJ/mol
# GULP energy per Si atom -5596.700147 kJ/mol
# Density = 2.313598 g / cm^3
# Si number density = 23.188757 Si / 1000 Ang^3
#
#
#
# Elastic Constant Matrix: (Units=GPa)
#
#
# Indices 1 2 3 4 5 6 
#
# 1 48.8797 -3.9526 16.4379 0.0000 0.0000 0.0000
# 2 -3.9526 101.5202 -1.2199 0.0000 0.0000 0.0000
# 3 16.4379 -1.2199 73.7291 0.0000 0.0000 0.0000
# 4 0.0000 0.0000 0.0000 9.5159 0.0000 0.0000
# 5 0.0000 0.0000 0.0000 0.0000 49.7730 0.0000
# 6 0.0000 0.0000 0.0000 0.0000 0.0000 28.4914
#
#
#
# Elastic Compliance Matrix: (Units=1/GPa)
#
#
# Indices 1 2 3 4 5 6 
#
# 1 0.022182 0.000804 -0.004932 0.000000 0.000000 0.000000
# 2 0.000804 0.009881 -0.000016 0.000000 0.000000 0.000000
# 3 -0.004932 -0.000016 0.014663 0.000000 0.000000 0.000000
# 4 0.000000 0.000000 0.000000 0.105087 0.000000 0.000000
# 5 0.000000 0.000000 0.000000 0.000000 0.020091 0.000000
# 6 0.000000 0.000000 0.000000 0.000000 0.000000 0.035098
#
#
# Mechanical properties :
#
#
# Convention : Reuss Voigt Hill
#
# Bulk Modulus (GPa) = 26.01544 27.40663 26.71104
# Shear Modulus (GPa) = 21.91996 31.74699 26.83347
#
# Velocity S-wave (km/s) = 3.07788 3.70411 3.40542
# Velocity P-wave (km/s) = 4.88615 5.48985 5.19678
#
# Compressibility (1/GPa) = 0.03843871
#
# Stress axis : x y z
#
# Youngs Moduli (GPa) = 45.08145 101.20043 68.20104
#
# Poissons Ratio (x) = -0.08140 0.33638
# Poissons Ratio (y) = -0.03626 0.00108
# Poissons Ratio (z) = 0.22235 0.00160
#
# Static dielectric constant tensor:
#      x y z
#    x 1.954010 0.000000 0.000000 
#    y 0.000000 1.814570 0.000000 
#    z 0.000000 0.000000 1.882280 
# 
# From -- ./inp_files/27690.got.cif
#   From: 2010.05.17/outbox.cif.g08.bks.cpg/sg54_14_cif.got.tgz:27690.got - 2010.06.03 13:09:01.
