data_PCOD9422639
_publ_section_title
;
Structure prediction by ZEFSAII (Michael W. Deem and Ramdas Pophale) SiO2 
 PCOD9422639
Probable space group: P C C A
;
_chemical_formula_sum "Si O2"
_cell_formula_units_Z 40
_cell_length_a 7.940391
_cell_length_b 11.060023
_cell_length_c 18.195927
_cell_angle_alpha 90.000000
_cell_angle_beta 90.000000
_cell_angle_gamma 90.000000
_cell_volume 1597.982814
_symmetry_space_group_name_H-M "P C C A"
_symmetry_group_IT_number 54
_symmetry_cell_setting 'orthorhombic'
loop_
_space_group_symop_operation_xyz
x,y,z
1/2-x,-y,z
1/2+x,-y,1/2-z
-x,y,1/2-z
-x,-y,-z
1/2+x,y,-z
1/2-x,y,1/2+z
x,-y,1/2+z
loop_
_atom_site_type_symbol
_atom_site_label
_atom_site_fract_x
_atom_site_fract_y
_atom_site_fract_z
Si Si1 0.500000 0.073269 0.750000
Si Si2 0.759975 0.257188 0.182053
Si Si3 0.534308 0.389568 0.896834
Si Si4 0.250000 0.000000 0.509988
Si Si5 0.007586 0.898153 0.109742
Si Si6 0.250000 0.500000 0.728834
Si Si7 0.750000 0.500000 0.505646
O O1 0.334191 0.156868 0.762104
O O2 0.516819 0.990912 0.822225
O O3 0.590516 0.216285 0.141888
O O4 0.722625 0.381953 0.222417
O O5 0.921671 0.276258 0.128030
O O6 0.599611 0.458087 0.824831
O O7 0.401153 0.468949 0.941016
O O8 0.693369 0.389961 0.952122
O O9 0.317999 0.896736 0.565679
O O10 0.114984 0.947669 0.453699
#
# Coordination Sequence:
#
# PCOD9422639 Si02
#       7
#     4   8   8   4   8   4   4
#     4  12  24  50  74 114 148 202 260 328 378 472
#     4  12  24  46  77 109 154 196 259 330 388 467
#     4  10  21  42  67 103 148 195 250 311 375 470
#     4  10  24  50  76 114 152 200 268 320 404 468
#     4  11  26  49  79 112 152 204 263 328 395 463
#     4  11  23  44  74 112 151 197 256 320 390 454
#     4   9  21  42  66  96 155 197 250 296 388 472
#
# _framework density 25.031556999999999
#
# number of rings (size 3 to 8) (size 9 to 14) (size 15 to 20)
#    0.000    1.200    4.000    0.600    2.800    1.600 
#    7.200    0.000    0.000    0.000    0.000    0.000 
#    0.000    0.000    0.000    0.000    0.000    0.000 
#
# Total GULP energy -223744.699397 kJ/mol
# GULP energy per Si atom -5593.617485 kJ/mol
# Density = 2.497458 g / cm^3
# Si number density = 25.031557 Si / 1000 Ang^3
#
#
#
# Elastic Constant Matrix: (Units=GPa)
#
#
# Indices 1 2 3 4 5 6 
#
# 1 62.9116 30.9379 59.3800 0.0000 0.0000 0.0000
# 2 30.9379 107.5335 84.3479 0.0000 0.0000 0.0000
# 3 59.3800 84.3479 178.9423 0.0000 0.0000 0.0000
# 4 0.0000 0.0000 0.0000 7.5768 0.0000 0.0000
# 5 0.0000 0.0000 0.0000 0.0000 17.3864 0.0000
# 6 0.0000 0.0000 0.0000 0.0000 0.0000 43.0467
#
#
#
# Elastic Compliance Matrix: (Units=1/GPa)
#
#
# Indices 1 2 3 4 5 6 
#
# 1 0.023213 -0.001010 -0.007227 0.000000 0.000000 0.000000
# 2 -0.001010 0.014799 -0.006641 0.000000 0.000000 0.000000
# 3 -0.007227 -0.006641 0.011117 0.000000 0.000000 0.000000
# 4 0.000000 0.000000 0.000000 0.131981 0.000000 0.000000
# 5 0.000000 0.000000 0.000000 0.000000 0.057516 0.000000
# 6 0.000000 0.000000 0.000000 0.000000 0.000000 0.023231
#
#
# Mechanical properties :
#
#
# Convention : Reuss Voigt Hill
#
# Bulk Modulus (GPa) = 51.61566 77.63542 64.62554
# Shear Modulus (GPa) = 16.77459 25.25009 21.01234
#
# Velocity S-wave (km/s) = 2.59151 3.17950 2.90044
# Velocity P-wave (km/s) = 5.44239 6.67542 6.09019
#
# Compressibility (1/GPa) = 0.01937396
#
# Stress axis : x y z
#
# Youngs Moduli (GPa) = 43.07876 67.57336 89.95387
#
# Poissons Ratio (x) = 0.06823 0.65011
# Poissons Ratio (y) = 0.04350 0.59735
# Poissons Ratio (z) = 0.31134 0.44873
#
# Static dielectric constant tensor:
#      x y z
#    x 2.143250 0.000000 0.000000 
#    y 0.000000 2.005370 0.000000 
#    z 0.000000 0.000000 1.985710 
# 
# From -- ./inp_files/16428.got.cif
#   From: 2010.05.17/outbox.cif.g08.bks.cpg/sg54_9_cif.got.tgz:16428.got - 2010.06.03 13:09:01.
