data_PCOD9422301
_publ_section_title
;
Structure prediction by ZEFSAII (Michael W. Deem and Ramdas Pophale) SiO2 
 PCOD9422301
Probable space group: P C C A
;
_chemical_formula_sum "Si O2"
_cell_formula_units_Z 40
_cell_length_a 15.880346
_cell_length_b 20.833792
_cell_length_c 5.380066
_cell_angle_alpha 90.000000
_cell_angle_beta 90.000000
_cell_angle_gamma 90.000000
_cell_volume 1779.983137
_symmetry_space_group_name_H-M "P C C A"
_symmetry_group_IT_number 54
_symmetry_cell_setting 'orthorhombic'
loop_
_space_group_symop_operation_xyz
x,y,z
1/2-x,-y,z
1/2+x,-y,1/2-z
-x,y,1/2-z
-x,-y,-z
1/2+x,y,-z
1/2-x,y,1/2+z
x,-y,1/2+z
loop_
_atom_site_type_symbol
_atom_site_label
_atom_site_fract_x
_atom_site_fract_y
_atom_site_fract_z
Si Si1 0.544610 0.597387 0.998775
Si Si2 0.306109 0.155331 0.997883
Si Si3 0.048241 0.752054 0.000771
Si Si4 0.726259 0.426418 0.662663
Si Si5 0.902907 0.972461 0.500310
O O1 0.500000 0.576577 0.250000
O O2 0.546984 0.674947 0.995862
O O3 0.638824 0.574292 0.018667
O O4 0.500000 0.575036 0.750000
O O5 0.249857 0.148778 0.247628
O O6 0.381849 0.102530 0.997881
O O7 0.356800 0.222072 0.998940
O O8 0.000000 0.773309 0.750000
O O9 0.000000 0.774566 0.250000
O O10 0.750000 0.500000 0.710595
O O11 0.783616 0.396416 0.440060
O O12 0.863706 0.000392 0.749667
O O13 0.000000 0.000000 0.500000
#
# Coordination Sequence:
#
# PCOD9422301 Si02
#       5
#     8   8   8   8   8
#     4  10  21  40  63  92 120 165 214 258 298 364
#     4  12  26  41  64  98 127 154 204 266 312 359
#     4  10  23  41  67  90 123 166 208 250 311 376
#     4  10  21  38  58  88 125 164 205 246 315 367
#     4  10  23  40  63  88 117 168 208 235 310 372
#
# _framework density 22.472121999999999
#
# number of rings (size 3 to 8) (size 9 to 14) (size 15 to 20)
#    0.000    1.600    0.000    3.600    5.600    4.000 
#    0.000   12.000    0.000    0.000    0.000    0.000 
#    0.000    0.000    0.000    0.000    0.000    0.000 
#
# Total GULP energy -223219.862711 kJ/mol
# GULP energy per Si atom -5580.496568 kJ/mol
# Density = 2.242097 g / cm^3
# Si number density = 22.472122 Si / 1000 Ang^3
#
#
#
# Elastic Constant Matrix: (Units=GPa)
#
#
# Indices 1 2 3 4 5 6 
#
# 1 73.2504 18.7881 23.7761 0.0000 0.0000 0.0000
# 2 18.7881 43.7525 32.6027 0.0000 0.0000 0.0000
# 3 23.7761 32.6027 212.1945 0.0000 0.0000 0.0000
# 4 0.0000 0.0000 0.0000 19.0396 0.0000 0.0000
# 5 0.0000 0.0000 0.0000 0.0000 22.8825 0.0000
# 6 0.0000 0.0000 0.0000 0.0000 0.0000 42.8549
#
#
#
# Elastic Compliance Matrix: (Units=1/GPa)
#
#
# Indices 1 2 3 4 5 6 
#
# 1 0.015462 -0.006040 -0.000804 0.000000 0.000000 0.000000
# 2 -0.006040 0.028171 -0.003651 0.000000 0.000000 0.000000
# 3 -0.000804 -0.003651 0.005364 0.000000 0.000000 0.000000
# 4 0.000000 0.000000 0.000000 0.052522 0.000000 0.000000
# 5 0.000000 0.000000 0.000000 0.000000 0.043701 0.000000
# 6 0.000000 0.000000 0.000000 0.000000 0.000000 0.023335
#
#
# Mechanical properties :
#
#
# Convention : Reuss Voigt Hill
#
# Bulk Modulus (GPa) = 35.70898 53.28126 44.49512
# Shear Modulus (GPa) = 25.14054 33.89077 29.51565
#
# Velocity S-wave (km/s) = 3.34839 3.88767 3.62806
# Velocity P-wave (km/s) = 5.55642 6.62672 6.11503
#
# Compressibility (1/GPa) = 0.02800416
#
# Stress axis : x y z
#
# Youngs Moduli (GPa) = 64.67386 35.49798 186.43397
#
# Poissons Ratio (x) = 0.21442 0.14998
# Poissons Ratio (y) = 0.39065 0.68076
# Poissons Ratio (z) = 0.05203 0.12962
#
# Static dielectric constant tensor:
#      x y z
#    x 1.850980 0.000000 0.000000 
#    y 0.000000 1.837620 0.000000 
#    z 0.000000 0.000000 2.136170 
# 
# From -- ./inp_files/944.got.cif
#   From: 2010.05.17/outbox.cif.g08.bks.cpg/sg54_1_cif.got.tgz:944.got - 2010.06.03 13:09:01.
