data_PCOD9422491
_publ_section_title
;
Structure prediction by ZEFSAII (Michael W. Deem and Ramdas Pophale) SiO2 
 PCOD9422491
Probable space group: P C C A
;
_chemical_formula_sum "Si O2"
_cell_formula_units_Z 48
_cell_length_a 8.394228
_cell_length_b 15.947501
_cell_length_c 16.535490
_cell_angle_alpha 90.000000
_cell_angle_beta 90.000000
_cell_angle_gamma 90.000000
_cell_volume 2213.555769
_symmetry_space_group_name_H-M "P C C A"
_symmetry_group_IT_number 54
_symmetry_cell_setting 'orthorhombic'
loop_
_space_group_symop_operation_xyz
x,y,z
1/2-x,-y,z
1/2+x,-y,1/2-z
-x,y,1/2-z
-x,-y,-z
1/2+x,y,-z
1/2-x,y,1/2+z
x,-y,1/2+z
loop_
_atom_site_type_symbol
_atom_site_label
_atom_site_fract_x
_atom_site_fract_y
_atom_site_fract_z
Si Si1 0.020782 0.778207 0.477278
Si Si2 0.000000 0.332111 0.250000
Si Si3 0.742240 0.099204 0.919221
Si Si4 0.844910 0.261756 0.688862
Si Si5 0.183392 0.920619 0.264586
Si Si6 0.750000 0.500000 0.021326
Si Si7 0.022595 0.613441 0.578351
O O1 0.112686 0.847145 0.531903
O O2 0.102615 0.724938 0.403910
O O3 0.975633 0.703092 0.538939
O O4 0.891673 0.838559 0.434486
O O5 0.828893 0.293940 0.217644
O O6 0.937048 0.377462 0.328817
O O7 0.727275 0.093613 0.821254
O O8 0.750000 0.000000 0.944616
O O9 0.812811 0.162859 0.686544
O O10 0.000000 0.276863 0.750000
O O11 0.000000 0.939986 0.250000
O O12 0.250000 0.000000 0.310328
O O13 0.669338 0.428080 0.967894
O O14 0.617676 0.546414 0.072469
#
# Coordination Sequence:
#
# PCOD9422491 Si02
#       7
#     8   4   8   8   8   4   8
#     4  12  23  44  68 101 139 188 238 286 359 422
#     4  12  26  44  72 110 136 180 236 278 358 426
#     4  11  23  40  62  95 138 183 239 294 344 407
#     4  11  24  43  66 100 138 183 239 295 346 419
#     4  10  21  40  59  86 127 182 234 294 354 399
#     4  10  24  48  72 104 144 176 228 284 358 428
#     4  11  25  45  74 106 138 185 226 290 354 432
#
# _framework density 21.684566
#
# number of rings (size 3 to 8) (size 9 to 14) (size 15 to 20)
#    0.000    1.000    3.333    4.500    3.500    1.333 
#    3.000    0.000    0.000    0.000    0.000    0.000 
#    0.000    0.000    0.000    0.000    0.000    0.000 
#
# Total GULP energy -267273.697120 kJ/mol
# GULP energy per Si atom -5568.202023 kJ/mol
# Density = 2.163521 g / cm^3
# Si number density = 21.684566 Si / 1000 Ang^3
#
#
#
# Elastic Constant Matrix: (Units=GPa)
#
#
# Indices 1 2 3 4 5 6 
#
# 1 36.8119 6.3017 10.5183 0.0000 0.0000 0.0000
# 2 6.3017 64.0688 31.5181 0.0000 0.0000 0.0000
# 3 10.5183 31.5181 87.2742 0.0000 0.0000 0.0000
# 4 0.0000 0.0000 0.0000 -67.9858 0.0000 0.0000
# 5 0.0000 0.0000 0.0000 0.0000 22.1168 0.0000
# 6 0.0000 0.0000 0.0000 0.0000 0.0000 22.8699
#
#
#
# Elastic Compliance Matrix: (Units=1/GPa)
#
#
# Indices 1 2 3 4 5 6 
#
# 1 0.028228 -0.001341 -0.002918 0.000000 0.000000 0.000000
# 2 -0.001341 0.019044 -0.006716 0.000000 0.000000 0.000000
# 3 -0.002918 -0.006716 0.014235 0.000000 0.000000 0.000000
# 4 0.000000 0.000000 0.000000 -0.014709 0.000000 0.000000
# 5 0.000000 0.000000 0.000000 0.000000 0.045214 0.000000
# 6 0.000000 0.000000 0.000000 0.000000 0.000000 0.043726
#
#
# Mechanical properties :
#
#
# Convention : Reuss Voigt Hill
#
# Bulk Modulus (GPa) = 25.27936 31.64791 28.46363
# Shear Modulus (GPa) = 29.26131 4.72131 16.99131
#
# Velocity S-wave (km/s) = 3.67741 1.47716 2.80226
# Velocity P-wave (km/s) = 5.45108 4.18756 4.86055
#
# Compressibility (1/GPa) = 0.03955797
#
# Stress axis : x y z
#
# Youngs Moduli (GPa) = 35.42531 52.51011 70.24857
#
# Poissons Ratio (x) = 0.07042 0.20497
# Poissons Ratio (y) = 0.04751 0.47178
# Poissons Ratio (z) = 0.10336 0.35265
#
# Static dielectric constant tensor:
#      x y z
#    x 2.084690 0.000000 0.000000 
#    y 0.000000 1.704260 0.000000 
#    z 0.000000 0.000000 1.784970 
# 
# From -- ./inp_files/16682.got.cif
#   From: 2010.05.17/outbox.cif.g08.bks.cpg/sg54_9_cif.got.tgz:16682.got - 2010.06.03 13:09:01.
