data_PCOD9422748
_publ_section_title
;
Structure prediction by ZEFSAII (Michael W. Deem and Ramdas Pophale) SiO2 
 PCOD9422748
Probable space group: P C C A
;
_chemical_formula_sum "Si O2"
_cell_formula_units_Z 40
_cell_length_a 9.783760
_cell_length_b 8.754177
_cell_length_c 23.202536
_cell_angle_alpha 90.000000
_cell_angle_beta 90.000000
_cell_angle_gamma 90.000000
_cell_volume 1987.268594
_symmetry_space_group_name_H-M "P C C A"
_symmetry_group_IT_number 54
_symmetry_cell_setting 'orthorhombic'
loop_
_space_group_symop_operation_xyz
x,y,z
1/2-x,-y,z
1/2+x,-y,1/2-z
-x,y,1/2-z
-x,-y,-z
1/2+x,y,-z
1/2-x,y,1/2+z
x,-y,1/2+z
loop_
_atom_site_type_symbol
_atom_site_label
_atom_site_fract_x
_atom_site_fract_y
_atom_site_fract_z
Si Si1 0.123831 0.115393 0.014096
Si Si2 0.750000 0.000000 0.670751
Si Si3 0.242381 0.819342 0.129826
Si Si4 0.151771 0.256214 0.253012
Si Si5 0.573688 0.741079 0.601838
Si Si6 0.750000 0.500000 0.158269
O O1 0.111642 0.240831 0.964952
O O2 0.250000 0.000000 0.007539
O O3 0.149944 0.192993 0.076531
O O4 0.000000 0.000000 0.000000
O O5 0.652903 0.092914 0.714615
O O6 0.840833 0.118868 0.632993
O O7 0.283696 0.742758 0.189856
O O8 0.088098 0.770225 0.112398
O O9 0.250000 0.000000 0.142323
O O10 0.223614 0.362826 0.298475
O O11 0.000000 0.315149 0.250000
O O12 0.626910 0.574352 0.621599
#
# Coordination Sequence:
#
# PCOD9422748 Si02
#       6
#     8   4   8   8   8   4
#     4  11  21  37  68 103 132 168 226 298 349 395
#     4  10  22  34  66  92 126 172 218 292 320 402
#     4  11  22  39  70 100 131 175 229 295 344 402
#     4  11  24  41  63  96 131 172 227 268 341 403
#     4  11  22  43  64  97 137 176 229 277 352 404
#     4  10  28  42  64  92 142 190 214 278 336 426
#
# _framework density 20.128128
#
# number of rings (size 3 to 8) (size 9 to 14) (size 15 to 20)
#    0.000    1.200    6.000    1.200    2.800    1.600 
#    0.000    2.000    0.000    0.000    0.000    0.000 
#    0.000    0.000    0.000    0.000    0.000    0.000 
#
# Total GULP energy -222765.073748 kJ/mol
# GULP energy per Si atom -5569.126844 kJ/mol
# Density = 2.008232 g / cm^3
# Si number density = 20.128128 Si / 1000 Ang^3
#
#
#
# Elastic Constant Matrix: (Units=GPa)
#
#
# Indices 1 2 3 4 5 6 
#
# 1 66.7652 11.4556 16.4740 0.0000 0.0000 0.0000
# 2 11.4556 52.3958 47.7509 0.0000 0.0000 0.0000
# 3 16.4740 47.7509 124.6152 0.0000 0.0000 0.0000
# 4 0.0000 0.0000 0.0000 251.1347 0.0000 0.0000
# 5 0.0000 0.0000 0.0000 0.0000 6.6590 0.0000
# 6 0.0000 0.0000 0.0000 0.0000 0.0000 15.3235
#
#
#
# Elastic Compliance Matrix: (Units=1/GPa)
#
#
# Indices 1 2 3 4 5 6 
#
# 1 0.015671 -0.002364 -0.001166 0.000000 0.000000 0.000000
# 2 -0.002364 0.029684 -0.011062 0.000000 0.000000 0.000000
# 3 -0.001166 -0.011062 0.012418 0.000000 0.000000 0.000000
# 4 0.000000 0.000000 0.000000 0.003982 0.000000 0.000000
# 5 0.000000 0.000000 0.000000 0.000000 0.150174 0.000000
# 6 0.000000 0.000000 0.000000 0.000000 0.000000 0.065259
#
#
# Mechanical properties :
#
#
# Convention : Reuss Voigt Hill
#
# Bulk Modulus (GPa) = 34.97816 43.90411 39.44114
# Shear Modulus (GPa) = 15.82781 65.82982 40.82881
#
# Velocity S-wave (km/s) = 2.80724 5.72507 4.50871
# Velocity P-wave (km/s) = 5.28422 8.09701 6.83683
#
# Compressibility (1/GPa) = 0.02858927
#
# Stress axis : x y z
#
# Youngs Moduli (GPa) = 63.81163 33.68874 80.53081
#
# Poissons Ratio (x) = 0.07963 0.09390
# Poissons Ratio (y) = 0.15083 0.89082
# Poissons Ratio (z) = 0.07440 0.37266
#
# Static dielectric constant tensor:
#      x y z
#    x 1.768040 0.000000 0.000000 
#    y 0.000000 1.737480 0.000000 
#    z 0.000000 0.000000 2.006770 
# 
# From -- ./inp_files/23315.got.cif
#   From: 2010.05.17/outbox.cif.g08.bks.cpg/sg54_12_cif.got.tgz:23315.got - 2010.06.03 13:09:01.
