data_PCOD9422175
_publ_section_title
;
Structure prediction by ZEFSAII (Michael W. Deem and Ramdas Pophale) SiO2 
 PCOD9422175
Probable space group: P C C A
;
_chemical_formula_sum "Si O2"
_cell_formula_units_Z 32
_cell_length_a 7.792657
_cell_length_b 5.412526
_cell_length_c 30.322938
_cell_angle_alpha 90.000000
_cell_angle_beta 90.000000
_cell_angle_gamma 90.000000
_cell_volume 1278.959624
_symmetry_space_group_name_H-M "P C C A"
_symmetry_group_IT_number 54
_symmetry_cell_setting 'orthorhombic'
loop_
_space_group_symop_operation_xyz
x,y,z
1/2-x,-y,z
1/2+x,-y,1/2-z
-x,y,1/2-z
-x,-y,-z
1/2+x,y,-z
1/2-x,y,1/2+z
x,-y,1/2+z
loop_
_atom_site_type_symbol
_atom_site_label
_atom_site_fract_x
_atom_site_fract_y
_atom_site_fract_z
Si Si1 0.344518 0.752327 0.664978
Si Si2 0.700749 0.747933 0.237308
Si Si3 0.452270 0.025676 0.402882
Si Si4 0.043014 0.511169 0.948513
O O1 0.250000 0.500000 0.651216
O O2 0.318413 0.747368 0.717952
O O3 0.523883 0.834610 0.644782
O O4 0.250000 0.000000 0.648919
O O5 0.750000 0.500000 0.212423
O O6 0.500000 0.744226 0.250000
O O7 0.750000 0.000000 0.215019
O O8 0.529793 0.249736 0.431361
O O9 0.250000 0.000000 0.409419
O O10 0.515082 0.755520 0.420655
O O11 0.250000 0.500000 0.943809
O O12 0.000000 0.500000 0.000000
#
# Coordination Sequence:
#
# PCOD9422175 Si02
#       4
#     8   8   8   8
#     4  10  21  38  59  88 119 157 205 253 314 378
#     4  10  21  40  64  93 127 163 208 262 317 385
#     4  10  21  38  58  82 119 157 202 256 308 368
#     4  10  21  36  56  85 116 155 201 251 307 365
#
# _framework density 25.020334999999999
#
# number of rings (size 3 to 8) (size 9 to 14) (size 15 to 20)
#    0.000    2.000    0.000    3.000    0.000    3.000 
#    0.000   15.000    0.000    0.000    0.000    0.000 
#    0.000    0.000    0.000    0.000    0.000    0.000 
#
# Total GULP energy -178171.860458 kJ/mol
# GULP energy per Si atom -5567.870639 kJ/mol
# Density = 2.496339 g / cm^3
# Si number density = 25.020335 Si / 1000 Ang^3
#
#
#
# Elastic Constant Matrix: (Units=GPa)
#
#
# Indices 1 2 3 4 5 6 
#
# 1 31.2415 57.9780 25.3721 0.0000 0.0000 0.0000
# 2 57.9780 301.2229 63.3035 0.0000 0.0000 0.0000
# 3 25.3721 63.3035 121.4390 0.0000 0.0000 0.0000
# 4 0.0000 0.0000 0.0000 32.3208 0.0000 0.0000
# 5 0.0000 0.0000 0.0000 0.0000 35.3662 0.0000
# 6 0.0000 0.0000 0.0000 0.0000 0.0000 26.4249
#
#
#
# Elastic Compliance Matrix: (Units=1/GPa)
#
#
# Indices 1 2 3 4 5 6 
#
# 1 0.054131 -0.009031 -0.006602 0.000000 0.000000 0.000000
# 2 -0.009031 0.005235 -0.000842 0.000000 0.000000 0.000000
# 3 -0.006602 -0.000842 0.010053 0.000000 0.000000 0.000000
# 4 0.000000 0.000000 0.000000 0.030940 0.000000 0.000000
# 5 0.000000 0.000000 0.000000 0.000000 0.028276 0.000000
# 6 0.000000 0.000000 0.000000 0.000000 0.000000 0.037843
#
#
# Mechanical properties :
#
#
# Convention : Reuss Voigt Hill
#
# Bulk Modulus (GPa) = 27.42096 83.02341 55.22219
# Shear Modulus (GPa) = 23.63138 39.30570 31.46854
#
# Velocity S-wave (km/s) = 3.07658 3.96782 3.55028
# Velocity P-wave (km/s) = 4.85837 7.36518 6.23898
#
# Compressibility (1/GPa) = 0.03646845
#
# Stress axis : x y z
#
# Youngs Moduli (GPa) = 18.47384 191.01865 99.47522
#
# Poissons Ratio (x) = 1.72518 0.65669
# Poissons Ratio (y) = 0.16685 0.08376
# Poissons Ratio (z) = 0.12196 0.16084
#
# Static dielectric constant tensor:
#      x y z
#    x 3.360210 0.000000 0.000000 
#    y 0.000000 2.060470 0.000000 
#    z 0.000000 0.000000 2.071090 
# 
# From -- ./inp_files/27365.got.cif
#   From: 2010.05.17/outbox.cif.g08.bks.cpg/sg54_14_cif.got.tgz:27365.got - 2010.06.03 13:09:01.
