data_PCOD9422016
_publ_section_title
;
Structure prediction by ZEFSAII (Michael W. Deem and Ramdas Pophale) SiO2 
 PCOD9422016
Probable space group: P C C A
;
_chemical_formula_sum "Si O2"
_cell_formula_units_Z 48
_cell_length_a 8.708275
_cell_length_b 13.201052
_cell_length_c 23.895488
_cell_angle_alpha 90.000000
_cell_angle_beta 90.000000
_cell_angle_gamma 90.000000
_cell_volume 2746.986855
_symmetry_space_group_name_H-M "P C C A"
_symmetry_group_IT_number 54
_symmetry_cell_setting 'orthorhombic'
loop_
_space_group_symop_operation_xyz
x,y,z
1/2-x,-y,z
1/2+x,-y,1/2-z
-x,y,1/2-z
-x,-y,-z
1/2+x,y,-z
1/2-x,y,1/2+z
x,-y,1/2+z
loop_
_atom_site_type_symbol
_atom_site_label
_atom_site_fract_x
_atom_site_fract_y
_atom_site_fract_z
Si Si1 0.000000 0.495362 0.250000
Si Si2 0.508055 0.682563 0.332039
Si Si3 0.750000 0.000000 0.750796
Si Si4 0.472991 0.603727 0.564906
Si Si5 0.000000 0.852553 0.750000
Si Si6 0.142453 0.331678 0.821795
Si Si7 0.500000 0.153849 0.250000
Si Si8 0.107722 0.625979 0.552096
O O1 0.060891 0.419432 0.201179
O O2 0.885344 0.573826 0.220022
O O3 0.567310 0.777102 0.296109
O O4 0.323623 0.678928 0.330249
O O5 0.556261 0.692537 0.395797
O O6 0.629912 0.076893 0.722494
O O7 0.870797 0.079983 0.777347
O O8 0.549322 0.643326 0.621630
O O9 0.291177 0.620672 0.557736
O O10 0.479464 0.481235 0.563634
O O11 0.559864 0.649702 0.511162
O O12 0.077275 0.229213 0.794404
#
# Coordination Sequence:
#
# PCOD9422016 Si02
#       8
#     4   8   4   8   4   8   4   8
#     4  10  22  30  50  76 122 150 178 218 264 314
#     4  11  21  35  53  83 112 152 183 225 267 336
#     4  10  20  42  56  80 110 142 180 242 274 344
#     4  10  21  35  53  76 110 153 192 226 264 314
#     4  10  22  36  60  82 112 142 186 222 294 328
#     4  11  21  35  53  83 112 152 183 225 267 336
#     4  10  22  36  60  82 112 142 186 222 294 328
#     4  10  21  35  53  76 110 153 192 226 264 314
#
# _framework density 17.473690999999999
#
# number of rings (size 3 to 8) (size 9 to 14) (size 15 to 20)
#    0.000    1.667    3.333    1.500    2.333    4.000 
#    0.000    0.000    0.000    0.000    0.000    7.000 
#    0.000    0.000    0.000    0.000    0.000    0.000 
#
# Total GULP energy -267272.933260 kJ/mol
# GULP energy per Si atom -5568.186110 kJ/mol
# Density = 1.743392 g / cm^3
# Si number density = 17.473691 Si / 1000 Ang^3
#
#
#
# Elastic Constant Matrix: (Units=GPa)
#
#
# Indices 1 2 3 4 5 6 
#
# 1 60.3661 28.2883 36.1628 0.0000 0.0000 0.0000
# 2 28.2883 89.0262 27.2391 0.0000 0.0000 0.0000
# 3 36.1628 27.2391 103.4527 0.0000 0.0000 0.0000
# 4 0.0000 0.0000 0.0000 3.4225 0.0000 0.0000
# 5 0.0000 0.0000 0.0000 0.0000 27.9003 0.0000
# 6 0.0000 0.0000 0.0000 0.0000 0.0000 23.0215
#
#
#
# Elastic Compliance Matrix: (Units=1/GPa)
#
#
# Indices 1 2 3 4 5 6 
#
# 1 0.023030 -0.005280 -0.006660 0.000000 0.000000 0.000000
# 2 -0.005280 0.013427 -0.001690 0.000000 0.000000 0.000000
# 3 -0.006660 -0.001690 0.012439 0.000000 0.000000 0.000000
# 4 0.000000 0.000000 0.000000 0.292182 0.000000 0.000000
# 5 0.000000 0.000000 0.000000 0.000000 0.035842 0.000000
# 6 0.000000 0.000000 0.000000 0.000000 0.000000 0.043438
#
#
# Mechanical properties :
#
#
# Convention : Reuss Voigt Hill
#
# Bulk Modulus (GPa) = 46.21767 48.46949 47.34358
# Shear Modulus (GPa) = 10.99312 21.61251 16.30281
#
# Velocity S-wave (km/s) = 2.51096 3.52072 3.05781
# Velocity P-wave (km/s) = 5.90879 6.65778 6.29444
#
# Compressibility (1/GPa) = 0.02163675
#
# Stress axis : x y z
#
# Youngs Moduli (GPa) = 43.42246 74.47462 80.39094
#
# Poissons Ratio (x) = 0.39322 0.53540
# Poissons Ratio (y) = 0.22927 0.13584
# Poissons Ratio (z) = 0.28919 0.12585
#
# Static dielectric constant tensor:
#      x y z
#    x 1.643330 0.000000 0.000000 
#    y 0.000000 1.606830 0.000000 
#    z 0.000000 0.000000 1.595010 
# 
# From -- ./inp_files/23578.got.cif
#   From: 2010.05.17/outbox.cif.g08.bks.cpg/sg54_12_cif.got.tgz:23578.got - 2010.06.03 13:09:01.
