data_PCOD9422905
_publ_section_title
;
Structure prediction by ZEFSAII (Michael W. Deem and Ramdas Pophale) SiO2 
 PCOD9422905
Probable space group: P C C A
;
_chemical_formula_sum "Si O2"
_cell_formula_units_Z 36
_cell_length_a 5.895364
_cell_length_b 10.575033
_cell_length_c 24.493404
_cell_angle_alpha 90.000000
_cell_angle_beta 90.000000
_cell_angle_gamma 90.000000
_cell_volume 1527.008668
_symmetry_space_group_name_H-M "P C C A"
_symmetry_group_IT_number 54
_symmetry_cell_setting 'orthorhombic'
loop_
_space_group_symop_operation_xyz
x,y,z
1/2-x,-y,z
1/2+x,-y,1/2-z
-x,y,1/2-z
-x,-y,-z
1/2+x,y,-z
1/2-x,y,1/2+z
x,-y,1/2+z
loop_
_atom_site_type_symbol
_atom_site_label
_atom_site_fract_x
_atom_site_fract_y
_atom_site_fract_z
Si Si1 0.505522 0.146692 0.813560
Si Si2 0.858569 0.701254 0.386222
Si Si3 0.150188 0.631704 0.298875
Si Si4 0.250000 0.500000 0.029431
Si Si5 0.507249 0.037241 0.084545
O O1 0.500000 0.104275 0.750000
O O2 0.715264 0.223395 0.840396
O O3 0.318365 0.256776 0.814339
O O4 0.481133 0.031074 0.855664
O O5 0.733968 0.625038 0.432796
O O6 0.006796 0.811991 0.412551
O O7 0.006552 0.601755 0.352505
O O8 0.250000 0.500000 0.278463
O O9 0.000000 0.682586 0.250000
O O10 0.500000 0.500000 0.000000
O O11 0.250000 0.000000 0.064784
O O12 0.750000 0.000000 0.058070
#
# Coordination Sequence:
#
# PCOD9422905 Si02
#       5
#     8   8   8   4   8
#     4  11  22  39  66 106 156 203 235 280 356 459
#     4  11  25  47  71 103 148 193 247 315 375 447
#     4  12  24  36  61 101 150 198 247 285 361 451
#     4  12  32  54  82 106 136 192 264 338 398 446
#     4  10  22  39  67 104 144 196 238 285 352 436
#
# _framework density 23.575503000000001
#
# number of rings (size 3 to 8) (size 9 to 14) (size 15 to 20)
#    0.000    0.889    4.444    2.000    6.222    3.556 
#    0.000    0.000    0.000   17.333    0.000    0.000 
#    0.000    0.000    0.000    0.000    0.000    0.000 
#
# Total GULP energy -200717.817509 kJ/mol
# GULP energy per Si atom -5575.494931 kJ/mol
# Density = 2.352184 g / cm^3
# Si number density = 23.575503 Si / 1000 Ang^3
#
#
#
# Elastic Constant Matrix: (Units=GPa)
#
#
# Indices 1 2 3 4 5 6 
#
# 1 144.9510 25.3480 37.1369 0.0000 0.0000 0.0000
# 2 25.3480 101.5223 35.7287 0.0000 0.0000 0.0000
# 3 37.1369 35.7287 104.9160 0.0000 0.0000 0.0000
# 4 0.0000 0.0000 0.0000 3275.4841 0.0000 0.0000
# 5 0.0000 0.0000 0.0000 0.0000 -41.1299 0.0000
# 6 0.0000 0.0000 0.0000 0.0000 0.0000 43.5952
#
#
#
# Elastic Compliance Matrix: (Units=1/GPa)
#
#
# Indices 1 2 3 4 5 6 
#
# 1 0.007692 -0.001093 -0.002350 0.000000 0.000000 0.000000
# 2 -0.001093 0.011347 -0.003477 0.000000 0.000000 0.000000
# 3 -0.002350 -0.003477 0.011548 0.000000 0.000000 0.000000
# 4 0.000000 0.000000 0.000000 0.000305 0.000000 0.000000
# 5 0.000000 0.000000 0.000000 0.000000 -0.024313 0.000000
# 6 0.000000 0.000000 0.000000 0.000000 0.000000 0.022938
#
#
# Mechanical properties :
#
#
# Convention : Reuss Voigt Hill
#
# Bulk Modulus (GPa) = 59.72043 60.86850 60.29447
# Shear Modulus (GPa) = 102.16523 672.46826 387.31674
#
# Velocity S-wave (km/s) = 6.59010 16.90738 12.83139
# Velocity P-wave (km/s) = 9.12647 20.17475 15.65747
#
# Compressibility (1/GPa) = 0.01674469
#
# Stress axis : x y z
#
# Youngs Moduli (GPa) = 130.00037 88.13112 86.59871
#
# Poissons Ratio (x) = 0.09636 0.20355
# Poissons Ratio (y) = 0.14214 0.30111
# Poissons Ratio (z) = 0.30556 0.30644
#
# Static dielectric constant tensor:
#      x y z
#    x 2.015240 0.000000 0.000000 
#    y 0.000000 1.820400 0.000000 
#    z 0.000000 0.000000 1.882020 
# 
# From -- ./inp_files/22708.got.cif
#   From: 2010.05.17/outbox.cif.g08.bks.cpg/sg54_12_cif.got.tgz:22708.got - 2010.06.03 13:09:01.
