data_PCOD9422735
_publ_section_title
;
Structure prediction by ZEFSAII (Michael W. Deem and Ramdas Pophale) SiO2 
 PCOD9422735
Probable space group: P C C A
;
_chemical_formula_sum "Si O2"
_cell_formula_units_Z 48
_cell_length_a 12.339722
_cell_length_b 7.385570
_cell_length_c 26.747419
_cell_angle_alpha 90.000000
_cell_angle_beta 90.000000
_cell_angle_gamma 90.000000
_cell_volume 2437.649585
_symmetry_space_group_name_H-M "P C C A"
_symmetry_group_IT_number 54
_symmetry_cell_setting 'orthorhombic'
loop_
_space_group_symop_operation_xyz
x,y,z
1/2-x,-y,z
1/2+x,-y,1/2-z
-x,y,1/2-z
-x,-y,-z
1/2+x,y,-z
1/2-x,y,1/2+z
x,-y,1/2+z
loop_
_atom_site_type_symbol
_atom_site_label
_atom_site_fract_x
_atom_site_fract_y
_atom_site_fract_z
Si Si1 0.906574 0.650697 0.813246
Si Si2 0.501453 0.370298 0.116099
Si Si3 0.170315 0.162149 0.823232
Si Si4 0.500000 0.500000 0.000000
Si Si5 0.750000 0.500000 0.476972
Si Si6 0.000000 0.974599 0.750000
Si Si7 0.769517 0.787775 0.391234
Si Si8 0.750000 0.500000 0.734833
O O1 0.993422 0.538171 0.845249
O O2 0.809604 0.703356 0.850256
O O3 0.855151 0.527992 0.769728
O O4 0.947614 0.837030 0.789880
O O5 0.602261 0.245936 0.131115
O O6 0.392309 0.253530 0.124352
O O7 0.493347 0.439710 0.059500
O O8 0.238243 0.322653 0.798323
O O9 0.250000 0.000000 0.837828
O O10 0.087632 0.091197 0.780337
O O11 0.635116 0.509487 0.004707
O O12 0.744505 0.677681 0.441643
O O13 0.750000 0.000000 0.396869
#
# Coordination Sequence:
#
# PCOD9422735 Si02
#       8
#     8   8   8   4   4   4   8   4
#     4  12  21  41  67  99 134 184 233 282 342 424
#     4  11  23  45  70  99 139 182 239 293 353 425
#     4  12  27  44  63 101 139 181 229 287 355 432
#     4  10  22  46  76  98 132 190 232 296 364 416
#     4  10  21  47  66 104 132 172 239 287 364 420
#     4  12  26  40  66  98 142 186 230 282 356 426
#     4  11  21  39  70  97 130 176 228 291 336 409
#     4  12  23  43  64  96 140 184 227 277 352 434
#
# _framework density 19.691099999999999
#
# number of rings (size 3 to 8) (size 9 to 14) (size 15 to 20)
#    0.000    0.667    6.667    3.000    2.333    0.667 
#    0.000    4.167    0.000    0.000    0.000    0.000 
#    0.000    0.000    0.000    0.000    0.000    0.000 
#
# Total GULP energy -267314.319459 kJ/mol
# GULP energy per Si atom -5569.048322 kJ/mol
# Density = 1.964628 g / cm^3
# Si number density = 19.691100 Si / 1000 Ang^3
#
#
#
# Elastic Constant Matrix: (Units=GPa)
#
#
# Indices 1 2 3 4 5 6 
#
# 1 111.5409 20.3597 41.3324 0.0000 0.0000 0.0000
# 2 20.3597 97.3675 32.8319 0.0000 0.0000 0.0000
# 3 41.3324 32.8319 71.2202 0.0000 0.0000 0.0000
# 4 0.0000 0.0000 0.0000 6.6224 0.0000 0.0000
# 5 0.0000 0.0000 0.0000 0.0000 18.3762 0.0000
# 6 0.0000 0.0000 0.0000 0.0000 0.0000 36.9478
#
#
#
# Elastic Compliance Matrix: (Units=1/GPa)
#
#
# Indices 1 2 3 4 5 6 
#
# 1 0.011424 -0.000181 -0.006546 0.000000 0.000000 0.000000
# 2 -0.000181 0.012164 -0.005502 0.000000 0.000000 0.000000
# 3 -0.006546 -0.005502 0.020377 0.000000 0.000000 0.000000
# 4 0.000000 0.000000 0.000000 0.151004 0.000000 0.000000
# 5 0.000000 0.000000 0.000000 0.000000 0.054418 0.000000
# 6 0.000000 0.000000 0.000000 0.000000 0.000000 0.027065
#
#
# Mechanical properties :
#
#
# Convention : Reuss Voigt Hill
#
# Bulk Modulus (GPa) = 51.26973 52.13073 51.70023
# Shear Modulus (GPa) = 16.26479 24.76293 20.51386
#
# Velocity S-wave (km/s) = 2.87713 3.55007 3.23117
# Velocity P-wave (km/s) = 6.09350 6.58299 6.34297
#
# Compressibility (1/GPa) = 0.01950469
#
# Stress axis : x y z
#
# Youngs Moduli (GPa) = 87.53303 82.21287 49.07605
#
# Poissons Ratio (x) = 0.01491 0.32127
# Poissons Ratio (y) = 0.01588 0.27002
# Poissons Ratio (z) = 0.57303 0.45234
#
# Static dielectric constant tensor:
#      x y z
#    x 1.732300 0.000000 0.000000 
#    y 0.000000 1.683200 0.000000 
#    z 0.000000 0.000000 1.670000 
# 
# From -- ./inp_files/24139.got.cif
#   From: 2010.05.17/outbox.cif.g08.bks.cpg/sg54_13_cif.got.tgz:24139.got - 2010.06.03 13:09:01.
