data_PCOD9422978
_publ_section_title
;
Structure prediction by ZEFSAII (Michael W. Deem and Ramdas Pophale) SiO2 
 PCOD9422978
Probable space group: P C C A
;
_chemical_formula_sum "Si O2"
_cell_formula_units_Z 28
_cell_length_a 8.990718
_cell_length_b 9.907652
_cell_length_c 13.634477
_cell_angle_alpha 90.000000
_cell_angle_beta 90.000000
_cell_angle_gamma 90.000000
_cell_volume 1214.517015
_symmetry_space_group_name_H-M "P C C A"
_symmetry_group_IT_number 54
_symmetry_cell_setting 'orthorhombic'
loop_
_space_group_symop_operation_xyz
x,y,z
1/2-x,-y,z
1/2+x,-y,1/2-z
-x,y,1/2-z
-x,-y,-z
1/2+x,y,-z
1/2-x,y,1/2+z
x,-y,1/2+z
loop_
_atom_site_type_symbol
_atom_site_label
_atom_site_fract_x
_atom_site_fract_y
_atom_site_fract_z
Si Si1 0.750000 0.000000 0.880107
Si Si2 0.050435 0.632188 0.886892
Si Si3 0.292552 0.294794 0.082404
Si Si4 0.000000 0.132292 0.250000
Si Si5 0.500000 0.395212 0.250000
O O1 0.783539 0.135209 0.939984
O O2 0.611664 0.042477 0.812432
O O3 0.871931 0.646961 0.901285
O O4 0.087855 0.764532 0.822001
O O5 0.079881 0.497633 0.825486
O O6 0.128302 0.635900 0.991022
O O7 0.387415 0.313076 0.181819
#
# Coordination Sequence:
#
# PCOD9422978 Si02
#       5
#     4   8   8   4   4
#     4  10  22  40  64  96 128 174 218 256 328 380
#     4  10  24  41  63  96 129 170 219 266 324 379
#     4  11  24  41  66  96 132 171 214 270 320 387
#     4   9  21  40  60  90 129 169 220 268 314 387
#     4  11  23  42  64  92 129 169 214 260 318 379
#
# _framework density 23.054431999999998
#
# number of rings (size 3 to 8) (size 9 to 14) (size 15 to 20)
#    0.000    1.714    0.000    2.571    0.000   17.143 
#    0.000    0.000    0.000    0.000    0.000    0.000 
#    0.000    0.000    0.000    0.000    0.000    0.000 
#
# Total GULP energy -156837.733971 kJ/mol
# GULP energy per Si atom -5601.347642 kJ/mol
# Density = 2.300196 g / cm^3
# Si number density = 23.054432 Si / 1000 Ang^3
#
#
#
# Elastic Constant Matrix: (Units=GPa)
#
#
# Indices 1 2 3 4 5 6 
#
# 1 69.4410 9.5595 32.3565 0.0000 0.0000 0.0000
# 2 9.5595 111.0564 23.5295 0.0000 0.0000 0.0000
# 3 32.3565 23.5295 125.2882 0.0000 0.0000 0.0000
# 4 0.0000 0.0000 0.0000 6.7006 0.0000 0.0000
# 5 0.0000 0.0000 0.0000 0.0000 30.1373 0.0000
# 6 0.0000 0.0000 0.0000 0.0000 0.0000 15.1869
#
#
#
# Elastic Compliance Matrix: (Units=1/GPa)
#
#
# Indices 1 2 3 4 5 6 
#
# 1 0.016401 -0.000536 -0.004135 0.000000 0.000000 0.000000
# 2 -0.000536 0.009395 -0.001626 0.000000 0.000000 0.000000
# 3 -0.004135 -0.001626 0.009355 0.000000 0.000000 0.000000
# 4 0.000000 0.000000 0.000000 0.149241 0.000000 0.000000
# 5 0.000000 0.000000 0.000000 0.000000 0.033182 0.000000
# 6 0.000000 0.000000 0.000000 0.000000 0.000000 0.065846
#
#
# Mechanical properties :
#
#
# Convention : Reuss Voigt Hill
#
# Bulk Modulus (GPa) = 44.33126 48.51962 46.42544
# Shear Modulus (GPa) = 16.47268 26.42763 21.45015
#
# Velocity S-wave (km/s) = 2.67594 3.38940 3.05358
# Velocity P-wave (km/s) = 5.36826 6.03397 5.71082
#
# Compressibility (1/GPa) = 0.02255745
#
# Stress axis : x y z
#
# Youngs Moduli (GPa) = 60.97102 106.43892 106.89586
#
# Poissons Ratio (x) = 0.05702 0.44203
# Poissons Ratio (y) = 0.03266 0.17382
# Poissons Ratio (z) = 0.25212 0.17308
#
# Static dielectric constant tensor:
#      x y z
#    x 1.297300 0.000000 0.000000 
#    y 0.000000 1.871980 0.000000 
#    z 0.000000 0.000000 1.836970 
# 
# From -- ./inp_files/11190.got.cif
#   From: 2010.05.17/outbox.cif.g08.bks.cpg/sg54_6_cif.got.tgz:11190.got - 2010.06.03 13:09:01.
