data_PCOD9422383
_publ_section_title
;
Structure prediction by ZEFSAII (Michael W. Deem and Ramdas Pophale) SiO2 
 PCOD9422383
Probable space group: P C C A
;
_chemical_formula_sum "Si O2"
_cell_formula_units_Z 32
_cell_length_a 5.406152
_cell_length_b 17.152282
_cell_length_c 17.511818
_cell_angle_alpha 90.000000
_cell_angle_beta 90.000000
_cell_angle_gamma 90.000000
_cell_volume 1623.833121
_symmetry_space_group_name_H-M "P C C A"
_symmetry_group_IT_number 54
_symmetry_cell_setting 'orthorhombic'
loop_
_space_group_symop_operation_xyz
x,y,z
1/2-x,-y,z
1/2+x,-y,1/2-z
-x,y,1/2-z
-x,-y,-z
1/2+x,y,-z
1/2-x,y,1/2+z
x,-y,1/2+z
loop_
_atom_site_type_symbol
_atom_site_label
_atom_site_fract_x
_atom_site_fract_y
_atom_site_fract_z
Si Si1 0.500000 0.700976 0.250000
Si Si2 0.046797 0.684671 0.048306
Si Si3 0.867222 0.801501 0.327862
Si Si4 0.866375 0.423318 0.673339
Si Si5 0.000000 0.952671 0.250000
O O1 0.603170 0.761542 0.313663
O O2 0.324592 0.641927 0.296732
O O3 0.035588 0.766388 0.094192
O O4 0.045832 0.619636 0.114706
O O5 0.296256 0.677272 1.000000
O O6 0.906929 0.893336 0.316792
O O7 0.000000 0.770426 0.250000
O O8 0.750000 0.500000 0.636460
O O9 0.000000 0.451570 0.750000
O O10 0.750000 0.000000 0.229299
#
# Coordination Sequence:
#
# PCOD9422383 Si02
#       5
#     4   8   8   8   4
#     4  12  17  40  67  90 122 164 236 278 315 374
#     4  12  26  42  63  93 137 176 218 268 328 393
#     4  10  22  38  69  94 122 171 219 267 306 392
#     4  12  24  39  65  91 124 177 229 289 335 382
#     4  10  21  38  69 106 130 154 206 282 321 370
#
# _framework density 19.706458999999999
#
# number of rings (size 3 to 8) (size 9 to 14) (size 15 to 20)
#    0.750    0.000    6.250    2.250    0.000    1.000 
#    0.000    0.000    0.000    4.500    0.000    0.000 
#    0.000    0.000    0.000    0.000    0.000    0.000 
#
# Total GULP energy -178269.311600 kJ/mol
# GULP energy per Si atom -5570.915988 kJ/mol
# Density = 1.966161 g / cm^3
# Si number density = 19.706459 Si / 1000 Ang^3
#
#
#
# Elastic Constant Matrix: (Units=GPa)
#
#
# Indices 1 2 3 4 5 6 
#
# 1 92.1332 33.7583 23.7525 0.0000 0.0000 0.0000
# 2 33.7583 116.2223 7.0638 0.0000 0.0000 0.0000
# 3 23.7525 7.0638 71.4146 0.0000 0.0000 0.0000
# 4 0.0000 0.0000 0.0000 -17.1250 0.0000 0.0000
# 5 0.0000 0.0000 0.0000 0.0000 39.1887 0.0000
# 6 0.0000 0.0000 0.0000 0.0000 0.0000 30.7366
#
#
#
# Elastic Compliance Matrix: (Units=1/GPa)
#
#
# Indices 1 2 3 4 5 6 
#
# 1 0.013211 -0.003592 -0.004039 0.000000 0.000000 0.000000
# 2 -0.003592 0.009633 0.000242 0.000000 0.000000 0.000000
# 3 -0.004039 0.000242 0.015322 0.000000 0.000000 0.000000
# 4 0.000000 0.000000 0.000000 -0.058394 0.000000 0.000000
# 5 0.000000 0.000000 0.000000 0.000000 0.025518 0.000000
# 6 0.000000 0.000000 0.000000 0.000000 0.000000 0.032535
#
#
# Mechanical properties :
#
#
# Convention : Reuss Voigt Hill
#
# Bulk Modulus (GPa) = 42.75602 45.43547 44.09574
# Shear Modulus (GPa) = 82.78454 24.90642 53.84548
#
# Velocity S-wave (km/s) = 6.48845 3.55895 5.23289
# Velocity P-wave (km/s) = 8.82479 6.32411 7.67696
#
# Compressibility (1/GPa) = 0.02338852
#
# Stress axis : x y z
#
# Youngs Moduli (GPa) = 75.69366 103.81182 65.26518
#
# Poissons Ratio (x) = 0.37288 0.26359
# Poissons Ratio (y) = 0.27188 -0.01578
# Poissons Ratio (z) = 0.30571 -0.02511
#
# Static dielectric constant tensor:
#      x y z
#    x 1.897010 0.000000 0.000000 
#    y 0.000000 1.691820 0.000000 
#    z 0.000000 0.000000 1.711570 
# 
# From -- ./inp_files/10750.got.cif
#   From: 2010.05.17/outbox.cif.g08.bks.cpg/sg54_6_cif.got.tgz:10750.got - 2010.06.03 13:09:01.
