data_PCOD9422235
_publ_section_title
;
Structure prediction by ZEFSAII (Michael W. Deem and Ramdas Pophale) SiO2 
 PCOD9422235
Probable space group: P C C A
;
_chemical_formula_sum "Si O2"
_cell_formula_units_Z 32
_cell_length_a 25.504068
_cell_length_b 5.183118
_cell_length_c 9.265183
_cell_angle_alpha 90.000000
_cell_angle_beta 90.000000
_cell_angle_gamma 90.000000
_cell_volume 1224.770044
_symmetry_space_group_name_H-M "P C C A"
_symmetry_group_IT_number 54
_symmetry_cell_setting 'orthorhombic'
loop_
_space_group_symop_operation_xyz
x,y,z
1/2-x,-y,z
1/2+x,-y,1/2-z
-x,y,1/2-z
-x,-y,-z
1/2+x,y,-z
1/2-x,y,1/2+z
x,-y,1/2+z
loop_
_atom_site_type_symbol
_atom_site_label
_atom_site_fract_x
_atom_site_fract_y
_atom_site_fract_z
Si Si1 0.305164 0.350181 0.819430
Si Si2 0.459787 0.562761 0.878167
Si Si3 0.161223 0.850453 0.139065
Si Si4 0.062009 0.949855 0.780995
O O1 0.250000 0.500000 0.846298
O O2 0.332931 0.590971 0.735501
O O3 0.308338 0.099642 0.710236
O O4 0.322150 0.230844 0.976519
O O5 0.500000 0.618237 0.750000
O O6 0.422611 0.329495 0.838170
O O7 0.433006 0.833172 0.903227
O O8 0.500000 0.500000 0.000000
O O9 0.100519 0.938510 0.161172
O O10 0.000000 0.903727 0.750000
#
# Coordination Sequence:
#
# PCOD9422235 Si02
#       4
#     8   8   8   8
#     4  12  28  52  80 113 154 202 262 334 401 470
#     4  10  21  37  59  89 132 188 238 287 348 414
#     4  12  27  49  80 117 156 207 260 317 398 475
#     4  10  23  42  69 105 150 197 247 304 366 453
#
# _framework density 26.127351999999998
#
# number of rings (size 3 to 8) (size 9 to 14) (size 15 to 20)
#    0.000    1.000    0.000    5.250    0.000   14.000 
#    0.000    1.250    0.000    0.000    0.000    0.000 
#    0.000    0.000    0.000    0.000    0.000    0.000 
#
# Total GULP energy -178436.791849 kJ/mol
# GULP energy per Si atom -5576.149745 kJ/mol
# Density = 2.606788 g / cm^3
# Si number density = 26.127352 Si / 1000 Ang^3
#
#
#
# Elastic Constant Matrix: (Units=GPa)
#
#
# Indices 1 2 3 4 5 6 
#
# 1 118.8090 70.5861 83.9654 0.0000 0.0000 0.0000
# 2 70.5861 269.7900 71.0575 0.0000 0.0000 0.0000
# 3 83.9654 71.0575 176.6197 0.0000 0.0000 0.0000
# 4 0.0000 0.0000 0.0000 60.5188 0.0000 0.0000
# 5 0.0000 0.0000 0.0000 0.0000 15.1974 0.0000
# 6 0.0000 0.0000 0.0000 0.0000 0.0000 61.5321
#
#
#
# Elastic Compliance Matrix: (Units=1/GPa)
#
#
# Indices 1 2 3 4 5 6 
#
# 1 0.013647 -0.002082 -0.005650 0.000000 0.000000 0.000000
# 2 -0.002082 0.004464 -0.000806 0.000000 0.000000 0.000000
# 3 -0.005650 -0.000806 0.008672 0.000000 0.000000 0.000000
# 4 0.000000 0.000000 0.000000 0.016524 0.000000 0.000000
# 5 0.000000 0.000000 0.000000 0.000000 0.065801 0.000000
# 6 0.000000 0.000000 0.000000 0.000000 0.000000 0.016252
#
#
# Mechanical properties :
#
#
# Convention : Reuss Voigt Hill
#
# Bulk Modulus (GPa) = 103.02615 112.93741 107.98178
# Shear Modulus (GPa) = 34.32383 50.09029 42.20706
#
# Velocity S-wave (km/s) = 3.62845 4.38329 4.02361
# Velocity P-wave (km/s) = 7.55461 8.30284 7.93755
#
# Compressibility (1/GPa) = 0.00970627
#
# Stress axis : x y z
#
# Youngs Moduli (GPa) = 73.27556 224.03148 115.31187
#
# Poissons Ratio (x) = 0.46653 0.65152
# Poissons Ratio (y) = 0.15259 0.09292
# Poissons Ratio (z) = 0.41401 0.18053
#
# Static dielectric constant tensor:
#      x y z
#    x 2.487780 0.000000 0.000000 
#    y 0.000000 2.279100 0.000000 
#    z 0.000000 0.000000 2.024270 
# 
# From -- ./inp_files/5690.got.cif
#   From: 2010.05.17/outbox.cif.g08.bks.cpg/sg54_3_cif.got.tgz:5690.got - 2010.06.03 13:09:01.
