data_PCOD9422418
_publ_section_title
;
Structure prediction by ZEFSAII (Michael W. Deem and Ramdas Pophale) SiO2 
 PCOD9422418
Probable space group: P C C A
;
_chemical_formula_sum "Si O2"
_cell_formula_units_Z 28
_cell_length_a 4.980605
_cell_length_b 12.349870
_cell_length_c 23.455701
_cell_angle_alpha 90.000000
_cell_angle_beta 90.000000
_cell_angle_gamma 90.000000
_cell_volume 1442.756047
_symmetry_space_group_name_H-M "P C C A"
_symmetry_group_IT_number 54
_symmetry_cell_setting 'orthorhombic'
loop_
_space_group_symop_operation_xyz
x,y,z
1/2-x,-y,z
1/2+x,-y,1/2-z
-x,y,1/2-z
-x,-y,-z
1/2+x,y,-z
1/2-x,y,1/2+z
x,-y,1/2+z
loop_
_atom_site_type_symbol
_atom_site_label
_atom_site_fract_x
_atom_site_fract_y
_atom_site_fract_z
Si Si1 0.250000 0.000000 0.457756
Si Si2 0.300593 0.871029 0.195372
Si Si3 0.202944 0.803328 0.371027
Si Si4 0.249026 0.629261 0.962523
O O1 0.178626 0.900584 0.416095
O O2 0.500000 0.000000 0.500000
O O3 0.500000 0.859203 0.250000
O O4 0.490988 0.817645 0.148447
O O5 0.007352 0.820067 0.181257
O O6 0.250000 0.000000 0.189916
O O7 0.173215 0.692591 0.405612
O O8 0.250000 0.500000 0.953613
O O9 0.458416 0.658274 0.012579
#
# Coordination Sequence:
#
# PCOD9422418 Si02
#       4
#     4   8   8   8
#     4  12  22  34  52  84 126 156 184 234 300 362
#     4  12  23  40  59  86 118 158 206 252 299 363
#     4  12  22  38  59  88 122 157 200 246 303 358
#     4  10  21  39  62  89 121 162 204 241 290 364
#
# _framework density 19.407299999999999
#
# number of rings (size 3 to 8) (size 9 to 14) (size 15 to 20)
#    0.000    0.571    2.857    7.714    0.000    0.000 
#    0.000    0.000    0.000    3.429    0.000    2.000 
#    0.000    0.000    0.000    0.000    0.000    0.000 
#
# Total GULP energy -156048.027056 kJ/mol
# GULP energy per Si atom -5573.143823 kJ/mol
# Density = 1.936313 g / cm^3
# Si number density = 19.407300 Si / 1000 Ang^3
#
#
#
# Elastic Constant Matrix: (Units=GPa)
#
#
# Indices 1 2 3 4 5 6 
#
# 1 131.8433 17.6615 26.1955 0.0000 0.0000 0.0000
# 2 17.6615 54.8298 32.9917 0.0000 0.0000 0.0000
# 3 26.1955 32.9917 55.9778 0.0000 0.0000 0.0000
# 4 0.0000 0.0000 0.0000 52.2392 0.0000 0.0000
# 5 0.0000 0.0000 0.0000 0.0000 47.6158 0.0000
# 6 0.0000 0.0000 0.0000 0.0000 0.0000 19.0355
#
#
#
# Elastic Compliance Matrix: (Units=1/GPa)
#
#
# Indices 1 2 3 4 5 6 
#
# 1 0.008372 -0.000526 -0.003608 0.000000 0.000000 0.000000
# 2 -0.000526 0.028293 -0.016429 0.000000 0.000000 0.000000
# 3 -0.003608 -0.016429 0.029235 0.000000 0.000000 0.000000
# 4 0.000000 0.000000 0.000000 0.019143 0.000000 0.000000
# 5 0.000000 0.000000 0.000000 0.000000 0.021001 0.000000
# 6 0.000000 0.000000 0.000000 0.000000 0.000000 0.052533
#
#
# Mechanical properties :
#
#
# Convention : Reuss Voigt Hill
#
# Bulk Modulus (GPa) = 40.36331 44.03870 42.20101
# Shear Modulus (GPa) = 24.04280 34.83156 29.43718
#
# Velocity S-wave (km/s) = 3.52355 4.24106 3.89885
# Velocity P-wave (km/s) = 6.11531 6.83544 6.48538
#
# Compressibility (1/GPa) = 0.02477497
#
# Stress axis : x y z
#
# Youngs Moduli (GPa) = 119.44519 35.34411 34.20503
#
# Poissons Ratio (x) = 0.01859 0.12341
# Poissons Ratio (y) = 0.06281 0.56196
# Poissons Ratio (z) = 0.43094 0.58067
#
# Static dielectric constant tensor:
#      x y z
#    x 1.668290 0.000000 0.000000 
#    y 0.000000 1.650180 0.000000 
#    z 0.000000 0.000000 1.658510 
# 
# From -- ./inp_files/19461.got.cif
#   From: 2010.05.17/outbox.cif.g08.bks.cpg/sg54_10_cif.got.tgz:19461.got - 2010.06.03 13:09:01.
