data_PCOD9422882
_publ_section_title
;
Structure prediction by ZEFSAII (Michael W. Deem and Ramdas Pophale) SiO2 
 PCOD9422882
Probable space group: P C C A
;
_chemical_formula_sum "Si O2"
_cell_formula_units_Z 52
_cell_length_a 24.582617
_cell_length_b 10.908853
_cell_length_c 9.159283
_cell_angle_alpha 90.000000
_cell_angle_beta 90.000000
_cell_angle_gamma 90.000000
_cell_volume 2456.228025
_symmetry_space_group_name_H-M "P C C A"
_symmetry_group_IT_number 54
_symmetry_cell_setting 'orthorhombic'
loop_
_space_group_symop_operation_xyz
x,y,z
1/2-x,-y,z
1/2+x,-y,1/2-z
-x,y,1/2-z
-x,-y,-z
1/2+x,y,-z
1/2-x,y,1/2+z
x,-y,1/2+z
loop_
_atom_site_type_symbol
_atom_site_label
_atom_site_fract_x
_atom_site_fract_y
_atom_site_fract_z
Si Si1 0.436390 0.640478 0.010257
Si Si2 0.243420 0.357444 0.379983
Si Si3 0.967109 0.089433 0.398298
Si Si4 0.681166 0.697508 0.368600
Si Si5 0.652178 0.032924 0.947719
Si Si6 0.500000 0.479402 0.250000
Si Si7 0.795179 0.895887 0.225964
O O1 0.371799 0.644000 0.048344
O O2 0.457114 0.594505 0.852289
O O3 0.456728 0.778937 0.030245
O O4 0.465658 0.559902 0.135090
O O5 0.250000 0.500000 0.340112
O O6 0.264919 0.349187 0.546318
O O7 0.277907 0.242043 0.312496
O O8 0.185083 0.331289 0.303744
O O9 0.907929 0.029448 0.385721
O O10 0.000000 0.106240 0.250000
O O11 0.000000 0.000000 0.500000
O O12 0.679285 0.844186 0.381863
O O13 0.656254 0.060607 0.118674
O O14 0.685785 0.916606 0.891614
O O15 0.750000 0.000000 0.193918
#
# Coordination Sequence:
#
# PCOD9422882 Si02
#       7
#     8   8   8   8   8   4   8
#     4  10  23  44  69  97 125 173 221 280 324 404
#     4  11  24  41  60  94 131 170 207 265 317 384
#     4  11  23  42  64  95 134 164 211 281 337 384
#     4  10  23  42  63  92 134 164 217 258 321 387
#     4  10  22  39  63  92 119 165 215 260 311 386
#     4  10  22  46  72  92 126 172 228 270 338 390
#     4  11  21  39  65  87 122 167 212 258 309 375
#
# _framework density 21.170673000000001
#
# number of rings (size 3 to 8) (size 9 to 14) (size 15 to 20)
#    0.000    1.538    2.308    1.846    5.385    0.000 
#    0.000    0.000    0.000    0.000    0.000    0.000 
#    0.000    0.000    0.000    0.000    0.000    0.000 
#
# Total GULP energy -289716.960621 kJ/mol
# GULP energy per Si atom -5571.480012 kJ/mol
# Density = 2.112249 g / cm^3
# Si number density = 21.170673 Si / 1000 Ang^3
#
#
#
# Elastic Constant Matrix: (Units=GPa)
#
#
# Indices 1 2 3 4 5 6 
#
# 1 79.0802 28.7825 37.4116 0.0000 0.0000 0.0000
# 2 28.7825 84.0198 25.1069 0.0000 0.0000 0.0000
# 3 37.4116 25.1069 89.8423 0.0000 0.0000 0.0000
# 4 0.0000 0.0000 0.0000 27.6034 0.0000 0.0000
# 5 0.0000 0.0000 0.0000 0.0000 35.0925 0.0000
# 6 0.0000 0.0000 0.0000 0.0000 0.0000 24.7797
#
#
#
# Elastic Compliance Matrix: (Units=1/GPa)
#
#
# Indices 1 2 3 4 5 6 
#
# 1 0.016909 -0.004025 -0.005917 0.000000 0.000000 0.000000
# 2 -0.004025 0.013944 -0.002221 0.000000 0.000000 0.000000
# 3 -0.005917 -0.002221 0.014215 0.000000 0.000000 0.000000
# 4 0.000000 0.000000 0.000000 0.036227 0.000000 0.000000
# 5 0.000000 0.000000 0.000000 0.000000 0.028496 0.000000
# 6 0.000000 0.000000 0.000000 0.000000 0.000000 0.040356
#
#
# Mechanical properties :
#
#
# Convention : Reuss Voigt Hill
#
# Bulk Modulus (GPa) = 48.20568 48.39381 48.29975
# Shear Modulus (GPa) = 27.56543 28.27120 27.91832
#
# Velocity S-wave (km/s) = 3.61232 3.65827 3.63537
# Velocity P-wave (km/s) = 6.34176 6.38376 6.36280
#
# Compressibility (1/GPa) = 0.02074444
#
# Stress axis : x y z
#
# Youngs Moduli (GPa) = 59.13930 71.71383 70.34825
#
# Poissons Ratio (x) = 0.28862 0.41622
# Poissons Ratio (y) = 0.23801 0.15624
# Poissons Ratio (z) = 0.34990 0.15927
#
# Static dielectric constant tensor:
#      x y z
#    x 5.020850 0.000000 0.000000 
#    y 0.000000 1.738150 0.000000 
#    z 0.000000 0.000000 1.846190 
# 
# From -- ./inp_files/5532.got.cif
#   From: 2010.05.17/outbox.cif.g08.bks.cpg/sg54_3_cif.got.tgz:5532.got - 2010.06.03 13:09:01.
