data_PCOD9422633
_publ_section_title
;
Structure prediction by ZEFSAII (Michael W. Deem and Ramdas Pophale) SiO2 
 PCOD9422633
Probable space group: P C C A
;
_chemical_formula_sum "Si O2"
_cell_formula_units_Z 32
_cell_length_a 9.758066
_cell_length_b 8.278656
_cell_length_c 14.352860
_cell_angle_alpha 90.000000
_cell_angle_beta 90.000000
_cell_angle_gamma 90.000000
_cell_volume 1159.476729
_symmetry_space_group_name_H-M "P C C A"
_symmetry_group_IT_number 54
_symmetry_cell_setting 'orthorhombic'
loop_
_space_group_symop_operation_xyz
x,y,z
1/2-x,-y,z
1/2+x,-y,1/2-z
-x,y,1/2-z
-x,-y,-z
1/2+x,y,-z
1/2-x,y,1/2+z
x,-y,1/2+z
loop_
_atom_site_type_symbol
_atom_site_label
_atom_site_fract_x
_atom_site_fract_y
_atom_site_fract_z
Si Si1 0.136772 0.870443 0.369225
Si Si2 0.317712 0.326414 0.187959
Si Si3 0.668782 0.334230 0.514266
Si Si4 0.543695 0.159640 0.857091
O O1 0.127257 0.744362 0.284547
O O2 0.211957 0.795311 0.458312
O O3 0.250000 0.000000 0.334676
O O4 0.002129 0.978840 0.386496
O O5 0.250000 0.500000 0.208950
O O6 0.200411 0.206693 0.149946
O O7 0.396348 0.347304 0.089528
O O8 0.750000 0.500000 0.530526
O O9 0.546646 0.285058 0.583449
O O10 0.500000 0.174382 0.750000
#
# Coordination Sequence:
#
# PCOD9422633 Si02
#       4
#     8   8   8   8
#     4  10  21  42  64  99 138 182 230 293 342 421
#     4  11  24  45  71 101 145 185 237 303 354 429
#     4  10  23  43  69 104 143 179 242 291 351 433
#     4  11  23  45  66  99 140 186 236 286 365 417
#
# _framework density 27.598654
#
# number of rings (size 3 to 8) (size 9 to 14) (size 15 to 20)
#    0.000    1.500    5.000    0.750    0.000    8.000 
#    9.000    0.000    0.000    0.000    0.000    0.000 
#    0.000    0.000    0.000    0.000    0.000    0.000 
#
# Total GULP energy -179238.415110 kJ/mol
# GULP energy per Si atom -5601.200472 kJ/mol
# Density = 2.753584 g / cm^3
# Si number density = 27.598654 Si / 1000 Ang^3
#
#
#
# Elastic Constant Matrix: (Units=GPa)
#
#
# Indices 1 2 3 4 5 6 
#
# 1 91.1803 24.9136 6.8618 0.0000 0.0000 0.0000
# 2 24.9136 163.7202 60.2916 0.0000 0.0000 0.0000
# 3 6.8618 60.2916 191.7275 0.0000 0.0000 0.0000
# 4 0.0000 0.0000 0.0000 -17.3703 0.0000 0.0000
# 5 0.0000 0.0000 0.0000 0.0000 38.8053 0.0000
# 6 0.0000 0.0000 0.0000 0.0000 0.0000 46.1048
#
#
#
# Elastic Compliance Matrix: (Units=1/GPa)
#
#
# Indices 1 2 3 4 5 6 
#
# 1 0.011447 -0.001799 0.000156 0.000000 0.000000 0.000000
# 2 -0.001799 0.007191 -0.002197 0.000000 0.000000 0.000000
# 3 0.000156 -0.002197 0.005901 0.000000 0.000000 0.000000
# 4 0.000000 0.000000 0.000000 -0.057570 0.000000 0.000000
# 5 0.000000 0.000000 0.000000 0.000000 0.025770 0.000000
# 6 0.000000 0.000000 0.000000 0.000000 0.000000 0.021690
#
#
# Mechanical properties :
#
#
# Convention : Reuss Voigt Hill
#
# Bulk Modulus (GPa) = 59.31645 70.08466 64.70056
# Shear Modulus (GPa) = 180.31862 37.14536 108.73199
#
# Velocity S-wave (km/s) = 8.09184 3.67265 6.28356
# Velocity P-wave (km/s) = 10.43278 6.59043 8.72573
#
# Compressibility (1/GPa) = 0.01685873
#
# Stress axis : x y z
#
# Youngs Moduli (GPa) = 87.35763 139.06610 169.46329
#
# Poissons Ratio (x) = 0.25024 -0.02647
# Poissons Ratio (y) = 0.15720 0.37229
# Poissons Ratio (z) = -0.01364 0.30551
#
# Static dielectric constant tensor:
#      x y z
#    x 2.269480 0.000000 0.000000 
#    y 0.000000 2.166380 0.000000 
#    z 0.000000 0.000000 2.140130 
# 
# From -- ./inp_files/12164.got.cif
#   From: 2010.05.17/outbox.cif.g08.bks.cpg/sg54_7_cif.got.tgz:12164.got - 2010.06.03 13:09:01.
