data_PCOD9422080
_publ_section_title
;
Structure prediction by ZEFSAII (Michael W. Deem and Ramdas Pophale) SiO2 
 PCOD9422080
Probable space group: P C C A
;
_chemical_formula_sum "Si O2"
_cell_formula_units_Z 32
_cell_length_a 21.851763
_cell_length_b 7.310815
_cell_length_c 7.916455
_cell_angle_alpha 90.000000
_cell_angle_beta 90.000000
_cell_angle_gamma 90.000000
_cell_volume 1264.686909
_symmetry_space_group_name_H-M "P C C A"
_symmetry_group_IT_number 54
_symmetry_cell_setting 'orthorhombic'
loop_
_space_group_symop_operation_xyz
x,y,z
1/2-x,-y,z
1/2+x,-y,1/2-z
-x,y,1/2-z
-x,-y,-z
1/2+x,y,-z
1/2-x,y,1/2+z
x,-y,1/2+z
loop_
_atom_site_type_symbol
_atom_site_label
_atom_site_fract_x
_atom_site_fract_y
_atom_site_fract_z
Si Si1 0.102317 0.324498 0.696409
Si Si2 0.490082 0.218007 0.501825
Si Si3 0.125231 0.735395 0.703186
Si Si4 0.179538 0.946598 0.383059
O O1 0.054147 0.317786 0.539934
O O2 0.055612 0.277666 0.849971
O O3 0.134592 0.519801 0.714911
O O4 0.155046 0.174454 0.725108
O O5 0.446697 0.250203 0.661956
O O6 0.500000 0.000000 0.500000
O O7 0.162160 0.825734 0.546155
O O8 0.143664 0.863084 0.858285
O O9 0.250000 0.000000 0.378089
#
# Coordination Sequence:
#
# PCOD9422080 Si02
#       4
#     8   8   8   8
#     4  10  23  43  69 109 143 189 244 303 368 445
#     4  10  20  44  70 103 146 193 228 302 377 443
#     4  11  24  45  73 106 147 188 244 300 375 444
#     4  11  25  47  73 102 142 197 245 307 361 433
#
# _framework density 25.302705
#
# number of rings (size 3 to 8) (size 9 to 14) (size 15 to 20)
#    0.000    1.500    2.500    1.500    0.000    5.000 
#   18.000    5.000    0.000    0.000    0.000    0.000 
#    0.000    0.000    0.000    0.000    0.000    0.000 
#
# Total GULP energy -179104.724777 kJ/mol
# GULP energy per Si atom -5597.022649 kJ/mol
# Density = 2.524511 g / cm^3
# Si number density = 25.302705 Si / 1000 Ang^3
#
#
#
# Elastic Constant Matrix: (Units=GPa)
#
#
# Indices 1 2 3 4 5 6 
#
# 1 180.6264 78.4227 57.6848 0.0000 0.0000 0.0000
# 2 78.4227 219.5420 32.1517 0.0000 0.0000 0.0000
# 3 57.6848 32.1517 110.2820 0.0000 0.0000 0.0000
# 4 0.0000 0.0000 0.0000 80.5749 0.0000 0.0000
# 5 0.0000 0.0000 0.0000 0.0000 35.4238 0.0000
# 6 0.0000 0.0000 0.0000 0.0000 0.0000 -8.2156
#
#
#
# Elastic Compliance Matrix: (Units=1/GPa)
#
#
# Indices 1 2 3 4 5 6 
#
# 1 0.007553 -0.002214 -0.003305 0.000000 0.000000 0.000000
# 2 -0.002214 0.005407 -0.000418 0.000000 0.000000 0.000000
# 3 -0.003305 -0.000418 0.010919 0.000000 0.000000 0.000000
# 4 0.000000 0.000000 0.000000 0.012411 0.000000 0.000000
# 5 0.000000 0.000000 0.000000 0.000000 0.028230 0.000000
# 6 0.000000 0.000000 0.000000 0.000000 0.000000 -0.121720
#
#
# Mechanical properties :
#
#
# Convention : Reuss Voigt Hill
#
# Bulk Modulus (GPa) = 83.30934 94.10764 88.70849
# Shear Modulus (GPa) = -120.99329 44.36937 -38.31196
#
# Velocity S-wave (km/s) = -6.92258 4.19208 -3.89542
# Velocity P-wave (km/s) = 5.55874 7.79133 3.86039
#
# Compressibility (1/GPa) = 0.01200346
#
# Stress axis : x y z
#
# Youngs Moduli (GPa) = 132.39558 184.94332 91.58756
#
# Poissons Ratio (x) = 0.40946 0.30273
# Poissons Ratio (y) = 0.29312 0.03831
# Poissons Ratio (z) = 0.43761 0.07736
#
# Static dielectric constant tensor:
#      x y z
#    x 1.947880 0.000000 0.000000 
#    y 0.000000 1.987570 0.000000 
#    z 0.000000 0.000000 2.275310 
# 
# From -- ./inp_files/9671.got.cif
#   From: 2010.05.17/outbox.cif.g08.bks.cpg/sg54_5_cif.got.tgz:9671.got - 2010.06.03 13:09:01.
