data_PCOD9422065
_publ_section_title
;
Structure prediction by ZEFSAII (Michael W. Deem and Ramdas Pophale) SiO2 
 PCOD9422065
Probable space group: P C C A
;
_chemical_formula_sum "Si O2"
_cell_formula_units_Z 52
_cell_length_a 19.842071
_cell_length_b 7.242132
_cell_length_c 14.733355
_cell_angle_alpha 90.000000
_cell_angle_beta 90.000000
_cell_angle_gamma 90.000000
_cell_volume 2117.166868
_symmetry_space_group_name_H-M "P C C A"
_symmetry_group_IT_number 54
_symmetry_cell_setting 'orthorhombic'
loop_
_space_group_symop_operation_xyz
x,y,z
1/2-x,-y,z
1/2+x,-y,1/2-z
-x,y,1/2-z
-x,-y,-z
1/2+x,y,-z
1/2-x,y,1/2+z
x,-y,1/2+z
loop_
_atom_site_type_symbol
_atom_site_label
_atom_site_fract_x
_atom_site_fract_y
_atom_site_fract_z
Si Si1 0.118897 0.610556 0.158013
Si Si2 0.522564 0.060713 0.890963
Si Si3 0.753031 0.274105 0.521687
Si Si4 0.000000 0.754378 0.250000
Si Si5 0.095546 0.188945 0.476671
Si Si6 0.336677 0.195766 0.653469
Si Si7 0.730368 0.280018 0.219468
O O1 0.089736 0.675179 0.062479
O O2 0.148729 0.412337 0.147047
O O3 0.177237 0.740314 0.198695
O O4 0.062943 0.624942 0.233808
O O5 0.589506 0.112305 0.835178
O O6 0.492092 0.888371 0.836352
O O7 0.564230 0.002998 0.983131
O O8 0.463979 0.214049 0.902929
O O9 0.750000 0.500000 0.506639
O O10 0.675481 0.206179 0.539942
O O11 0.791198 0.174467 0.438060
O O12 0.790618 0.237248 0.617145
O O13 0.294215 0.168028 0.744512
O O14 0.750000 0.500000 0.215878
#
# Coordination Sequence:
#
# PCOD9422065 Si02
#       7
#     8   8   8   4   8   8   8
#     4  10  20  43  67  89 132 171 219 278 339 402
#     4  10  25  40  63  94 136 175 227 274 340 414
#     4  11  20  38  68  93 130 172 224 278 339 403
#     4  10  24  44  60  88 134 180 212 274 346 414
#     4  10  21  43  62  88 134 183 209 277 345 403
#     4  11  21  41  67 100 128 168 231 289 329 403
#     4   9  20  36  62  98 125 161 213 280 337 383
#
# _framework density 24.561125000000001
#
# number of rings (size 3 to 8) (size 9 to 14) (size 15 to 20)
#    0.000    1.846    3.077    0.462    2.154    5.538 
#    5.538    0.000    0.000    0.000    0.000    0.000 
#    0.000    0.000    0.000    0.000    0.000    0.000 
#
# Total GULP energy -289770.053994 kJ/mol
# GULP energy per Si atom -5572.501038 kJ/mol
# Density = 2.450522 g / cm^3
# Si number density = 24.561125 Si / 1000 Ang^3
#
#
#
# Elastic Constant Matrix: (Units=GPa)
#
#
# Indices 1 2 3 4 5 6 
#
# 1 135.3830 26.1823 7.1076 0.0000 0.0000 0.0000
# 2 26.1823 54.1189 18.9194 0.0000 0.0000 0.0000
# 3 7.1076 18.9194 73.5159 0.0000 0.0000 0.0000
# 4 0.0000 0.0000 0.0000 23.0570 0.0000 0.0000
# 5 0.0000 0.0000 0.0000 0.0000 34.3233 0.0000
# 6 0.0000 0.0000 0.0000 0.0000 0.0000 16.7820
#
#
#
# Elastic Compliance Matrix: (Units=1/GPa)
#
#
# Indices 1 2 3 4 5 6 
#
# 1 0.008153 -0.004032 0.000249 0.000000 0.000000 0.000000
# 2 -0.004032 0.022298 -0.005349 0.000000 0.000000 0.000000
# 3 0.000249 -0.005349 0.014955 0.000000 0.000000 0.000000
# 4 0.000000 0.000000 0.000000 0.043371 0.000000 0.000000
# 5 0.000000 0.000000 0.000000 0.000000 0.029135 0.000000
# 6 0.000000 0.000000 0.000000 0.000000 0.000000 0.059588
#
#
# Mechanical properties :
#
#
# Convention : Reuss Voigt Hill
#
# Bulk Modulus (GPa) = 36.84029 40.82625 38.83327
# Shear Modulus (GPa) = 24.41298 28.88636 26.64967
#
# Velocity S-wave (km/s) = 3.15615 3.43315 3.29756
# Velocity P-wave (km/s) = 5.32106 5.68980 5.50851
#
# Compressibility (1/GPa) = 0.02714420
#
# Stress axis : x y z
#
# Youngs Moduli (GPa) = 122.65367 44.84689 66.86776
#
# Poissons Ratio (x) = 0.18080 -0.01667
# Poissons Ratio (y) = 0.49448 0.35765
# Poissons Ratio (z) = -0.03057 0.23987
#
# Static dielectric constant tensor:
#      x y z
#    x 2.178450 0.000000 0.000000 
#    y 0.000000 2.002550 0.000000 
#    z 0.000000 0.000000 2.080160 
# 
# From -- ./inp_files/14625.got.cif
#   From: 2010.05.17/outbox.cif.g08.bks.cpg/sg54_8_cif.got.tgz:14625.got - 2010.06.03 13:09:01.
