data_PCOD9422141
_publ_section_title
;
Structure prediction by ZEFSAII (Michael W. Deem and Ramdas Pophale) SiO2 
 PCOD9422141
Probable space group: P C C A
;
_chemical_formula_sum "Si O2"
_cell_formula_units_Z 48
_cell_length_a 9.082221
_cell_length_b 11.411165
_cell_length_c 22.964896
_cell_angle_alpha 90.000000
_cell_angle_beta 90.000000
_cell_angle_gamma 90.000000
_cell_volume 2380.052481
_symmetry_space_group_name_H-M "P C C A"
_symmetry_group_IT_number 54
_symmetry_cell_setting 'orthorhombic'
loop_
_space_group_symop_operation_xyz
x,y,z
1/2-x,-y,z
1/2+x,-y,1/2-z
-x,y,1/2-z
-x,-y,-z
1/2+x,y,-z
1/2-x,y,1/2+z
x,-y,1/2+z
loop_
_atom_site_type_symbol
_atom_site_label
_atom_site_fract_x
_atom_site_fract_y
_atom_site_fract_z
Si Si1 0.996666 0.359641 0.998905
Si Si2 0.163725 0.853533 0.967503
Si Si3 0.073620 0.497414 0.811272
Si Si4 0.980639 0.061682 0.575362
Si Si5 0.444567 0.274097 0.133474
Si Si6 0.843446 0.379723 0.391380
O O1 0.867981 0.284033 0.029677
O O2 0.126032 0.330489 0.044510
O O3 0.990632 0.320329 0.931855
O O4 0.000000 0.500000 0.000000
O O5 0.329132 0.885408 0.951618
O O6 0.056213 0.924193 0.922734
O O7 0.109484 0.907893 0.029291
O O8 0.250000 0.500000 0.811500
O O9 0.000000 0.530659 0.750000
O O10 0.026184 0.363508 0.824547
O O11 0.992256 0.580965 0.858724
O O12 0.013389 0.137895 0.632307
O O13 0.269872 0.293788 0.140455
O O14 0.750000 0.500000 0.396731
#
# Coordination Sequence:
#
# PCOD9422141 Si02
#       6
#     8   8   8   8   8   8
#     4  11  20  30  52  81 122 155 187 229 285 348
#     4   9  20  32  49  72 113 157 196 233 278 342
#     4  11  23  39  59  80 113 150 190 240 301 363
#     4   9  19  35  49  74 110 154 201 234 276 340
#     4  10  22  33  54  78 114 151 192 236 288 342
#     4  10  21  36  49  79 117 153 186 231 280 358
#
# _framework density 20.167622999999999
#
# number of rings (size 3 to 8) (size 9 to 14) (size 15 to 20)
#    0.000    2.000    3.333    1.500   11.667    0.667 
#    0.000    0.000    0.000    0.000    0.000    1.167 
#    0.000    0.000    0.000    0.000    0.000    0.000 
#
# Total GULP energy -267317.965088 kJ/mol
# GULP energy per Si atom -5569.124273 kJ/mol
# Density = 2.012172 g / cm^3
# Si number density = 20.167623 Si / 1000 Ang^3
#
#
#
# Elastic Constant Matrix: (Units=GPa)
#
#
# Indices 1 2 3 4 5 6 
#
# 1 141.3276 23.2544 24.2059 0.0000 0.0000 0.0000
# 2 23.2544 88.3326 8.3268 0.0000 0.0000 0.0000
# 3 24.2059 8.3268 49.1156 0.0000 0.0000 0.0000
# 4 0.0000 0.0000 0.0000 19.3559 0.0000 0.0000
# 5 0.0000 0.0000 0.0000 0.0000 25.4326 0.0000
# 6 0.0000 0.0000 0.0000 0.0000 0.0000 21.8402
#
#
#
# Elastic Compliance Matrix: (Units=1/GPa)
#
#
# Indices 1 2 3 4 5 6 
#
# 1 0.007989 -0.001760 -0.003639 0.000000 0.000000 0.000000
# 2 -0.001760 0.011892 -0.001149 0.000000 0.000000 0.000000
# 3 -0.003639 -0.001149 0.022348 0.000000 0.000000 0.000000
# 4 0.000000 0.000000 0.000000 0.051664 0.000000 0.000000
# 5 0.000000 0.000000 0.000000 0.000000 0.039320 0.000000
# 6 0.000000 0.000000 0.000000 0.000000 0.000000 0.045787
#
#
# Mechanical properties :
#
#
# Convention : Reuss Voigt Hill
#
# Bulk Modulus (GPa) = 34.32388 43.37223 38.84805
# Shear Modulus (GPa) = 24.77626 28.19167 26.48396
#
# Velocity S-wave (km/s) = 3.50882 3.74286 3.62773
# Velocity P-wave (km/s) = 5.78550 6.34281 6.07056
#
# Compressibility (1/GPa) = 0.02913424
#
# Stress axis : x y z
#
# Youngs Moduli (GPa) = 125.17873 84.08671 44.74642
#
# Poissons Ratio (x) = 0.14800 0.16282
# Poissons Ratio (y) = 0.22032 0.05140
# Poissons Ratio (z) = 0.45548 0.09660
#
# Static dielectric constant tensor:
#      x y z
#    x 1.800330 0.000000 0.000000 
#    y 0.000000 1.850440 0.000000 
#    z 0.000000 0.000000 1.731210 
# 
# From -- ./inp_files/23522.got.cif
#   From: 2010.05.17/outbox.cif.g08.bks.cpg/sg54_12_cif.got.tgz:23522.got - 2010.06.03 13:09:01.
