data_PCOD9422829
_publ_section_title
;
Structure prediction by ZEFSAII (Michael W. Deem and Ramdas Pophale) SiO2 
 PCOD9422829
Probable space group: P C C A
;
_chemical_formula_sum "Si O2"
_cell_formula_units_Z 40
_cell_length_a 17.766081
_cell_length_b 10.087005
_cell_length_c 8.740022
_cell_angle_alpha 90.000000
_cell_angle_beta 90.000000
_cell_angle_gamma 90.000000
_cell_volume 1566.269171
_symmetry_space_group_name_H-M "P C C A"
_symmetry_group_IT_number 54
_symmetry_cell_setting 'orthorhombic'
loop_
_space_group_symop_operation_xyz
x,y,z
1/2-x,-y,z
1/2+x,-y,1/2-z
-x,y,1/2-z
-x,-y,-z
1/2+x,y,-z
1/2-x,y,1/2+z
x,-y,1/2+z
loop_
_atom_site_type_symbol
_atom_site_label
_atom_site_fract_x
_atom_site_fract_y
_atom_site_fract_z
Si Si1 0.812995 0.393467 0.010437
Si Si2 0.908712 0.183291 0.572645
Si Si3 0.887599 0.083310 0.232961
Si Si4 0.967997 0.333554 0.083287
Si Si5 0.758908 0.765402 0.237554
O O1 0.750000 0.500000 0.970642
O O2 0.796254 0.268350 0.899213
O O3 0.901632 0.422532 0.010653
O O4 0.795901 0.352943 0.185209
O O5 0.905217 0.114895 0.407489
O O6 0.827438 0.239409 0.618323
O O7 0.971054 0.294922 0.545507
O O8 0.915617 0.062178 0.690534
O O9 0.928301 0.192273 0.127323
O O10 0.797742 0.110973 0.224054
O O11 0.000000 0.378923 0.250000
#
# Coordination Sequence:
#
# PCOD9422829 Si02
#       5
#     8   8   8   8   8
#     4  11  24  46  74  96 131 189 245 306 366 420
#     4  11  22  39  66 101 148 188 232 286 357 432
#     4  10  22  38  64  99 145 193 228 277 354 427
#     4   9  22  44  68 104 145 181 234 300 362 432
#     4  11  23  41  67  99 140 184 244 298 349 428
#
# _framework density 25.538392999999999
#
# number of rings (size 3 to 8) (size 9 to 14) (size 15 to 20)
#    0.000    1.600    2.000    1.800    5.600    2.400 
#    0.000    1.000    0.000    0.000    0.000    0.000 
#    0.000    0.000    0.000    0.000    0.000    0.000 
#
# Total GULP energy -223467.642799 kJ/mol
# GULP energy per Si atom -5586.691070 kJ/mol
# Density = 2.548027 g / cm^3
# Si number density = 25.538393 Si / 1000 Ang^3
#
#
#
# Elastic Constant Matrix: (Units=GPa)
#
#
# Indices 1 2 3 4 5 6 
#
# 1 220.2715 53.6589 52.6920 0.0000 0.0000 0.0000
# 2 53.6589 61.8823 13.6717 0.0000 0.0000 0.0000
# 3 52.6920 13.6717 77.5681 0.0000 0.0000 0.0000
# 4 0.0000 0.0000 0.0000 22.0170 0.0000 0.0000
# 5 0.0000 0.0000 0.0000 0.0000 47.7428 0.0000
# 6 0.0000 0.0000 0.0000 0.0000 0.0000 15.9472
#
#
#
# Elastic Compliance Matrix: (Units=1/GPa)
#
#
# Indices 1 2 3 4 5 6 
#
# 1 0.006606 -0.004929 -0.003619 0.000000 0.000000 0.000000
# 2 -0.004929 0.020492 -0.000264 0.000000 0.000000 0.000000
# 3 -0.003619 -0.000264 0.015397 0.000000 0.000000 0.000000
# 4 0.000000 0.000000 0.000000 0.045419 0.000000 0.000000
# 5 0.000000 0.000000 0.000000 0.000000 0.020946 0.000000
# 6 0.000000 0.000000 0.000000 0.000000 0.000000 0.062707
#
#
# Mechanical properties :
#
#
# Convention : Reuss Voigt Hill
#
# Bulk Modulus (GPa) = 40.20577 66.64078 53.42328
# Shear Modulus (GPa) = 25.31906 33.12137 29.22021
#
# Velocity S-wave (km/s) = 3.15208 3.60519 3.38622
# Velocity P-wave (km/s) = 5.38748 6.59400 6.02104
#
# Compressibility (1/GPa) = 0.02487205
#
# Stress axis : x y z
#
# Youngs Moduli (GPa) = 151.37271 48.80008 64.94911
#
# Poissons Ratio (x) = 0.24053 0.23504
# Poissons Ratio (y) = 0.74609 0.01712
# Poissons Ratio (z) = 0.54780 0.01286
#
# Static dielectric constant tensor:
#      x y z
#    x 2.097200 0.000000 0.000000 
#    y 0.000000 2.077240 0.000000 
#    z 0.000000 0.000000 1.978010 
# 
# From -- ./inp_files/3951.got.cif
#   From: 2010.05.17/outbox.cif.g08.bks.cpg/sg54_2_cif.got.tgz:3951.got - 2010.06.03 13:09:01.
