data_PCOD9422389
_publ_section_title
;
Structure prediction by ZEFSAII (Michael W. Deem and Ramdas Pophale) SiO2 
 PCOD9422389
Probable space group: P C C A
;
_chemical_formula_sum "Si O2"
_cell_formula_units_Z 40
_cell_length_a 7.220470
_cell_length_b 14.348892
_cell_length_c 16.375261
_cell_angle_alpha 90.000000
_cell_angle_beta 90.000000
_cell_angle_gamma 90.000000
_cell_volume 1696.571103
_symmetry_space_group_name_H-M "P C C A"
_symmetry_group_IT_number 54
_symmetry_cell_setting 'orthorhombic'
loop_
_space_group_symop_operation_xyz
x,y,z
1/2-x,-y,z
1/2+x,-y,1/2-z
-x,y,1/2-z
-x,-y,-z
1/2+x,y,-z
1/2-x,y,1/2+z
x,-y,1/2+z
loop_
_atom_site_type_symbol
_atom_site_label
_atom_site_fract_x
_atom_site_fract_y
_atom_site_fract_z
Si Si1 0.315702 0.307265 0.935857
Si Si2 0.750000 0.500000 0.130409
Si Si3 0.061284 0.866867 0.845200
Si Si4 0.500000 0.617326 0.750000
Si Si5 0.102961 0.260769 0.615359
Si Si6 0.012583 0.934681 0.346931
O O1 0.348654 0.416270 0.918593
O O2 0.450518 0.230643 0.893703
O O3 0.114214 0.283769 0.899552
O O4 0.305947 0.293650 0.032432
O O5 0.602722 0.449351 0.187523
O O6 0.276334 0.898848 0.855953
O O7 0.000000 0.853970 0.750000
O O8 0.969738 0.962260 0.880211
O O9 0.359669 0.684227 0.699296
O O10 0.116785 0.150171 0.626019
O O11 0.000000 0.945732 0.250000
#
# Coordination Sequence:
#
# PCOD9422389 Si02
#       6
#     8   4   8   4   8   8
#     4  10  23  38  56  86 117 150 196 245 288 342
#     4  10  24  40  58  88 114 152 202 242 292 342
#     4   9  19  34  56  87 118 150 192 237 288 349
#     4  10  22  40  62  82 110 156 196 240 292 356
#     4  10  21  39  58  85 117 152 192 237 295 348
#     4   9  17  34  58  83 118 154 187 232 288 354
#
# _framework density 23.576965000000001
#
# number of rings (size 3 to 8) (size 9 to 14) (size 15 to 20)
#    0.000    2.400    1.000    0.000    1.400    8.000 
#    0.000    0.000    0.000    0.000    0.000    0.000 
#    0.000    0.000    0.000    0.000    0.000    0.000 
#
# Total GULP energy -223253.532890 kJ/mol
# GULP energy per Si atom -5581.338322 kJ/mol
# Density = 2.352330 g / cm^3
# Si number density = 23.576965 Si / 1000 Ang^3
#
#
#
# Elastic Constant Matrix: (Units=GPa)
#
#
# Indices 1 2 3 4 5 6 
#
# 1 29.2071 45.1744 7.8552 0.0000 0.0000 0.0000
# 2 45.1744 249.0387 84.5818 0.0000 0.0000 0.0000
# 3 7.8552 84.5818 94.9679 0.0000 0.0000 0.0000
# 4 0.0000 0.0000 0.0000 -238.2278 0.0000 0.0000
# 5 0.0000 0.0000 0.0000 0.0000 21.4077 0.0000
# 6 0.0000 0.0000 0.0000 0.0000 0.0000 20.9736
#
#
#
# Elastic Compliance Matrix: (Units=1/GPa)
#
#
# Indices 1 2 3 4 5 6 
#
# 1 0.049588 -0.010899 0.005605 0.000000 0.000000 0.000000
# 2 -0.010899 0.008152 -0.006359 0.000000 0.000000 0.000000
# 3 0.005605 -0.006359 0.015730 0.000000 0.000000 0.000000
# 4 0.000000 0.000000 0.000000 -0.004198 0.000000 0.000000
# 5 0.000000 0.000000 0.000000 0.000000 0.046712 0.000000
# 6 0.000000 0.000000 0.000000 0.000000 0.000000 0.047679
#
#
# Mechanical properties :
#
#
# Convention : Reuss Voigt Hill
#
# Bulk Modulus (GPa) = 19.93445 72.04852 45.99148
# Shear Modulus (GPa) = 24.54709 -23.46248 0.54230
#
# Velocity S-wave (km/s) = 3.23018 -3.15801 0.48012
# Velocity P-wave (km/s) = 4.73133 4.16267 4.45608
#
# Compressibility (1/GPa) = 0.05016442
#
# Stress axis : x y z
#
# Youngs Moduli (GPa) = 20.16629 122.66652 63.57304
#
# Poissons Ratio (x) = 1.33690 -0.35633
# Poissons Ratio (y) = 0.21979 0.40427
# Poissons Ratio (z) = -0.11303 0.78005
#
# Static dielectric constant tensor:
#      x y z
#    x 2.156040 0.000000 0.000000 
#    y 0.000000 1.960740 0.000000 
#    z 0.000000 0.000000 1.827560 
# 
# From -- ./inp_files/11533.got.cif
#   From: 2010.05.17/outbox.cif.g08.bks.cpg/sg54_6_cif.got.tgz:11533.got - 2010.06.03 13:09:01.
