data_PCOD9422932
_publ_section_title
;
Structure prediction by ZEFSAII (Michael W. Deem and Ramdas Pophale) SiO2 
 PCOD9422932
Probable space group: P C C A
;
_chemical_formula_sum "Si O2"
_cell_formula_units_Z 36
_cell_length_a 4.919940
_cell_length_b 11.486244
_cell_length_c 27.175294
_cell_angle_alpha 90.000000
_cell_angle_beta 90.000000
_cell_angle_gamma 90.000000
_cell_volume 1535.720195
_symmetry_space_group_name_H-M "P C C A"
_symmetry_group_IT_number 54
_symmetry_cell_setting 'orthorhombic'
loop_
_space_group_symop_operation_xyz
x,y,z
1/2-x,-y,z
1/2+x,-y,1/2-z
-x,y,1/2-z
-x,-y,-z
1/2+x,y,-z
1/2-x,y,1/2+z
x,-y,1/2+z
loop_
_atom_site_type_symbol
_atom_site_label
_atom_site_fract_x
_atom_site_fract_y
_atom_site_fract_z
Si Si1 0.750000 0.500000 0.919581
Si Si2 0.250000 0.000000 0.714982
Si Si3 0.973493 0.183974 0.862397
Si Si4 0.426275 0.743197 0.533293
Si Si5 0.477349 0.667435 0.348900
Si Si6 0.500000 0.430179 0.750000
O O1 0.875151 0.391236 0.949557
O O2 0.517618 0.439040 0.886170
O O3 0.091662 0.085171 0.677080
O O4 0.500000 0.046147 0.750000
O O5 0.879945 0.174475 0.919323
O O6 0.783375 0.287745 0.843001
O O7 0.281368 0.229206 0.866324
O O8 0.722133 0.761745 0.511470
O O9 0.370278 0.636966 0.295205
O O10 0.250000 0.500000 0.727350
#
# Coordination Sequence:
#
# PCOD9422932 Si02
#       6
#     4   4   8   8   8   4
#     4  10  22  40  62 102 138 186 226 278 324 416
#     4  12  28  50  78 104 132 178 236 296 374 434
#     4  11  26  46  68  99 137 171 235 295 350 416
#     4  11  23  41  67  99 135 183 228 278 341 407
#     4  11  24  40  64  95 141 186 226 284 338 406
#     4  12  24  38  58  92 136 190 236 256 334 422
#
# _framework density 23.441768
#
# number of rings (size 3 to 8) (size 9 to 14) (size 15 to 20)
#    0.000    0.889    1.111    6.000    7.778    3.556 
#    0.000    1.111    0.000    0.000    0.000    0.000 
#    0.000    0.000    0.000    0.000    0.000    0.000 
#
# Total GULP energy -200974.125679 kJ/mol
# GULP energy per Si atom -5582.614602 kJ/mol
# Density = 2.338841 g / cm^3
# Si number density = 23.441768 Si / 1000 Ang^3
#
#
#
# Elastic Constant Matrix: (Units=GPa)
#
#
# Indices 1 2 3 4 5 6 
#
# 1 76.2675 17.0617 15.4479 0.0000 0.0000 0.0000
# 2 17.0617 38.7284 43.8909 0.0000 0.0000 0.0000
# 3 15.4479 43.8909 139.5765 0.0000 0.0000 0.0000
# 4 0.0000 0.0000 0.0000 38.7037 0.0000 0.0000
# 5 0.0000 0.0000 0.0000 0.0000 265.9574 0.0000
# 6 0.0000 0.0000 0.0000 0.0000 0.0000 24.7034
#
#
#
# Elastic Compliance Matrix: (Units=1/GPa)
#
#
# Indices 1 2 3 4 5 6 
#
# 1 0.014581 -0.007139 0.000631 0.000000 0.000000 0.000000
# 2 -0.007139 0.043613 -0.012924 0.000000 0.000000 0.000000
# 3 0.000631 -0.012924 0.011159 0.000000 0.000000 0.000000
# 4 0.000000 0.000000 0.000000 0.025837 0.000000 0.000000
# 5 0.000000 0.000000 0.000000 0.000000 0.003760 0.000000
# 6 0.000000 0.000000 0.000000 0.000000 0.000000 0.040480
#
#
# Mechanical properties :
#
#
# Convention : Reuss Voigt Hill
#
# Bulk Modulus (GPa) = 32.79908 45.26369 39.03139
# Shear Modulus (GPa) = 26.53121 77.75103 52.14112
#
# Velocity S-wave (km/s) = 3.36786 5.76539 4.72135
# Velocity P-wave (km/s) = 5.39865 7.97938 6.81234
#
# Compressibility (1/GPa) = 0.03048866
#
# Stress axis : x y z
#
# Youngs Moduli (GPa) = 68.58268 22.92895 89.61507
#
# Poissons Ratio (x) = 0.16369 -0.05655
# Poissons Ratio (y) = 0.48960 1.15821
# Poissons Ratio (z) = -0.04328 0.29634
#
# Static dielectric constant tensor:
#      x y z
#    x 1.866440 0.000000 0.000000 
#    y 0.000000 1.922260 0.000000 
#    z 0.000000 0.000000 1.894110 
# 
# From -- ./inp_files/22742.got.cif
#   From: 2010.05.17/outbox.cif.g08.bks.cpg/sg54_12_cif.got.tgz:22742.got - 2010.06.03 13:09:01.
