data_PCOD9422866
_publ_section_title
;
Structure prediction by ZEFSAII (Michael W. Deem and Ramdas Pophale) SiO2 
 PCOD9422866
Probable space group: P C C A
;
_chemical_formula_sum "Si O2"
_cell_formula_units_Z 36
_cell_length_a 9.501574
_cell_length_b 7.174914
_cell_length_c 28.130744
_cell_angle_alpha 90.000000
_cell_angle_beta 90.000000
_cell_angle_gamma 90.000000
_cell_volume 1917.756544
_symmetry_space_group_name_H-M "P C C A"
_symmetry_group_IT_number 54
_symmetry_cell_setting 'orthorhombic'
loop_
_space_group_symop_operation_xyz
x,y,z
1/2-x,-y,z
1/2+x,-y,1/2-z
-x,y,1/2-z
-x,-y,-z
1/2+x,y,-z
1/2-x,y,1/2+z
x,-y,1/2+z
loop_
_atom_site_type_symbol
_atom_site_label
_atom_site_fract_x
_atom_site_fract_y
_atom_site_fract_z
Si Si1 0.259937 0.224204 0.595460
Si Si2 0.833377 0.194610 0.195516
Si Si3 0.250000 0.500000 0.880740
Si Si4 0.525606 0.504143 0.943965
Si Si5 0.331015 0.804927 0.199165
O O1 0.130516 0.328820 0.570706
O O2 0.398196 0.311869 0.571401
O O3 0.268849 0.281410 0.651170
O O4 0.250000 0.000000 0.592348
O O5 0.779621 0.327243 0.154093
O O6 0.811658 0.281020 0.248491
O O7 0.001895 0.165923 0.191308
O O8 0.750000 0.000000 0.192935
O O9 0.383963 0.528507 0.914250
O O10 0.500000 0.500000 0.000000
O O11 0.250000 0.000000 0.202811
#
# Coordination Sequence:
#
# PCOD9422866 Si02
#       5
#     8   8   4   8   8
#     4  10  22  43  68  89 117 171 206 243 312 378
#     4  10  22  39  60  95 131 160 201 255 299 364
#     4  12  24  38  62  96 120 164 204 254 318 362
#     4  11  25  44  63  90 127 155 208 271 309 359
#     4   9  19  40  63  90 126 165 206 242 300 369
#
# _framework density 18.771934000000002
#
# number of rings (size 3 to 8) (size 9 to 14) (size 15 to 20)
#    0.000    1.778    2.222    1.333    6.222    2.667 
#    0.000    2.222    0.000    0.000    0.000    0.000 
#    0.000    0.000    0.000    0.000    0.000    0.000 
#
# Total GULP energy -200828.639757 kJ/mol
# GULP energy per Si atom -5578.573327 kJ/mol
# Density = 1.872921 g / cm^3
# Si number density = 18.771934 Si / 1000 Ang^3
#
#
#
# Elastic Constant Matrix: (Units=GPa)
#
#
# Indices 1 2 3 4 5 6 
#
# 1 136.9155 57.2337 82.7905 0.0000 0.0000 0.0000
# 2 57.2337 107.9426 56.2323 0.0000 0.0000 0.0000
# 3 82.7905 56.2323 206.8842 0.0000 0.0000 0.0000
# 4 0.0000 0.0000 0.0000 40.6088 0.0000 0.0000
# 5 0.0000 0.0000 0.0000 0.0000 11.3219 0.0000
# 6 0.0000 0.0000 0.0000 0.0000 0.0000 28.8638
#
#
#
# Elastic Compliance Matrix: (Units=1/GPa)
#
#
# Indices 1 2 3 4 5 6 
#
# 1 0.011017 -0.004130 -0.003286 0.000000 0.000000 0.000000
# 2 -0.004130 0.012340 -0.001702 0.000000 0.000000 0.000000
# 3 -0.003286 -0.001702 0.006611 0.000000 0.000000 0.000000
# 4 0.000000 0.000000 0.000000 0.024625 0.000000 0.000000
# 5 0.000000 0.000000 0.000000 0.000000 0.088324 0.000000
# 6 0.000000 0.000000 0.000000 0.000000 0.000000 0.034645
#
#
# Mechanical properties :
#
#
# Convention : Reuss Voigt Hill
#
# Bulk Modulus (GPa) = 85.22526 93.80616 89.51571
# Shear Modulus (GPa) = 25.03630 33.19129 29.11379
#
# Velocity S-wave (km/s) = 3.65596 4.20948 3.94245
# Velocity P-wave (km/s) = 7.95741 8.58524 8.27728
#
# Compressibility (1/GPa) = 0.01173361
#
# Stress axis : x y z
#
# Youngs Moduli (GPa) = 90.76655 81.03596 151.25670
#
# Poissons Ratio (x) = 0.33464 0.49710
# Poissons Ratio (y) = 0.37483 0.25737
# Poissons Ratio (z) = 0.29830 0.13789
#
# Static dielectric constant tensor:
#      x y z
#    x 1.645450 0.000000 0.000000 
#    y 0.000000 1.730870 0.000000 
#    z 0.000000 0.000000 1.665340 
# 
# From -- ./inp_files/25674.got.cif
#   From: 2010.05.17/outbox.cif.g08.bks.cpg/sg54_13_cif.got.tgz:25674.got - 2010.06.03 13:09:01.
