data_PCOD9422127
_publ_section_title
;
Structure prediction by ZEFSAII (Michael W. Deem and Ramdas Pophale) SiO2 
 PCOD9422127
Probable space group: P C C A
;
_chemical_formula_sum "Si O2"
_cell_formula_units_Z 64
_cell_length_a 28.955900
_cell_length_b 12.713276
_cell_length_c 8.481649
_cell_angle_alpha 90.000000
_cell_angle_beta 90.000000
_cell_angle_gamma 90.000000
_cell_volume 3122.301513
_symmetry_space_group_name_H-M "P C C A"
_symmetry_group_IT_number 54
_symmetry_cell_setting 'orthorhombic'
loop_
_space_group_symop_operation_xyz
x,y,z
1/2-x,-y,z
1/2+x,-y,1/2-z
-x,y,1/2-z
-x,-y,-z
1/2+x,y,-z
1/2-x,y,1/2+z
x,-y,1/2+z
loop_
_atom_site_type_symbol
_atom_site_label
_atom_site_fract_x
_atom_site_fract_y
_atom_site_fract_z
Si Si1 0.816520 0.709831 0.602733
Si Si2 0.083950 0.780103 0.811853
Si Si3 0.754537 0.660009 0.348749
Si Si4 0.313808 0.545083 0.907861
Si Si5 0.550377 0.814353 0.833518
Si Si6 0.548442 0.432034 0.838896
Si Si7 0.086333 0.380078 0.838065
Si Si8 0.962630 0.045786 0.368124
O O1 0.863060 0.771820 0.633466
O O2 0.789727 0.733475 0.442757
O O3 0.779494 0.725154 0.739513
O O4 0.821760 0.580810 0.593635
O O5 0.072127 0.666367 0.744383
O O6 0.074835 0.861963 0.665364
O O7 0.055561 0.794493 0.978216
O O8 0.720292 0.594248 0.462078
O O9 0.787255 0.582976 0.248272
O O10 0.363965 0.597804 0.912745
O O11 0.500000 0.799331 0.750000
O O12 0.581917 0.734382 0.736902
O O13 0.560704 0.937693 0.811301
O O14 0.500000 0.443084 0.750000
O O15 0.576886 0.537586 0.802798
O O16 0.549003 0.404651 0.024149
O O17 0.000000 0.091252 0.250000
O O18 0.000000 0.000000 0.500000
#
# Coordination Sequence:
#
# PCOD9422127 Si02
#       8
#     8   8   8   8   8   8   8   8
#     4  11  20  36  59  91 127 165 216 260 326 386
#     4  12  24  41  68  97 127 170 218 279 327 386
#     4  10  21  35  58  86 126 174 209 263 327 391
#     4  11  20  35  56  86 126 168 215 264 314 390
#     4  11  25  42  65  93 127 172 224 271 328 384
#     4  12  25  40  59  85 135 178 215 260 331 396
#     4  12  25  39  60  91 131 173 222 265 322 393
#     4  11  24  45  70  94 127 163 222 274 325 374
#
# _framework density 20.497699999999998
#
# number of rings (size 3 to 8) (size 9 to 14) (size 15 to 20)
#    0.000    0.750    2.500    7.125    5.250    0.000 
#    0.000    0.000    0.000    0.000    0.000   14.875 
#    0.000    0.000    0.000    0.000    0.000    0.000 
#
# Total GULP energy -356648.433714 kJ/mol
# GULP energy per Si atom -5572.631777 kJ/mol
# Density = 2.045105 g / cm^3
# Si number density = 20.497700 Si / 1000 Ang^3
#
#
#
# Elastic Constant Matrix: (Units=GPa)
#
#
# Indices 1 2 3 4 5 6 
#
# 1 80.4747 38.6481 33.6475 0.0000 0.0000 0.0000
# 2 38.6481 66.4179 7.6413 0.0000 0.0000 0.0000
# 3 33.6475 7.6413 97.2464 0.0000 0.0000 0.0000
# 4 0.0000 0.0000 0.0000 128.8655 0.0000 0.0000
# 5 0.0000 0.0000 0.0000 0.0000 -56.7065 0.0000
# 6 0.0000 0.0000 0.0000 0.0000 0.0000 -0.8058
#
#
#
# Elastic Compliance Matrix: (Units=1/GPa)
#
#
# Indices 1 2 3 4 5 6 
#
# 1 0.020351 -0.011133 -0.006167 0.000000 0.000000 0.000000
# 2 -0.011133 0.021284 0.002180 0.000000 0.000000 0.000000
# 3 -0.006167 0.002180 0.012246 0.000000 0.000000 0.000000
# 4 0.000000 0.000000 0.000000 0.007760 0.000000 0.000000
# 5 0.000000 0.000000 0.000000 0.000000 -0.017635 0.000000
# 6 0.000000 0.000000 0.000000 0.000000 0.000000 -1.241031
#
#
# Mechanical properties :
#
#
# Convention : Reuss Voigt Hill
#
# Bulk Modulus (GPa) = 42.30049 44.89032 43.59541
# Shear Modulus (GPa) = -4.31442 25.21743 10.45151
#
# Velocity S-wave (km/s) = -1.45238 3.51131 2.26052
# Velocity P-wave (km/s) = 4.22717 6.19570 5.30357
#
# Compressibility (1/GPa) = 0.02364039
#
# Stress axis : x y z
#
# Youngs Moduli (GPa) = 49.13712 46.98470 81.66180
#
# Poissons Ratio (x) = 0.52307 0.50359
# Poissons Ratio (y) = 0.54703 -0.17799
# Poissons Ratio (z) = 0.30302 -0.10241
#
# Static dielectric constant tensor:
#      x y z
#    x 1.784420 0.000000 0.000000 
#    y 0.000000 1.730150 0.000000 
#    z 0.000000 0.000000 1.866450 
# 
# From -- ./inp_files/5979.got.cif
#   From: 2010.05.17/outbox.cif.g08.bks.cpg/sg54_3_cif.got.tgz:5979.got - 2010.06.03 13:09:01.
