data_PCOD9422114
_publ_section_title
;
Structure prediction by ZEFSAII (Michael W. Deem and Ramdas Pophale) SiO2 
 PCOD9422114
Probable space group: P C C A
;
_chemical_formula_sum "Si O2"
_cell_formula_units_Z 32
_cell_length_a 4.880450
_cell_length_b 23.730635
_cell_length_c 10.341245
_cell_angle_alpha 90.000000
_cell_angle_beta 90.000000
_cell_angle_gamma 90.000000
_cell_volume 1197.683467
_symmetry_space_group_name_H-M "P C C A"
_symmetry_group_IT_number 54
_symmetry_cell_setting 'orthorhombic'
loop_
_space_group_symop_operation_xyz
x,y,z
1/2-x,-y,z
1/2+x,-y,1/2-z
-x,y,1/2-z
-x,-y,-z
1/2+x,y,-z
1/2-x,y,1/2+z
x,-y,1/2+z
loop_
_atom_site_type_symbol
_atom_site_label
_atom_site_fract_x
_atom_site_fract_y
_atom_site_fract_z
Si Si1 0.500000 0.659533 0.750000
Si Si2 0.500000 0.036460 0.250000
Si Si3 0.256900 0.443515 0.340689
Si Si4 0.693259 0.871861 0.417910
Si Si5 0.177745 0.746073 0.588769
O O1 0.612581 0.617925 0.633722
O O2 0.274300 0.698850 0.686584
O O3 0.680310 0.076878 0.340509
O O4 0.250000 0.000000 0.313262
O O5 0.250000 0.500000 0.430625
O O6 0.500000 0.466195 0.250000
O O7 0.000000 0.428284 0.250000
O O8 0.372772 0.874314 0.450268
O O9 0.735577 0.809417 0.360480
O O10 0.870162 0.741288 0.538254
#
# Coordination Sequence:
#
# PCOD9422114 Si02
#       5
#     4   4   8   8   8
#     4  10  21  34  64  76 115 148 182 242 286 312
#     4  12  25  38  62  94 113 146 200 228 264 340
#     4   8  16  29  50  79 102 146 187 213 283 345
#     4  10  22  42  60  81 121 154 179 232 287 325
#     4  10  23  38  58  88 112 145 194 229 276 343
#
# _framework density 26.718245
#
# number of rings (size 3 to 8) (size 9 to 14) (size 15 to 20)
#    0.750    1.500    0.000    2.250    3.500    3.000 
#    0.000    7.500    0.000    4.500    0.000    0.000 
#    0.000    0.000    0.000    0.000    0.000    0.000 
#
# Total GULP energy -178330.049720 kJ/mol
# GULP energy per Si atom -5572.814054 kJ/mol
# Density = 2.665743 g / cm^3
# Si number density = 26.718245 Si / 1000 Ang^3
#
#
#
# Elastic Constant Matrix: (Units=GPa)
#
#
# Indices 1 2 3 4 5 6 
#
# 1 130.0220 9.8204 15.7223 0.0000 0.0000 0.0000
# 2 9.8204 187.7713 34.3661 0.0000 0.0000 0.0000
# 3 15.7223 34.3661 46.3360 0.0000 0.0000 0.0000
# 4 0.0000 0.0000 0.0000 -61.3975 0.0000 0.0000
# 5 0.0000 0.0000 0.0000 0.0000 47.7949 0.0000
# 6 0.0000 0.0000 0.0000 0.0000 0.0000 -38.5395
#
#
#
# Elastic Compliance Matrix: (Units=1/GPa)
#
#
# Indices 1 2 3 4 5 6 
#
# 1 0.008021 0.000091 -0.002789 0.000000 0.000000 0.000000
# 2 0.000091 0.006163 -0.004602 0.000000 0.000000 0.000000
# 3 -0.002789 -0.004602 0.025941 0.000000 0.000000 0.000000
# 4 0.000000 0.000000 0.000000 -0.016287 0.000000 0.000000
# 5 0.000000 0.000000 0.000000 0.000000 0.020923 0.000000
# 6 0.000000 0.000000 0.000000 0.000000 0.000000 -0.025947
#
#
# Mechanical properties :
#
#
# Convention : Reuss Voigt Hill
#
# Bulk Modulus (GPa) = 39.17689 53.77188 46.47438
# Shear Modulus (GPa) = 119.26865 9.85294 64.56079
#
# Velocity S-wave (km/s) = 6.68852 1.92243 4.92098
# Velocity P-wave (km/s) = 8.62225 5.00968 7.05124
#
# Compressibility (1/GPa) = 0.02552525
#
# Stress axis : x y z
#
# Youngs Moduli (GPa) = 124.66634 162.25577 38.54907
#
# Poissons Ratio (x) = -0.01476 0.10752
# Poissons Ratio (y) = -0.01134 0.17740
# Poissons Ratio (z) = 0.34772 0.74668
#
# Static dielectric constant tensor:
#      x y z
#    x 2.128990 0.000000 0.000000 
#    y 0.000000 2.233040 0.000000 
#    z 0.000000 0.000000 1.969560 
# 
# From -- ./inp_files/6336.got.cif
#   From: 2010.05.17/outbox.cif.g08.bks.cpg/sg54_4_cif.got.tgz:6336.got - 2010.06.03 13:09:01.
