data_PCOD9422571
_publ_section_title
;
Structure prediction by ZEFSAII (Michael W. Deem and Ramdas Pophale) SiO2 
 PCOD9422571
Probable space group: P C C A
;
_chemical_formula_sum "Si O2"
_cell_formula_units_Z 56
_cell_length_a 13.732282
_cell_length_b 21.090212
_cell_length_c 9.110478
_cell_angle_alpha 90.000000
_cell_angle_beta 90.000000
_cell_angle_gamma 90.000000
_cell_volume 2638.546926
_symmetry_space_group_name_H-M "P C C A"
_symmetry_group_IT_number 54
_symmetry_cell_setting 'orthorhombic'
loop_
_space_group_symop_operation_xyz
x,y,z
1/2-x,-y,z
1/2+x,-y,1/2-z
-x,y,1/2-z
-x,-y,-z
1/2+x,y,-z
1/2-x,y,1/2+z
x,-y,1/2+z
loop_
_atom_site_type_symbol
_atom_site_label
_atom_site_fract_x
_atom_site_fract_y
_atom_site_fract_z
Si Si1 0.360220 0.330326 0.917660
Si Si2 0.038940 0.693613 0.412471
Si Si3 0.145143 0.960650 0.483218
Si Si4 0.754096 0.254318 0.329350
Si Si5 0.500000 0.027174 0.750000
Si Si6 0.750000 0.500000 0.826902
Si Si7 0.638243 0.815874 0.577357
Si Si8 0.694524 0.585008 0.578906
O O1 0.328551 0.294985 0.769057
O O2 0.308864 0.397623 0.913993
O O3 0.472028 0.331425 0.957161
O O4 0.311865 0.295029 0.059717
O O5 0.042974 0.770515 0.430045
O O6 0.137731 0.651891 0.420891
O O7 0.000000 0.680272 0.250000
O O8 0.150019 0.890581 0.412555
O O9 0.085123 0.948108 0.636025
O O10 0.250000 0.000000 0.498549
O O11 0.072292 0.995824 0.370566
O O12 0.808817 0.204317 0.429101
O O13 0.689284 0.216314 0.215532
O O14 0.681302 0.543181 0.723591
O O15 0.814860 0.544446 0.932421
#
# Coordination Sequence:
#
# PCOD9422571 Si02
#       8
#     8   8   8   8   4   4   8   8
#     4  11  21  41  68  93 140 166 214 276 343 400
#     4  12  23  40  68 101 134 172 217 286 347 404
#     4  11  26  48  73 101 147 192 242 297 356 423
#     4  10  21  41  63 101 131 173 212 270 342 413
#     4  10  26  48  70 104 138 196 240 296 344 434
#     4  10  24  42  70  86 130 184 220 276 326 396
#     4  11  25  41  70 104 136 177 229 275 357 415
#     4  11  22  45  64  95 130 175 226 272 336 400
#
# _framework density 21.223803
#
# number of rings (size 3 to 8) (size 9 to 14) (size 15 to 20)
#    0.000    1.143    4.286    2.143    5.000    1.714 
#    5.143    7.857    0.000    0.000    0.000    0.000 
#    0.000    0.000    0.000    0.000    0.000    0.000 
#
# Total GULP energy -311738.594337 kJ/mol
# GULP energy per Si atom -5566.760613 kJ/mol
# Density = 2.117550 g / cm^3
# Si number density = 21.223803 Si / 1000 Ang^3
#
#
#
# Elastic Constant Matrix: (Units=GPa)
#
#
# Indices 1 2 3 4 5 6 
#
# 1 71.3409 22.9396 12.5515 0.0000 0.0000 0.0000
# 2 22.9396 90.2562 10.4568 0.0000 0.0000 0.0000
# 3 12.5515 10.4568 89.8161 0.0000 0.0000 0.0000
# 4 0.0000 0.0000 0.0000 6.4628 0.0000 0.0000
# 5 0.0000 0.0000 0.0000 0.0000 22.8285 0.0000
# 6 0.0000 0.0000 0.0000 0.0000 0.0000 9.4280
#
#
#
# Elastic Compliance Matrix: (Units=1/GPa)
#
#
# Indices 1 2 3 4 5 6 
#
# 1 0.015527 -0.003745 -0.001734 0.000000 0.000000 0.000000
# 2 -0.003745 0.012135 -0.000889 0.000000 0.000000 0.000000
# 3 -0.001734 -0.000889 0.011480 0.000000 0.000000 0.000000
# 4 0.000000 0.000000 0.000000 0.154732 0.000000 0.000000
# 5 0.000000 0.000000 0.000000 0.000000 0.043805 0.000000
# 6 0.000000 0.000000 0.000000 0.000000 0.000000 0.106067
#
#
# Mechanical properties :
#
#
# Convention : Reuss Voigt Hill
#
# Bulk Modulus (GPa) = 37.87329 38.14548 38.00939
# Shear Modulus (GPa) = 13.68802 21.44155 17.56479
#
# Velocity S-wave (km/s) = 2.54232 3.18191 2.87992
# Velocity P-wave (km/s) = 5.14794 5.61350 5.38575
#
# Compressibility (1/GPa) = 0.02640383
#
# Stress axis : x y z
#
# Youngs Moduli (GPa) = 64.40581 82.40940 87.11041
#
# Poissons Ratio (x) = 0.30865 0.15103
# Poissons Ratio (y) = 0.24122 0.07747
# Poissons Ratio (z) = 0.11166 0.07329
#
# Static dielectric constant tensor:
#      x y z
#    x 1.991120 0.000000 0.000000 
#    y 0.000000 1.802500 0.000000 
#    z 0.000000 0.000000 1.809600 
# 
# From -- ./inp_files/3721.got.cif
#   From: 2010.05.17/outbox.cif.g08.bks.cpg/sg54_2_cif.got.tgz:3721.got - 2010.06.03 13:09:01.
