data_PCOD9422490
_publ_section_title
;
Structure prediction by ZEFSAII (Michael W. Deem and Ramdas Pophale) SiO2 
 PCOD9422490
Probable space group: P C C A
;
_chemical_formula_sum "Si O2"
_cell_formula_units_Z 64
_cell_length_a 21.679577
_cell_length_b 5.400317
_cell_length_c 26.100117
_cell_angle_alpha 90.000000
_cell_angle_beta 90.000000
_cell_angle_gamma 90.000000
_cell_volume 3055.712651
_symmetry_space_group_name_H-M "P C C A"
_symmetry_group_IT_number 54
_symmetry_cell_setting 'orthorhombic'
loop_
_space_group_symop_operation_xyz
x,y,z
1/2-x,-y,z
1/2+x,-y,1/2-z
-x,y,1/2-z
-x,-y,-z
1/2+x,y,-z
1/2-x,y,1/2+z
x,-y,1/2+z
loop_
_atom_site_type_symbol
_atom_site_label
_atom_site_fract_x
_atom_site_fract_y
_atom_site_fract_z
Si Si1 0.401342 0.118799 0.176565
Si Si2 0.510005 0.679479 0.904790
Si Si3 0.315400 0.368171 0.434142
Si Si4 0.903073 0.994190 0.564996
Si Si5 0.789180 0.753672 0.391508
Si Si6 0.428146 0.620953 0.237622
Si Si7 0.593189 0.615550 0.147688
Si Si8 0.886307 0.393177 0.976811
O O1 0.447181 0.133729 0.127478
O O2 0.333280 0.185484 0.156463
O O3 0.420093 0.349534 0.212874
O O4 0.405728 0.849849 0.202539
O O5 0.457139 0.804118 0.939290
O O6 0.470954 0.523320 0.864071
O O7 0.556776 0.527762 0.941006
O O8 0.250000 0.500000 0.435602
O O9 0.331279 0.078548 0.430399
O O10 0.354206 0.484484 0.386842
O O11 0.350363 0.414834 0.487903
O O12 0.915530 0.878028 0.620649
O O13 0.909314 0.806165 0.518403
O O14 0.750000 0.500000 0.384865
O O15 0.834824 0.715000 0.439210
O O16 0.750000 0.000000 0.400919
O O17 0.500000 0.665986 0.250000
O O18 0.394200 0.625116 0.292599
#
# Coordination Sequence:
#
# PCOD9422490 Si02
#       8
#     8   8   8   8   8   8   8   8
#     4  11  25  42  70 101 133 177 225 277 345 406
#     4  10  21  40  58  97 133 168 209 270 340 396
#     4  10  23  41  61  87 128 172 224 269 319 391
#     4  10  22  38  62  90 132 169 217 268 329 397
#     4  11  25  46  70  96 138 176 228 282 333 398
#     4  12  23  41  71 101 134 171 223 277 344 413
#     4  10  23  39  62  91 126 169 213 273 330 394
#     4  10  23  36  64  96 128 176 217 268 328 402
#
# _framework density 20.944375999999998
#
# number of rings (size 3 to 8) (size 9 to 14) (size 15 to 20)
#    0.000    1.500    1.250    2.625    7.000    7.000 
#    0.000    1.875    2.750    0.000    0.000    0.000 
#    0.000    0.000    0.000    0.000    0.000    0.000 
#
# Total GULP energy -357066.672745 kJ/mol
# GULP energy per Si atom -5579.166762 kJ/mol
# Density = 2.089671 g / cm^3
# Si number density = 20.944376 Si / 1000 Ang^3
#
#
#
# Elastic Constant Matrix: (Units=GPa)
#
#
# Indices 1 2 3 4 5 6 
#
# 1 55.0107 -0.3325 -2.3105 0.0000 0.0000 0.0000
# 2 -0.3325 48.2607 -11.9287 0.0000 0.0000 0.0000
# 3 -2.3105 -11.9287 65.9487 0.0000 0.0000 0.0000
# 4 0.0000 0.0000 0.0000 -16.3029 0.0000 0.0000
# 5 0.0000 0.0000 0.0000 0.0000 5.4467 0.0000
# 6 0.0000 0.0000 0.0000 0.0000 0.0000 4.3581
#
#
#
# Elastic Compliance Matrix: (Units=1/GPa)
#
#
# Indices 1 2 3 4 5 6 
#
# 1 0.018209 0.000296 0.000692 0.000000 0.000000 0.000000
# 2 0.000296 0.021695 0.003935 0.000000 0.000000 0.000000
# 3 0.000692 0.003935 0.015899 0.000000 0.000000 0.000000
# 4 0.000000 0.000000 0.000000 -0.061339 0.000000 0.000000
# 5 0.000000 0.000000 0.000000 0.000000 0.183598 0.000000
# 6 0.000000 0.000000 0.000000 0.000000 0.000000 0.229459
#
#
# Mechanical properties :
#
#
# Convention : Reuss Voigt Hill
#
# Bulk Modulus (GPa) = 15.23257 15.56408 15.39832
# Shear Modulus (GPa) = 11.91728 10.95317 11.43522
#
# Velocity S-wave (km/s) = 2.38795 2.28932 2.33916
# Velocity P-wave (km/s) = 3.85898 3.79938 3.82930
#
# Compressibility (1/GPa) = 0.06564882
#
# Stress axis : x y z
#
# Youngs Moduli (GPa) = 54.91752 46.09279 62.89616
#
# Poissons Ratio (x) = -0.01366 -0.04350
# Poissons Ratio (y) = -0.01628 -0.24747
# Poissons Ratio (z) = -0.03798 -0.18136
#
# Static dielectric constant tensor:
#      x y z
#    x 1.785470 0.000000 0.000000 
#    y 0.000000 1.865200 0.000000 
#    z 0.000000 0.000000 1.745980 
# 
# From -- ./inp_files/26704.got.cif
#   From: 2010.05.17/outbox.cif.g08.bks.cpg/sg54_14_cif.got.tgz:26704.got - 2010.06.03 13:09:01.
