data_PCOD9422010
_publ_section_title
;
Structure prediction by ZEFSAII (Michael W. Deem and Ramdas Pophale) SiO2 
 PCOD9422010
Probable space group: P C C A
;
_chemical_formula_sum "Si O2"
_cell_formula_units_Z 64
_cell_length_a 12.067392
_cell_length_b 14.860761
_cell_length_c 16.947289
_cell_angle_alpha 90.000000
_cell_angle_beta 90.000000
_cell_angle_gamma 90.000000
_cell_volume 3039.167986
_symmetry_space_group_name_H-M "P C C A"
_symmetry_group_IT_number 54
_symmetry_cell_setting 'orthorhombic'
loop_
_space_group_symop_operation_xyz
x,y,z
1/2-x,-y,z
1/2+x,-y,1/2-z
-x,y,1/2-z
-x,-y,-z
1/2+x,y,-z
1/2-x,y,1/2+z
x,-y,1/2+z
loop_
_atom_site_type_symbol
_atom_site_label
_atom_site_fract_x
_atom_site_fract_y
_atom_site_fract_z
Si Si1 0.965010 0.633374 0.559565
Si Si2 0.721740 0.224148 0.576896
Si Si3 0.055882 0.901000 0.998314
Si Si4 0.207176 0.899414 0.151245
Si Si5 0.632380 0.228030 0.930481
Si Si6 0.007437 0.431669 0.887477
Si Si7 0.629483 0.229193 0.227182
Si Si8 0.328063 0.585343 0.745326
O O1 0.864519 0.694473 0.590905
O O2 0.982306 0.629837 0.463887
O O3 0.073320 0.681007 0.595662
O O4 0.956989 0.530174 0.583494
O O5 0.652851 0.130640 0.563725
O O6 0.773388 0.249685 0.493067
O O7 0.820416 0.218867 0.639782
O O8 0.115920 0.888637 0.082224
O O9 0.959663 0.830436 0.977582
O O10 0.000000 0.000000 0.000000
O O11 0.312708 0.836752 0.132691
O O12 0.154083 0.864778 0.230854
O O13 0.250000 0.000000 0.151940
O O14 0.901560 0.438660 0.830807
O O15 0.102544 0.401874 0.826785
O O16 0.500000 0.248653 0.250000
O O17 0.702634 0.310046 0.266790
O O18 0.250000 0.500000 0.757263
#
# Coordination Sequence:
#
# PCOD9422010 Si02
#       8
#     8   8   8   8   8   8   8   8
#     4  10  22  40  64  95 132 170 225 285 330 401
#     4  10  23  39  66  99 126 178 224 272 339 407
#     4  10  20  41  68  93 128 166 219 280 339 400
#     4  11  24  42  63  97 127 170 224 275 336 406
#     4  10  21  38  67  91 125 166 221 277 331 395
#     4  10  22  40  61  96 132 172 223 272 338 403
#     4  12  25  46  66  93 137 180 222 278 347 413
#     4  11  24  40  67  94 135 179 224 270 343 419
#
# _framework density 21.058394
#
# number of rings (size 3 to 8) (size 9 to 14) (size 15 to 20)
#    0.000    1.500    2.500    2.250    7.000    0.000 
#    4.500    4.375    0.000    0.000    0.000    0.000 
#    0.000    0.000    0.000    0.000    0.000    0.000 
#
# Total GULP energy -356729.216286 kJ/mol
# GULP energy per Si atom -5573.894004 kJ/mol
# Density = 2.101046 g / cm^3
# Si number density = 21.058394 Si / 1000 Ang^3
#
#
#
# Elastic Constant Matrix: (Units=GPa)
#
#
# Indices 1 2 3 4 5 6 
#
# 1 66.6478 19.0742 12.7379 0.0000 0.0000 0.0000
# 2 19.0742 57.9739 15.1255 0.0000 0.0000 0.0000
# 3 12.7379 15.1255 66.7062 0.0000 0.0000 0.0000
# 4 0.0000 0.0000 0.0000 23.8427 0.0000 0.0000
# 5 0.0000 0.0000 0.0000 0.0000 18.7131 0.0000
# 6 0.0000 0.0000 0.0000 0.0000 0.0000 34.6564
#
#
#
# Elastic Compliance Matrix: (Units=1/GPa)
#
#
# Indices 1 2 3 4 5 6 
#
# 1 0.016832 -0.004995 -0.002082 0.000000 0.000000 0.000000
# 2 -0.004995 0.019816 -0.003539 0.000000 0.000000 0.000000
# 3 -0.002082 -0.003539 0.016191 0.000000 0.000000 0.000000
# 4 0.000000 0.000000 0.000000 0.041942 0.000000 0.000000
# 5 0.000000 0.000000 0.000000 0.000000 0.053438 0.000000
# 6 0.000000 0.000000 0.000000 0.000000 0.000000 0.028855
#
#
# Mechanical properties :
#
#
# Convention : Reuss Voigt Hill
#
# Bulk Modulus (GPa) = 31.63836 31.68924 31.66380
# Shear Modulus (GPa) = 23.94172 25.06847 24.50509
#
# Velocity S-wave (km/s) = 3.37548 3.45400 3.41497
# Velocity P-wave (km/s) = 5.49987 5.56666 5.53337
#
# Compressibility (1/GPa) = 0.03160720
#
# Stress axis : x y z
#
# Youngs Moduli (GPa) = 59.41226 50.46441 61.76209
#
# Poissons Ratio (x) = 0.25206 0.12856
# Poissons Ratio (y) = 0.29675 0.21860
# Poissons Ratio (z) = 0.12367 0.17862
#
# Static dielectric constant tensor:
#      x y z
#    x 1.799910 0.000000 0.000000 
#    y 0.000000 2.334680 0.000000 
#    z 0.000000 0.000000 1.774080 
# 
# From -- ./inp_files/17473.got.cif
#   From: 2010.05.17/outbox.cif.g08.bks.cpg/sg54_9_cif.got.tgz:17473.got - 2010.06.03 13:09:01.
