data_PCOD9422190
_publ_section_title
;
Structure prediction by ZEFSAII (Michael W. Deem and Ramdas Pophale) SiO2 
 PCOD9422190
Probable space group: P C C A
;
_chemical_formula_sum "Si O2"
_cell_formula_units_Z 64
_cell_length_a 24.575587
_cell_length_b 13.940403
_cell_length_c 9.848742
_cell_angle_alpha 90.000000
_cell_angle_beta 90.000000
_cell_angle_gamma 90.000000
_cell_volume 3374.115847
_symmetry_space_group_name_H-M "P C C A"
_symmetry_group_IT_number 54
_symmetry_cell_setting 'orthorhombic'
loop_
_space_group_symop_operation_xyz
x,y,z
1/2-x,-y,z
1/2+x,-y,1/2-z
-x,y,1/2-z
-x,-y,-z
1/2+x,y,-z
1/2-x,y,1/2+z
x,-y,1/2+z
loop_
_atom_site_type_symbol
_atom_site_label
_atom_site_fract_x
_atom_site_fract_y
_atom_site_fract_z
Si Si1 0.315215 0.615994 0.220655
Si Si2 0.960812 0.476006 0.622125
Si Si3 0.625230 0.679568 0.545891
Si Si4 0.565267 0.980895 0.755664
Si Si5 0.886362 0.649276 0.543468
Si Si6 0.032289 0.204509 0.608839
Si Si7 0.924072 0.118780 0.486285
Si Si8 0.190000 0.607203 0.211285
O O1 0.343239 0.678931 0.339270
O O2 0.252234 0.636495 0.186292
O O3 0.313277 0.503305 0.260963
O O4 0.350256 0.628105 0.085324
O O5 0.927853 0.379238 0.593647
O O6 0.918815 0.564256 0.620280
O O7 0.000000 0.469790 0.750000
O O8 0.000000 0.500000 0.500000
O O9 0.611492 0.787798 0.509697
O O10 0.666195 0.672460 0.670404
O O11 0.500000 0.994038 0.750000
O O12 0.571259 0.880948 0.838025
O O13 0.585166 0.960066 0.604366
O O14 0.585842 0.069795 0.842128
O O15 0.931542 0.719133 0.474265
O O16 0.848740 0.614198 0.419407
O O17 0.000000 0.234521 0.750000
O O18 0.986082 0.156897 0.512409
#
# Coordination Sequence:
#
# PCOD9422190 Si02
#       8
#     8   8   8   8   8   8   8   8
#     4  11  23  38  60  89 112 155 211 267 294 335
#     4  12  24  37  51  78 122 163 192 224 280 356
#     4  12  23  40  58  88 121 159 198 242 306 363
#     4   9  18  36  57  83 112 154 195 242 294 333
#     4  12  22  38  59  86 117 164 207 246 294 354
#     4   9  19  36  57  86 117 160 200 238 293 356
#     4  10  21  36  59  86 118 154 194 242 292 364
#     4  11  21  41  62  80 118 159 207 259 304 343
#
# _framework density 18.967932000000001
#
# number of rings (size 3 to 8) (size 9 to 14) (size 15 to 20)
#    0.000    1.500    2.500    6.000    0.000    6.500 
#    0.000    0.625    0.000    0.000    0.000   14.875 
#    0.000    0.000    0.000    0.000    0.000    0.000 
#
# Total GULP energy -357174.292491 kJ/mol
# GULP energy per Si atom -5580.848320 kJ/mol
# Density = 1.892476 g / cm^3
# Si number density = 18.967932 Si / 1000 Ang^3
#
#
#
# Elastic Constant Matrix: (Units=GPa)
#
#
# Indices 1 2 3 4 5 6 
#
# 1 91.1840 38.0980 48.1674 0.0000 0.0000 0.0000
# 2 38.0980 79.9028 44.1335 0.0000 0.0000 0.0000
# 3 48.1674 44.1335 95.1413 0.0000 0.0000 0.0000
# 4 0.0000 0.0000 0.0000 25.9667 0.0000 0.0000
# 5 0.0000 0.0000 0.0000 0.0000 22.5671 0.0000
# 6 0.0000 0.0000 0.0000 0.0000 0.0000 11.3775
#
#
#
# Elastic Compliance Matrix: (Units=1/GPa)
#
#
# Indices 1 2 3 4 5 6 
#
# 1 0.015969 -0.004233 -0.006121 0.000000 0.000000 0.000000
# 2 -0.004233 0.017949 -0.006183 0.000000 0.000000 0.000000
# 3 -0.006121 -0.006183 0.016478 0.000000 0.000000 0.000000
# 4 0.000000 0.000000 0.000000 0.038511 0.000000 0.000000
# 5 0.000000 0.000000 0.000000 0.000000 0.044312 0.000000
# 6 0.000000 0.000000 0.000000 0.000000 0.000000 0.087893
#
#
# Mechanical properties :
#
#
# Convention : Reuss Voigt Hill
#
# Bulk Modulus (GPa) = 57.73237 58.55842 58.14539
# Shear Modulus (GPa) = 19.23382 21.03753 20.13568
#
# Velocity S-wave (km/s) = 3.18782 3.33394 3.26170
# Velocity P-wave (km/s) = 6.63721 6.76458 6.70120
#
# Compressibility (1/GPa) = 0.01732131
#
# Stress axis : x y z
#
# Youngs Moduli (GPa) = 62.62187 55.71476 60.68880
#
# Poissons Ratio (x) = 0.23585 0.37147
# Poissons Ratio (y) = 0.26509 0.37522
# Poissons Ratio (z) = 0.38330 0.34447
#
# Static dielectric constant tensor:
#      x y z
#    x 1.688770 0.000000 0.000000 
#    y 0.000000 1.706110 0.000000 
#    z 0.000000 0.000000 1.677160 
# 
# From -- ./inp_files/5294.got.cif
#   From: 2010.05.17/outbox.cif.g08.bks.cpg/sg54_3_cif.got.tgz:5294.got - 2010.06.03 13:09:01.
