data_PCOD9422520
_publ_section_title
;
Structure prediction by ZEFSAII (Michael W. Deem and Ramdas Pophale) SiO2 
 PCOD9422520
Probable space group: P C C A
;
_chemical_formula_sum "Si O2"
_cell_formula_units_Z 40
_cell_length_a 8.502786
_cell_length_b 20.538270
_cell_length_c 10.347320
_cell_angle_alpha 90.000000
_cell_angle_beta 90.000000
_cell_angle_gamma 90.000000
_cell_volume 1806.978511
_symmetry_space_group_name_H-M "P C C A"
_symmetry_group_IT_number 54
_symmetry_cell_setting 'orthorhombic'
loop_
_space_group_symop_operation_xyz
x,y,z
1/2-x,-y,z
1/2+x,-y,1/2-z
-x,y,1/2-z
-x,-y,-z
1/2+x,y,-z
1/2-x,y,1/2+z
x,-y,1/2+z
loop_
_atom_site_type_symbol
_atom_site_label
_atom_site_fract_x
_atom_site_fract_y
_atom_site_fract_z
Si Si1 0.244485 0.143993 0.008031
Si Si2 0.383431 0.441949 0.624716
Si Si3 0.519185 0.947069 0.110483
Si Si4 0.996151 0.763085 0.101985
Si Si5 0.930778 0.622085 0.395103
O O1 0.385356 0.176756 0.084943
O O2 0.117499 0.106806 0.094388
O O3 0.318295 0.091113 0.911206
O O4 0.166496 0.205656 0.939936
O O5 0.250000 0.500000 0.625276
O O6 0.500000 0.445409 0.750000
O O7 0.489105 0.429113 0.495887
O O8 0.257004 0.383064 0.623314
O O9 0.500000 0.978085 0.250000
O O10 0.500000 0.000000 0.000000
O O11 0.034309 0.693069 0.042178
O O12 0.000000 0.746069 0.250000
O O13 0.000000 0.611369 0.250000
#
# Coordination Sequence:
#
# PCOD9422520 Si02
#       5
#     8   8   8   8   8
#     4  10  22  39  62  90 125 167 211 262 321 387
#     4  12  26  46  69  98 137 180 224 273 332 398
#     4  11  24  40  61  90 125 167 216 268 324 384
#     4  10  21  40  64  92 127 165 209 261 321 387
#     4  11  24  43  69 102 135 173 221 276 334 398
#
# _framework density 22.136400999999999
#
# number of rings (size 3 to 8) (size 9 to 14) (size 15 to 20)
#    0.000    1.200    0.000    5.400    0.000    9.600 
#    0.000    5.000    0.000    0.000    0.000    0.000 
#    0.000    0.000    0.000    0.000    0.000    0.000 
#
# Total GULP energy -223091.916021 kJ/mol
# GULP energy per Si atom -5577.297901 kJ/mol
# Density = 2.208602 g / cm^3
# Si number density = 22.136401 Si / 1000 Ang^3
#
#
#
# Elastic Constant Matrix: (Units=GPa)
#
#
# Indices 1 2 3 4 5 6 
#
# 1 113.6429 11.4258 39.4670 0.0000 0.0000 0.0000
# 2 11.4258 108.1099 27.9593 0.0000 0.0000 0.0000
# 3 39.4670 27.9593 131.8533 0.0000 0.0000 0.0000
# 4 0.0000 0.0000 0.0000 18.0205 0.0000 0.0000
# 5 0.0000 0.0000 0.0000 0.0000 31.8283 0.0000
# 6 0.0000 0.0000 0.0000 0.0000 0.0000 31.7468
#
#
#
# Elastic Compliance Matrix: (Units=1/GPa)
#
#
# Indices 1 2 3 4 5 6 
#
# 1 0.009829 -0.000294 -0.002880 0.000000 0.000000 0.000000
# 2 -0.000294 0.009795 -0.001989 0.000000 0.000000 0.000000
# 3 -0.002880 -0.001989 0.008868 0.000000 0.000000 0.000000
# 4 0.000000 0.000000 0.000000 0.055492 0.000000 0.000000
# 5 0.000000 0.000000 0.000000 0.000000 0.031419 0.000000
# 6 0.000000 0.000000 0.000000 0.000000 0.000000 0.031499
#
#
# Mechanical properties :
#
#
# Convention : Reuss Voigt Hill
#
# Bulk Modulus (GPa) = 55.04580 56.81224 55.92902
# Shear Modulus (GPa) = 30.62149 34.63605 32.62877
#
# Velocity S-wave (km/s) = 3.72332 3.95988 3.84342
# Velocity P-wave (km/s) = 6.58823 6.82846 6.70942
#
# Compressibility (1/GPa) = 0.01816669
#
# Stress axis : x y z
#
# Youngs Moduli (GPa) = 101.73791 102.08941 112.76555
#
# Poissons Ratio (x) = 0.03002 0.32474
# Poissons Ratio (y) = 0.02992 0.22430
# Poissons Ratio (z) = 0.29298 0.20306
#
# Static dielectric constant tensor:
#      x y z
#    x 1.916580 0.000000 0.000000 
#    y 0.000000 1.904070 0.000000 
#    z 0.000000 0.000000 1.801670 
# 
# From -- ./inp_files/2531.got.cif
#   From: 2010.05.17/outbox.cif.g08.bks.cpg/sg54_2_cif.got.tgz:2531.got - 2010.06.03 13:09:01.
