data_PCOD9422310
_publ_section_title
;
Structure prediction by ZEFSAII (Michael W. Deem and Ramdas Pophale) SiO2 
 PCOD9422310
Probable space group: P C C A
;
_chemical_formula_sum "Si O2"
_cell_formula_units_Z 60
_cell_length_a 14.233945
_cell_length_b 13.870931
_cell_length_c 14.664061
_cell_angle_alpha 90.000000
_cell_angle_beta 90.000000
_cell_angle_gamma 90.000000
_cell_volume 2895.243887
_symmetry_space_group_name_H-M "P C C A"
_symmetry_group_IT_number 54
_symmetry_cell_setting 'orthorhombic'
loop_
_space_group_symop_operation_xyz
x,y,z
1/2-x,-y,z
1/2+x,-y,1/2-z
-x,y,1/2-z
-x,-y,-z
1/2+x,y,-z
1/2-x,y,1/2+z
x,-y,1/2+z
loop_
_atom_site_type_symbol
_atom_site_label
_atom_site_fract_x
_atom_site_fract_y
_atom_site_fract_z
Si Si1 0.666243 0.363327 0.682828
Si Si2 0.694796 0.652389 0.388566
Si Si3 0.236401 0.156130 0.803295
Si Si4 0.668931 0.174087 0.393189
Si Si5 0.250000 0.500000 0.967698
Si Si6 0.005837 0.760126 0.649125
Si Si7 0.969298 0.104627 0.650944
Si Si8 0.885883 0.922521 0.568417
O O1 0.689707 0.394144 0.786789
O O2 0.721798 0.261863 0.677739
O O3 0.692616 0.434072 0.602350
O O4 0.558879 0.333214 0.666044
O O5 0.786135 0.720075 0.407499
O O6 0.692055 0.570953 0.465567
O O7 0.606954 0.726264 0.384349
O O8 0.224128 0.137392 0.696004
O O9 0.130943 0.155600 0.841011
O O10 0.310289 0.085026 0.849912
O O11 0.557198 0.172752 0.372362
O O12 0.673432 0.100900 0.477841
O O13 0.956459 0.832768 0.580668
O O14 0.000000 0.808336 0.750000
O O15 0.000000 0.063050 0.750000
O O16 0.946118 0.018482 0.581776
#
# Coordination Sequence:
#
# PCOD9422310 Si02
#       8
#     8   8   8   8   4   8   8   8
#     4   9  20  38  59  84 115 152 193 240 294 358
#     4  10  21  39  60  85 119 153 191 241 298 357
#     4   9  20  40  59  81 121 163 196 240 298 347
#     4  10  22  38  58  86 120 159 197 239 296 353
#     4  12  22  36  60  88 112 146 196 248 298 354
#     4   9  19  37  59  83 118 159 193 235 296 350
#     4  10  21  38  59  86 120 158 200 246 290 341
#     4  11  20  36  61  91 120 155 206 248 282 339
#
# _framework density 20.723642999999999
#
# number of rings (size 3 to 8) (size 9 to 14) (size 15 to 20)
#    0.000    2.133    0.000    4.000    0.000    2.667 
#    0.000   10.000    0.000    4.800    0.000    0.000 
#    0.000    0.000    0.000    0.000    0.000    0.000 
#
# Total GULP energy -334577.405338 kJ/mol
# GULP energy per Si atom -5576.290089 kJ/mol
# Density = 2.067648 g / cm^3
# Si number density = 20.723643 Si / 1000 Ang^3
#
#
#
# Elastic Constant Matrix: (Units=GPa)
#
#
# Indices 1 2 3 4 5 6 
#
# 1 122.8798 48.5145 43.3224 0.0000 0.0000 0.0000
# 2 48.5145 71.0118 49.7682 0.0000 0.0000 0.0000
# 3 43.3224 49.7682 114.0339 0.0000 0.0000 0.0000
# 4 0.0000 0.0000 0.0000 11.5768 0.0000 0.0000
# 5 0.0000 0.0000 0.0000 0.0000 13.6019 0.0000
# 6 0.0000 0.0000 0.0000 0.0000 0.0000 2.9873
#
#
#
# Elastic Compliance Matrix: (Units=1/GPa)
#
#
# Indices 1 2 3 4 5 6 
#
# 1 0.011282 -0.006777 -0.001329 0.000000 0.000000 0.000000
# 2 -0.006777 0.024358 -0.008056 0.000000 0.000000 0.000000
# 3 -0.001329 -0.008056 0.012790 0.000000 0.000000 0.000000
# 4 0.000000 0.000000 0.000000 0.086380 0.000000 0.000000
# 5 0.000000 0.000000 0.000000 0.000000 0.073519 0.000000
# 6 0.000000 0.000000 0.000000 0.000000 0.000000 0.334749
#
#
# Mechanical properties :
#
#
# Convention : Reuss Voigt Hill
#
# Bulk Modulus (GPa) = 62.08358 65.68176 63.88267
# Shear Modulus (GPa) = 8.60926 16.72122 12.66524
#
# Velocity S-wave (km/s) = 2.04043 2.84362 2.47483
# Velocity P-wave (km/s) = 5.96439 6.52261 6.24974
#
# Compressibility (1/GPa) = 0.01610732
#
# Stress axis : x y z
#
# Youngs Moduli (GPa) = 88.63747 41.05431 78.18582
#
# Poissons Ratio (x) = 0.27821 0.10387
# Poissons Ratio (y) = 0.60066 0.62988
# Poissons Ratio (z) = 0.11776 0.33074
#
# Static dielectric constant tensor:
#      x y z
#    x 1.754760 0.000000 0.000000 
#    y 0.000000 1.725490 0.000000 
#    z 0.000000 0.000000 1.842320 
# 
# From -- ./inp_files/13602.got.cif
#   From: 2010.05.17/outbox.cif.g08.bks.cpg/sg54_7_cif.got.tgz:13602.got - 2010.06.03 13:09:01.
