data_PCOD9422993
_publ_section_title
;
Structure prediction by ZEFSAII (Michael W. Deem and Ramdas Pophale) SiO2 
 PCOD9422993
Probable space group: P C C A
;
_chemical_formula_sum "Si O2"
_cell_formula_units_Z 32
_cell_length_a 13.477498
_cell_length_b 11.448359
_cell_length_c 9.083039
_cell_angle_alpha 90.000000
_cell_angle_beta 90.000000
_cell_angle_gamma 90.000000
_cell_volume 1401.469642
_symmetry_space_group_name_H-M "P C C A"
_symmetry_group_IT_number 54
_symmetry_cell_setting 'orthorhombic'
loop_
_space_group_symop_operation_xyz
x,y,z
1/2-x,-y,z
1/2+x,-y,1/2-z
-x,y,1/2-z
-x,-y,-z
1/2+x,y,-z
1/2-x,y,1/2+z
x,-y,1/2+z
loop_
_atom_site_type_symbol
_atom_site_label
_atom_site_fract_x
_atom_site_fract_y
_atom_site_fract_z
Si Si1 0.500000 0.514123 0.750000
Si Si2 0.250000 0.000000 0.700311
Si Si3 0.530825 0.879547 0.578262
Si Si4 0.589880 0.345827 0.506125
Si Si5 0.267386 0.839545 0.445681
O O1 0.557460 0.433729 0.633480
O O2 0.426315 0.592819 0.651373
O O3 0.301601 0.909790 0.590337
O O4 0.190691 0.912153 0.806552
O O5 0.500000 0.881320 0.750000
O O6 0.479394 0.769137 0.498735
O O7 0.649250 0.855417 0.566960
O O8 0.500000 0.000000 0.500000
O O9 0.697370 0.291863 0.539447
#
# Coordination Sequence:
#
# PCOD9422993 Si02
#       5
#     4   4   8   8   8
#     4  10  26  52  70 100 142 200 262 322 356 424
#     4  10  22  40  66 110 148 176 236 290 384 466
#     4  12  25  43  75 115 150 190 237 308 385 462
#     4  11  25  48  73  99 145 190 259 310 372 443
#     4  11  23  42  71 107 147 194 233 300 376 459
#
# _framework density 22.833174
#
# number of rings (size 3 to 8) (size 9 to 14) (size 15 to 20)
#    0.000    1.000    1.250    6.000    5.250    0.000 
#    0.000    7.500    0.000    0.000    0.000    0.000 
#    0.000    0.000    0.000    0.000    0.000    0.000 
#
# Total GULP energy -178955.654200 kJ/mol
# GULP energy per Si atom -5592.364194 kJ/mol
# Density = 2.278120 g / cm^3
# Si number density = 22.833174 Si / 1000 Ang^3
#
#
#
# Elastic Constant Matrix: (Units=GPa)
#
#
# Indices 1 2 3 4 5 6 
#
# 1 135.0526 51.8969 33.9302 0.0000 0.0000 0.0000
# 2 51.8969 151.6959 63.4499 0.0000 0.0000 0.0000
# 3 33.9302 63.4499 159.6863 0.0000 0.0000 0.0000
# 4 0.0000 0.0000 0.0000 40.8294 0.0000 0.0000
# 5 0.0000 0.0000 0.0000 0.0000 22.9687 0.0000
# 6 0.0000 0.0000 0.0000 0.0000 0.0000 46.5227
#
#
#
# Elastic Compliance Matrix: (Units=1/GPa)
#
#
# Indices 1 2 3 4 5 6 
#
# 1 0.008608 -0.002614 -0.000790 0.000000 0.000000 0.000000
# 2 -0.002614 0.008700 -0.002901 0.000000 0.000000 0.000000
# 3 -0.000790 -0.002901 0.007583 0.000000 0.000000 0.000000
# 4 0.000000 0.000000 0.000000 0.024492 0.000000 0.000000
# 5 0.000000 0.000000 0.000000 0.000000 0.043538 0.000000
# 6 0.000000 0.000000 0.000000 0.000000 0.000000 0.021495
#
#
# Mechanical properties :
#
#
# Convention : Reuss Voigt Hill
#
# Bulk Modulus (GPa) = 81.43991 82.77656 82.10823
# Shear Modulus (GPa) = 38.13299 41.87468 40.00383
#
# Velocity S-wave (km/s) = 4.09108 4.28710 4.19024
# Velocity P-wave (km/s) = 7.61976 7.79981 7.71031
#
# Compressibility (1/GPa) = 0.01227899
#
# Stress axis : x y z
#
# Youngs Moduli (GPa) = 116.17596 114.94140 131.87335
#
# Poissons Ratio (x) = 0.30049 0.10421
# Poissons Ratio (y) = 0.30371 0.38262
# Poissons Ratio (z) = 0.09180 0.33349
#
# Static dielectric constant tensor:
#      x y z
#    x 2.030920 0.000000 0.000000 
#    y 0.000000 1.823010 0.000000 
#    z 0.000000 0.000000 1.874310 
# 
# From -- ./inp_files/3296.got.cif
#   From: 2010.05.17/outbox.cif.g08.bks.cpg/sg54_2_cif.got.tgz:3296.got - 2010.06.03 13:09:01.
