data_PCOD9422548
_publ_section_title
;
Structure prediction by ZEFSAII (Michael W. Deem and Ramdas Pophale) SiO2 
 PCOD9422548
Probable space group: P C C A
;
_chemical_formula_sum "Si O2"
_cell_formula_units_Z 64
_cell_length_a 22.229218
_cell_length_b 8.078724
_cell_length_c 14.313655
_cell_angle_alpha 90.000000
_cell_angle_beta 90.000000
_cell_angle_gamma 90.000000
_cell_volume 2570.499368
_symmetry_space_group_name_H-M "P C C A"
_symmetry_group_IT_number 54
_symmetry_cell_setting 'orthorhombic'
loop_
_space_group_symop_operation_xyz
x,y,z
1/2-x,-y,z
1/2+x,-y,1/2-z
-x,y,1/2-z
-x,-y,-z
1/2+x,y,-z
1/2-x,y,1/2+z
x,-y,1/2+z
loop_
_atom_site_type_symbol
_atom_site_label
_atom_site_fract_x
_atom_site_fract_y
_atom_site_fract_z
Si Si1 0.980957 0.183203 0.540109
Si Si2 0.287953 0.647663 0.128778
Si Si3 0.434642 0.942789 0.316393
Si Si4 0.312855 0.096937 0.304621
Si Si5 0.897790 0.173316 0.373230
Si Si6 0.813799 0.577007 0.081004
Si Si7 0.087373 0.664678 0.956791
Si Si8 0.173399 0.153704 0.599097
O O1 0.930923 0.239520 0.464969
O O2 0.033228 0.321225 0.534667
O O3 0.959046 0.117036 0.641133
O O4 0.000000 0.000000 0.500000
O O5 0.250000 0.500000 0.175283
O O6 0.349810 0.704449 0.175388
O O7 0.243298 0.797309 0.101034
O O8 0.309325 0.577987 0.030503
O O9 0.441655 0.902920 0.206020
O O10 0.444002 0.779663 0.378428
O O11 0.362669 0.964535 0.329828
O O12 0.310926 0.237839 0.381008
O O13 0.337779 0.183253 0.209798
O O14 0.250000 0.000000 0.289947
O O15 0.855067 0.027021 0.411019
O O16 0.750000 0.500000 0.114005
O O17 0.877547 0.483405 0.095997
O O18 0.140908 0.747119 0.017485
#
# Coordination Sequence:
#
# PCOD9422548 Si02
#       8
#     8   8   8   8   8   8   8   8
#     4  10  21  40  67  96 133 176 228 298 342 417
#     4  11  23  39  63  94 133 180 218 282 365 421
#     4  10  22  41  66  99 126 176 228 289 354 415
#     4  11  24  39  62  99 133 173 229 293 347 415
#     4  11  22  40  68 102 130 177 236 295 355 424
#     4  11  23  41  64  94 137 185 224 285 360 431
#     4  11  22  43  64  98 134 184 227 282 356 428
#     4  11  21  41  63  96 133 172 228 284 357 413
#
# _framework density 24.897887000000001
#
# number of rings (size 3 to 8) (size 9 to 14) (size 15 to 20)
#    0.000    1.250    5.000    3.375    0.000    3.500 
#    0.000    2.500    0.000    0.000    0.000    0.000 
#    0.000    0.000    0.000    0.000    0.000    0.000 
#
# Total GULP energy -356618.146659 kJ/mol
# GULP energy per Si atom -5572.158542 kJ/mol
# Density = 2.484122 g / cm^3
# Si number density = 24.897887 Si / 1000 Ang^3
#
#
#
# Elastic Constant Matrix: (Units=GPa)
#
#
# Indices 1 2 3 4 5 6 
#
# 1 88.0855 18.6419 28.3911 0.0000 0.0000 0.0000
# 2 18.6419 69.7810 30.2004 0.0000 0.0000 0.0000
# 3 28.3911 30.2004 97.4261 0.0000 0.0000 0.0000
# 4 0.0000 0.0000 0.0000 11.0820 0.0000 0.0000
# 5 0.0000 0.0000 0.0000 0.0000 24.5806 0.0000
# 6 0.0000 0.0000 0.0000 0.0000 0.0000 54.7574
#
#
#
# Elastic Compliance Matrix: (Units=1/GPa)
#
#
# Indices 1 2 3 4 5 6 
#
# 1 0.012786 -0.002083 -0.003080 0.000000 0.000000 0.000000
# 2 -0.002083 0.016890 -0.004629 0.000000 0.000000 0.000000
# 3 -0.003080 -0.004629 0.012597 0.000000 0.000000 0.000000
# 4 0.000000 0.000000 0.000000 0.090236 0.000000 0.000000
# 5 0.000000 0.000000 0.000000 0.000000 0.040682 0.000000
# 6 0.000000 0.000000 0.000000 0.000000 0.000000 0.018262
#
#
# Mechanical properties :
#
#
# Convention : Reuss Voigt Hill
#
# Bulk Modulus (GPa) = 44.07346 45.52884 44.80115
# Shear Modulus (GPa) = 22.87269 29.95462 26.41365
#
# Velocity S-wave (km/s) = 3.03423 3.47233 3.26065
# Velocity P-wave (km/s) = 5.47864 5.86533 5.67528
#
# Compressibility (1/GPa) = 0.02268939
#
# Stress axis : x y z
#
# Youngs Moduli (GPa) = 78.20908 59.20594 79.38581
#
# Poissons Ratio (x) = 0.12330 0.24455
# Poissons Ratio (y) = 0.16288 0.36746
# Poissons Ratio (z) = 0.24092 0.27405
#
# Static dielectric constant tensor:
#      x y z
#    x 2.161560 0.000000 0.000000 
#    y 0.000000 2.080780 0.000000 
#    z 0.000000 0.000000 2.016570 
# 
# From -- ./inp_files/15015.got.cif
#   From: 2010.05.17/outbox.cif.g08.bks.cpg/sg54_8_cif.got.tgz:15015.got - 2010.06.03 13:09:01.
