data_PCOD9422699
_publ_section_title
;
Structure prediction by ZEFSAII (Michael W. Deem and Ramdas Pophale) SiO2 
 PCOD9422699
Probable space group: P C C A
;
_chemical_formula_sum "Si O2"
_cell_formula_units_Z 40
_cell_length_a 22.201557
_cell_length_b 8.492994
_cell_length_c 8.741069
_cell_angle_alpha 90.000000
_cell_angle_beta 90.000000
_cell_angle_gamma 90.000000
_cell_volume 1648.195782
_symmetry_space_group_name_H-M "P C C A"
_symmetry_group_IT_number 54
_symmetry_cell_setting 'orthorhombic'
loop_
_space_group_symop_operation_xyz
x,y,z
1/2-x,-y,z
1/2+x,-y,1/2-z
-x,y,1/2-z
-x,-y,-z
1/2+x,y,-z
1/2-x,y,1/2+z
x,-y,1/2+z
loop_
_atom_site_type_symbol
_atom_site_label
_atom_site_fract_x
_atom_site_fract_y
_atom_site_fract_z
Si Si1 0.627809 0.578118 0.773873
Si Si2 0.799953 0.784865 0.078588
Si Si3 0.000000 0.452590 0.750000
Si Si4 0.750000 0.000000 0.841954
Si Si5 0.000000 0.054933 0.250000
Si Si6 0.250000 0.500000 0.084176
Si Si7 0.551338 0.209737 0.460267
O O1 0.566947 0.522666 0.250989
O O2 0.689297 0.494093 0.816454
O O3 0.641324 0.685858 0.625383
O O4 0.611206 0.697264 0.912956
O O5 0.800142 0.919897 0.950630
O O6 0.777333 0.867840 0.232338
O O7 0.752781 0.655699 0.018321
O O8 0.997946 0.336113 0.897751
O O9 0.038230 0.155629 0.369920
O O10 0.957519 0.942027 0.351852
#
# Coordination Sequence:
#
# PCOD9422699 Si02
#       7
#     8   8   4   4   4   4   8
#     4  10  21  43  70 102 145 190 249 300 375 440
#     4  11  23  44  68 104 141 193 242 313 368 450
#     4   7  18  40  62  97 142 173 233 318 350 447
#     4  10  24  44  66 108 144 180 258 306 380 426
#     4   9  14  32  60 103 148 193 237 286 394 441
#     4  12  24  44  76 104 148 206 248 310 378 464
#     4   8  17  32  59  98 147 186 239 299 357 455
#
# _framework density 24.268961000000001
#
# number of rings (size 3 to 8) (size 9 to 14) (size 15 to 20)
#    1.200    1.200    2.000    0.600    0.000    1.600 
#    0.000    1.000    0.000    0.000    0.000    0.000 
#    0.000    0.000    0.000    0.000    0.000    0.000 
#
# Total GULP energy -223219.532814 kJ/mol
# GULP energy per Si atom -5580.488320 kJ/mol
# Density = 2.421372 g / cm^3
# Si number density = 24.268961 Si / 1000 Ang^3
#
#
#
# Elastic Constant Matrix: (Units=GPa)
#
#
# Indices 1 2 3 4 5 6 
#
# 1 160.1704 27.8435 47.3106 0.0000 0.0000 0.0000
# 2 27.8435 90.4535 53.6920 0.0000 0.0000 0.0000
# 3 47.3106 53.6920 118.7726 0.0000 0.0000 0.0000
# 4 0.0000 0.0000 0.0000 14.0866 0.0000 0.0000
# 5 0.0000 0.0000 0.0000 0.0000 31.2199 0.0000
# 6 0.0000 0.0000 0.0000 0.0000 0.0000 8.1519
#
#
#
# Elastic Compliance Matrix: (Units=1/GPa)
#
#
# Indices 1 2 3 4 5 6 
#
# 1 0.007108 -0.000693 -0.002518 0.000000 0.000000 0.000000
# 2 -0.000693 0.015178 -0.006585 0.000000 0.000000 0.000000
# 3 -0.002518 -0.006585 0.012399 0.000000 0.000000 0.000000
# 4 0.000000 0.000000 0.000000 0.070989 0.000000 0.000000
# 5 0.000000 0.000000 0.000000 0.000000 0.032031 0.000000
# 6 0.000000 0.000000 0.000000 0.000000 0.000000 0.122670
#
#
# Mechanical properties :
#
#
# Convention : Reuss Voigt Hill
#
# Bulk Modulus (GPa) = 66.25946 69.67651 67.96798
# Shear Modulus (GPa) = 17.54403 26.72839 22.13621
#
# Velocity S-wave (km/s) = 2.69160 3.32225 3.02341
# Velocity P-wave (km/s) = 6.08449 6.59461 6.34468
#
# Compressibility (1/GPa) = 0.01509219
#
# Stress axis : x y z
#
# Youngs Moduli (GPa) = 140.69537 65.88672 80.65113
#
# Poissons Ratio (x) = 0.04569 0.20305
# Poissons Ratio (y) = 0.09756 0.53108
# Poissons Ratio (z) = 0.35423 0.43386
#
# Static dielectric constant tensor:
#      x y z
#    x 1.924480 0.000000 0.000000 
#    y 0.000000 1.990770 0.000000 
#    z 0.000000 0.000000 1.972680 
# 
# From -- ./inp_files/5080.got.cif
#   From: 2010.05.17/outbox.cif.g08.bks.cpg/sg54_3_cif.got.tgz:5080.got - 2010.06.03 13:09:01.
