data_PCOD9422060
_publ_section_title
;
Structure prediction by ZEFSAII (Michael W. Deem and Ramdas Pophale) SiO2 
 PCOD9422060
Probable space group: P C C A
;
_chemical_formula_sum "Si O2"
_cell_formula_units_Z 44
_cell_length_a 9.302032
_cell_length_b 13.081394
_cell_length_c 17.012908
_cell_angle_alpha 90.000000
_cell_angle_beta 90.000000
_cell_angle_gamma 90.000000
_cell_volume 2070.190966
_symmetry_space_group_name_H-M "P C C A"
_symmetry_group_IT_number 54
_symmetry_cell_setting 'orthorhombic'
loop_
_space_group_symop_operation_xyz
x,y,z
1/2-x,-y,z
1/2+x,-y,1/2-z
-x,y,1/2-z
-x,-y,-z
1/2+x,y,-z
1/2-x,y,1/2+z
x,-y,1/2+z
loop_
_atom_site_type_symbol
_atom_site_label
_atom_site_fract_x
_atom_site_fract_y
_atom_site_fract_z
Si Si1 0.986010 0.221425 0.923325
Si Si2 0.331148 0.704268 0.264470
Si Si3 0.750000 0.500000 0.460509
Si Si4 0.848364 0.099438 0.794885
Si Si5 0.093557 0.584446 0.177196
Si Si6 0.721637 0.703333 0.055115
O O1 0.898103 0.131305 0.882496
O O2 0.978279 0.312026 0.857354
O O3 0.153061 0.211806 0.942046
O O4 0.907807 0.257056 0.002054
O O5 0.500000 0.714710 0.250000
O O6 0.245037 0.808392 0.243142
O O7 0.247761 0.619751 0.212324
O O8 0.316874 0.678920 0.355946
O O9 0.617439 0.481806 0.400682
O O10 0.725816 0.600200 0.512074
O O11 0.000000 0.086619 0.750000
O O12 0.750000 0.000000 0.793237
O O13 0.000000 0.544889 0.250000
#
# Coordination Sequence:
#
# PCOD9422060 Si02
#       6
#     8   8   4   8   8   8
#     4  10  22  42  65  91 135 180 211 278 353 399
#     4  11  23  41  68  95 130 180 225 277 354 406
#     4  10  26  38  62  98 126 184 240 280 336 408
#     4  11  22  45  73 101 130 170 224 280 340 425
#     4  10  20  43  60  86 132 176 229 292 337 392
#     4  11  23  43  65  93 138 181 229 280 345 412
#
# _framework density 21.254078
#
# number of rings (size 3 to 8) (size 9 to 14) (size 15 to 20)
#    0.000    1.455    3.636    1.636    7.636    4.364 
#    0.000    1.818    0.000    0.000    0.000    0.000 
#    0.000    0.000    0.000    0.000    0.000    0.000 
#
# Total GULP energy -245944.687453 kJ/mol
# GULP energy per Si atom -5589.651988 kJ/mol
# Density = 2.120570 g / cm^3
# Si number density = 21.254078 Si / 1000 Ang^3
#
#
#
# Elastic Constant Matrix: (Units=GPa)
#
#
# Indices 1 2 3 4 5 6 
#
# 1 133.6649 20.9301 36.4108 0.0000 0.0000 0.0000
# 2 20.9301 76.8717 31.4251 0.0000 0.0000 0.0000
# 3 36.4108 31.4251 127.2629 0.0000 0.0000 0.0000
# 4 0.0000 0.0000 0.0000 10.2191 0.0000 0.0000
# 5 0.0000 0.0000 0.0000 0.0000 38.7096 0.0000
# 6 0.0000 0.0000 0.0000 0.0000 0.0000 24.9834
#
#
#
# Elastic Compliance Matrix: (Units=1/GPa)
#
#
# Indices 1 2 3 4 5 6 
#
# 1 0.008252 -0.001426 -0.002009 0.000000 0.000000 0.000000
# 2 -0.001426 0.014716 -0.003226 0.000000 0.000000 0.000000
# 3 -0.002009 -0.003226 0.009229 0.000000 0.000000 0.000000
# 4 0.000000 0.000000 0.000000 0.097856 0.000000 0.000000
# 5 0.000000 0.000000 0.000000 0.000000 0.025833 0.000000
# 6 0.000000 0.000000 0.000000 0.000000 0.000000 0.040027
#
#
# Mechanical properties :
#
#
# Convention : Reuss Voigt Hill
#
# Bulk Modulus (GPa) = 52.97763 57.25905 55.11834
# Shear Modulus (GPa) = 23.19916 31.38465 27.29190
#
# Velocity S-wave (km/s) = 3.30739 3.84688 3.58729
# Velocity P-wave (km/s) = 6.29008 6.83594 6.56868
#
# Compressibility (1/GPa) = 0.01887589
#
# Stress axis : x y z
#
# Youngs Moduli (GPa) = 121.18503 67.95532 108.35316
#
# Poissons Ratio (x) = 0.09687 0.21767
# Poissons Ratio (y) = 0.17275 0.34953
# Poissons Ratio (z) = 0.24345 0.21921
#
# Static dielectric constant tensor:
#      x y z
#    x 1.799920 0.000000 0.000000 
#    y 0.000000 1.784050 0.000000 
#    z 0.000000 0.000000 1.747160 
# 
# From -- ./inp_files/16529.got.cif
#   From: 2010.05.17/outbox.cif.g08.bks.cpg/sg54_9_cif.got.tgz:16529.got - 2010.06.03 13:09:01.
