data_PCOD9422766
_publ_section_title
;
Structure prediction by ZEFSAII (Michael W. Deem and Ramdas Pophale) SiO2 
 PCOD9422766
Probable space group: P C C A
;
_chemical_formula_sum "Si O2"
_cell_formula_units_Z 48
_cell_length_a 8.021647
_cell_length_b 16.505818
_cell_length_c 16.353814
_cell_angle_alpha 90.000000
_cell_angle_beta 90.000000
_cell_angle_gamma 90.000000
_cell_volume 2165.307861
_symmetry_space_group_name_H-M "P C C A"
_symmetry_group_IT_number 54
_symmetry_cell_setting 'orthorhombic'
loop_
_space_group_symop_operation_xyz
x,y,z
1/2-x,-y,z
1/2+x,-y,1/2-z
-x,y,1/2-z
-x,-y,-z
1/2+x,y,-z
1/2-x,y,1/2+z
x,-y,1/2+z
loop_
_atom_site_type_symbol
_atom_site_label
_atom_site_fract_x
_atom_site_fract_y
_atom_site_fract_z
Si Si1 0.000000 0.377778 0.250000
Si Si2 0.469475 0.370186 0.086277
Si Si3 0.750000 0.500000 0.327056
Si Si4 0.645368 0.193254 0.376965
Si Si5 0.000000 0.080129 0.750000
Si Si6 0.695316 0.843282 0.530784
Si Si7 0.656236 0.675810 0.089323
Si Si8 0.250000 0.000000 0.874593
O O1 0.152618 0.435705 0.227248
O O2 0.047458 0.327733 0.329795
O O3 0.381073 0.450131 0.118662
O O4 0.384877 0.290007 0.128465
O O5 0.666642 0.369146 0.101902
O O6 0.438819 0.359819 0.989300
O O7 0.629053 0.141784 0.294622
O O8 0.800700 0.169242 0.433348
O O9 0.488856 0.163185 0.432084
O O10 0.902309 0.025531 0.684592
O O11 0.791281 0.766172 0.566646
O O12 0.777092 0.924255 0.565472
#
# Coordination Sequence:
#
# PCOD9422766 Si02
#       8
#     4   8   4   8   4   8   8   4
#     4  12  26  40  60  92 122 154 200 252 302 346
#     4  10  22  42  64  86 119 160 200 242 296 363
#     4  12  26  40  62  92 122 156 196 252 302 344
#     4   9  20  39  60  83 114 156 196 233 289 354
#     4  10  22  36  56  86 118 152 192 242 292 334
#     4   9  20  38  60  85 115 154 197 235 287 354
#     4  10  22  42  64  87 119 161 202 240 295 364
#     4  10  22  36  54  88 120 150 194 242 290 334
#
# _framework density 22.167749000000001
#
# number of rings (size 3 to 8) (size 9 to 14) (size 15 to 20)
#    0.000    2.000    0.000    2.000    0.000   14.667 
#    0.000    0.000    0.000    0.000    0.000    0.000 
#    0.000    0.000    0.000    0.000    0.000    0.000 
#
# Total GULP energy -268480.851334 kJ/mol
# GULP energy per Si atom -5593.351069 kJ/mol
# Density = 2.211729 g / cm^3
# Si number density = 22.167749 Si / 1000 Ang^3
#
#
#
# Elastic Constant Matrix: (Units=GPa)
#
#
# Indices 1 2 3 4 5 6 
#
# 1 49.2855 4.7177 7.3728 0.0000 0.0000 0.0000
# 2 4.7177 64.4871 21.8923 0.0000 0.0000 0.0000
# 3 7.3728 21.8923 49.7291 0.0000 0.0000 0.0000
# 4 0.0000 0.0000 0.0000 -106.6403 0.0000 0.0000
# 5 0.0000 0.0000 0.0000 0.0000 32.2233 0.0000
# 6 0.0000 0.0000 0.0000 0.0000 0.0000 16.2605
#
#
#
# Elastic Compliance Matrix: (Units=1/GPa)
#
#
# Indices 1 2 3 4 5 6 
#
# 1 0.020767 -0.000557 -0.002834 0.000000 0.000000 0.000000
# 2 -0.000557 0.018247 -0.007950 0.000000 0.000000 0.000000
# 3 -0.002834 -0.007950 0.024029 0.000000 0.000000 0.000000
# 4 0.000000 0.000000 0.000000 -0.009377 0.000000 0.000000
# 5 0.000000 0.000000 0.000000 0.000000 0.031033 0.000000
# 6 0.000000 0.000000 0.000000 0.000000 0.000000 0.061499
#
#
# Mechanical properties :
#
#
# Convention : Reuss Voigt Hill
#
# Bulk Modulus (GPa) = 24.77654 25.71859 25.24757
# Shear Modulus (GPa) = 27.42233 -2.99669 12.21282
#
# Velocity S-wave (km/s) = 3.52097 -1.16394 2.34973
# Velocity P-wave (km/s) = 5.26600 3.13379 4.33309
#
# Compressibility (1/GPa) = 0.04036075
#
# Stress axis : x y z
#
# Youngs Moduli (GPa) = 48.15294 54.80450 41.61642
#
# Poissons Ratio (x) = 0.03054 0.11792
# Poissons Ratio (y) = 0.02684 0.33086
# Poissons Ratio (z) = 0.13645 0.43570
#
# Static dielectric constant tensor:
#      x y z
#    x 1.869840 0.000000 0.000000 
#    y 0.000000 1.787220 0.000000 
#    z 0.000000 0.000000 1.822450 
# 
# From -- ./inp_files/11806.got.cif
#   From: 2010.05.17/outbox.cif.g08.bks.cpg/sg54_6_cif.got.tgz:11806.got - 2010.06.03 13:09:01.
