data_PCOD9422090
_publ_section_title
;
Structure prediction by ZEFSAII (Michael W. Deem and Ramdas Pophale) SiO2 
 PCOD9422090
Probable space group: P C C A
;
_chemical_formula_sum "Si O2"
_cell_formula_units_Z 64
_cell_length_a 23.056859
_cell_length_b 15.444262
_cell_length_c 9.631481
_cell_angle_alpha 90.000000
_cell_angle_beta 90.000000
_cell_angle_gamma 90.000000
_cell_volume 3429.733508
_symmetry_space_group_name_H-M "P C C A"
_symmetry_group_IT_number 54
_symmetry_cell_setting 'orthorhombic'
loop_
_space_group_symop_operation_xyz
x,y,z
1/2-x,-y,z
1/2+x,-y,1/2-z
-x,y,1/2-z
-x,-y,-z
1/2+x,y,-z
1/2-x,y,1/2+z
x,-y,1/2+z
loop_
_atom_site_type_symbol
_atom_site_label
_atom_site_fract_x
_atom_site_fract_y
_atom_site_fract_z
Si Si1 0.384316 0.282176 0.010712
Si Si2 0.332975 0.682214 0.208431
Si Si3 0.334355 0.888147 0.521525
Si Si4 0.817441 0.974146 0.190377
Si Si5 0.705223 0.804148 0.525424
Si Si6 0.298238 0.350860 0.248721
Si Si7 0.552923 0.560348 0.955896
Si Si8 0.378148 0.507343 0.282246
O O1 0.354444 0.287608 0.859511
O O2 0.444165 0.335983 0.019943
O O3 0.384353 0.181588 0.045077
O O4 0.339979 0.322952 0.122810
O O5 0.267908 0.645094 0.203454
O O6 0.370076 0.594488 0.190323
O O7 0.328817 0.764105 0.105936
O O8 0.331776 0.952031 0.652100
O O9 0.271144 0.837446 0.512397
O O10 0.345806 0.944110 0.384477
O O11 0.823410 0.887050 0.098950
O O12 0.750000 0.000000 0.187787
O O13 0.703563 0.724323 0.634427
O O14 0.323611 0.443374 0.293424
O O15 0.603804 0.533192 0.063338
O O16 0.500000 0.500000 0.000000
O O17 0.570896 0.542693 0.798074
#
# Coordination Sequence:
#
# PCOD9422090 Si02
#       8
#     8   8   8   8   8   8   8   8
#     4  10  21  32  50  71 103 143 184 220 276 321
#     4  11  19  31  47  73 108 146 178 221 256 316
#     4  11  20  33  45  72 105 145 195 225 267 310
#     4  10  21  30  46  70 102 151 198 228 257 306
#     4  11  19  30  48  67 107 155 188 222 252 307
#     4  11  18  32  48  70 107 148 177 222 254 315
#     4  10  21  39  56  74  99 136 172 235 284 324
#     4  10  22  33  53  80 100 136 182 218 275 336
#
# _framework density 18.660342
#
# number of rings (size 3 to 8) (size 9 to 14) (size 15 to 20)
#    0.000    1.500    3.750    2.625    3.500    0.000 
#    0.000    5.000    0.000    0.000    0.000    0.000 
#    0.000    4.000    2.500    0.250    0.000    0.000 
#
# Total GULP energy -356437.560932 kJ/mol
# GULP energy per Si atom -5569.336890 kJ/mol
# Density = 1.861787 g / cm^3
# Si number density = 18.660342 Si / 1000 Ang^3
#
#
#
# Elastic Constant Matrix: (Units=GPa)
#
#
# Indices 1 2 3 4 5 6 
#
# 1 20.2401 5.3803 -1.2025 0.0000 0.0000 0.0000
# 2 5.3803 74.9712 23.0435 0.0000 0.0000 0.0000
# 3 -1.2025 23.0435 80.6262 0.0000 0.0000 0.0000
# 4 0.0000 0.0000 0.0000 42.7873 0.0000 0.0000
# 5 0.0000 0.0000 0.0000 0.0000 11.2741 0.0000
# 6 0.0000 0.0000 0.0000 0.0000 0.0000 22.7351
#
#
#
# Elastic Compliance Matrix: (Units=1/GPa)
#
#
# Indices 1 2 3 4 5 6 
#
# 1 0.050651 -0.004240 0.001967 0.000000 0.000000 0.000000
# 2 -0.004240 0.014978 -0.004344 0.000000 0.000000 0.000000
# 3 0.001967 -0.004344 0.013674 0.000000 0.000000 0.000000
# 4 0.000000 0.000000 0.000000 0.023371 0.000000 0.000000
# 5 0.000000 0.000000 0.000000 0.000000 0.088699 0.000000
# 6 0.000000 0.000000 0.000000 0.000000 0.000000 0.043985
#
#
# Mechanical properties :
#
#
# Convention : Reuss Voigt Hill
#
# Bulk Modulus (GPa) = 15.13556 25.58669 20.36113
# Shear Modulus (GPa) = 18.47653 25.26706 21.87180
#
# Velocity S-wave (km/s) = 3.15008 3.68374 3.42731
# Velocity P-wave (km/s) = 4.62162 5.64223 5.15723
#
# Compressibility (1/GPa) = 0.06606957
#
# Stress axis : x y z
#
# Youngs Moduli (GPa) = 19.74301 66.76495 73.13255
#
# Poissons Ratio (x) = 0.28306 -0.14386
# Poissons Ratio (y) = 0.08370 0.31769
# Poissons Ratio (z) = -0.03884 0.29003
#
# Static dielectric constant tensor:
#      x y z
#    x 1.634790 0.000000 0.000000 
#    y 0.000000 1.724700 0.000000 
#    z 0.000000 0.000000 1.690810 
# 
# From -- ./inp_files/5318.got.cif
#   From: 2010.05.17/outbox.cif.g08.bks.cpg/sg54_3_cif.got.tgz:5318.got - 2010.06.03 13:09:01.
