data_PCOD9422476
_publ_section_title
;
Structure prediction by ZEFSAII (Michael W. Deem and Ramdas Pophale) SiO2 
 PCOD9422476
Probable space group: P C C A
;
_chemical_formula_sum "Si O2"
_cell_formula_units_Z 40
_cell_length_a 5.079728
_cell_length_b 15.490182
_cell_length_c 25.389390
_cell_angle_alpha 90.000000
_cell_angle_beta 90.000000
_cell_angle_gamma 90.000000
_cell_volume 1997.787288
_symmetry_space_group_name_H-M "P C C A"
_symmetry_group_IT_number 54
_symmetry_cell_setting 'orthorhombic'
loop_
_space_group_symop_operation_xyz
x,y,z
1/2-x,-y,z
1/2+x,-y,1/2-z
-x,y,1/2-z
-x,-y,-z
1/2+x,y,-z
1/2-x,y,1/2+z
x,-y,1/2+z
loop_
_atom_site_type_symbol
_atom_site_label
_atom_site_fract_x
_atom_site_fract_y
_atom_site_fract_z
Si Si1 0.750000 0.500000 0.561549
Si Si2 0.501241 0.938551 0.189189
Si Si3 0.751094 0.692824 0.028893
Si Si4 0.250000 0.500000 0.634718
Si Si5 0.129678 0.675983 0.192669
Si Si6 0.870204 0.759630 0.643713
O O1 0.715731 0.588621 0.530100
O O2 0.497534 0.480445 0.597692
O O3 0.500000 0.904833 0.250000
O O4 0.454838 0.858678 0.349595
O O5 0.750000 0.000000 0.319175
O O6 0.250000 0.000000 0.314801
O O7 0.631494 0.724361 0.084191
O O8 0.545882 0.722391 0.984272
O O9 0.350439 0.580153 0.669007
O O10 0.576808 0.711051 0.317871
O O11 0.000000 0.672124 0.250000
O O12 0.926434 0.738351 0.162086
#
# Coordination Sequence:
#
# PCOD9422476 Si02
#       6
#     4   8   8   4   8   8
#     4  12  22  42  62  86 124 168 220 278 320 354
#     4  10  21  39  66  97 126 159 201 252 320 395
#     4  12  24  41  65  91 122 169 218 276 325 368
#     4  12  22  40  58  86 130 170 208 260 306 374
#     4  12  24  39  62  89 128 175 211 252 315 385
#     4  12  24  43  64  93 130 162 214 269 318 383
#
# _framework density 20.022152999999999
#
# number of rings (size 3 to 8) (size 9 to 14) (size 15 to 20)
#    0.000    0.400    4.000    6.000    0.000    4.000 
#    0.000    0.000    0.000    3.600    0.000    0.000 
#    0.000    0.000    0.000    0.000    0.000    0.000 
#
# Total GULP energy -223412.296128 kJ/mol
# GULP energy per Si atom -5585.307403 kJ/mol
# Density = 1.997658 g / cm^3
# Si number density = 20.022153 Si / 1000 Ang^3
#
#
#
# Elastic Constant Matrix: (Units=GPa)
#
#
# Indices 1 2 3 4 5 6 
#
# 1 110.1361 9.5237 26.8954 0.0000 0.0000 0.0000
# 2 9.5237 83.5839 15.8958 0.0000 0.0000 0.0000
# 3 26.8954 15.8958 66.4065 0.0000 0.0000 0.0000
# 4 0.0000 0.0000 0.0000 42.4737 0.0000 0.0000
# 5 0.0000 0.0000 0.0000 0.0000 -11.5147 0.0000
# 6 0.0000 0.0000 0.0000 0.0000 0.0000 11.4266
#
#
#
# Elastic Compliance Matrix: (Units=1/GPa)
#
#
# Indices 1 2 3 4 5 6 
#
# 1 0.010088 -0.000390 -0.003993 0.000000 0.000000 0.000000
# 2 -0.000390 0.012550 -0.002846 0.000000 0.000000 0.000000
# 3 -0.003993 -0.002846 0.017357 0.000000 0.000000 0.000000
# 4 0.000000 0.000000 0.000000 0.023544 0.000000 0.000000
# 5 0.000000 0.000000 0.000000 0.000000 -0.086845 0.000000
# 6 0.000000 0.000000 0.000000 0.000000 0.000000 0.087515
#
#
# Mechanical properties :
#
#
# Convention : Reuss Voigt Hill
#
# Bulk Modulus (GPa) = 39.15779 40.52850 39.84315
# Shear Modulus (GPa) = 57.35305 22.33120 39.84213
#
# Velocity S-wave (km/s) = 5.35789 3.34327 4.46567
# Velocity P-wave (km/s) = 7.60761 5.93204 6.82146
#
# Compressibility (1/GPa) = 0.02553770
#
# Stress axis : x y z
#
# Youngs Moduli (GPa) = 99.12380 79.68296 57.61352
#
# Poissons Ratio (x) = 0.03109 0.23002
# Poissons Ratio (y) = 0.03868 0.16397
# Poissons Ratio (z) = 0.39575 0.22678
#
# Static dielectric constant tensor:
#      x y z
#    x 1.696410 0.000000 0.000000 
#    y 0.000000 1.678490 0.000000 
#    z 0.000000 0.000000 1.753490 
# 
# From -- ./inp_files/22843.got.cif
#   From: 2010.05.17/outbox.cif.g08.bks.cpg/sg54_12_cif.got.tgz:22843.got - 2010.06.03 13:09:01.
