data_PCOD9422101
_publ_section_title
;
Structure prediction by ZEFSAII (Michael W. Deem and Ramdas Pophale) SiO2 
 PCOD9422101
Probable space group: P C C A
;
_chemical_formula_sum "Si O2"
_cell_formula_units_Z 48
_cell_length_a 7.804780
_cell_length_b 15.802211
_cell_length_c 17.285877
_cell_angle_alpha 90.000000
_cell_angle_beta 90.000000
_cell_angle_gamma 90.000000
_cell_volume 2131.915272
_symmetry_space_group_name_H-M "P C C A"
_symmetry_group_IT_number 54
_symmetry_cell_setting 'orthorhombic'
loop_
_space_group_symop_operation_xyz
x,y,z
1/2-x,-y,z
1/2+x,-y,1/2-z
-x,y,1/2-z
-x,-y,-z
1/2+x,y,-z
1/2-x,y,1/2+z
x,-y,1/2+z
loop_
_atom_site_type_symbol
_atom_site_label
_atom_site_fract_x
_atom_site_fract_y
_atom_site_fract_z
Si Si1 0.793528 0.164214 0.468542
Si Si2 0.500000 0.927730 0.250000
Si Si3 0.651230 0.812178 0.125785
Si Si4 0.059210 0.462096 0.673912
Si Si5 0.250000 0.000000 0.125453
Si Si6 0.906722 0.623559 0.613421
Si Si7 0.209693 0.649187 0.050597
O O1 0.793888 0.161844 0.562316
O O2 0.717976 0.080104 0.430095
O O3 0.687379 0.250080 0.451740
O O4 0.975769 0.174683 0.424805
O O5 0.632856 0.868216 0.202507
O O6 0.405894 0.980699 0.183740
O O7 0.655811 0.712677 0.148181
O O8 0.250000 0.500000 0.681424
O O9 0.072946 0.399662 0.602075
O O10 0.000000 0.413991 0.750000
O O11 0.927375 0.539781 0.663415
O O12 0.800447 0.612255 0.535212
O O13 0.102073 0.636332 0.584596
#
# Coordination Sequence:
#
# PCOD9422101 Si02
#       7
#     8   4   8   8   4   8   8
#     4   9  19  36  56  78 106 142 182 224 266 332
#     4  10  22  36  54  82 110 140 176 230 282 326
#     4   9  19  35  57  80 108 140 181 224 273 322
#     4  10  21  34  50  77 110 144 177 219 266 317
#     4  10  22  38  54  80 112 144 184 226 278 328
#     4   9  18  33  56  76 104 137 179 219 263 318
#     4   9  18  35  53  77 104 137 179 223 262 314
#
# _framework density 22.514965
#
# number of rings (size 3 to 8) (size 9 to 14) (size 15 to 20)
#    0.000    2.667    0.000    0.500    1.167    6.000 
#    1.500    0.000    0.000    0.000    0.000    0.000 
#    0.000    0.000    0.000    0.000    0.000    0.000 
#
# Total GULP energy -267952.307042 kJ/mol
# GULP energy per Si atom -5582.339730 kJ/mol
# Density = 2.246372 g / cm^3
# Si number density = 22.514965 Si / 1000 Ang^3
#
#
#
# Elastic Constant Matrix: (Units=GPa)
#
#
# Indices 1 2 3 4 5 6 
#
# 1 41.5451 33.9306 19.8438 0.0000 0.0000 0.0000
# 2 33.9306 64.0509 26.1336 0.0000 0.0000 0.0000
# 3 19.8438 26.1336 53.8798 0.0000 0.0000 0.0000
# 4 0.0000 0.0000 0.0000 107.2492 0.0000 0.0000
# 5 0.0000 0.0000 0.0000 0.0000 31.5192 0.0000
# 6 0.0000 0.0000 0.0000 0.0000 0.0000 3.5590
#
#
#
# Elastic Compliance Matrix: (Units=1/GPa)
#
#
# Indices 1 2 3 4 5 6 
#
# 1 0.043980 -0.020807 -0.006106 0.000000 0.000000 0.000000
# 2 -0.020807 0.029308 -0.006552 0.000000 0.000000 0.000000
# 3 -0.006106 -0.006552 0.023987 0.000000 0.000000 0.000000
# 4 0.000000 0.000000 0.000000 0.009324 0.000000 0.000000
# 5 0.000000 0.000000 0.000000 0.000000 0.031727 0.000000
# 6 0.000000 0.000000 0.000000 0.000000 0.000000 0.280981
#
#
# Mechanical properties :
#
#
# Convention : Reuss Voigt Hill
#
# Bulk Modulus (GPa) = 32.95433 35.47686 34.21559
# Shear Modulus (GPa) = 10.07349 33.77000 21.92174
#
# Velocity S-wave (km/s) = 2.11751 3.87704 3.12372
# Velocity P-wave (km/s) = 4.54388 5.98608 5.31413
#
# Compressibility (1/GPa) = 0.03034503
#
# Stress axis : x y z
#
# Youngs Moduli (GPa) = 22.73760 34.11980 41.68983
#
# Poissons Ratio (x) = 0.70993 0.25454
# Poissons Ratio (y) = 0.47310 0.27317
# Poissons Ratio (z) = 0.13883 0.22357
#
# Static dielectric constant tensor:
#      x y z
#    x 1.876370 0.000000 0.000000 
#    y 0.000000 1.845930 0.000000 
#    z 0.000000 0.000000 1.822180 
# 
# From -- ./inp_files/11749.got.cif
#   From: 2010.05.17/outbox.cif.g08.bks.cpg/sg54_6_cif.got.tgz:11749.got - 2010.06.03 13:09:01.
