data_PCOD9422634
_publ_section_title
;
Structure prediction by ZEFSAII (Michael W. Deem and Ramdas Pophale) SiO2 
 PCOD9422634
Probable space group: P C C A
;
_chemical_formula_sum "Si O2"
_cell_formula_units_Z 48
_cell_length_a 8.936698
_cell_length_b 8.214536
_cell_length_c 27.634171
_cell_angle_alpha 90.000000
_cell_angle_beta 90.000000
_cell_angle_gamma 90.000000
_cell_volume 2028.647359
_symmetry_space_group_name_H-M "P C C A"
_symmetry_group_IT_number 54
_symmetry_cell_setting 'orthorhombic'
loop_
_space_group_symop_operation_xyz
x,y,z
1/2-x,-y,z
1/2+x,-y,1/2-z
-x,y,1/2-z
-x,-y,-z
1/2+x,y,-z
1/2-x,y,1/2+z
x,-y,1/2+z
loop_
_atom_site_type_symbol
_atom_site_label
_atom_site_fract_x
_atom_site_fract_y
_atom_site_fract_z
Si Si1 0.305233 0.184721 0.312178
Si Si2 0.618470 0.886234 0.529934
Si Si3 0.650310 0.648562 0.277491
Si Si4 0.966667 0.311719 0.133806
Si Si5 0.691837 0.815981 0.430174
Si Si6 0.528131 0.690840 0.881819
O O1 0.255060 0.255307 0.260179
O O2 0.471096 0.217635 0.332906
O O3 0.201191 0.280740 0.350266
O O4 0.250000 0.000000 0.313626
O O5 0.691779 0.777812 0.487010
O O6 0.548494 0.780546 0.572319
O O7 0.750000 0.000000 0.549441
O O8 0.500000 0.000000 0.500000
O O9 0.750000 0.500000 0.295641
O O10 0.500000 0.585357 0.250000
O O11 0.572553 0.743561 0.321171
O O12 0.024954 0.208338 0.089148
O O13 0.988863 0.502078 0.123994
O O14 0.798980 0.708492 0.396710
O O15 0.750000 0.000000 0.424688
#
# Coordination Sequence:
#
# PCOD9422634 Si02
#       6
#     8   8   8   8   8   8
#     4  11  24  42  69  98 131 178 239 298 363 437
#     4  11  23  43  68 103 146 197 240 297 359 419
#     4  10  21  42  65  94 135 174 220 290 362 428
#     4  11  25  43  65  99 138 179 233 297 357 437
#     4  11  23  41  65  97 137 186 235 292 355 414
#     4  12  23  42  69 100 140 189 237 291 365 428
#
# _framework density 23.661086999999998
#
# number of rings (size 3 to 8) (size 9 to 14) (size 15 to 20)
#    0.000    1.000    3.333    5.500    2.333    1.333 
#    0.000   10.833    0.000    0.000    0.000    0.000 
#    0.000    0.000    0.000    0.000    0.000    0.000 
#
# Total GULP energy -268443.002479 kJ/mol
# GULP energy per Si atom -5592.562552 kJ/mol
# Density = 2.360723 g / cm^3
# Si number density = 23.661087 Si / 1000 Ang^3
#
#
#
# Elastic Constant Matrix: (Units=GPa)
#
#
# Indices 1 2 3 4 5 6 
#
# 1 76.2597 7.6458 30.9465 0.0000 0.0000 0.0000
# 2 7.6458 79.1467 22.2138 0.0000 0.0000 0.0000
# 3 30.9465 22.2138 91.4630 0.0000 0.0000 0.0000
# 4 0.0000 0.0000 0.0000 37.5643 0.0000 0.0000
# 5 0.0000 0.0000 0.0000 0.0000 49.4841 0.0000
# 6 0.0000 0.0000 0.0000 0.0000 0.0000 39.7991
#
#
#
# Elastic Compliance Matrix: (Units=1/GPa)
#
#
# Indices 1 2 3 4 5 6 
#
# 1 0.015200 -0.000027 -0.005136 0.000000 0.000000 0.000000
# 2 -0.000027 0.013559 -0.003284 0.000000 0.000000 0.000000
# 3 -0.005136 -0.003284 0.013469 0.000000 0.000000 0.000000
# 4 0.000000 0.000000 0.000000 0.026621 0.000000 0.000000
# 5 0.000000 0.000000 0.000000 0.000000 0.020208 0.000000
# 6 0.000000 0.000000 0.000000 0.000000 0.000000 0.025126
#
#
# Mechanical properties :
#
#
# Convention : Reuss Voigt Hill
#
# Bulk Modulus (GPa) = 39.47329 40.94238 40.20783
# Shear Modulus (GPa) = 35.83640 37.77374 36.80507
#
# Velocity S-wave (km/s) = 3.89597 3.99989 3.94827
# Velocity P-wave (km/s) = 6.07924 6.21880 6.14941
#
# Compressibility (1/GPa) = 0.02533359
#
# Stress axis : x y z
#
# Youngs Moduli (GPa) = 65.78874 73.75140 74.24500
#
# Poissons Ratio (x) = 0.00197 0.38136
# Poissons Ratio (y) = 0.00176 0.24383
# Poissons Ratio (z) = 0.33792 0.24220
#
# Static dielectric constant tensor:
#      x y z
#    x 2.028740 0.000000 0.000000 
#    y 0.000000 1.852350 0.000000 
#    z 0.000000 0.000000 1.923120 
# 
# From -- ./inp_files/27715.got.cif
#   From: 2010.05.17/outbox.cif.g08.bks.cpg/sg54_14_cif.got.tgz:27715.got - 2010.06.03 13:09:01.
