data_PCOD9422581
_publ_section_title
;
Structure prediction by ZEFSAII (Michael W. Deem and Ramdas Pophale) SiO2 
 PCOD9422581
Probable space group: P C C A
;
_chemical_formula_sum "Si O2"
_cell_formula_units_Z 28
_cell_length_a 13.959875
_cell_length_b 16.802122
_cell_length_c 5.206846
_cell_angle_alpha 90.000000
_cell_angle_beta 90.000000
_cell_angle_gamma 90.000000
_cell_volume 1221.294486
_symmetry_space_group_name_H-M "P C C A"
_symmetry_group_IT_number 54
_symmetry_cell_setting 'orthorhombic'
loop_
_space_group_symop_operation_xyz
x,y,z
1/2-x,-y,z
1/2+x,-y,1/2-z
-x,y,1/2-z
-x,-y,-z
1/2+x,y,-z
1/2-x,y,1/2+z
x,-y,1/2+z
loop_
_atom_site_type_symbol
_atom_site_label
_atom_site_fract_x
_atom_site_fract_y
_atom_site_fract_z
Si Si1 0.285876 0.089804 0.122652
Si Si2 0.000000 0.444431 0.750000
Si Si3 0.436719 0.805862 0.499467
Si Si4 0.187971 0.654060 0.090069
O O1 0.285993 0.124804 0.409211
O O2 0.250000 0.000000 0.166397
O O3 0.387806 0.106924 0.994492
O O4 0.906140 0.391173 0.804020
O O5 0.000000 0.500000 0.500000
O O6 0.500000 0.788304 0.250000
O O7 0.350156 0.743898 0.544301
O O8 0.500000 0.800230 0.750000
O O9 0.267404 0.636041 0.309112
#
# Coordination Sequence:
#
# PCOD9422581 Si02
#       4
#     8   4   8   8
#     4  10  21  41  63  91 134 179 231 293 366 431
#     4  12  28  48  74 110 156 188 242 312 352 444
#     4  12  24  42  70 103 140 185 249 311 360 434
#     4  12  26  46  76 107 146 198 244 295 371 438
#
# _framework density 22.926490999999999
#
# number of rings (size 3 to 8) (size 9 to 14) (size 15 to 20)
#    0.000    0.571    1.429    6.857    2.000    3.429 
#    0.000   17.143    0.000    0.000    0.000    0.000 
#    0.000    0.000    0.000    0.000    0.000    0.000 
#
# Total GULP energy -156096.437578 kJ/mol
# GULP energy per Si atom -5574.872771 kJ/mol
# Density = 2.287431 g / cm^3
# Si number density = 22.926491 Si / 1000 Ang^3
#
#
#
# Elastic Constant Matrix: (Units=GPa)
#
#
# Indices 1 2 3 4 5 6 
#
# 1 64.6184 31.3373 19.8156 0.0000 0.0000 0.0000
# 2 31.3373 83.6476 15.2944 0.0000 0.0000 0.0000
# 3 19.8156 15.2944 185.2805 0.0000 0.0000 0.0000
# 4 0.0000 0.0000 0.0000 29.0908 0.0000 0.0000
# 5 0.0000 0.0000 0.0000 0.0000 45.9670 0.0000
# 6 0.0000 0.0000 0.0000 0.0000 0.0000 33.3700
#
#
#
# Elastic Compliance Matrix: (Units=1/GPa)
#
#
# Indices 1 2 3 4 5 6 
#
# 1 0.019308 -0.006961 -0.001490 0.000000 0.000000 0.000000
# 2 -0.006961 0.014648 -0.000465 0.000000 0.000000 0.000000
# 3 -0.001490 -0.000465 0.005595 0.000000 0.000000 0.000000
# 4 0.000000 0.000000 0.000000 0.034375 0.000000 0.000000
# 5 0.000000 0.000000 0.000000 0.000000 0.021755 0.000000
# 6 0.000000 0.000000 0.000000 0.000000 0.000000 0.029967
#
#
# Mechanical properties :
#
#
# Convention : Reuss Voigt Hill
#
# Bulk Modulus (GPa) = 46.04303 51.82680 48.93491
# Shear Modulus (GPa) = 33.17414 39.49218 36.33316
#
# Velocity S-wave (km/s) = 3.80804 4.15487 3.98523
# Velocity P-wave (km/s) = 6.28183 6.75811 6.52432
#
# Compressibility (1/GPa) = 0.02171882
#
# Stress axis : x y z
#
# Youngs Moduli (GPa) = 51.79104 68.26993 178.73183
#
# Poissons Ratio (x) = 0.47523 0.26638
# Poissons Ratio (y) = 0.36052 0.08305
# Poissons Ratio (z) = 0.07719 0.03172
#
# Static dielectric constant tensor:
#      x y z
#    x 1.919870 0.000000 0.000000 
#    y 0.000000 2.082570 0.000000 
#    z 0.000000 0.000000 1.912410 
# 
# From -- ./inp_files/123.got.cif
#   From: 2010.05.17/outbox.cif.g08.bks.cpg/sg54_1_cif.got.tgz:123.got - 2010.06.03 13:09:01.
