data_PCOD9422038
_publ_section_title
;
Structure prediction by ZEFSAII (Michael W. Deem and Ramdas Pophale) SiO2 
 PCOD9422038
Probable space group: P C C A
;
_chemical_formula_sum "Si O2"
_cell_formula_units_Z 48
_cell_length_a 9.864799
_cell_length_b 13.817589
_cell_length_c 17.534716
_cell_angle_alpha 90.000000
_cell_angle_beta 90.000000
_cell_angle_gamma 90.000000
_cell_volume 2390.117477
_symmetry_space_group_name_H-M "P C C A"
_symmetry_group_IT_number 54
_symmetry_cell_setting 'orthorhombic'
loop_
_space_group_symop_operation_xyz
x,y,z
1/2-x,-y,z
1/2+x,-y,1/2-z
-x,y,1/2-z
-x,-y,-z
1/2+x,y,-z
1/2-x,y,1/2+z
x,-y,1/2+z
loop_
_atom_site_type_symbol
_atom_site_label
_atom_site_fract_x
_atom_site_fract_y
_atom_site_fract_z
Si Si1 0.373553 0.287527 0.202710
Si Si2 0.130246 0.564621 0.901637
Si Si3 0.291664 0.111809 0.942863
Si Si4 0.502403 0.202890 0.435908
Si Si5 0.595795 0.590909 0.931219
Si Si6 0.623495 0.762481 0.192167
O O1 0.500000 0.329599 0.250000
O O2 0.436931 0.202305 0.149958
O O3 0.323349 0.367596 0.141433
O O4 0.259007 0.251519 0.258459
O O5 0.250000 0.500000 0.865198
O O6 0.109156 0.664928 0.858323
O O7 0.992969 0.501579 0.909077
O O8 0.173414 0.583235 0.989541
O O9 0.361165 0.146930 0.864468
O O10 0.147613 0.165320 0.946006
O O11 0.250000 0.000000 0.946614
O O12 0.392434 0.148189 0.009270
O O13 0.496649 0.318457 0.449315
O O14 0.500000 0.772569 0.250000
#
# Coordination Sequence:
#
# PCOD9422038 Si02
#       6
#     8   8   8   8   8   8
#     4  10  20  42  67  90 136 182 207 269 347 400
#     4  11  21  39  62  94 130 177 225 280 317 397
#     4  12  25  47  71 103 129 174 233 286 335 408
#     4  10  23  44  74  94 133 175 221 275 340 397
#     4   9  22  36  65  92 128 175 229 259 334 395
#     4  12  26  43  65  98 143 176 222 281 339 402
#
# _framework density 20.082695000000001
#
# number of rings (size 3 to 8) (size 9 to 14) (size 15 to 20)
#    1.000    0.333    3.333    2.500    2.333    4.667 
#    3.000    0.000    0.000    0.000    0.000    0.000 
#    0.000    0.000    0.000    0.000    0.000    0.000 
#
# Total GULP energy -267703.465370 kJ/mol
# GULP energy per Si atom -5577.155529 kJ/mol
# Density = 2.003699 g / cm^3
# Si number density = 20.082695 Si / 1000 Ang^3
#
#
#
# Elastic Constant Matrix: (Units=GPa)
#
#
# Indices 1 2 3 4 5 6 
#
# 1 78.0346 19.8959 31.8098 0.0000 0.0000 0.0000
# 2 19.8959 60.2886 25.8999 0.0000 0.0000 0.0000
# 3 31.8098 25.8999 111.6945 0.0000 0.0000 0.0000
# 4 0.0000 0.0000 0.0000 4.0198 0.0000 0.0000
# 5 0.0000 0.0000 0.0000 0.0000 0.4390 0.0000
# 6 0.0000 0.0000 0.0000 0.0000 0.0000 28.7286
#
#
#
# Elastic Compliance Matrix: (Units=1/GPa)
#
#
# Indices 1 2 3 4 5 6 
#
# 1 0.015131 -0.003490 -0.003500 0.000000 0.000000 0.000000
# 2 -0.003490 0.019227 -0.003464 0.000000 0.000000 0.000000
# 3 -0.003500 -0.003464 0.010753 0.000000 0.000000 0.000000
# 4 0.000000 0.000000 0.000000 0.248768 0.000000 0.000000
# 5 0.000000 0.000000 0.000000 0.000000 2.277731 0.000000
# 6 0.000000 0.000000 0.000000 0.000000 0.000000 0.034808
#
#
# Mechanical properties :
#
#
# Convention : Reuss Voigt Hill
#
# Bulk Modulus (GPa) = 41.31794 45.02543 43.17169
# Shear Modulus (GPa) = 1.89725 18.13164 10.01444
#
# Velocity S-wave (km/s) = 0.97302 3.00800 2.23549
# Velocity P-wave (km/s) = 4.67771 5.87646 5.31101
#
# Compressibility (1/GPa) = 0.02420256
#
# Stress axis : x y z
#
# Youngs Moduli (GPa) = 66.08782 52.01041 92.99615
#
# Poissons Ratio (x) = 0.18151 0.32549
# Poissons Ratio (y) = 0.23064 0.32218
# Poissons Ratio (z) = 0.23131 0.18019
#
# Static dielectric constant tensor:
#      x y z
#    x 1.717290 0.000000 0.000000 
#    y 0.000000 1.802820 0.000000 
#    z 0.000000 0.000000 1.747540 
# 
# From -- ./inp_files/16604.got.cif
#   From: 2010.05.17/outbox.cif.g08.bks.cpg/sg54_9_cif.got.tgz:16604.got - 2010.06.03 13:09:01.
