data_PCOD9422792
_publ_section_title
;
Structure prediction by ZEFSAII (Michael W. Deem and Ramdas Pophale) SiO2 
 PCOD9422792
Probable space group: P C C A
;
_chemical_formula_sum "Si O2"
_cell_formula_units_Z 52
_cell_length_a 13.906219
_cell_length_b 9.569242
_cell_length_c 20.063442
_cell_angle_alpha 90.000000
_cell_angle_beta 90.000000
_cell_angle_gamma 90.000000
_cell_volume 2669.881851
_symmetry_space_group_name_H-M "P C C A"
_symmetry_group_IT_number 54
_symmetry_cell_setting 'orthorhombic'
loop_
_space_group_symop_operation_xyz
x,y,z
1/2-x,-y,z
1/2+x,-y,1/2-z
-x,y,1/2-z
-x,-y,-z
1/2+x,y,-z
1/2-x,y,1/2+z
x,-y,1/2+z
loop_
_atom_site_type_symbol
_atom_site_label
_atom_site_fract_x
_atom_site_fract_y
_atom_site_fract_z
Si Si1 0.546244 0.910540 0.673405
Si Si2 0.000000 0.578833 0.750000
Si Si3 0.587031 0.775309 0.157524
Si Si4 0.346080 0.417897 0.194292
Si Si5 0.981643 0.346111 0.918647
Si Si6 0.234335 0.150391 0.754085
Si Si7 0.643772 0.566379 0.042540
O O1 0.500000 0.906261 0.750000
O O2 0.505150 0.799707 0.619770
O O3 0.657826 0.872963 0.686692
O O4 0.546885 0.068749 0.645326
O O5 0.998547 0.682973 0.687677
O O6 0.905771 0.482038 0.744164
O O7 0.666592 0.795092 0.215640
O O8 0.637868 0.683503 0.100613
O O9 0.250000 0.500000 0.181449
O O10 0.422596 0.429604 0.136713
O O11 0.314127 0.260985 0.206323
O O12 0.075910 0.433870 0.938607
O O13 0.908607 0.353453 0.981091
O O14 0.250000 0.000000 0.721478
O O15 0.750000 0.500000 0.030980
#
# Coordination Sequence:
#
# PCOD9422792 Si02
#       7
#     8   4   8   8   8   8   8
#     4  11  21  38  65  94 132 165 211 271 333 392
#     4  12  22  34  60 102 124 164 214 274 338 388
#     4  11  23  39  62  93 131 168 217 268 325 394
#     4  12  22  36  62  92 131 161 212 271 331 387
#     4  11  24  42  65  94 128 172 221 267 332 389
#     4  10  22  37  59  93 128 169 204 262 330 393
#     4  11  25  44  66  91 130 177 224 273 317 394
#
# _framework density 19.476517999999999
#
# number of rings (size 3 to 8) (size 9 to 14) (size 15 to 20)
#    0.000    0.923    5.385    2.308    2.154    0.615 
#    0.000    0.000    0.000    2.769    0.000    0.000 
#    0.000    0.000    0.000    0.000    0.000    0.000 
#
# Total GULP energy -289766.105487 kJ/mol
# GULP energy per Si atom -5572.425106 kJ/mol
# Density = 1.943219 g / cm^3
# Si number density = 19.476518 Si / 1000 Ang^3
#
#
#
# Elastic Constant Matrix: (Units=GPa)
#
#
# Indices 1 2 3 4 5 6 
#
# 1 117.5133 63.2779 24.8650 0.0000 0.0000 0.0000
# 2 63.2779 128.4576 40.1777 0.0000 0.0000 0.0000
# 3 24.8650 40.1777 54.1923 0.0000 0.0000 0.0000
# 4 0.0000 0.0000 0.0000 25.8150 0.0000 0.0000
# 5 0.0000 0.0000 0.0000 0.0000 13.9989 0.0000
# 6 0.0000 0.0000 0.0000 0.0000 0.0000 103.9789
#
#
#
# Elastic Compliance Matrix: (Units=1/GPa)
#
#
# Indices 1 2 3 4 5 6 
#
# 1 0.011665 -0.005302 -0.001422 0.000000 0.000000 0.000000
# 2 -0.005302 0.012544 -0.006868 0.000000 0.000000 0.000000
# 3 -0.001422 -0.006868 0.024197 0.000000 0.000000 0.000000
# 4 0.000000 0.000000 0.000000 0.038737 0.000000 0.000000
# 5 0.000000 0.000000 0.000000 0.000000 0.071434 0.000000
# 6 0.000000 0.000000 0.000000 0.000000 0.000000 0.009617
#
#
# Mechanical properties :
#
#
# Convention : Reuss Voigt Hill
#
# Bulk Modulus (GPa) = 47.11608 61.86716 54.49162
# Shear Modulus (GPa) = 24.69720 40.21472 32.45596
#
# Velocity S-wave (km/s) = 3.56483 4.54891 4.08660
# Velocity P-wave (km/s) = 6.41777 7.70870 7.09267
#
# Compressibility (1/GPa) = 0.02122418
#
# Stress axis : x y z
#
# Youngs Moduli (GPa) = 85.72438 79.71805 41.32778
#
# Poissons Ratio (x) = 0.42263 0.05876
# Poissons Ratio (y) = 0.45448 0.28382
# Poissons Ratio (z) = 0.12189 0.54747
#
# Static dielectric constant tensor:
#      x y z
#    x 1.823900 0.000000 0.000000 
#    y 0.000000 1.747330 0.000000 
#    z 0.000000 0.000000 1.577840 
# 
# From -- ./inp_files/21529.got.cif
#   From: 2010.05.17/outbox.cif.g08.bks.cpg/sg54_11_cif.got.tgz:21529.got - 2010.06.03 13:09:01.
