data_PCOD9422627
_publ_section_title
;
Structure prediction by ZEFSAII (Michael W. Deem and Ramdas Pophale) SiO2 
 PCOD9422627
Probable space group: P C C A
;
_chemical_formula_sum "Si O2"
_cell_formula_units_Z 44
_cell_length_a 13.781984
_cell_length_b 16.452205
_cell_length_c 10.221379
_cell_angle_alpha 90.000000
_cell_angle_beta 90.000000
_cell_angle_gamma 90.000000
_cell_volume 2317.636626
_symmetry_space_group_name_H-M "P C C A"
_symmetry_group_IT_number 54
_symmetry_cell_setting 'orthorhombic'
loop_
_space_group_symop_operation_xyz
x,y,z
1/2-x,-y,z
1/2+x,-y,1/2-z
-x,y,1/2-z
-x,-y,-z
1/2+x,y,-z
1/2-x,y,1/2+z
x,-y,1/2+z
loop_
_atom_site_type_symbol
_atom_site_label
_atom_site_fract_x
_atom_site_fract_y
_atom_site_fract_z
Si Si1 0.180380 0.427340 0.349054
Si Si2 0.013099 0.065550 0.889436
Si Si3 0.327102 0.638761 0.631685
Si Si4 0.825560 0.827429 0.391928
Si Si5 0.500000 0.527446 0.750000
Si Si6 0.269837 0.096420 0.363275
O O1 0.250000 0.500000 0.393459
O O2 0.181376 0.369519 0.474696
O O3 0.234721 0.393508 0.218043
O O4 0.074305 0.466646 0.325221
O O5 0.117352 0.105669 0.897045
O O6 0.000000 0.021643 0.750000
O O7 0.931264 0.133090 0.890519
O O8 0.000000 0.000000 0.000000
O O9 0.332745 0.734927 0.653679
O O10 0.422643 0.586465 0.674813
O O11 0.759647 0.876337 0.286961
O O12 0.787321 0.847172 0.536529
O O13 0.250000 0.000000 0.378724
#
# Coordination Sequence:
#
# PCOD9422627 Si02
#       6
#     8   8   8   8   4   8
#     4  10  21  42  64  92 121 162 205 245 304 380
#     4  10  22  38  60  84 118 158 207 245 301 365
#     4  11  23  40  65  92 127 159 201 261 309 360
#     4  11  24  40  60  93 122 158 204 256 312 350
#     4  10  22  38  68  92 122 164 204 242 306 384
#     4  11  22  39  63  85 120 165 205 249 301 366
#
# _framework density 18.984857000000002
#
# number of rings (size 3 to 8) (size 9 to 14) (size 15 to 20)
#    0.000    1.455    1.818    3.818    6.364    1.455 
#    3.273    0.000    0.000    0.000    0.000    0.000 
#    0.000    0.000    0.000    0.000    0.000    0.000 
#
# Total GULP energy -245195.089282 kJ/mol
# GULP energy per Si atom -5572.615665 kJ/mol
# Density = 1.894165 g / cm^3
# Si number density = 18.984857 Si / 1000 Ang^3
#
#
#
# Elastic Constant Matrix: (Units=GPa)
#
#
# Indices 1 2 3 4 5 6 
#
# 1 97.3925 21.5825 41.0635 0.0000 0.0000 0.0000
# 2 21.5825 94.0277 32.9047 0.0000 0.0000 0.0000
# 3 41.0635 32.9047 80.2579 0.0000 0.0000 0.0000
# 4 0.0000 0.0000 0.0000 9.2949 0.0000 0.0000
# 5 0.0000 0.0000 0.0000 0.0000 17.3424 0.0000
# 6 0.0000 0.0000 0.0000 0.0000 0.0000 11.9947
#
#
#
# Elastic Compliance Matrix: (Units=1/GPa)
#
#
# Indices 1 2 3 4 5 6 
#
# 1 0.013140 -0.000774 -0.006406 0.000000 0.000000 0.000000
# 2 -0.000774 0.012462 -0.004713 0.000000 0.000000 0.000000
# 3 -0.006406 -0.004713 0.017670 0.000000 0.000000 0.000000
# 4 0.000000 0.000000 0.000000 0.107586 0.000000 0.000000
# 5 0.000000 0.000000 0.000000 0.000000 0.057662 0.000000
# 6 0.000000 0.000000 0.000000 0.000000 0.000000 0.083370
#
#
# Mechanical properties :
#
#
# Convention : Reuss Voigt Hill
#
# Bulk Modulus (GPa) = 51.31988 51.41993 51.36991
# Shear Modulus (GPa) = 15.51966 19.46822 17.49394
#
# Velocity S-wave (km/s) = 2.86226 3.20576 3.03886
# Velocity P-wave (km/s) = 6.16555 6.39109 6.27933
#
# Compressibility (1/GPa) = 0.01948563
#
# Stress axis : x y z
#
# Youngs Moduli (GPa) = 76.10281 80.24216 56.59466
#
# Poissons Ratio (x) = 0.06215 0.36252
# Poissons Ratio (y) = 0.05894 0.26674
# Poissons Ratio (z) = 0.48748 0.37819
#
# Static dielectric constant tensor:
#      x y z
#    x 1.665770 0.000000 0.000000 
#    y 0.000000 1.624950 0.000000 
#    z 0.000000 0.000000 1.778440 
# 
# From -- ./inp_files/3538.got.cif
#   From: 2010.05.17/outbox.cif.g08.bks.cpg/sg54_2_cif.got.tgz:3538.got - 2010.06.03 13:09:01.
