data_PCOD9422135
_publ_section_title
;
Structure prediction by ZEFSAII (Michael W. Deem and Ramdas Pophale) SiO2 
 PCOD9422135
Probable space group: P C C A
;
_chemical_formula_sum "Si O2"
_cell_formula_units_Z 40
_cell_length_a 16.244179
_cell_length_b 11.296709
_cell_length_c 9.054235
_cell_angle_alpha 90.000000
_cell_angle_beta 90.000000
_cell_angle_gamma 90.000000
_cell_volume 1661.504303
_symmetry_space_group_name_H-M "P C C A"
_symmetry_group_IT_number 54
_symmetry_cell_setting 'orthorhombic'
loop_
_space_group_symop_operation_xyz
x,y,z
1/2-x,-y,z
1/2+x,-y,1/2-z
-x,y,1/2-z
-x,-y,-z
1/2+x,y,-z
1/2-x,y,1/2+z
x,-y,1/2+z
loop_
_atom_site_type_symbol
_atom_site_label
_atom_site_fract_x
_atom_site_fract_y
_atom_site_fract_z
Si Si1 0.791996 0.345384 0.022964
Si Si2 0.406812 0.337614 0.468857
Si Si3 0.925491 0.082257 0.642620
Si Si4 0.880249 0.488256 0.278787
Si Si5 0.669621 0.082257 0.432943
O O1 0.693181 0.336414 0.020491
O O2 0.823345 0.405571 0.173964
O O3 0.821456 0.211751 0.001552
O O4 0.829885 0.426687 0.892362
O O5 0.439696 0.207679 0.437100
O O6 0.424543 0.423014 0.332677
O O7 0.433338 0.400649 0.619149
O O8 0.000000 0.050602 0.750000
O O9 0.900914 0.985704 0.523202
O O10 0.850869 0.096932 0.760017
O O11 0.750000 0.000000 0.447140
#
# Coordination Sequence:
#
# PCOD9422135 Si02
#       5
#     8   8   8   8   8
#     4  11  20  37  65 104 131 166 222 287 333 387
#     4  11  20  37  63  94 134 170 220 277 336 401
#     4  12  28  47  66  97 143 185 223 280 352 408
#     4  10  21  35  64 102 134 168 218 285 344 386
#     4  12  26  45  73 102 131 176 238 285 327 401
#
# _framework density 24.074567999999999
#
# number of rings (size 3 to 8) (size 9 to 14) (size 15 to 20)
#    0.000    0.800    4.000    6.000    2.800    0.000 
#    0.000    1.000    0.000    0.000    0.000    0.000 
#    0.000    0.000    0.000    0.000    0.000    0.000 
#
# Total GULP energy -224207.144296 kJ/mol
# GULP energy per Si atom -5605.178607 kJ/mol
# Density = 2.401977 g / cm^3
# Si number density = 24.074568 Si / 1000 Ang^3
#
#
#
# Elastic Constant Matrix: (Units=GPa)
#
#
# Indices 1 2 3 4 5 6 
#
# 1 49.0011 24.3077 23.3954 0.0000 0.0000 0.0000
# 2 24.3077 181.5371 72.5226 0.0000 0.0000 0.0000
# 3 23.3954 72.5226 165.0085 0.0000 0.0000 0.0000
# 4 0.0000 0.0000 0.0000 36.5583 0.0000 0.0000
# 5 0.0000 0.0000 0.0000 0.0000 25.2428 0.0000
# 6 0.0000 0.0000 0.0000 0.0000 0.0000 22.8660
#
#
#
# Elastic Compliance Matrix: (Units=1/GPa)
#
#
# Indices 1 2 3 4 5 6 
#
# 1 0.022538 -0.002112 -0.002267 0.000000 0.000000 0.000000
# 2 -0.002112 0.006880 -0.002724 0.000000 0.000000 0.000000
# 3 -0.002267 -0.002724 0.007579 0.000000 0.000000 0.000000
# 4 0.000000 0.000000 0.000000 0.027354 0.000000 0.000000
# 5 0.000000 0.000000 0.000000 0.000000 0.039615 0.000000
# 6 0.000000 0.000000 0.000000 0.000000 0.000000 0.043733
#
#
# Mechanical properties :
#
#
# Convention : Reuss Voigt Hill
#
# Bulk Modulus (GPa) = 43.87969 70.66645 57.27307
# Shear Modulus (GPa) = 29.49817 35.28814 32.39315
#
# Velocity S-wave (km/s) = 3.50420 3.83271 3.67213
# Velocity P-wave (km/s) = 5.88547 7.00022 6.46691
#
# Compressibility (1/GPa) = 0.02278959
#
# Stress axis : x y z
#
# Youngs Moduli (GPa) = 44.36973 145.35698 131.94260
#
# Poissons Ratio (x) = 0.30700 0.29914
# Poissons Ratio (y) = 0.09371 0.35944
# Poissons Ratio (z) = 0.10060 0.39598
#
# Static dielectric constant tensor:
#      x y z
#    x 2.046910 0.000000 0.000000 
#    y 0.000000 1.854490 0.000000 
#    z 0.000000 0.000000 1.889590 
# 
# From -- ./inp_files/3945.got.cif
#   From: 2010.05.17/outbox.cif.g08.bks.cpg/sg54_2_cif.got.tgz:3945.got - 2010.06.03 13:09:01.
