data_PCOD9422162
_publ_section_title
;
Structure prediction by ZEFSAII (Michael W. Deem and Ramdas Pophale) SiO2 
 PCOD9422162
Probable space group: P C C A
;
_chemical_formula_sum "Si O2"
_cell_formula_units_Z 56
_cell_length_a 5.150600
_cell_length_b 29.266674
_cell_length_c 18.115414
_cell_angle_alpha 90.000000
_cell_angle_beta 90.000000
_cell_angle_gamma 90.000000
_cell_volume 2730.734374
_symmetry_space_group_name_H-M "P C C A"
_symmetry_group_IT_number 54
_symmetry_cell_setting 'orthorhombic'
loop_
_space_group_symop_operation_xyz
x,y,z
1/2-x,-y,z
1/2+x,-y,1/2-z
-x,y,1/2-z
-x,-y,-z
1/2+x,y,-z
1/2-x,y,1/2+z
x,-y,1/2+z
loop_
_atom_site_type_symbol
_atom_site_label
_atom_site_fract_x
_atom_site_fract_y
_atom_site_fract_z
Si Si1 0.621273 0.713935 0.046568
Si Si2 0.262191 0.760315 0.798853
Si Si3 0.500468 0.469169 0.662750
Si Si4 0.621476 0.604513 0.044853
Si Si5 0.020770 0.087369 0.453433
Si Si6 0.808711 0.859408 0.687472
Si Si7 0.250000 0.000000 0.872726
Si Si8 0.000000 0.056488 0.750000
O O1 0.699642 0.736379 0.123711
O O2 0.616755 0.659037 0.056310
O O3 0.339672 0.726606 0.014242
O O4 0.500000 0.741528 0.750000
O O5 0.352157 0.812853 0.821286
O O6 0.000000 0.755264 0.750000
O O7 0.750000 0.500000 0.646592
O O8 0.500000 0.458761 0.750000
O O9 0.528585 0.423613 0.615307
O O10 0.250000 0.500000 0.645349
O O11 0.412347 0.593027 0.981010
O O12 0.224586 0.092023 0.520781
O O13 0.079603 0.124303 0.390282
O O14 0.102328 0.038112 0.420224
O O15 0.711582 0.906052 0.726353
O O16 0.000000 0.842808 0.750000
O O17 0.032620 0.023027 0.819668
#
# Coordination Sequence:
#
# PCOD9422162 Si02
#       8
#     8   8   8   8   8   8   4   4
#     4  10  22  41  63  92 129 167 205 257 322 385
#     4  11  23  41  67  97 124 159 209 263 312 376
#     4  10  21  36  54  82 120 162 207 261 318 367
#     4  10  21  37  58  85 119 160 209 257 305 370
#     4  11  26  42  61  90 124 156 194 246 298 353
#     4  10  24  42  67  88 125 158 207 250 303 365
#     4  10  24  36  66  84 124 156 204 238 300 352
#     4  10  22  40  60  94 112 162 204 246 292 362
#
# _framework density 20.507301999999999
#
# number of rings (size 3 to 8) (size 9 to 14) (size 15 to 20)
#    0.000    1.714    0.714    2.143    8.000    3.429 
#    0.000    2.143    0.000    0.000    0.000    0.000 
#    0.000    0.000    0.000    0.000    0.000    0.000 
#
# Total GULP energy -312098.464951 kJ/mol
# GULP energy per Si atom -5573.186874 kJ/mol
# Density = 2.046063 g / cm^3
# Si number density = 20.507302 Si / 1000 Ang^3
#
#
#
# Elastic Constant Matrix: (Units=GPa)
#
#
# Indices 1 2 3 4 5 6 
#
# 1 86.0936 26.1089 19.7428 0.0000 0.0000 0.0000
# 2 26.1089 55.7403 46.4865 0.0000 0.0000 0.0000
# 3 19.7428 46.4865 85.9765 0.0000 0.0000 0.0000
# 4 0.0000 0.0000 0.0000 95.0144 0.0000 0.0000
# 5 0.0000 0.0000 0.0000 0.0000 26.0589 0.0000
# 6 0.0000 0.0000 0.0000 0.0000 0.0000 -65.9239
#
#
#
# Elastic Compliance Matrix: (Units=1/GPa)
#
#
# Indices 1 2 3 4 5 6 
#
# 1 0.013554 -0.006835 0.000583 0.000000 0.000000 0.000000
# 2 -0.006835 0.036121 -0.017960 0.000000 0.000000 0.000000
# 3 0.000583 -0.017960 0.021208 0.000000 0.000000 0.000000
# 4 0.000000 0.000000 0.000000 0.010525 0.000000 0.000000
# 5 0.000000 0.000000 0.000000 0.000000 0.038375 0.000000
# 6 0.000000 0.000000 0.000000 0.000000 0.000000 -0.015169
#
#
# Mechanical properties :
#
#
# Convention : Reuss Voigt Hill
#
# Bulk Modulus (GPa) = 44.52707 45.83186 45.17946
# Shear Modulus (GPa) = 31.14783 20.06135 25.60459
#
# Velocity S-wave (km/s) = 3.90149 3.13110 3.53733
# Velocity P-wave (km/s) = 6.48502 5.95561 6.22594
#
# Compressibility (1/GPa) = 0.02245825
#
# Stress axis : x y z
#
# Youngs Moduli (GPa) = 73.77675 27.68492 47.15167
#
# Poissons Ratio (x) = 0.18924 -0.02750
# Poissons Ratio (y) = 0.50429 0.84687
# Poissons Ratio (z) = -0.04303 0.49723
#
# Static dielectric constant tensor:
#      x y z
#    x 1.778430 0.000000 0.000000 
#    y 0.000000 1.849680 0.000000 
#    z 0.000000 0.000000 1.512710 
# 
# From -- ./inp_files/11015.got.cif
#   From: 2010.05.17/outbox.cif.g08.bks.cpg/sg54_6_cif.got.tgz:11015.got - 2010.06.03 13:09:01.
