data_PCOD9422308
_publ_section_title
;
Structure prediction by ZEFSAII (Michael W. Deem and Ramdas Pophale) SiO2 
 PCOD9422308
Probable space group: P C C A
;
_chemical_formula_sum "Si O2"
_cell_formula_units_Z 32
_cell_length_a 4.917445
_cell_length_b 24.566059
_cell_length_c 11.669585
_cell_angle_alpha 90.000000
_cell_angle_beta 90.000000
_cell_angle_gamma 90.000000
_cell_volume 1409.712055
_symmetry_space_group_name_H-M "P C C A"
_symmetry_group_IT_number 54
_symmetry_cell_setting 'orthorhombic'
loop_
_space_group_symop_operation_xyz
x,y,z
1/2-x,-y,z
1/2+x,-y,1/2-z
-x,y,1/2-z
-x,-y,-z
1/2+x,y,-z
1/2-x,y,1/2+z
x,-y,1/2+z
loop_
_atom_site_type_symbol
_atom_site_label
_atom_site_fract_x
_atom_site_fract_y
_atom_site_fract_z
Si Si1 0.941588 0.630891 0.424716
Si Si2 0.500000 0.276086 0.250000
Si Si3 0.000000 0.203593 0.250000
Si Si4 0.234466 0.117714 0.580452
Si Si5 0.750000 0.000000 0.913577
Si Si6 0.500000 0.537162 0.750000
O O1 0.252477 0.631095 0.464730
O O2 0.888708 0.684083 0.348564
O O3 0.894468 0.577260 0.349368
O O4 0.246805 0.240798 0.296185
O O5 0.156956 0.165425 0.159842
O O6 0.429173 0.120151 0.468047
O O7 0.258754 0.058990 0.644508
O O8 0.500000 0.000000 0.000000
O O9 0.250000 0.500000 0.789566
#
# Coordination Sequence:
#
# PCOD9422308 Si02
#       6
#     8   4   4   8   4   4
#     4  11  24  43  66  90 123 171 210 244 305 364
#     4  11  26  42  59  89 124 156 209 264 296 354
#     4  12  24  39  61  91 119 156 206 256 312 362
#     4  10  21  38  59  85 117 152 193 244 302 366
#     4   8  16  34  56  78 110 146 182 232 292 358
#     4  11  24  41  64 100 135 158 201 260 298 354
#
# _framework density 22.699669
#
# number of rings (size 3 to 8) (size 9 to 14) (size 15 to 20)
#    0.000    1.500    0.000    4.500    0.000   13.000 
#    0.000    8.750    0.000    0.000    0.000    0.000 
#    0.000    0.000    0.000    0.000    0.000    0.000 
#
# Total GULP energy -178855.462222 kJ/mol
# GULP energy per Si atom -5589.233194 kJ/mol
# Density = 2.264800 g / cm^3
# Si number density = 22.699669 Si / 1000 Ang^3
#
#
#
# Elastic Constant Matrix: (Units=GPa)
#
#
# Indices 1 2 3 4 5 6 
#
# 1 95.0729 15.8345 -16.8804 0.0000 0.0000 0.0000
# 2 15.8345 135.7102 22.0448 0.0000 0.0000 0.0000
# 3 -16.8804 22.0448 32.1163 0.0000 0.0000 0.0000
# 4 0.0000 0.0000 0.0000 -1.5844 0.0000 0.0000
# 5 0.0000 0.0000 0.0000 0.0000 36.4111 0.0000
# 6 0.0000 0.0000 0.0000 0.0000 0.0000 17.7045
#
#
#
# Elastic Compliance Matrix: (Units=1/GPa)
#
#
# Indices 1 2 3 4 5 6 
#
# 1 0.012506 -0.002844 0.008525 0.000000 0.000000 0.000000
# 2 -0.002844 0.008940 -0.007631 0.000000 0.000000 0.000000
# 3 0.008525 -0.007631 0.040856 0.000000 0.000000 0.000000
# 4 0.000000 0.000000 0.000000 -0.631164 0.000000 0.000000
# 5 0.000000 0.000000 0.000000 0.000000 0.027464 0.000000
# 6 0.000000 0.000000 0.000000 0.000000 0.000000 0.056483
#
#
# Mechanical properties :
#
#
# Convention : Reuss Voigt Hill
#
# Bulk Modulus (GPa) = 17.12302 33.87749 25.50025
# Shear Modulus (GPa) = -10.83310 26.63294 7.89992
#
# Velocity S-wave (km/s) = -2.18694 3.42903 1.86755
# Velocity P-wave (km/s) = 1.08752 5.53482 3.98854
#
# Compressibility (1/GPa) = 0.05840090
#
# Stress axis : x y z
#
# Youngs Moduli (GPa) = 79.96459 111.85560 24.47638
#
# Poissons Ratio (x) = 0.31811 -0.20866
# Poissons Ratio (y) = 0.22741 0.18679
# Poissons Ratio (z) = -0.68170 0.85360
#
# Static dielectric constant tensor:
#      x y z
#    x 2.757680 0.000000 0.000000 
#    y 0.000000 1.866850 0.000000 
#    z 0.000000 0.000000 1.819540 
# 
# From -- ./inp_files/6311.got.cif
#   From: 2010.05.17/outbox.cif.g08.bks.cpg/sg54_4_cif.got.tgz:6311.got - 2010.06.03 13:09:01.
