data_PCOD9422858
_publ_section_title
;
Structure prediction by ZEFSAII (Michael W. Deem and Ramdas Pophale) SiO2 
 PCOD9422858
Probable space group: P C C A
;
_chemical_formula_sum "Si O2"
_cell_formula_units_Z 48
_cell_length_a 9.111296
_cell_length_b 18.938237
_cell_length_c 13.898481
_cell_angle_alpha 90.000000
_cell_angle_beta 90.000000
_cell_angle_gamma 90.000000
_cell_volume 2398.209068
_symmetry_space_group_name_H-M "P C C A"
_symmetry_group_IT_number 54
_symmetry_cell_setting 'orthorhombic'
loop_
_space_group_symop_operation_xyz
x,y,z
1/2-x,-y,z
1/2+x,-y,1/2-z
-x,y,1/2-z
-x,-y,-z
1/2+x,y,-z
1/2-x,y,1/2+z
x,-y,1/2+z
loop_
_atom_site_type_symbol
_atom_site_label
_atom_site_fract_x
_atom_site_fract_y
_atom_site_fract_z
Si Si1 0.084130 0.900899 0.149141
Si Si2 0.017425 0.611244 0.458107
Si Si3 0.580938 0.473935 0.849290
Si Si4 0.926196 0.058055 0.352886
Si Si5 0.757329 0.709643 0.519348
Si Si6 0.494830 0.809517 0.471418
O O1 0.257666 0.916344 0.160166
O O2 0.000000 0.891136 0.250000
O O3 0.042418 0.978948 0.109071
O O4 0.046234 0.835247 0.079755
O O5 0.997516 0.542749 0.394044
O O6 0.871464 0.659630 0.461355
O O7 0.059436 0.585226 0.566937
O O8 0.153245 0.657650 0.421793
O O9 0.750000 0.500000 0.836466
O O10 0.500000 0.454161 0.750000
O O11 0.000000 0.058992 0.250000
O O12 0.994297 0.117483 0.418147
O O13 0.640383 0.761351 0.467427
O O14 0.865319 0.762691 0.572704
#
# Coordination Sequence:
#
# PCOD9422858 Si02
#       6
#     8   8   8   8   8   8
#     4  10  22  39  60  87 117 154 204 258 305 349
#     4  10  22  45  63  88 130 156 194 246 296 342
#     4  11  24  40  69  97 119 155 203 243 290 346
#     4  10  22  39  60  87 117 154 204 258 305 349
#     4  10  22  39  65  84 122 168 194 238 298 360
#     4  11  21  41  61  87 119 160 206 242 297 363
#
# _framework density 20.014934
#
# number of rings (size 3 to 8) (size 9 to 14) (size 15 to 20)
#    0.000    1.667    3.333    0.500    4.667    0.000 
#    0.000   10.000    0.000    0.000    0.000    0.000 
#    0.000    0.000    0.000    0.000    0.000    0.000 
#
# Total GULP energy -267318.892187 kJ/mol
# GULP energy per Si atom -5569.143587 kJ/mol
# Density = 1.996938 g / cm^3
# Si number density = 20.014934 Si / 1000 Ang^3
#
#
#
# Elastic Constant Matrix: (Units=GPa)
#
#
# Indices 1 2 3 4 5 6 
#
# 1 90.1962 41.1840 18.8475 0.0000 0.0000 0.0000
# 2 41.1840 98.2790 18.1887 0.0000 0.0000 0.0000
# 3 18.8475 18.1887 67.0518 0.0000 0.0000 0.0000
# 4 0.0000 0.0000 0.0000 9.1728 0.0000 0.0000
# 5 0.0000 0.0000 0.0000 0.0000 8.3634 0.0000
# 6 0.0000 0.0000 0.0000 0.0000 0.0000 44.5227
#
#
#
# Elastic Compliance Matrix: (Units=1/GPa)
#
#
# Indices 1 2 3 4 5 6 
#
# 1 0.014093 -0.005446 -0.002484 0.000000 0.000000 0.000000
# 2 -0.005446 0.012817 -0.001946 0.000000 0.000000 0.000000
# 3 -0.002484 -0.001946 0.016140 0.000000 0.000000 0.000000
# 4 0.000000 0.000000 0.000000 0.109018 0.000000 0.000000
# 5 0.000000 0.000000 0.000000 0.000000 0.119569 0.000000
# 6 0.000000 0.000000 0.000000 0.000000 0.000000 0.022460
#
#
# Mechanical properties :
#
#
# Convention : Reuss Voigt Hill
#
# Bulk Modulus (GPa) = 42.92207 45.77414 44.34811
# Shear Modulus (GPa) = 15.54653 24.23225 19.88939
#
# Velocity S-wave (km/s) = 2.79004 3.48330 3.15576
# Velocity P-wave (km/s) = 5.64541 6.25280 5.95685
#
# Compressibility (1/GPa) = 0.02329804
#
# Stress axis : x y z
#
# Youngs Moduli (GPa) = 70.95938 78.01922 61.95798
#
# Poissons Ratio (x) = 0.42488 0.15390
# Poissons Ratio (y) = 0.38643 0.12058
# Poissons Ratio (z) = 0.17626 0.15183
#
# Static dielectric constant tensor:
#      x y z
#    x 1.754730 0.000000 0.000000 
#    y 0.000000 1.715540 0.000000 
#    z 0.000000 0.000000 1.677560 
# 
# From -- ./inp_files/11711.got.cif
#   From: 2010.05.17/outbox.cif.g08.bks.cpg/sg54_6_cif.got.tgz:11711.got - 2010.06.03 13:09:01.
