data_PCOD9422167
_publ_section_title
;
Structure prediction by ZEFSAII (Michael W. Deem and Ramdas Pophale) SiO2 
 PCOD9422167
Probable space group: P C C A
;
_chemical_formula_sum "Si O2"
_cell_formula_units_Z 60
_cell_length_a 14.821445
_cell_length_b 7.416366
_cell_length_c 23.955395
_cell_angle_alpha 90.000000
_cell_angle_beta 90.000000
_cell_angle_gamma 90.000000
_cell_volume 2633.207221
_symmetry_space_group_name_H-M "P C C A"
_symmetry_group_IT_number 54
_symmetry_cell_setting 'orthorhombic'
loop_
_space_group_symop_operation_xyz
x,y,z
1/2-x,-y,z
1/2+x,-y,1/2-z
-x,y,1/2-z
-x,-y,-z
1/2+x,y,-z
1/2-x,y,1/2+z
x,-y,1/2+z
loop_
_atom_site_type_symbol
_atom_site_label
_atom_site_fract_x
_atom_site_fract_y
_atom_site_fract_z
Si Si1 0.012273 0.207967 0.683920
Si Si2 0.324772 0.159130 0.351715
Si Si3 0.058357 0.483428 0.110450
Si Si4 0.795833 0.810240 0.273006
Si Si5 0.750000 0.500000 0.345405
Si Si6 0.277830 0.787821 0.973927
Si Si7 0.563418 0.867395 0.441581
Si Si8 0.410640 0.249941 0.022166
O O1 0.931123 0.101588 0.652906
O O2 0.000000 0.206287 0.750000
O O3 0.006480 0.409334 0.658346
O O4 0.117868 0.159097 0.686491
O O5 0.314134 0.254517 0.290989
O O6 0.307924 0.260192 0.410689
O O7 0.250000 0.000000 0.352244
O O8 0.163175 0.529622 0.118026
O O9 0.053655 0.269118 0.109722
O O10 0.037741 0.587919 0.052854
O O11 0.734575 0.667855 0.304846
O O12 0.750000 0.000000 0.267078
O O13 0.250000 0.000000 0.971950
O O14 0.359739 0.781968 0.017734
O O15 0.186982 0.697272 0.997869
O O16 0.468201 0.838461 0.472388
O O17 0.590399 0.076526 0.435671
#
# Coordination Sequence:
#
# PCOD9422167 Si02
#       8
#     8   8   8   8   4   8   8   8
#     4   9  19  36  59  86 117 151 193 247 295 343
#     4   9  17  34  61  85 112 155 192 232 296 352
#     4  11  21  36  59  80 112 154 189 228 286 344
#     4   9  19  37  60  84 114 150 191 240 293 345
#     4  10  22  36  52  82 114 146 192 238 276 334
#     4   9  18  34  55  82 115 147 187 236 282 338
#     4  10  21  37  56  81 114 147 186 231 283 342
#     4  10  21  36  55  83 114 145 186 238 281 336
#
# _framework density 22.785900999999999
#
# number of rings (size 3 to 8) (size 9 to 14) (size 15 to 20)
#    0.000    2.400    0.000    2.000    0.000    3.200 
#    0.000    6.000    0.000   28.000    0.000    0.000 
#    0.000    0.000    0.000    0.000    0.000    0.000 
#
# Total GULP energy -334131.438291 kJ/mol
# GULP energy per Si atom -5568.857305 kJ/mol
# Density = 2.273404 g / cm^3
# Si number density = 22.785901 Si / 1000 Ang^3
#
#
#
# Elastic Constant Matrix: (Units=GPa)
#
#
# Indices 1 2 3 4 5 6 
#
# 1 89.9484 -5.2568 4.0737 0.0000 0.0000 0.0000
# 2 -5.2568 53.1400 -3.8874 0.0000 0.0000 0.0000
# 3 4.0737 -3.8874 32.6743 0.0000 0.0000 0.0000
# 4 0.0000 0.0000 0.0000 35.6590 0.0000 0.0000
# 5 0.0000 0.0000 0.0000 0.0000 23.0824 0.0000
# 6 0.0000 0.0000 0.0000 0.0000 0.0000 20.5334
#
#
#
# Elastic Compliance Matrix: (Units=1/GPa)
#
#
# Indices 1 2 3 4 5 6 
#
# 1 0.011235 0.001018 -0.001280 0.000000 0.000000 0.000000
# 2 0.001018 0.019076 0.002143 0.000000 0.000000 0.000000
# 3 -0.001280 0.002143 0.031020 0.000000 0.000000 0.000000
# 4 0.000000 0.000000 0.000000 0.028043 0.000000 0.000000
# 5 0.000000 0.000000 0.000000 0.000000 0.043323 0.000000
# 6 0.000000 0.000000 0.000000 0.000000 0.000000 0.048701
#
#
# Mechanical properties :
#
#
# Convention : Reuss Voigt Hill
#
# Bulk Modulus (GPa) = 15.36297 18.40241 16.88269
# Shear Modulus (GPa) = 25.08359 27.91049 26.49704
#
# Velocity S-wave (km/s) = 3.32149 3.50366 3.41379
# Velocity P-wave (km/s) = 4.63321 4.94583 4.79207
#
# Compressibility (1/GPa) = 0.06509160
#
# Stress axis : x y z
#
# Youngs Moduli (GPa) = 89.00817 52.42286 32.23778
#
# Poissons Ratio (x) = -0.05336 0.04125
# Poissons Ratio (y) = -0.09059 -0.06907
# Poissons Ratio (z) = 0.11390 -0.11232
#
# Static dielectric constant tensor:
#      x y z
#    x 1.921100 0.000000 0.000000 
#    y 0.000000 1.862550 0.000000 
#    z 0.000000 0.000000 1.927240 
# 
# From -- ./inp_files/24478.got.cif
#   From: 2010.05.17/outbox.cif.g08.bks.cpg/sg54_13_cif.got.tgz:24478.got - 2010.06.03 13:09:01.
