data_PCOD9422052
_publ_section_title
;
Structure prediction by ZEFSAII (Michael W. Deem and Ramdas Pophale) SiO2 
 PCOD9422052
Probable space group: P C C A
;
_chemical_formula_sum "Si O2"
_cell_formula_units_Z 32
_cell_length_a 8.057769
_cell_length_b 8.380426
_cell_length_c 21.031596
_cell_angle_alpha 90.000000
_cell_angle_beta 90.000000
_cell_angle_gamma 90.000000
_cell_volume 1420.211873
_symmetry_space_group_name_H-M "P C C A"
_symmetry_group_IT_number 54
_symmetry_cell_setting 'orthorhombic'
loop_
_space_group_symop_operation_xyz
x,y,z
1/2-x,-y,z
1/2+x,-y,1/2-z
-x,y,1/2-z
-x,-y,-z
1/2+x,y,-z
1/2-x,y,1/2+z
x,-y,1/2+z
loop_
_atom_site_type_symbol
_atom_site_label
_atom_site_fract_x
_atom_site_fract_y
_atom_site_fract_z
Si Si1 0.000000 0.264363 0.750000
Si Si2 0.845347 0.829244 0.014959
Si Si3 0.437458 0.714788 0.401532
Si Si4 0.250000 0.500000 0.808235
Si Si5 0.943079 0.955423 0.370559
O O1 0.838429 0.369625 0.735226
O O2 0.973534 0.158321 0.811890
O O3 0.721165 0.717202 0.052740
O O4 0.992644 0.871646 0.064589
O O5 0.750000 0.000000 0.007306
O O6 0.911238 0.741090 0.951729
O O7 0.397504 0.575106 0.352149
O O8 0.449805 0.882504 0.363986
O O9 0.750000 0.000000 0.371887
#
# Coordination Sequence:
#
# PCOD9422052 Si02
#       5
#     4   8   8   4   8
#     4  12  30  50  68  98 142 196 242 294 340 428
#     4  10  20  42  72 110 141 173 240 294 350 414
#     4  11  23  44  73 106 141 182 230 299 354 427
#     4  12  30  50  64 104 148 186 236 294 362 418
#     4  11  24  43  76 103 132 190 242 287 344 417
#
# _framework density 22.531849000000001
#
# number of rings (size 3 to 8) (size 9 to 14) (size 15 to 20)
#    0.000    1.000    2.500    5.250    7.000    1.000 
#    0.000    0.000    0.000    0.000    0.000    0.000 
#    0.000    0.000    0.000    0.000    0.000    0.000 
#
# Total GULP energy -178779.926919 kJ/mol
# GULP energy per Si atom -5586.872716 kJ/mol
# Density = 2.248057 g / cm^3
# Si number density = 22.531849 Si / 1000 Ang^3
#
#
#
# Elastic Constant Matrix: (Units=GPa)
#
#
# Indices 1 2 3 4 5 6 
#
# 1 94.1675 17.6682 41.2260 0.0000 0.0000 0.0000
# 2 17.6682 71.6424 61.3127 0.0000 0.0000 0.0000
# 3 41.2260 61.3127 135.2161 0.0000 0.0000 0.0000
# 4 0.0000 0.0000 0.0000 13.3920 0.0000 0.0000
# 5 0.0000 0.0000 0.0000 0.0000 16.7152 0.0000
# 6 0.0000 0.0000 0.0000 0.0000 0.0000 34.6965
#
#
#
# Elastic Compliance Matrix: (Units=1/GPa)
#
#
# Indices 1 2 3 4 5 6 
#
# 1 0.012259 0.000287 -0.003868 0.000000 0.000000 0.000000
# 2 0.000287 0.022817 -0.010433 0.000000 0.000000 0.000000
# 3 -0.003868 -0.010433 0.013306 0.000000 0.000000 0.000000
# 4 0.000000 0.000000 0.000000 0.074671 0.000000 0.000000
# 5 0.000000 0.000000 0.000000 0.000000 0.059826 0.000000
# 6 0.000000 0.000000 0.000000 0.000000 0.000000 0.028821
#
#
# Mechanical properties :
#
#
# Convention : Reuss Voigt Hill
#
# Bulk Modulus (GPa) = 49.13401 60.15998 54.64699
# Shear Modulus (GPa) = 20.28297 25.01536 22.64916
#
# Velocity S-wave (km/s) = 3.00357 3.33561 3.17394
# Velocity P-wave (km/s) = 5.82086 6.44927 6.14310
#
# Compressibility (1/GPa) = 0.02035250
#
# Stress axis : x y z
#
# Youngs Moduli (GPa) = 81.57413 43.82778 75.15576
#
# Poissons Ratio (x) = -0.01257 0.29067
# Poissons Ratio (y) = -0.02339 0.78413
# Poissons Ratio (z) = 0.31550 0.45727
#
# Static dielectric constant tensor:
#      x y z
#    x 1.885960 0.000000 0.000000 
#    y 0.000000 1.843400 0.000000 
#    z 0.000000 0.000000 1.844910 
# 
# From -- ./inp_files/20083.got.cif
#   From: 2010.05.17/outbox.cif.g08.bks.cpg/sg54_11_cif.got.tgz:20083.got - 2010.06.03 13:09:01.
