data_PCOD9422460
_publ_section_title
;
Structure prediction by ZEFSAII (Michael W. Deem and Ramdas Pophale) SiO2 
 PCOD9422460
Probable space group: P C C A
;
_chemical_formula_sum "Si O2"
_cell_formula_units_Z 24
_cell_length_a 4.983541
_cell_length_b 7.786149
_cell_length_c 26.604689
_cell_angle_alpha 90.000000
_cell_angle_beta 90.000000
_cell_angle_gamma 90.000000
_cell_volume 1032.330913
_symmetry_space_group_name_H-M "P C C A"
_symmetry_group_IT_number 54
_symmetry_cell_setting 'orthorhombic'
loop_
_space_group_symop_operation_xyz
x,y,z
1/2-x,-y,z
1/2+x,-y,1/2-z
-x,y,1/2-z
-x,-y,-z
1/2+x,y,-z
1/2-x,y,1/2+z
x,-y,1/2+z
loop_
_atom_site_type_symbol
_atom_site_label
_atom_site_fract_x
_atom_site_fract_y
_atom_site_fract_z
Si Si1 0.234238 0.292239 0.029989
Si Si2 0.125499 0.313587 0.801250
Si Si3 0.142370 0.190189 0.141428
O O1 0.250000 0.500000 0.033405
O O2 0.122156 0.221940 0.082123
O O3 0.532589 0.238962 0.014527
O O4 0.250000 0.500000 0.789357
O O5 0.368115 0.215953 0.828312
O O6 0.000000 0.238968 0.750000
O O7 0.874873 0.317314 0.838821
O O8 0.250000 0.000000 0.150551
#
# Coordination Sequence:
#
# PCOD9422460 Si02
#       3
#     8   8   8
#     4  10  21  39  65  96 131 175 224 270 319 386
#     4  12  25  46  71  96 129 176 231 277 326 395
#     4  12  26  43  68 102 140 176 215 276 343 398
#
# _framework density 23.248358
#
# number of rings (size 3 to 8) (size 9 to 14) (size 15 to 20)
#    0.000    0.667    0.000    9.000    0.000    6.667 
#    0.000    1.667    0.000    0.000    0.000    0.000 
#    0.000    0.000    0.000    0.000    0.000    0.000 
#
# Total GULP energy -134368.092780 kJ/mol
# GULP energy per Si atom -5598.670532 kJ/mol
# Density = 2.319544 g / cm^3
# Si number density = 23.248358 Si / 1000 Ang^3
#
#
#
# Elastic Constant Matrix: (Units=GPa)
#
#
# Indices 1 2 3 4 5 6 
#
# 1 174.2249 45.4667 71.1278 0.0000 0.0000 0.0000
# 2 45.4667 61.9863 31.2404 0.0000 0.0000 0.0000
# 3 71.1278 31.2404 149.1486 0.0000 0.0000 0.0000
# 4 0.0000 0.0000 0.0000 -60.8714 0.0000 0.0000
# 5 0.0000 0.0000 0.0000 0.0000 -887.9363 0.0000
# 6 0.0000 0.0000 0.0000 0.0000 0.0000 24.9275
#
#
#
# Elastic Compliance Matrix: (Units=1/GPa)
#
#
# Indices 1 2 3 4 5 6 
#
# 1 0.008100 -0.004466 -0.002928 0.000000 0.000000 0.000000
# 2 -0.004466 0.020499 -0.002164 0.000000 0.000000 0.000000
# 3 -0.002928 -0.002164 0.008554 0.000000 0.000000 0.000000
# 4 0.000000 0.000000 0.000000 -0.016428 0.000000 0.000000
# 5 0.000000 0.000000 0.000000 0.000000 -0.001126 0.000000
# 6 0.000000 0.000000 0.000000 0.000000 0.000000 0.040116
#
#
# Mechanical properties :
#
#
# Convention : Reuss Voigt Hill
#
# Bulk Modulus (GPa) = 55.43707 75.66996 65.55351
# Shear Modulus (GPa) = 58.93211 -168.94102 -55.00446
#
# Velocity S-wave (km/s) = 5.04023 -8.53380 -4.86938
# Velocity P-wave (km/s) = 7.60061 8.03005 1.83200
#
# Compressibility (1/GPa) = 0.01803847
#
# Stress axis : x y z
#
# Youngs Moduli (GPa) = 123.45081 48.78279 116.90338
#
# Poissons Ratio (x) = 0.21787 0.34224
# Poissons Ratio (y) = 0.55135 0.25296
# Poissons Ratio (z) = 0.36141 0.10556
#
# Static dielectric constant tensor:
#      x y z
#    x 1.821640 0.000000 0.000000 
#    y 0.000000 1.924890 0.000000 
#    z 0.000000 0.000000 1.873150 
# 
# From -- ./inp_files/24983.got.cif
#   From: 2010.05.17/outbox.cif.g08.bks.cpg/sg54_13_cif.got.tgz:24983.got - 2010.06.03 13:09:01.
