data_PCOD9422096
_publ_section_title
;
Structure prediction by ZEFSAII (Michael W. Deem and Ramdas Pophale) SiO2 
 PCOD9422096
Probable space group: P C C A
;
_chemical_formula_sum "Si O2"
_cell_formula_units_Z 48
_cell_length_a 6.961636
_cell_length_b 18.024571
_cell_length_c 15.308669
_cell_angle_alpha 90.000000
_cell_angle_beta 90.000000
_cell_angle_gamma 90.000000
_cell_volume 1920.939477
_symmetry_space_group_name_H-M "P C C A"
_symmetry_group_IT_number 54
_symmetry_cell_setting 'orthorhombic'
loop_
_space_group_symop_operation_xyz
x,y,z
1/2-x,-y,z
1/2+x,-y,1/2-z
-x,y,1/2-z
-x,-y,-z
1/2+x,y,-z
1/2-x,y,1/2+z
x,-y,1/2+z
loop_
_atom_site_type_symbol
_atom_site_label
_atom_site_fract_x
_atom_site_fract_y
_atom_site_fract_z
Si Si1 0.588186 0.336957 0.378910
Si Si2 0.966064 0.355726 0.082005
Si Si3 0.775043 0.914663 0.726738
Si Si4 0.827264 0.177745 0.881930
Si Si5 0.623599 0.801580 0.088977
Si Si6 0.973642 0.497533 0.847992
O O1 0.524513 0.339496 0.479708
O O2 0.573806 0.252909 0.346999
O O3 0.483624 0.409962 0.343260
O O4 0.820552 0.349638 0.377374
O O5 0.837124 0.285595 0.111024
O O6 0.914126 0.442100 0.094433
O O7 0.657830 0.890162 0.813824
O O8 0.750410 0.857564 0.646314
O O9 0.000000 0.908922 0.750000
O O10 0.750000 0.000000 0.701893
O O11 0.598046 0.191374 0.884388
O O12 0.871536 0.175736 0.986224
O O13 0.750000 0.500000 0.875266
O O14 0.000000 0.526734 0.750000
#
# Coordination Sequence:
#
# PCOD9422096 Si02
#       6
#     8   8   8   8   8   8
#     4   9  18  34  53  76 104 138 181 227 273 326
#     4   9  18  33  54  76 103 140 182 225 273 328
#     4  10  22  39  59  84 115 150 188 234 288 344
#     4   9  19  37  58  81 111 146 186 230 280 339
#     4   9  19  36  58  82 110 148 188 230 282 337
#     4  10  21  33  48  75 109 144 182 226 273 324
#
# _framework density 24.987773000000001
#
# number of rings (size 3 to 8) (size 9 to 14) (size 15 to 20)
#    0.000    2.667    0.000    0.500    0.000    8.000 
#    0.000    9.167    0.000    0.000    0.000    0.000 
#    0.000    0.000    0.000    0.000    0.000    0.000 
#
# Total GULP energy -267810.995255 kJ/mol
# GULP energy per Si atom -5579.395734 kJ/mol
# Density = 2.493090 g / cm^3
# Si number density = 24.987773 Si / 1000 Ang^3
#
#
#
# Elastic Constant Matrix: (Units=GPa)
#
#
# Indices 1 2 3 4 5 6 
#
# 1 87.6307 28.1831 12.6048 0.0000 0.0000 0.0000
# 2 28.1831 231.3457 84.0181 0.0000 0.0000 0.0000
# 3 12.6048 84.0181 86.3422 0.0000 0.0000 0.0000
# 4 0.0000 0.0000 0.0000 38.0580 0.0000 0.0000
# 5 0.0000 0.0000 0.0000 0.0000 39.9667 0.0000
# 6 0.0000 0.0000 0.0000 0.0000 0.0000 31.1537
#
#
#
# Elastic Compliance Matrix: (Units=1/GPa)
#
#
# Indices 1 2 3 4 5 6 
#
# 1 0.011891 -0.001265 -0.000505 0.000000 0.000000 0.000000
# 2 -0.001265 0.006820 -0.006451 0.000000 0.000000 0.000000
# 3 -0.000505 -0.006451 0.017933 0.000000 0.000000 0.000000
# 4 0.000000 0.000000 0.000000 0.026276 0.000000 0.000000
# 5 0.000000 0.000000 0.000000 0.000000 0.025021 0.000000
# 6 0.000000 0.000000 0.000000 0.000000 0.000000 0.032099
#
#
# Mechanical properties :
#
#
# Convention : Reuss Voigt Hill
#
# Bulk Modulus (GPa) = 49.50199 72.77006 61.13602
# Shear Modulus (GPa) = 34.91239 40.53654 37.72447
#
# Velocity S-wave (km/s) = 3.74194 4.03209 3.88972
# Velocity P-wave (km/s) = 6.20669 7.13180 6.68526
#
# Compressibility (1/GPa) = 0.02020121
#
# Stress axis : x y z
#
# Youngs Moduli (GPa) = 84.09679 146.63582 55.76257
#
# Poissons Ratio (x) = 0.18554 0.02814
# Poissons Ratio (y) = 0.10641 0.35974
# Poissons Ratio (z) = 0.04244 0.94600
#
# Static dielectric constant tensor:
#      x y z
#    x 2.071830 0.000000 0.000000 
#    y 0.000000 2.013670 0.000000 
#    z 0.000000 0.000000 1.953730 
# 
# From -- ./inp_files/11704.got.cif
#   From: 2010.05.17/outbox.cif.g08.bks.cpg/sg54_6_cif.got.tgz:11704.got - 2010.06.03 13:09:01.
