data_PCOD9422005
_publ_section_title
;
Structure prediction by ZEFSAII (Michael W. Deem and Ramdas Pophale) SiO2 
 PCOD9422005
Probable space group: P C C A
;
_chemical_formula_sum "Si O2"
_cell_formula_units_Z 32
_cell_length_a 17.585484
_cell_length_b 6.926129
_cell_length_c 10.458522
_cell_angle_alpha 90.000000
_cell_angle_beta 90.000000
_cell_angle_gamma 90.000000
_cell_volume 1273.840980
_symmetry_space_group_name_H-M "P C C A"
_symmetry_group_IT_number 54
_symmetry_cell_setting 'orthorhombic'
loop_
_space_group_symop_operation_xyz
x,y,z
1/2-x,-y,z
1/2+x,-y,1/2-z
-x,y,1/2-z
-x,-y,-z
1/2+x,y,-z
1/2-x,y,1/2+z
x,-y,1/2+z
loop_
_atom_site_type_symbol
_atom_site_label
_atom_site_fract_x
_atom_site_fract_y
_atom_site_fract_z
Si Si1 0.780196 0.220618 0.729572
Si Si2 0.439947 0.303777 0.139763
Si Si3 0.694277 0.812644 0.452823
Si Si4 0.028998 0.239958 0.110434
O O1 0.858699 0.240875 0.806169
O O2 0.792627 0.295234 0.586465
O O3 0.750000 0.000000 0.709595
O O4 0.716850 0.302664 0.824806
O O5 0.500000 0.250254 0.250000
O O6 0.446700 0.535479 0.124826
O O7 0.466284 0.228414 0.000864
O O8 0.606026 0.861007 0.437236
O O9 0.750000 0.000000 0.454037
O O10 0.000000 0.177623 0.250000
#
# Coordination Sequence:
#
# PCOD9422005 Si02
#       4
#     8   8   8   8
#     4  10  22  41  63  91 129 172 215 263 320 385
#     4  10  20  41  66  93 130 164 214 269 319 379
#     4  10  22  42  62  90 130 170 216 262 321 391
#     4  10  22  39  66  98 125 168 215 267 325 380
#
# _framework density 25.120875000000002
#
# number of rings (size 3 to 8) (size 9 to 14) (size 15 to 20)
#    0.000    2.000    2.500    0.000    3.500    1.000 
#    0.000   12.500    0.000    0.000    0.000    0.000 
#    0.000    0.000    0.000    0.000    0.000    0.000 
#
# Total GULP energy -178844.737246 kJ/mol
# GULP energy per Si atom -5588.898039 kJ/mol
# Density = 2.506370 g / cm^3
# Si number density = 25.120875 Si / 1000 Ang^3
#
#
#
# Elastic Constant Matrix: (Units=GPa)
#
#
# Indices 1 2 3 4 5 6 
#
# 1 141.2245 35.3803 56.6406 0.0000 0.0000 0.0000
# 2 35.3803 116.0310 6.0113 0.0000 0.0000 0.0000
# 3 56.6406 6.0113 256.7605 0.0000 0.0000 0.0000
# 4 0.0000 0.0000 0.0000 -25.3369 0.0000 0.0000
# 5 0.0000 0.0000 0.0000 0.0000 -44.2206 0.0000
# 6 0.0000 0.0000 0.0000 0.0000 0.0000 36.9656
#
#
#
# Elastic Compliance Matrix: (Units=1/GPa)
#
#
# Indices 1 2 3 4 5 6 
#
# 1 0.008423 -0.002475 -0.001800 0.000000 0.000000 0.000000
# 2 -0.002475 0.009356 0.000327 0.000000 0.000000 0.000000
# 3 -0.001800 0.000327 0.004284 0.000000 0.000000 0.000000
# 4 0.000000 0.000000 0.000000 -0.039468 0.000000 0.000000
# 5 0.000000 0.000000 0.000000 0.000000 -0.022614 0.000000
# 6 0.000000 0.000000 0.000000 0.000000 0.000000 0.027052
#
#
# Mechanical properties :
#
#
# Convention : Reuss Voigt Hill
#
# Bulk Modulus (GPa) = 70.58799 78.89783 74.74291
# Shear Modulus (GPa) = -14378.69672 21.21385 -7178.74143
#
# Velocity S-wave (km/s) = -75.73790 2.90913 -53.51526
# Velocity P-wave (km/s) = 87.29345 6.53908 61.55236
#
# Compressibility (1/GPa) = 0.01416672
#
# Stress axis : x y z
#
# Youngs Moduli (GPa) = 118.72295 106.88153 233.41963
#
# Poissons Ratio (x) = 0.26454 0.42019
# Poissons Ratio (y) = 0.29385 -0.07632
# Poissons Ratio (z) = 0.21372 -0.03494
#
# Static dielectric constant tensor:
#      x y z
#    x 1.909730 0.000000 0.000000 
#    y 0.000000 2.146910 0.000000 
#    z 0.000000 0.000000 2.034080 
# 
# From -- ./inp_files/7961.got.cif
#   From: 2010.05.17/outbox.cif.g08.bks.cpg/sg54_4_cif.got.tgz:7961.got - 2010.06.03 13:09:01.
