data_PCOD9422112
_publ_section_title
;
Structure prediction by ZEFSAII (Michael W. Deem and Ramdas Pophale) SiO2 
 PCOD9422112
Probable space group: P C C A
;
_chemical_formula_sum "Si O2"
_cell_formula_units_Z 40
_cell_length_a 7.404341
_cell_length_b 10.124973
_cell_length_c 23.286342
_cell_angle_alpha 90.000000
_cell_angle_beta 90.000000
_cell_angle_gamma 90.000000
_cell_volume 1745.748015
_symmetry_space_group_name_H-M "P C C A"
_symmetry_group_IT_number 54
_symmetry_cell_setting 'orthorhombic'
loop_
_space_group_symop_operation_xyz
x,y,z
1/2-x,-y,z
1/2+x,-y,1/2-z
-x,y,1/2-z
-x,-y,-z
1/2+x,y,-z
1/2-x,y,1/2+z
x,-y,1/2+z
loop_
_atom_site_type_symbol
_atom_site_label
_atom_site_fract_x
_atom_site_fract_y
_atom_site_fract_z
Si Si1 0.658017 0.121654 0.287842
Si Si2 0.033897 0.998999 0.400507
Si Si3 0.912949 0.704883 0.570864
Si Si4 0.199014 0.362963 0.152570
Si Si5 0.991370 0.723866 0.442485
O O1 0.500000 0.182231 0.250000
O O2 0.792653 0.236413 0.306536
O O3 0.750000 0.000000 0.254984
O O4 0.566234 0.049819 0.342928
O O5 0.999518 0.148841 0.419161
O O6 0.250000 0.000000 0.392921
O O7 0.974816 0.884434 0.444786
O O8 0.697702 0.702739 0.576691
O O9 0.011438 0.620977 0.619193
O O10 0.958251 0.667287 0.505619
O O11 0.250000 0.500000 0.181856
O O12 0.348514 0.331223 0.103080
#
# Coordination Sequence:
#
# PCOD9422112 Si02
#       5
#     8   8   8   8   8
#     4  11  22  42  71  94 118 154 209 271 327 382
#     4   9  19  34  59  93 128 156 207 266 320 365
#     4  11  19  37  59  94 130 176 210 256 309 364
#     4  11  25  43  63  92 133 172 211 260 313 375
#     4  10  21  34  60  94 130 175 218 253 298 380
#
# _framework density 22.912814000000001
#
# number of rings (size 3 to 8) (size 9 to 14) (size 15 to 20)
#    0.000    1.600    4.000    1.200    0.000    1.600 
#    0.000    1.000    0.000    0.000    0.000    0.000 
#    0.000    0.000    0.000    0.000    0.000    0.000 
#
# Total GULP energy -223564.701130 kJ/mol
# GULP energy per Si atom -5589.117528 kJ/mol
# Density = 2.286066 g / cm^3
# Si number density = 22.912814 Si / 1000 Ang^3
#
#
#
# Elastic Constant Matrix: (Units=GPa)
#
#
# Indices 1 2 3 4 5 6 
#
# 1 67.7020 -9.7124 -4.2600 0.0000 0.0000 0.0000
# 2 -9.7124 76.0342 -10.2873 0.0000 0.0000 0.0000
# 3 -4.2600 -10.2873 28.3165 0.0000 0.0000 0.0000
# 4 0.0000 0.0000 0.0000 0.0757 0.0000 0.0000
# 5 0.0000 0.0000 0.0000 0.0000 13.5661 0.0000
# 6 0.0000 0.0000 0.0000 0.0000 0.0000 18.8645
#
#
#
# Elastic Compliance Matrix: (Units=1/GPa)
#
#
# Indices 1 2 3 4 5 6 
#
# 1 0.015312 0.002385 0.003170 0.000000 0.000000 0.000000
# 2 0.002385 0.014203 0.005519 0.000000 0.000000 0.000000
# 3 0.003170 0.005519 0.037797 0.000000 0.000000 0.000000
# 4 0.000000 0.000000 0.000000 13.201682 0.000000 0.000000
# 5 0.000000 0.000000 0.000000 0.000000 0.073713 0.000000
# 6 0.000000 0.000000 0.000000 0.000000 0.000000 0.053010
#
#
# Mechanical properties :
#
#
# Convention : Reuss Voigt Hill
#
# Bulk Modulus (GPa) = 11.17822 13.72593 12.45207
# Shear Modulus (GPa) = 0.37304 19.58877 9.98091
#
# Velocity S-wave (km/s) = 0.40393 2.92708 2.08938
# Velocity P-wave (km/s) = 2.25981 4.17460 3.35664
#
# Compressibility (1/GPa) = 0.08945970
#
# Stress axis : x y z
#
# Youngs Moduli (GPa) = 65.30740 70.40623 26.45716
#
# Poissons Ratio (x) = -0.16791 -0.08387
# Poissons Ratio (y) = -0.15575 -0.14601
# Poissons Ratio (z) = -0.20703 -0.38856
#
# Static dielectric constant tensor:
#      x y z
#    x 1.886740 0.000000 0.000000 
#    y 0.000000 1.934640 0.000000 
#    z 0.000000 0.000000 1.822650 
# 
# From -- ./inp_files/23272.got.cif
#   From: 2010.05.17/outbox.cif.g08.bks.cpg/sg54_12_cif.got.tgz:23272.got - 2010.06.03 13:09:01.
