data_PCOD9422386
_publ_section_title
;
Structure prediction by ZEFSAII (Michael W. Deem and Ramdas Pophale) SiO2 
 PCOD9422386
Probable space group: P C C A
;
_chemical_formula_sum "Si O2"
_cell_formula_units_Z 56
_cell_length_a 23.275172
_cell_length_b 5.327991
_cell_length_c 23.252940
_cell_angle_alpha 90.000000
_cell_angle_beta 90.000000
_cell_angle_gamma 90.000000
_cell_volume 2883.594925
_symmetry_space_group_name_H-M "P C C A"
_symmetry_group_IT_number 54
_symmetry_cell_setting 'orthorhombic'
loop_
_space_group_symop_operation_xyz
x,y,z
1/2-x,-y,z
1/2+x,-y,1/2-z
-x,y,1/2-z
-x,-y,-z
1/2+x,y,-z
1/2-x,y,1/2+z
x,-y,1/2+z
loop_
_atom_site_type_symbol
_atom_site_label
_atom_site_fract_x
_atom_site_fract_y
_atom_site_fract_z
Si Si1 0.485429 0.905228 0.093648
Si Si2 0.404059 0.435942 0.883922
Si Si3 0.786111 0.749141 0.661303
Si Si4 0.933963 0.358743 0.735893
Si Si5 0.550335 0.690884 0.517250
Si Si6 0.593884 0.121634 0.799738
Si Si7 0.215620 0.251498 0.199849
O O1 0.535900 0.712316 0.110458
O O2 0.451114 0.952563 0.151389
O O3 0.519970 0.125481 0.062640
O O4 0.440176 0.820318 0.044116
O O5 0.348646 0.271509 0.867852
O O6 0.415205 0.622157 0.830391
O O7 0.398894 0.565915 0.946456
O O8 0.750000 0.500000 0.645521
O O9 0.793889 0.738728 0.730676
O O10 0.750000 0.000000 0.647941
O O11 0.926691 0.639087 0.762156
O O12 0.000000 0.289807 0.750000
O O13 0.896885 0.134028 0.763708
O O14 0.500000 0.500000 0.500000
O O15 0.652891 0.221279 0.826578
O O16 0.250000 0.500000 0.183353
O O17 0.250000 0.000000 0.187198
#
# Coordination Sequence:
#
# PCOD9422386 Si02
#       7
#     8   8   8   8   8   8   8
#     4  10  22  40  62  94 123 163 215 261 320 380
#     4  11  22  37  63  88 129 164 203 265 317 379
#     4  10  23  36  56  86 124 165 208 246 303 376
#     4  12  24  35  55  97 135 158 193 250 335 391
#     4   9  21  40  62  90 119 165 212 254 314 373
#     4  12  24  38  61  92 128 165 203 259 317 384
#     4  10  21  39  56  82 121 167 213 249 300 378
#
# _framework density 19.420203000000001
#
# number of rings (size 3 to 8) (size 9 to 14) (size 15 to 20)
#    0.000    1.429    2.857    2.143   10.000    0.000 
#    0.000    0.000    0.000    0.857    0.000    0.000 
#    0.000    0.000    0.000    0.000    0.000    0.000 
#
# Total GULP energy -312355.044885 kJ/mol
# GULP energy per Si atom -5577.768659 kJ/mol
# Density = 1.937600 g / cm^3
# Si number density = 19.420203 Si / 1000 Ang^3
#
#
#
# Elastic Constant Matrix: (Units=GPa)
#
#
# Indices 1 2 3 4 5 6 
#
# 1 73.9370 7.8487 18.5003 0.0000 0.0000 0.0000
# 2 7.8487 92.4014 38.2814 0.0000 0.0000 0.0000
# 3 18.5003 38.2814 82.2733 0.0000 0.0000 0.0000
# 4 0.0000 0.0000 0.0000 17.7025 0.0000 0.0000
# 5 0.0000 0.0000 0.0000 0.0000 1.1234 0.0000
# 6 0.0000 0.0000 0.0000 0.0000 0.0000 20.1452
#
#
#
# Elastic Compliance Matrix: (Units=1/GPa)
#
#
# Indices 1 2 3 4 5 6 
#
# 1 0.014333 0.000146 -0.003291 0.000000 0.000000 0.000000
# 2 0.000146 0.013408 -0.006272 0.000000 0.000000 0.000000
# 3 -0.003291 -0.006272 0.015813 0.000000 0.000000 0.000000
# 4 0.000000 0.000000 0.000000 0.056489 0.000000 0.000000
# 5 0.000000 0.000000 0.000000 0.000000 0.890173 0.000000
# 6 0.000000 0.000000 0.000000 0.000000 0.000000 0.049640
#
#
# Mechanical properties :
#
#
# Convention : Reuss Voigt Hill
#
# Bulk Modulus (GPa) = 40.45163 41.98583 41.21873
# Shear Modulus (GPa) = 4.68635 20.05965 12.37300
#
# Velocity S-wave (km/s) = 1.55511 3.21740 2.52686
# Velocity P-wave (km/s) = 4.90911 5.95557 5.45748
#
# Compressibility (1/GPa) = 0.02472088
#
# Stress axis : x y z
#
# Youngs Moduli (GPa) = 69.76917 74.58103 63.24009
#
# Poissons Ratio (x) = -0.01088 0.20811
# Poissons Ratio (y) = -0.01018 0.39662
# Poissons Ratio (z) = 0.22960 0.46774
#
# Static dielectric constant tensor:
#      x y z
#    x 1.711700 0.000000 0.000000 
#    y 0.000000 1.712500 0.000000 
#    z 0.000000 0.000000 1.581290 
# 
# From -- ./inp_files/22297.got.cif
#   From: 2010.05.17/outbox.cif.g08.bks.cpg/sg54_12_cif.got.tgz:22297.got - 2010.06.03 13:09:01.
