data_PCOD9422752
_publ_section_title
;
Structure prediction by ZEFSAII (Michael W. Deem and Ramdas Pophale) SiO2 
 PCOD9422752
Probable space group: P C C A
;
_chemical_formula_sum "Si O2"
_cell_formula_units_Z 36
_cell_length_a 8.277845
_cell_length_b 13.749632
_cell_length_c 12.429385
_cell_angle_alpha 90.000000
_cell_angle_beta 90.000000
_cell_angle_gamma 90.000000
_cell_volume 1414.679321
_symmetry_space_group_name_H-M "P C C A"
_symmetry_group_IT_number 54
_symmetry_cell_setting 'orthorhombic'
loop_
_space_group_symop_operation_xyz
x,y,z
1/2-x,-y,z
1/2+x,-y,1/2-z
-x,y,1/2-z
-x,-y,-z
1/2+x,y,-z
1/2-x,y,1/2+z
x,-y,1/2+z
loop_
_atom_site_type_symbol
_atom_site_label
_atom_site_fract_x
_atom_site_fract_y
_atom_site_fract_z
Si Si1 0.250000 0.500000 0.451544
Si Si2 0.486208 0.638572 0.574339
Si Si3 0.500755 0.775883 0.378474
Si Si4 0.818016 0.103604 0.610357
Si Si5 0.656109 0.161935 0.356300
O O1 0.359573 0.561055 0.532584
O O2 0.359401 0.422967 0.384673
O O3 0.535741 0.690050 0.461569
O O4 0.403496 0.724341 0.644085
O O5 0.500000 0.752438 0.250000
O O6 0.321978 0.815546 0.407236
O O7 0.658798 0.844257 0.394340
O O8 0.832933 0.113198 0.740132
O O9 0.006092 0.114894 0.581160
O O10 0.750000 0.000000 0.578834
#
# Coordination Sequence:
#
# PCOD9422752 Si02
#       5
#     4   8   8   8   8
#     4  10  22  34  70  88 128 160 218 264 312 394
#     4  11  20  42  62  96 122 174 212 262 328 378
#     4  10  22  40  66  90 131 173 210 266 326 383
#     4  10  23  40  65  95 124 172 214 258 322 382
#     4  10  22  38  66  89 130 166 212 261 319 384
#
# _framework density 25.447462999999999
#
# number of rings (size 3 to 8) (size 9 to 14) (size 15 to 20)
#    0.000    1.778    2.222    1.333    9.333    0.000 
#    0.000    3.333   19.556    0.000    0.000    0.000 
#    0.000    0.000    0.000    0.000    0.000    0.000 
#
# Total GULP energy -200981.832309 kJ/mol
# GULP energy per Si atom -5582.828675 kJ/mol
# Density = 2.538954 g / cm^3
# Si number density = 25.447463 Si / 1000 Ang^3
#
#
#
# Elastic Constant Matrix: (Units=GPa)
#
#
# Indices 1 2 3 4 5 6 
#
# 1 163.1900 25.0532 26.0978 0.0000 0.0000 0.0000
# 2 25.0532 99.7528 -11.7818 0.0000 0.0000 0.0000
# 3 26.0978 -11.7818 69.6346 0.0000 0.0000 0.0000
# 4 0.0000 0.0000 0.0000 42.5001 0.0000 0.0000
# 5 0.0000 0.0000 0.0000 0.0000 40.8641 0.0000
# 6 0.0000 0.0000 0.0000 0.0000 0.0000 62.1995
#
#
#
# Elastic Compliance Matrix: (Units=1/GPa)
#
#
# Indices 1 2 3 4 5 6 
#
# 1 0.006919 -0.002086 -0.002946 0.000000 0.000000 0.000000
# 2 -0.002086 0.010858 0.002619 0.000000 0.000000 0.000000
# 3 -0.002946 0.002619 0.015908 0.000000 0.000000 0.000000
# 4 0.000000 0.000000 0.000000 0.023529 0.000000 0.000000
# 5 0.000000 0.000000 0.000000 0.000000 0.024471 0.000000
# 6 0.000000 0.000000 0.000000 0.000000 0.000000 0.016077
#
#
# Mechanical properties :
#
#
# Convention : Reuss Voigt Hill
#
# Bulk Modulus (GPa) = 34.65126 45.70174 40.17650
# Shear Modulus (GPa) = 44.55982 48.65995 46.60989
#
# Velocity S-wave (km/s) = 4.18910 4.37758 4.28438
# Velocity P-wave (km/s) = 6.08641 6.59918 6.34798
#
# Compressibility (1/GPa) = 0.02885898
#
# Stress axis : x y z
#
# Youngs Moduli (GPa) = 144.52593 92.09868 62.86184
#
# Poissons Ratio (x) = 0.19209 0.18520
# Poissons Ratio (y) = 0.30144 -0.16462
# Poissons Ratio (z) = 0.42578 -0.24119
#
# Static dielectric constant tensor:
#      x y z
#    x 2.104310 0.000000 0.000000 
#    y 0.000000 2.035930 0.000000 
#    z 0.000000 0.000000 2.088600 
# 
# From -- ./inp_files/11404.got.cif
#   From: 2010.05.17/outbox.cif.g08.bks.cpg/sg54_6_cif.got.tgz:11404.got - 2010.06.03 13:09:01.
