data_PCOD9422012
_publ_section_title
;
Structure prediction by ZEFSAII (Michael W. Deem and Ramdas Pophale) SiO2 
 PCOD9422012
Probable space group: P C C A
;
_chemical_formula_sum "Si O2"
_cell_formula_units_Z 40
_cell_length_a 10.802797
_cell_length_b 10.451372
_cell_length_c 12.802129
_cell_angle_alpha 90.000000
_cell_angle_beta 90.000000
_cell_angle_gamma 90.000000
_cell_volume 1445.412214
_symmetry_space_group_name_H-M "P C C A"
_symmetry_group_IT_number 54
_symmetry_cell_setting 'orthorhombic'
loop_
_space_group_symop_operation_xyz
x,y,z
1/2-x,-y,z
1/2+x,-y,1/2-z
-x,y,1/2-z
-x,-y,-z
1/2+x,y,-z
1/2-x,y,1/2+z
x,-y,1/2+z
loop_
_atom_site_type_symbol
_atom_site_label
_atom_site_fract_x
_atom_site_fract_y
_atom_site_fract_z
Si Si1 0.086948 0.542677 0.886812
Si Si2 0.122207 0.075489 0.388417
Si Si3 0.628864 0.092095 0.378623
Si Si4 0.250000 0.500000 0.577027
Si Si5 0.000000 0.738065 0.750000
Si Si6 0.818561 0.325080 0.736096
O O1 0.130256 0.509305 0.002018
O O2 0.982507 0.641783 0.847133
O O3 0.204618 0.625013 0.839168
O O4 0.078859 0.406797 0.827691
O O5 0.126966 0.147957 0.501281
O O6 0.105816 0.165371 0.287838
O O7 0.250000 0.000000 0.383419
O O8 0.999287 0.988187 0.382444
O O9 0.637495 0.187227 0.279343
O O10 0.750000 0.000000 0.376813
O O11 0.276267 0.614912 0.654908
#
# Coordination Sequence:
#
# PCOD9422012 Si02
#       6
#     8   8   8   4   4   8
#     4   9  20  35  59  92 124 164 212 261 327 395
#     4  10  24  41  63  94 127 171 220 269 334 401
#     4  10  20  41  68  94 125 166 219 274 331 404
#     4   8  16  36  60  86 128 164 198 266 332 386
#     4  12  22  40  60  86 130 174 220 276 324 390
#     4   9  18  37  62  91 124 162 209 268 328 385
#
# _framework density 27.673767000000002
#
# number of rings (size 3 to 8) (size 9 to 14) (size 15 to 20)
#    0.000    2.800    0.000    2.400    0.000    2.400 
#    0.000   24.000    0.000    0.000    0.000    0.000 
#    0.000    0.000    0.000    0.000    0.000    0.000 
#
# Total GULP energy -223018.592996 kJ/mol
# GULP energy per Si atom -5575.464825 kJ/mol
# Density = 2.761078 g / cm^3
# Si number density = 27.673767 Si / 1000 Ang^3
#
#
#
# Elastic Constant Matrix: (Units=GPa)
#
#
# Indices 1 2 3 4 5 6 
#
# 1 137.6101 40.5995 28.5601 0.0000 0.0000 0.0000
# 2 40.5995 99.0743 42.2484 0.0000 0.0000 0.0000
# 3 28.5601 42.2484 149.7253 0.0000 0.0000 0.0000
# 4 0.0000 0.0000 0.0000 22.9597 0.0000 0.0000
# 5 0.0000 0.0000 0.0000 0.0000 33.2030 0.0000
# 6 0.0000 0.0000 0.0000 0.0000 0.0000 30.1201
#
#
#
# Elastic Compliance Matrix: (Units=1/GPa)
#
#
# Indices 1 2 3 4 5 6 
#
# 1 0.008332 -0.003111 -0.000712 0.000000 0.000000 0.000000
# 2 -0.003111 0.012636 -0.002972 0.000000 0.000000 0.000000
# 3 -0.000712 -0.002972 0.007653 0.000000 0.000000 0.000000
# 4 0.000000 0.000000 0.000000 0.043555 0.000000 0.000000
# 5 0.000000 0.000000 0.000000 0.000000 0.030118 0.000000
# 6 0.000000 0.000000 0.000000 0.000000 0.000000 0.033200
#
#
# Mechanical properties :
#
#
# Convention : Reuss Voigt Hill
#
# Bulk Modulus (GPa) = 66.52446 67.69174 67.10810
# Shear Modulus (GPa) = 32.44769 35.59001 34.01885
#
# Velocity S-wave (km/s) = 3.42790 3.59005 3.50991
# Velocity P-wave (km/s) = 6.30542 6.45743 6.38188
#
# Compressibility (1/GPa) = 0.01503206
#
# Stress axis : x y z
#
# Youngs Moduli (GPa) = 120.01241 79.14087 130.66355
#
# Poissons Ratio (x) = 0.24622 0.09297
# Poissons Ratio (y) = 0.37337 0.38833
# Poissons Ratio (z) = 0.08539 0.23521
#
# Static dielectric constant tensor:
#      x y z
#    x 2.461420 0.000000 0.000000 
#    y 0.000000 2.282970 0.000000 
#    z 0.000000 0.000000 2.162530 
# 
# From -- ./inp_files/8263.got.cif
#   From: 2010.05.17/outbox.cif.g08.bks.cpg/sg54_5_cif.got.tgz:8263.got - 2010.06.03 13:09:01.
