data_PCOD9422316
_publ_section_title
;
Structure prediction by ZEFSAII (Michael W. Deem and Ramdas Pophale) SiO2 
 PCOD9422316
Probable space group: P C C A
;
_chemical_formula_sum "Si O2"
_cell_formula_units_Z 32
_cell_length_a 5.181890
_cell_length_b 20.260359
_cell_length_c 13.895691
_cell_angle_alpha 90.000000
_cell_angle_beta 90.000000
_cell_angle_gamma 90.000000
_cell_volume 1458.866240
_symmetry_space_group_name_H-M "P C C A"
_symmetry_group_IT_number 54
_symmetry_cell_setting 'orthorhombic'
loop_
_space_group_symop_operation_xyz
x,y,z
1/2-x,-y,z
1/2+x,-y,1/2-z
-x,y,1/2-z
-x,-y,-z
1/2+x,y,-z
1/2-x,y,1/2+z
x,-y,1/2+z
loop_
_atom_site_type_symbol
_atom_site_label
_atom_site_fract_x
_atom_site_fract_y
_atom_site_fract_z
Si Si1 0.836187 0.286002 0.931496
Si Si2 0.000000 0.111023 0.250000
Si Si3 0.500000 0.198362 0.250000
Si Si4 0.030367 0.073771 0.041504
Si Si5 0.787844 0.570534 0.936118
O O1 0.794751 0.360583 0.889128
O O2 0.901425 0.240075 0.841310
O O3 0.573024 0.277803 0.993168
O O4 0.251704 0.153805 0.274400
O O5 0.941786 0.069950 0.345192
O O6 0.772429 0.108572 0.006220
O O7 0.000000 0.000000 0.000000
O O8 0.750000 0.500000 0.884936
O O9 0.582351 0.570531 0.025699
#
# Coordination Sequence:
#
# PCOD9422316 Si02
#       5
#     8   4   4   8   8
#     4  10  21  38  60  85 121 163 203 254 305 356
#     4  12  26  42  63  93 124 158 202 254 300 368
#     4  12  26  40  61  91 126 166 210 246 300 376
#     4  10  23  42  67  94 122 156 195 244 306 367
#     4   8  14  27  51  80 108 146 194 243 298 348
#
# _framework density 21.934843000000001
#
# number of rings (size 3 to 8) (size 9 to 14) (size 15 to 20)
#    0.000    2.000    0.000    3.000    0.000   10.000 
#    0.000    0.000    0.000   16.500    0.000    0.000 
#    0.000    0.000    0.000    0.000    0.000    0.000 
#
# Total GULP energy -178453.916795 kJ/mol
# GULP energy per Si atom -5576.684900 kJ/mol
# Density = 2.188492 g / cm^3
# Si number density = 21.934843 Si / 1000 Ang^3
#
#
#
# Elastic Constant Matrix: (Units=GPa)
#
#
# Indices 1 2 3 4 5 6 
#
# 1 168.2105 13.5566 19.9781 0.0000 0.0000 0.0000
# 2 13.5566 90.7234 43.7123 0.0000 0.0000 0.0000
# 3 19.9781 43.7123 126.5236 0.0000 0.0000 0.0000
# 4 0.0000 0.0000 0.0000 9.8869 0.0000 0.0000
# 5 0.0000 0.0000 0.0000 0.0000 24.3167 0.0000
# 6 0.0000 0.0000 0.0000 0.0000 0.0000 38.7740
#
#
#
# Elastic Compliance Matrix: (Units=1/GPa)
#
#
# Indices 1 2 3 4 5 6 
#
# 1 0.006080 -0.000535 -0.000775 0.000000 0.000000 0.000000
# 2 -0.000535 0.013271 -0.004500 0.000000 0.000000 0.000000
# 3 -0.000775 -0.004500 0.009581 0.000000 0.000000 0.000000
# 4 0.000000 0.000000 0.000000 0.101144 0.000000 0.000000
# 5 0.000000 0.000000 0.000000 0.000000 0.041124 0.000000
# 6 0.000000 0.000000 0.000000 0.000000 0.000000 0.025790
#
#
# Mechanical properties :
#
#
# Convention : Reuss Voigt Hill
#
# Bulk Modulus (GPa) = 57.76824 59.99463 58.88144
# Shear Modulus (GPa) = 23.32285 35.14289 29.23287
#
# Velocity S-wave (km/s) = 3.26433 4.00703 3.65460
# Velocity P-wave (km/s) = 6.37191 6.98706 6.68657
#
# Compressibility (1/GPa) = 0.01731055
#
# Stress axis : x y z
#
# Youngs Moduli (GPa) = 164.47035 75.35306 104.37417
#
# Poissons Ratio (x) = 0.04032 0.08091
# Poissons Ratio (y) = 0.08800 0.46973
# Poissons Ratio (z) = 0.12750 0.33912
#
# Static dielectric constant tensor:
#      x y z
#    x 1.856000 0.000000 0.000000 
#    y 0.000000 1.783830 0.000000 
#    z 0.000000 0.000000 1.742590 
# 
# From -- ./inp_files/6292.got.cif
#   From: 2010.05.17/outbox.cif.g08.bks.cpg/sg54_4_cif.got.tgz:6292.got - 2010.06.03 13:09:01.
