data_PCOD9422953
_publ_section_title
;
Structure prediction by ZEFSAII (Michael W. Deem and Ramdas Pophale) SiO2 
 PCOD9422953
Probable space group: P C C A
;
_chemical_formula_sum "Si O2"
_cell_formula_units_Z 40
_cell_length_a 27.513421
_cell_length_b 6.857855
_cell_length_c 7.986845
_cell_angle_alpha 90.000000
_cell_angle_beta 90.000000
_cell_angle_gamma 90.000000
_cell_volume 1506.982289
_symmetry_space_group_name_H-M "P C C A"
_symmetry_group_IT_number 54
_symmetry_cell_setting 'orthorhombic'
loop_
_space_group_symop_operation_xyz
x,y,z
1/2-x,-y,z
1/2+x,-y,1/2-z
-x,y,1/2-z
-x,-y,-z
1/2+x,y,-z
1/2-x,y,1/2+z
x,-y,1/2+z
loop_
_atom_site_type_symbol
_atom_site_label
_atom_site_fract_x
_atom_site_fract_y
_atom_site_fract_z
Si Si1 0.646793 0.222288 0.726970
Si Si2 0.533584 0.260156 0.405100
Si Si3 0.945451 0.203310 0.401413
Si Si4 0.307322 0.475468 0.478058
Si Si5 0.875330 0.769567 0.229123
O O1 0.670217 0.308056 0.557872
O O2 0.644564 0.989147 0.749995
O O3 0.589071 0.267944 0.749606
O O4 0.676203 0.326699 0.876128
O O5 0.500000 0.316575 0.250000
O O6 0.497717 0.296329 0.560706
O O7 0.588423 0.325133 0.367992
O O8 0.542439 0.025928 0.388843
O O9 0.910951 0.223940 0.565091
O O10 0.250000 0.500000 0.479414
O O11 0.329746 0.362464 0.317226
#
# Coordination Sequence:
#
# PCOD9422953 Si02
#       5
#     8   8   8   8   8
#     4  10  22  40  63  91 123 160 203 254 314 376
#     4   8  13  26  53  86 120 158 202 244 294 361
#     4   8  15  30  55  88 121 160 201 243 300 365
#     4  11  24  42  62  88 122 157 203 262 314 367
#     4   9  19  36  59  87 120 162 206 251 308 370
#
# _framework density 26.543113000000002
#
# number of rings (size 3 to 8) (size 9 to 14) (size 15 to 20)
#    0.000    2.800    0.000    0.600    0.000    5.600 
#    0.000    5.000    0.000   48.000    0.000    0.000 
#    0.000    0.000    0.000    0.000    0.000    0.000 
#
# Total GULP energy -223461.011617 kJ/mol
# GULP energy per Si atom -5586.525290 kJ/mol
# Density = 2.648270 g / cm^3
# Si number density = 26.543113 Si / 1000 Ang^3
#
#
#
# Elastic Constant Matrix: (Units=GPa)
#
#
# Indices 1 2 3 4 5 6 
#
# 1 235.0797 44.3160 37.0714 0.0000 0.0000 0.0000
# 2 44.3160 148.1939 -6.3739 0.0000 0.0000 0.0000
# 3 37.0714 -6.3739 68.4854 0.0000 0.0000 0.0000
# 4 0.0000 0.0000 0.0000 47.0507 0.0000 0.0000
# 5 0.0000 0.0000 0.0000 0.0000 33.3552 0.0000
# 6 0.0000 0.0000 0.0000 0.0000 0.0000 50.6408
#
#
#
# Elastic Compliance Matrix: (Units=1/GPa)
#
#
# Indices 1 2 3 4 5 6 
#
# 1 0.005011 -0.001622 -0.002863 0.000000 0.000000 0.000000
# 2 -0.001622 0.007300 0.001557 0.000000 0.000000 0.000000
# 3 -0.002863 0.001557 0.016297 0.000000 0.000000 0.000000
# 4 0.000000 0.000000 0.000000 0.021254 0.000000 0.000000
# 5 0.000000 0.000000 0.000000 0.000000 0.029980 0.000000
# 6 0.000000 0.000000 0.000000 0.000000 0.000000 0.019747
#
#
# Mechanical properties :
#
#
# Convention : Reuss Voigt Hill
#
# Bulk Modulus (GPa) = 43.95279 66.86510 55.40895
# Shear Modulus (GPa) = 44.23669 51.32570 47.78119
#
# Velocity S-wave (km/s) = 4.08683 4.40213 4.24740
# Velocity P-wave (km/s) = 6.23414 7.14731 6.70629
#
# Compressibility (1/GPa) = 0.02275169
#
# Stress axis : x y z
#
# Youngs Moduli (GPa) = 199.55482 136.98916 61.36246
#
# Poissons Ratio (x) = 0.22216 0.17571
# Poissons Ratio (y) = 0.32362 -0.09556
# Poissons Ratio (z) = 0.57142 -0.21332
#
# Static dielectric constant tensor:
#      x y z
#    x 2.001270 0.000000 0.000000 
#    y 0.000000 2.117000 0.000000 
#    z 0.000000 0.000000 2.350410 
# 
# From -- ./inp_files/10427.got.cif
#   From: 2010.05.17/outbox.cif.g08.bks.cpg/sg54_6_cif.got.tgz:10427.got - 2010.06.03 13:09:01.
