data_PCOD9422435
_publ_section_title
;
Structure prediction by ZEFSAII (Michael W. Deem and Ramdas Pophale) SiO2 
 PCOD9422435
Probable space group: P C C A
;
_chemical_formula_sum "Si O2"
_cell_formula_units_Z 48
_cell_length_a 9.790120
_cell_length_b 25.100640
_cell_length_c 8.987653
_cell_angle_alpha 90.000000
_cell_angle_beta 90.000000
_cell_angle_gamma 90.000000
_cell_volume 2208.610369
_symmetry_space_group_name_H-M "P C C A"
_symmetry_group_IT_number 54
_symmetry_cell_setting 'orthorhombic'
loop_
_space_group_symop_operation_xyz
x,y,z
1/2-x,-y,z
1/2+x,-y,1/2-z
-x,y,1/2-z
-x,-y,-z
1/2+x,y,-z
1/2-x,y,1/2+z
x,-y,1/2+z
loop_
_atom_site_type_symbol
_atom_site_label
_atom_site_fract_x
_atom_site_fract_y
_atom_site_fract_z
Si Si1 0.127712 0.605603 0.640400
Si Si2 0.897412 0.029250 0.888461
Si Si3 0.127845 0.150450 0.640238
Si Si4 0.248094 0.788489 0.881902
Si Si5 0.646816 0.449957 0.175688
Si Si6 0.375518 0.729606 0.141645
O O1 0.123109 0.570845 0.491293
O O2 0.268165 0.592962 0.727089
O O3 0.118724 0.667983 0.599516
O O4 0.000000 0.594440 0.750000
O O5 0.865519 0.090995 0.923103
O O6 0.000000 0.032098 0.750000
O O7 0.750000 0.000000 0.869694
O O8 0.000000 0.000000 0.000000
O O9 0.243007 0.163012 0.763923
O O10 0.139035 0.190936 0.503378
O O11 0.000000 0.158080 0.750000
O O12 0.241810 0.740097 0.763850
O O13 0.359319 0.767097 0.999898
O O14 0.750000 0.500000 0.172564
O O15 0.500000 0.461433 0.250000
O O16 0.500000 0.744047 0.250000
#
# Coordination Sequence:
#
# PCOD9422435 Si02
#       6
#     8   8   8   8   8   8
#     4  11  24  43  68 100 136 178 227 276 342 404
#     4  11  26  45  69  99 135 177 227 282 344 412
#     4  10  23  39  62  92 127 169 218 267 333 395
#     4  10  21  39  63  92 130 164 220 267 337 390
#     4  12  26  45  69  99 135 179 227 283 338 400
#     4  10  21  40  64  94 129 170 215 270 331 397
#
# _framework density 21.733122000000002
#
# number of rings (size 3 to 8) (size 9 to 14) (size 15 to 20)
#    0.000    1.333    0.000    4.500    7.000    3.333 
#    0.000    5.000    0.000    0.000    0.000    0.000 
#    0.000    0.000    0.000    0.000    0.000    0.000 
#
# Total GULP energy -267268.904916 kJ/mol
# GULP energy per Si atom -5568.102186 kJ/mol
# Density = 2.168366 g / cm^3
# Si number density = 21.733122 Si / 1000 Ang^3
#
#
#
# Elastic Constant Matrix: (Units=GPa)
#
#
# Indices 1 2 3 4 5 6 
#
# 1 111.8353 38.5715 37.8155 0.0000 0.0000 0.0000
# 2 38.5715 73.3857 39.7021 0.0000 0.0000 0.0000
# 3 37.8155 39.7021 120.4247 0.0000 0.0000 0.0000
# 4 0.0000 0.0000 0.0000 11.0512 0.0000 0.0000
# 5 0.0000 0.0000 0.0000 0.0000 32.2641 0.0000
# 6 0.0000 0.0000 0.0000 0.0000 0.0000 23.6603
#
#
#
# Elastic Compliance Matrix: (Units=1/GPa)
#
#
# Indices 1 2 3 4 5 6 
#
# 1 0.011279 -0.004883 -0.001932 0.000000 0.000000 0.000000
# 2 -0.004883 0.018699 -0.004631 0.000000 0.000000 0.000000
# 3 -0.001932 -0.004631 0.010437 0.000000 0.000000 0.000000
# 4 0.000000 0.000000 0.000000 0.090488 0.000000 0.000000
# 5 0.000000 0.000000 0.000000 0.000000 0.030994 0.000000
# 6 0.000000 0.000000 0.000000 0.000000 0.000000 0.042265
#
#
# Mechanical properties :
#
#
# Convention : Reuss Voigt Hill
#
# Bulk Modulus (GPa) = 57.06905 59.75822 58.41363
# Shear Modulus (GPa) = 21.46882 26.03223 23.75053
#
# Velocity S-wave (km/s) = 3.14640 3.46470 3.30938
# Velocity P-wave (km/s) = 6.28616 6.60012 6.44505
#
# Compressibility (1/GPa) = 0.01752263
#
# Stress axis : x y z
#
# Youngs Moduli (GPa) = 88.65917 53.47945 95.80861
#
# Poissons Ratio (x) = 0.26115 0.18510
# Poissons Ratio (y) = 0.43293 0.44372
# Poissons Ratio (z) = 0.17129 0.24768
#
# Static dielectric constant tensor:
#      x y z
#    x 3.988700 0.000000 0.000000 
#    y 0.000000 1.877330 0.000000 
#    z 0.000000 0.000000 1.945730 
# 
# From -- ./inp_files/3041.got.cif
#   From: 2010.05.17/outbox.cif.g08.bks.cpg/sg54_2_cif.got.tgz:3041.got - 2010.06.03 13:09:01.
