data_PCOD9422007
_publ_section_title
;
Structure prediction by ZEFSAII (Michael W. Deem and Ramdas Pophale) SiO2 
 PCOD9422007
Probable space group: P C C A
;
_chemical_formula_sum "Si O2"
_cell_formula_units_Z 48
_cell_length_a 8.746956
_cell_length_b 8.833246
_cell_length_c 29.378649
_cell_angle_alpha 90.000000
_cell_angle_beta 90.000000
_cell_angle_gamma 90.000000
_cell_volume 2269.912351
_symmetry_space_group_name_H-M "P C C A"
_symmetry_group_IT_number 54
_symmetry_cell_setting 'orthorhombic'
loop_
_space_group_symop_operation_xyz
x,y,z
1/2-x,-y,z
1/2+x,-y,1/2-z
-x,y,1/2-z
-x,-y,-z
1/2+x,y,-z
1/2-x,y,1/2+z
x,-y,1/2+z
loop_
_atom_site_type_symbol
_atom_site_label
_atom_site_fract_x
_atom_site_fract_y
_atom_site_fract_z
Si Si1 0.484602 0.624442 0.627261
Si Si2 0.971217 0.339329 0.974653
Si Si3 0.152303 0.347215 0.780548
Si Si4 0.859036 0.122970 0.276286
Si Si5 0.669529 0.161533 0.959595
Si Si6 0.869125 0.713904 0.865271
O O1 0.538756 0.662584 0.576384
O O2 0.597145 0.672573 0.667526
O O3 0.452761 0.444754 0.626928
O O4 0.315153 0.691393 0.637086
O O5 0.793888 0.296885 0.966742
O O6 0.040711 0.204396 0.004476
O O7 0.000000 0.500000 0.000000
O O8 0.250000 0.500000 0.777096
O O9 0.256790 0.216548 0.759158
O O10 0.000000 0.362063 0.750000
O O11 0.920467 0.226903 0.316495
O O12 0.000000 0.050377 0.250000
O O13 0.750000 0.000000 0.298628
O O14 0.605600 0.178277 0.908400
O O15 0.750000 0.000000 0.965305
#
# Coordination Sequence:
#
# PCOD9422007 Si02
#       6
#     8   8   8   8   8   8
#     4  10  21  38  67  97 124 170 225 276 327 396
#     4  11  22  42  67  95 133 172 226 281 335 404
#     4  12  23  40  65  95 130 167 220 277 333 392
#     4  12  26  44  65  94 132 176 218 274 340 409
#     4  11  23  41  66  98 132 178 220 279 346 407
#     4  10  20  41  67  92 125 173 225 266 336 409
#
# _framework density 21.146189
#
# number of rings (size 3 to 8) (size 9 to 14) (size 15 to 20)
#    0.000    1.000    3.333    4.500    0.000    1.333 
#    3.000    0.833    0.000    0.000    0.000    0.000 
#    0.000    0.000    0.000    0.000    0.000    0.000 
#
# Total GULP energy -268338.971065 kJ/mol
# GULP energy per Si atom -5590.395231 kJ/mol
# Density = 2.109806 g / cm^3
# Si number density = 21.146189 Si / 1000 Ang^3
#
#
#
# Elastic Constant Matrix: (Units=GPa)
#
#
# Indices 1 2 3 4 5 6 
#
# 1 39.4080 -7.6524 32.8447 0.0000 0.0000 0.0000
# 2 -7.6524 45.7039 17.3451 0.0000 0.0000 0.0000
# 3 32.8447 17.3451 135.8113 0.0000 0.0000 0.0000
# 4 0.0000 0.0000 0.0000 11.2998 0.0000 0.0000
# 5 0.0000 0.0000 0.0000 0.0000 25.0637 0.0000
# 6 0.0000 0.0000 0.0000 0.0000 0.0000 31.2337
#
#
#
# Elastic Compliance Matrix: (Units=1/GPa)
#
#
# Indices 1 2 3 4 5 6 
#
# 1 0.035414 0.009647 -0.009797 0.000000 0.000000 0.000000
# 2 0.009647 0.025623 -0.005606 0.000000 0.000000 0.000000
# 3 -0.009797 -0.005606 0.010448 0.000000 0.000000 0.000000
# 4 0.000000 0.000000 0.000000 0.088497 0.000000 0.000000
# 5 0.000000 0.000000 0.000000 0.000000 0.039898 0.000000
# 6 0.000000 0.000000 0.000000 0.000000 0.000000 0.032017
#
#
# Mechanical properties :
#
#
# Convention : Reuss Voigt Hill
#
# Bulk Modulus (GPa) = 16.67347 33.99977 25.33662
# Shear Modulus (GPa) = 18.98262 25.41182 22.19722
#
# Velocity S-wave (km/s) = 2.99939 3.47035 3.24343
# Velocity P-wave (km/s) = 4.46062 5.67195 5.10236
#
# Compressibility (1/GPa) = 0.05997552
#
# Stress axis : x y z
#
# Youngs Moduli (GPa) = 28.23740 39.02794 95.70938
#
# Poissons Ratio (x) = -0.37652 0.93763
# Poissons Ratio (y) = -0.27242 0.53650
# Poissons Ratio (z) = 0.27663 0.21877
#
# Static dielectric constant tensor:
#      x y z
#    x 1.760090 0.000000 0.000000 
#    y 0.000000 1.645190 0.000000 
#    z 0.000000 0.000000 1.757560 
# 
# From -- ./inp_files/27756.got.cif
#   From: 2010.05.17/outbox.cif.g08.bks.cpg/sg54_14_cif.got.tgz:27756.got - 2010.06.03 13:09:01.
