data_PCOD9422232
_publ_section_title
;
Structure prediction by ZEFSAII (Michael W. Deem and Ramdas Pophale) SiO2 
 PCOD9422232
Probable space group: P C C A
;
_chemical_formula_sum "Si O2"
_cell_formula_units_Z 44
_cell_length_a 23.413549
_cell_length_b 5.137982
_cell_length_c 17.243352
_cell_angle_alpha 90.000000
_cell_angle_beta 90.000000
_cell_angle_gamma 90.000000
_cell_volume 2074.347541
_symmetry_space_group_name_H-M "P C C A"
_symmetry_group_IT_number 54
_symmetry_cell_setting 'orthorhombic'
loop_
_space_group_symop_operation_xyz
x,y,z
1/2-x,-y,z
1/2+x,-y,1/2-z
-x,y,1/2-z
-x,-y,-z
1/2+x,y,-z
1/2-x,y,1/2+z
x,-y,1/2+z
loop_
_atom_site_type_symbol
_atom_site_label
_atom_site_fract_x
_atom_site_fract_y
_atom_site_fract_z
Si Si1 0.689709 0.416824 0.346895
Si Si2 0.500000 0.653123 0.250000
Si Si3 0.562888 0.438098 0.393180
Si Si4 0.549441 0.248149 0.042633
Si Si5 0.911898 0.773904 0.625421
Si Si6 0.809082 0.085141 0.234943
O O1 0.750000 0.500000 0.388459
O O2 0.631027 0.406202 0.395265
O O3 0.688885 0.648450 0.283721
O O4 0.686654 0.146287 0.298889
O O5 0.543912 0.494141 0.304565
O O6 0.461667 0.808838 0.310429
O O7 0.515124 0.238419 0.424226
O O8 0.550094 0.670892 0.453351
O O9 0.580413 0.482047 0.091780
O O10 0.579464 0.978261 0.057546
O O11 0.855874 0.863073 0.670317
O O12 0.750000 0.000000 0.195314
#
# Coordination Sequence:
#
# PCOD9422232 Si02
#       6
#     8   4   8   8   8   8
#     4  10  21  37  61  87 116 153 199 253 294 340
#     4  10  22  34  68  84 118 148 212 238 294 340
#     4  10  22  42  58  92 122 160 196 251 289 369
#     4  10  25  38  60  85 132 156 188 242 318 339
#     4  11  22  40  58  92 113 160 195 241 295 365
#     4  10  21  37  59  88 119 150 197 256 294 340
#
# _framework density 21.211487999999999
#
# number of rings (size 3 to 8) (size 9 to 14) (size 15 to 20)
#    0.000    1.818    1.818    1.091    5.091    8.727 
#    0.000    1.818    0.000    0.000    0.000    0.000 
#    0.000    0.000    0.000    0.000    0.000    0.000 
#
# Total GULP energy -245178.713116 kJ/mol
# GULP energy per Si atom -5572.243480 kJ/mol
# Density = 2.116321 g / cm^3
# Si number density = 21.211488 Si / 1000 Ang^3
#
#
#
# Elastic Constant Matrix: (Units=GPa)
#
#
# Indices 1 2 3 4 5 6 
#
# 1 146.6318 6.3196 7.7256 0.0000 0.0000 0.0000
# 2 6.3196 80.6764 -6.1361 0.0000 0.0000 0.0000
# 3 7.7256 -6.1361 56.9722 0.0000 0.0000 0.0000
# 4 0.0000 0.0000 0.0000 -53.8233 0.0000 0.0000
# 5 0.0000 0.0000 0.0000 0.0000 17.6521 0.0000
# 6 0.0000 0.0000 0.0000 0.0000 0.0000 9.5139
#
#
#
# Elastic Compliance Matrix: (Units=1/GPa)
#
#
# Indices 1 2 3 4 5 6 
#
# 1 0.006899 -0.000617 -0.001002 0.000000 0.000000 0.000000
# 2 -0.000617 0.012553 0.001436 0.000000 0.000000 0.000000
# 3 -0.001002 0.001436 0.017843 0.000000 0.000000 0.000000
# 4 0.000000 0.000000 0.000000 -0.018579 0.000000 0.000000
# 5 0.000000 0.000000 0.000000 0.000000 0.056651 0.000000
# 6 0.000000 0.000000 0.000000 0.000000 0.000000 0.105109
#
#
# Mechanical properties :
#
#
# Convention : Reuss Voigt Hill
#
# Bulk Modulus (GPa) = 27.07916 33.34427 30.21171
# Shear Modulus (GPa) = 25.88650 13.09330 19.48990
#
# Velocity S-wave (km/s) = 3.49721 2.48720 3.03452
# Velocity P-wave (km/s) = 5.39456 4.89921 5.15284
#
# Compressibility (1/GPa) = 0.03692877
#
# Stress axis : x y z
#
# Youngs Moduli (GPa) = 144.94503 79.66419 56.04465
#
# Poissons Ratio (x) = 0.04912 0.05615
# Poissons Ratio (y) = 0.08938 -0.08046
# Poissons Ratio (z) = 0.14523 -0.11437
#
# Static dielectric constant tensor:
#      x y z
#    x 1.860800 0.000000 0.000000 
#    y 0.000000 1.794320 0.000000 
#    z 0.000000 0.000000 1.742310 
# 
# From -- ./inp_files/19001.got.cif
#   From: 2010.05.17/outbox.cif.g08.bks.cpg/sg54_10_cif.got.tgz:19001.got - 2010.06.03 13:09:01.
