data_PCOD9422103
_publ_section_title
;
Structure prediction by ZEFSAII (Michael W. Deem and Ramdas Pophale) SiO2 
 PCOD9422103
Probable space group: P C C A
;
_chemical_formula_sum "Si O2"
_cell_formula_units_Z 64
_cell_length_a 8.792789
_cell_length_b 12.562883
_cell_length_c 31.568911
_cell_angle_alpha 90.000000
_cell_angle_beta 90.000000
_cell_angle_gamma 90.000000
_cell_volume 3487.189653
_symmetry_space_group_name_H-M "P C C A"
_symmetry_group_IT_number 54
_symmetry_cell_setting 'orthorhombic'
loop_
_space_group_symop_operation_xyz
x,y,z
1/2-x,-y,z
1/2+x,-y,1/2-z
-x,y,1/2-z
-x,-y,-z
1/2+x,y,-z
1/2-x,y,1/2+z
x,-y,1/2+z
loop_
_atom_site_type_symbol
_atom_site_label
_atom_site_fract_x
_atom_site_fract_y
_atom_site_fract_z
Si Si1 0.071961 0.469796 0.295685
Si Si2 0.514335 0.559924 0.940093
Si Si3 0.430740 0.337859 0.152728
Si Si4 0.575899 0.717534 0.346553
Si Si5 0.419062 0.854619 0.796836
Si Si6 0.010615 0.697603 0.559147
Si Si7 0.563827 0.901269 0.203230
Si Si8 0.246509 0.661629 0.495089
O O1 0.250000 0.500000 0.292824
O O2 0.000000 0.444758 0.250000
O O3 0.984566 0.570044 0.315514
O O4 0.035409 0.371408 0.326577
O O5 0.529985 0.620107 0.894966
O O6 0.518506 0.432320 0.935631
O O7 0.362140 0.592848 0.964791
O O8 0.645826 0.597047 0.972452
O O9 0.249260 0.322467 0.155370
O O10 0.513685 0.231480 0.170229
O O11 0.533420 0.740346 0.394713
O O12 0.547930 0.825121 0.321767
O O13 0.500000 0.839783 0.750000
O O14 0.234417 0.851594 0.794751
O O15 0.442692 0.976528 0.811859
O O16 0.140588 0.728462 0.526134
O O17 0.853678 0.724495 0.536743
O O18 0.500000 0.905956 0.250000
#
# Coordination Sequence:
#
# PCOD9422103 Si02
#       8
#     8   8   8   8   8   8   8   8
#     4  12  26  42  58  79 120 165 199 233 290 359
#     4  11  20  34  54  82 120 158 199 241 285 350
#     4  12  24  37  59  89 124 158 197 243 293 352
#     4  12  24  37  59  89 124 158 197 243 293 352
#     4  10  22  42  66  90 116 150 198 251 299 349
#     4  11  20  34  54  82 120 158 199 241 285 350
#     4  10  22  42  66  90 116 150 198 251 299 349
#     4  10  21  34  54  80 115 162 199 240 296 339
#
# _framework density 18.352888
#
# number of rings (size 3 to 8) (size 9 to 14) (size 15 to 20)
#    0.000    1.000    2.500    6.375    3.500    1.500 
#    0.000    0.000    0.000    0.000    0.000    5.250 
#    0.000    0.000    0.000    0.000    0.000    0.000 
#
# Total GULP energy -357345.531888 kJ/mol
# GULP energy per Si atom -5583.523936 kJ/mol
# Density = 1.831112 g / cm^3
# Si number density = 18.352888 Si / 1000 Ang^3
#
#
#
# Elastic Constant Matrix: (Units=GPa)
#
#
# Indices 1 2 3 4 5 6 
#
# 1 72.9021 10.0958 37.4320 0.0000 0.0000 0.0000
# 2 10.0958 53.8280 27.9041 0.0000 0.0000 0.0000
# 3 37.4320 27.9041 65.2946 0.0000 0.0000 0.0000
# 4 0.0000 0.0000 0.0000 17.4249 0.0000 0.0000
# 5 0.0000 0.0000 0.0000 0.0000 4.7501 0.0000
# 6 0.0000 0.0000 0.0000 0.0000 0.0000 -35.5440
#
#
#
# Elastic Compliance Matrix: (Units=1/GPa)
#
#
# Indices 1 2 3 4 5 6 
#
# 1 0.019758 0.002782 -0.012516 0.000000 0.000000 0.000000
# 2 0.002782 0.024257 -0.011961 0.000000 0.000000 0.000000
# 3 -0.012516 -0.011961 0.027602 0.000000 0.000000 0.000000
# 4 0.000000 0.000000 0.000000 0.057389 0.000000 0.000000
# 5 0.000000 0.000000 0.000000 0.000000 0.210520 0.000000
# 6 0.000000 0.000000 0.000000 0.000000 0.000000 -0.028134
#
#
# Mechanical properties :
#
#
# Convention : Reuss Voigt Hill
#
# Bulk Modulus (GPa) = 35.42708 38.09874 36.76291
# Shear Modulus (GPa) = 13.72908 5.09905 9.41407
#
# Velocity S-wave (km/s) = 2.73804 1.66864 2.26729
# Velocity P-wave (km/s) = 5.41673 4.95142 5.18929
#
# Compressibility (1/GPa) = 0.02822700
#
# Stress axis : x y z
#
# Youngs Moduli (GPa) = 50.61211 41.22605 36.22909
#
# Poissons Ratio (x) = -0.11471 0.45344
# Poissons Ratio (y) = -0.14083 0.43335
# Poissons Ratio (z) = 0.63346 0.49312
#
# Static dielectric constant tensor:
#      x y z
#    x 1.673230 0.000000 0.000000 
#    y 0.000000 1.614420 0.000000 
#    z 0.000000 0.000000 1.620760 
# 
# From -- ./inp_files/27957.got.cif
#   From: 2010.05.17/outbox.cif.g08.bks.cpg/sg54_14_cif.got.tgz:27957.got - 2010.06.03 13:09:01.
