data_PCOD9422702
_publ_section_title
;
Structure prediction by ZEFSAII (Michael W. Deem and Ramdas Pophale) SiO2 
 PCOD9422702
Probable space group: P C C A
;
_chemical_formula_sum "Si O2"
_cell_formula_units_Z 36
_cell_length_a 13.846240
_cell_length_b 5.172470
_cell_length_c 21.786950
_cell_angle_alpha 90.000000
_cell_angle_beta 90.000000
_cell_angle_gamma 90.000000
_cell_volume 1560.365259
_symmetry_space_group_name_H-M "P C C A"
_symmetry_group_IT_number 54
_symmetry_cell_setting 'orthorhombic'
loop_
_space_group_symop_operation_xyz
x,y,z
1/2-x,-y,z
1/2+x,-y,1/2-z
-x,y,1/2-z
-x,-y,-z
1/2+x,y,-z
1/2-x,y,1/2+z
x,-y,1/2+z
loop_
_atom_site_type_symbol
_atom_site_label
_atom_site_fract_x
_atom_site_fract_y
_atom_site_fract_z
Si Si1 0.393605 0.376744 0.725173
Si Si2 0.933865 0.183492 0.458489
Si Si3 0.098233 0.870516 0.145785
Si Si4 0.420421 0.387422 0.415161
Si Si5 0.750000 0.500000 0.672083
O O1 0.500000 0.452890 0.750000
O O2 0.363958 0.607239 0.677423
O O3 0.319211 0.348849 0.781024
O O4 0.400409 0.097485 0.694831
O O5 0.888868 0.350827 0.513735
O O6 0.007410 0.363849 0.419498
O O7 0.863426 0.016042 0.415701
O O8 0.000000 0.000000 0.500000
O O9 0.991699 0.809309 0.119915
O O10 0.326451 0.375920 0.373741
#
# Coordination Sequence:
#
# PCOD9422702 Si02
#       5
#     8   8   8   8   4
#     4  12  25  43  70 102 149 196 240 301 366 436
#     4   9  19  40  77 100 135 187 242 298 388 432
#     4  11  21  44  70  99 143 197 237 292 374 439
#     4  10  21  43  73 110 142 189 245 315 364 449
#     4  12  26  46  72 116 146 194 266 308 368 442
#
# _framework density 23.07152
#
# number of rings (size 3 to 8) (size 9 to 14) (size 15 to 20)
#    0.000    1.333    4.444    0.667    0.000    0.889 
#    8.000    1.111   14.667    0.000    0.000    0.000 
#    0.000    0.000    0.000    0.000    0.000    0.000 
#
# Total GULP energy -200460.284263 kJ/mol
# GULP energy per Si atom -5568.341230 kJ/mol
# Density = 2.301901 g / cm^3
# Si number density = 23.071520 Si / 1000 Ang^3
#
#
#
# Elastic Constant Matrix: (Units=GPa)
#
#
# Indices 1 2 3 4 5 6 
#
# 1 103.6620 23.0357 51.0926 0.0000 0.0000 0.0000
# 2 23.0357 125.1118 41.3216 0.0000 0.0000 0.0000
# 3 51.0926 41.3216 85.3735 0.0000 0.0000 0.0000
# 4 0.0000 0.0000 0.0000 7.4609 0.0000 0.0000
# 5 0.0000 0.0000 0.0000 0.0000 35.6635 0.0000
# 6 0.0000 0.0000 0.0000 0.0000 0.0000 -18.1737
#
#
#
# Elastic Compliance Matrix: (Units=1/GPa)
#
#
# Indices 1 2 3 4 5 6 
#
# 1 0.013688 0.000221 -0.008298 0.000000 0.000000 0.000000
# 2 0.000221 0.009517 -0.004738 0.000000 0.000000 0.000000
# 3 -0.008298 -0.004738 0.018973 0.000000 0.000000 0.000000
# 4 0.000000 0.000000 0.000000 0.134033 0.000000 0.000000
# 5 0.000000 0.000000 0.000000 0.000000 0.028040 0.000000
# 6 0.000000 0.000000 0.000000 0.000000 0.000000 -0.055025
#
#
# Mechanical properties :
#
#
# Convention : Reuss Voigt Hill
#
# Bulk Modulus (GPa) = 60.43941 60.56080 60.50010
# Shear Modulus (GPa) = 27.72026 18.23663 22.97844
#
# Velocity S-wave (km/s) = 3.47002 2.81452 3.15932
# Velocity P-wave (km/s) = 6.50447 6.07192 6.29191
#
# Compressibility (1/GPa) = 0.01654550
#
# Stress axis : x y z
#
# Youngs Moduli (GPa) = 73.05789 105.07252 52.70682
#
# Poissons Ratio (x) = -0.02317 0.43738
# Poissons Ratio (y) = -0.01611 0.24975
# Poissons Ratio (z) = 0.60626 0.49788
#
# Static dielectric constant tensor:
#      x y z
#    x 2.168270 0.000000 0.000000 
#    y 0.000000 2.031980 0.000000 
#    z 0.000000 0.000000 2.010710 
# 
# From -- ./inp_files/21348.got.cif
#   From: 2010.05.17/outbox.cif.g08.bks.cpg/sg54_11_cif.got.tgz:21348.got - 2010.06.03 13:09:01.
