data_PCOD9422057
_publ_section_title
;
Structure prediction by ZEFSAII (Michael W. Deem and Ramdas Pophale) SiO2 
 PCOD9422057
Probable space group: P C C A
;
_chemical_formula_sum "Si O2"
_cell_formula_units_Z 32
_cell_length_a 15.289110
_cell_length_b 12.290868
_cell_length_c 8.702952
_cell_angle_alpha 90.000000
_cell_angle_beta 90.000000
_cell_angle_gamma 90.000000
_cell_volume 1635.427695
_symmetry_space_group_name_H-M "P C C A"
_symmetry_group_IT_number 54
_symmetry_cell_setting 'orthorhombic'
loop_
_space_group_symop_operation_xyz
x,y,z
1/2-x,-y,z
1/2+x,-y,1/2-z
-x,y,1/2-z
-x,-y,-z
1/2+x,y,-z
1/2-x,y,1/2+z
x,-y,1/2+z
loop_
_atom_site_type_symbol
_atom_site_label
_atom_site_fract_x
_atom_site_fract_y
_atom_site_fract_z
Si Si1 0.301859 0.111211 0.093648
Si Si2 0.029589 0.164370 0.426204
Si Si3 0.357681 0.205317 0.417238
Si Si4 0.485433 0.381596 0.432577
O O1 0.338435 0.168966 0.244898
O O2 0.250000 0.000000 0.131012
O O3 0.383409 0.101655 0.976266
O O4 0.227354 0.182483 0.014970
O O5 0.000000 0.153984 0.250000
O O6 0.943441 0.138270 0.526662
O O7 0.043185 0.291910 0.474761
O O8 0.388961 0.328807 0.445399
O O9 0.500000 0.379440 0.250000
O O10 0.500000 0.500000 0.500000
#
# Coordination Sequence:
#
# PCOD9422057 Si02
#       4
#     8   8   8   8
#     4  12  23  42  69 100 140 182 229 280 341 406
#     4  10  21  42  69  95 139 175 226 286 333 411
#     4  10  23  42  66  99 140 171 228 289 326 420
#     4  10  20  42  73  97 132 178 224 281 349 407
#
# _framework density 19.566745999999998
#
# number of rings (size 3 to 8) (size 9 to 14) (size 15 to 20)
#    1.500    0.000    2.500    3.750    0.000    1.000 
#    0.000    6.250    0.000    0.000    0.000    0.000 
#    0.000    0.000    0.000    0.000    0.000    0.000 
#
# Total GULP energy -178313.542356 kJ/mol
# GULP energy per Si atom -5572.298199 kJ/mol
# Density = 1.952221 g / cm^3
# Si number density = 19.566746 Si / 1000 Ang^3
#
#
#
# Elastic Constant Matrix: (Units=GPa)
#
#
# Indices 1 2 3 4 5 6 
#
# 1 147.4796 42.2141 49.2984 0.0000 0.0000 0.0000
# 2 42.2141 112.8825 27.8525 0.0000 0.0000 0.0000
# 3 49.2984 27.8525 81.4206 0.0000 0.0000 0.0000
# 4 0.0000 0.0000 0.0000 -35.1813 0.0000 0.0000
# 5 0.0000 0.0000 0.0000 0.0000 42.3086 0.0000
# 6 0.0000 0.0000 0.0000 0.0000 0.0000 32.4630
#
#
#
# Elastic Compliance Matrix: (Units=1/GPa)
#
#
# Indices 1 2 3 4 5 6 
#
# 1 0.008976 -0.002201 -0.004681 0.000000 0.000000 0.000000
# 2 -0.002201 0.010215 -0.002162 0.000000 0.000000 0.000000
# 3 -0.004681 -0.002162 0.015856 0.000000 0.000000 0.000000
# 4 0.000000 0.000000 0.000000 -0.028424 0.000000 0.000000
# 5 0.000000 0.000000 0.000000 0.000000 0.023636 0.000000
# 6 0.000000 0.000000 0.000000 0.000000 0.000000 0.030804
#
#
# Mechanical properties :
#
#
# Convention : Reuss Voigt Hill
#
# Bulk Modulus (GPa) = 58.96957 64.50138 61.73547
# Shear Modulus (GPa) = 58.95915 22.74589 40.85252
#
# Velocity S-wave (km/s) = 5.49525 3.41321 4.57426
# Velocity P-wave (km/s) = 8.39445 6.96920 7.71480
#
# Compressibility (1/GPa) = 0.01695790
#
# Stress axis : x y z
#
# Youngs Moduli (GPa) = 111.41282 97.89157 63.06818
#
# Poissons Ratio (x) = 0.21551 0.29525
# Poissons Ratio (y) = 0.24527 0.13632
# Poissons Ratio (z) = 0.52157 0.21160
#
# Static dielectric constant tensor:
#      x y z
#    x 1.674360 0.000000 0.000000 
#    y 0.000000 1.732340 0.000000 
#    z 0.000000 0.000000 1.691240 
# 
# From -- ./inp_files/3322.got.cif
#   From: 2010.05.17/outbox.cif.g08.bks.cpg/sg54_2_cif.got.tgz:3322.got - 2010.06.03 13:09:01.
