data_PCOD9422573
_publ_section_title
;
Structure prediction by ZEFSAII (Michael W. Deem and Ramdas Pophale) SiO2 
 PCOD9422573
Probable space group: P C C A
;
_chemical_formula_sum "Si O2"
_cell_formula_units_Z 40
_cell_length_a 28.590274
_cell_length_b 4.916967
_cell_length_c 13.359718
_cell_angle_alpha 90.000000
_cell_angle_beta 90.000000
_cell_angle_gamma 90.000000
_cell_volume 1878.074872
_symmetry_space_group_name_H-M "P C C A"
_symmetry_group_IT_number 54
_symmetry_cell_setting 'orthorhombic'
loop_
_space_group_symop_operation_xyz
x,y,z
1/2-x,-y,z
1/2+x,-y,1/2-z
-x,y,1/2-z
-x,-y,-z
1/2+x,y,-z
1/2-x,y,1/2+z
x,-y,1/2+z
loop_
_atom_site_type_symbol
_atom_site_label
_atom_site_fract_x
_atom_site_fract_y
_atom_site_fract_z
Si Si1 0.306180 0.474693 0.880387
Si Si2 0.158019 0.038336 0.990851
Si Si3 0.782293 0.754152 0.822554
Si Si4 0.942945 0.267283 0.458401
Si Si5 0.986711 0.750144 0.364695
O O1 0.250000 0.500000 0.894549
O O2 0.312961 0.359550 0.768816
O O3 0.327224 0.770010 0.898393
O O4 0.330344 0.268095 0.958408
O O5 0.189950 0.127082 0.084173
O O6 0.105773 0.121857 0.019623
O O7 0.750000 0.500000 0.854266
O O8 0.750000 0.000000 0.782963
O O9 0.944699 0.550411 0.398821
O O10 0.969478 0.318180 0.563335
O O11 0.972969 0.056867 0.392264
O O12 0.000000 0.717888 0.250000
#
# Coordination Sequence:
#
# PCOD9422573 Si02
#       5
#     8   8   8   8   8
#     4  11  23  39  58  83 116 157 196 234 290 348
#     4  12  23  38  61  87 119 151 194 252 293 336
#     4  11  23  38  57  82 113 153 197 235 283 346
#     4  10  23  38  59  93 115 147 202 238 289 366
#     4  10  21  41  63  83 120 158 187 239 302 358
#
# _framework density 21.298404999999999
#
# number of rings (size 3 to 8) (size 9 to 14) (size 15 to 20)
#    0.000    1.200    0.000    7.800    0.000    3.200 
#    0.000    0.000    0.000    0.000    0.000    0.000 
#    0.000    0.000    0.000    0.000    0.000    0.000 
#
# Total GULP energy -223691.168127 kJ/mol
# GULP energy per Si atom -5592.279203 kJ/mol
# Density = 2.124993 g / cm^3
# Si number density = 21.298405 Si / 1000 Ang^3
#
#
#
# Elastic Constant Matrix: (Units=GPa)
#
#
# Indices 1 2 3 4 5 6 
#
# 1 46.3793 -2.2168 1.4510 0.0000 0.0000 0.0000
# 2 -2.2168 79.6483 8.4842 0.0000 0.0000 0.0000
# 3 1.4510 8.4842 104.6620 0.0000 0.0000 0.0000
# 4 0.0000 0.0000 0.0000 25.3567 0.0000 0.0000
# 5 0.0000 0.0000 0.0000 0.0000 3.7135 0.0000
# 6 0.0000 0.0000 0.0000 0.0000 0.0000 32.9298
#
#
#
# Elastic Compliance Matrix: (Units=1/GPa)
#
#
# Indices 1 2 3 4 5 6 
#
# 1 0.021603 0.000639 -0.000351 0.000000 0.000000 0.000000
# 2 0.000639 0.012683 -0.001037 0.000000 0.000000 0.000000
# 3 -0.000351 -0.001037 0.009643 0.000000 0.000000 0.000000
# 4 0.000000 0.000000 0.000000 0.039437 0.000000 0.000000
# 5 0.000000 0.000000 0.000000 0.000000 0.269286 0.000000
# 6 0.000000 0.000000 0.000000 0.000000 0.000000 0.030368
#
#
# Mechanical properties :
#
#
# Convention : Reuss Voigt Hill
#
# Bulk Modulus (GPa) = 23.56790 27.34736 25.45763
# Shear Modulus (GPa) = 12.54190 27.26476 19.90333
#
# Velocity S-wave (km/s) = 2.42929 3.58177 3.06027
# Velocity P-wave (km/s) = 4.35410 5.47480 4.94629
#
# Compressibility (1/GPa) = 0.04243059
#
# Stress axis : x y z
#
# Youngs Moduli (GPa) = 46.29020 78.84301 103.69682
#
# Poissons Ratio (x) = -0.05035 0.03642
# Poissons Ratio (y) = -0.02956 0.10753
# Poissons Ratio (z) = 0.01626 0.08176
#
# Static dielectric constant tensor:
#      x y z
#    x 1.775370 0.000000 0.000000 
#    y 0.000000 1.764350 0.000000 
#    z 0.000000 0.000000 1.763990 
# 
# From -- ./inp_files/10424.got.cif
#   From: 2010.05.17/outbox.cif.g08.bks.cpg/sg54_6_cif.got.tgz:10424.got - 2010.06.03 13:09:01.
