data_PCOD9422547
_publ_section_title
;
Structure prediction by ZEFSAII (Michael W. Deem and Ramdas Pophale) SiO2 
 PCOD9422547
Probable space group: P C C A
;
_chemical_formula_sum "Si O2"
_cell_formula_units_Z 56
_cell_length_a 14.320234
_cell_length_b 9.358473
_cell_length_c 19.168930
_cell_angle_alpha 90.000000
_cell_angle_beta 90.000000
_cell_angle_gamma 90.000000
_cell_volume 2568.934184
_symmetry_space_group_name_H-M "P C C A"
_symmetry_group_IT_number 54
_symmetry_cell_setting 'orthorhombic'
loop_
_space_group_symop_operation_xyz
x,y,z
1/2-x,-y,z
1/2+x,-y,1/2-z
-x,y,1/2-z
-x,-y,-z
1/2+x,y,-z
1/2-x,y,1/2+z
x,-y,1/2+z
loop_
_atom_site_type_symbol
_atom_site_label
_atom_site_fract_x
_atom_site_fract_y
_atom_site_fract_z
Si Si1 0.970006 0.312031 0.329880
Si Si2 0.484371 0.567794 0.576309
Si Si3 0.645122 0.041958 0.799768
Si Si4 0.303638 0.647643 0.915991
Si Si5 0.844032 0.153904 0.144696
Si Si6 0.429656 0.872010 0.586358
Si Si7 0.865010 0.925767 0.024889
O O1 0.890626 0.192705 0.329226
O O2 0.000000 0.341424 0.250000
O O3 0.943714 0.450756 0.371978
O O4 0.061471 0.243881 0.366157
O O5 0.500000 0.500000 0.500000
O O6 0.589247 0.609777 0.603225
O O7 0.416475 0.704251 0.575982
O O8 0.643566 0.068177 0.716660
O O9 0.750000 0.000000 0.817355
O O10 0.577408 0.922840 0.833615
O O11 0.250000 0.500000 0.933198
O O12 0.242247 0.734478 0.858383
O O13 0.314329 0.772199 0.974683
O O14 0.836748 0.039363 0.083817
O O15 0.529700 0.891516 0.549531
O O16 0.364613 0.983902 0.545588
#
# Coordination Sequence:
#
# PCOD9422547 Si02
#       7
#     8   8   8   8   8   8   8
#     4  10  22  43  69  96 137 185 221 283 360 418
#     4  11  24  46  69  98 145 181 230 294 358 437
#     4  11  24  43  66  97 134 177 233 291 345 419
#     4  11  23  38  67 103 132 175 234 293 339 420
#     4  11  21  44  68  98 131 176 237 285 341 414
#     4  10  23  41  65 100 133 181 225 285 354 418
#     4  10  21  40  67  96 132 177 230 285 336 420
#
# _framework density 21.798922999999998
#
# number of rings (size 3 to 8) (size 9 to 14) (size 15 to 20)
#    0.000    1.429    2.857    2.143    4.000    1.143 
#    7.714    0.714    0.000    0.857    0.000    0.000 
#    0.000    0.000    0.000    0.000    0.000    0.000 
#
# Total GULP energy -312557.335982 kJ/mol
# GULP energy per Si atom -5581.381000 kJ/mol
# Density = 2.174931 g / cm^3
# Si number density = 21.798923 Si / 1000 Ang^3
#
#
#
# Elastic Constant Matrix: (Units=GPa)
#
#
# Indices 1 2 3 4 5 6 
#
# 1 43.1937 14.0641 12.1241 0.0000 0.0000 0.0000
# 2 14.0641 146.3504 69.4540 0.0000 0.0000 0.0000
# 3 12.1241 69.4540 91.5474 0.0000 0.0000 0.0000
# 4 0.0000 0.0000 0.0000 23.2281 0.0000 0.0000
# 5 0.0000 0.0000 0.0000 0.0000 -71.5258 0.0000
# 6 0.0000 0.0000 0.0000 0.0000 0.0000 41.6536
#
#
#
# Elastic Compliance Matrix: (Units=1/GPa)
#
#
# Indices 1 2 3 4 5 6 
#
# 1 0.024192 -0.001257 -0.002250 0.000000 0.000000 0.000000
# 2 -0.001257 0.010742 -0.007983 0.000000 0.000000 0.000000
# 3 -0.002250 -0.007983 0.017278 0.000000 0.000000 0.000000
# 4 0.000000 0.000000 0.000000 0.043051 0.000000 0.000000
# 5 0.000000 0.000000 0.000000 0.000000 -0.013981 0.000000
# 6 0.000000 0.000000 0.000000 0.000000 0.000000 0.024008
#
#
# Mechanical properties :
#
#
# Convention : Reuss Voigt Hill
#
# Bulk Modulus (GPa) = 34.20964 52.48623 43.34794
# Shear Modulus (GPa) = 36.22759 11.03446 23.63102
#
# Velocity S-wave (km/s) = 4.08106 2.25231 3.29606
# Velocity P-wave (km/s) = 6.15907 5.55820 5.86633
#
# Compressibility (1/GPa) = 0.02923153
#
# Stress axis : x y z
#
# Youngs Moduli (GPa) = 41.33521 93.08857 57.87658
#
# Poissons Ratio (x) = 0.11700 0.13024
# Poissons Ratio (y) = 0.05195 0.46206
# Poissons Ratio (z) = 0.09302 0.74317
#
# Static dielectric constant tensor:
#      x y z
#    x 2.100840 0.000000 0.000000 
#    y 0.000000 1.812880 0.000000 
#    z 0.000000 0.000000 1.845210 
# 
# From -- ./inp_files/21606.got.cif
#   From: 2010.05.17/outbox.cif.g08.bks.cpg/sg54_11_cif.got.tgz:21606.got - 2010.06.03 13:09:01.
