data_PCOD9422319
_publ_section_title
;
Structure prediction by ZEFSAII (Michael W. Deem and Ramdas Pophale) SiO2 
 PCOD9422319
Probable space group: P C C A
;
_chemical_formula_sum "Si O2"
_cell_formula_units_Z 44
_cell_length_a 18.241120
_cell_length_b 5.908611
_cell_length_c 19.029308
_cell_angle_alpha 90.000000
_cell_angle_beta 90.000000
_cell_angle_gamma 90.000000
_cell_volume 2050.972770
_symmetry_space_group_name_H-M "P C C A"
_symmetry_group_IT_number 54
_symmetry_cell_setting 'orthorhombic'
loop_
_space_group_symop_operation_xyz
x,y,z
1/2-x,-y,z
1/2+x,-y,1/2-z
-x,y,1/2-z
-x,-y,-z
1/2+x,y,-z
1/2-x,y,1/2+z
x,-y,1/2+z
loop_
_atom_site_type_symbol
_atom_site_label
_atom_site_fract_x
_atom_site_fract_y
_atom_site_fract_z
Si Si1 0.351649 0.854829 0.186419
Si Si2 0.564417 0.845235 0.082551
Si Si3 0.483031 0.494168 0.673203
Si Si4 0.250000 0.500000 0.756281
Si Si5 0.416294 0.124490 0.072921
Si Si6 0.172034 0.122804 0.824653
O O1 0.423430 0.699933 0.188041
O O2 0.284787 0.691251 0.206704
O O3 0.351835 0.993138 0.113868
O O4 0.356172 0.027801 0.250482
O O5 0.550267 0.630896 0.133357
O O6 0.483398 0.946183 0.069810
O O7 0.613483 0.039194 0.118885
O O8 0.597730 0.792021 0.006054
O O9 0.500000 0.594919 0.750000
O O10 0.445793 0.673780 0.621627
O O11 0.191245 0.381556 0.807601
O O12 0.250000 0.000000 0.840532
#
# Coordination Sequence:
#
# PCOD9422319 Si02
#       6
#     8   8   8   4   8   8
#     4  10  21  39  57  93 120 162 210 261 311 365
#     4  10  22  41  56  91 130 162 203 259 317 377
#     4  11  21  35  65  93 120 165 210 255 311 374
#     4  10  22  38  62  88 124 164 220 272 300 374
#     4  10  23  36  62  90 129 162 200 262 319 376
#     4  10  21  38  60  86 120 162 216 261 306 373
#
# _framework density 21.453234999999999
#
# number of rings (size 3 to 8) (size 9 to 14) (size 15 to 20)
#    0.000    1.818    1.818    1.636    5.091    0.000 
#    0.000    5.455    0.000    0.000    0.000    0.000 
#    0.000    0.000    0.000    0.000    0.000    0.000 
#
# Total GULP energy -245678.453280 kJ/mol
# GULP energy per Si atom -5583.601211 kJ/mol
# Density = 2.140441 g / cm^3
# Si number density = 21.453235 Si / 1000 Ang^3
#
#
#
# Elastic Constant Matrix: (Units=GPa)
#
#
# Indices 1 2 3 4 5 6 
#
# 1 54.0771 17.4444 34.6953 0.0000 0.0000 0.0000
# 2 17.4444 86.3958 49.9389 0.0000 0.0000 0.0000
# 3 34.6953 49.9389 169.8053 0.0000 0.0000 0.0000
# 4 0.0000 0.0000 0.0000 5.4596 0.0000 0.0000
# 5 0.0000 0.0000 0.0000 0.0000 -12.5311 0.0000
# 6 0.0000 0.0000 0.0000 0.0000 0.0000 37.7187
#
#
#
# Elastic Compliance Matrix: (Units=1/GPa)
#
#
# Indices 1 2 3 4 5 6 
#
# 1 0.021618 -0.002183 -0.003775 0.000000 0.000000 0.000000
# 2 -0.002183 0.014166 -0.003720 0.000000 0.000000 0.000000
# 3 -0.003775 -0.003720 0.007754 0.000000 0.000000 0.000000
# 4 0.000000 0.000000 0.000000 0.183163 0.000000 0.000000
# 5 0.000000 0.000000 0.000000 0.000000 -0.079801 0.000000
# 6 0.000000 0.000000 0.000000 0.000000 0.000000 0.026512
#
#
# Mechanical properties :
#
#
# Convention : Reuss Voigt Hill
#
# Bulk Modulus (GPa) = 41.35242 57.15947 49.25594
# Shear Modulus (GPa) = 24.89676 20.00941 22.45308
#
# Velocity S-wave (km/s) = 3.41033 3.05733 3.23864
# Velocity P-wave (km/s) = 5.90123 6.25816 6.08232
#
# Compressibility (1/GPa) = 0.02418238
#
# Stress axis : x y z
#
# Youngs Moduli (GPa) = 46.25687 70.59330 128.95739
#
# Poissons Ratio (x) = 0.15410 0.48684
# Poissons Ratio (y) = 0.10097 0.47973
# Poissons Ratio (z) = 0.17463 0.26261
#
# Static dielectric constant tensor:
#      x y z
#    x 1.818900 0.000000 0.000000 
#    y 0.000000 1.798270 0.000000 
#    z 0.000000 0.000000 1.787840 
# 
# From -- ./inp_files/19011.got.cif
#   From: 2010.05.17/outbox.cif.g08.bks.cpg/sg54_10_cif.got.tgz:19011.got - 2010.06.03 13:09:01.
