data_PCOD9422607
_publ_section_title
;
Structure prediction by ZEFSAII (Michael W. Deem and Ramdas Pophale) SiO2 
 PCOD9422607
Probable space group: P C C A
;
_chemical_formula_sum "Si O2"
_cell_formula_units_Z 28
_cell_length_a 15.392516
_cell_length_b 5.154385
_cell_length_c 16.896359
_cell_angle_alpha 90.000000
_cell_angle_beta 90.000000
_cell_angle_gamma 90.000000
_cell_volume 1340.539442
_symmetry_space_group_name_H-M "P C C A"
_symmetry_group_IT_number 54
_symmetry_cell_setting 'orthorhombic'
loop_
_space_group_symop_operation_xyz
x,y,z
1/2-x,-y,z
1/2+x,-y,1/2-z
-x,y,1/2-z
-x,-y,-z
1/2+x,y,-z
1/2-x,y,1/2+z
x,-y,1/2+z
loop_
_atom_site_type_symbol
_atom_site_label
_atom_site_fract_x
_atom_site_fract_y
_atom_site_fract_z
Si Si1 0.750000 0.500000 0.761848
Si Si2 0.938161 0.397056 0.826119
Si Si3 0.497376 0.118335 0.912811
Si Si4 0.297735 0.751547 0.393680
O O1 0.836000 0.399749 0.805286
O O2 0.718907 0.279471 0.700231
O O3 0.949267 0.623578 0.891349
O O4 0.000000 0.463651 0.750000
O O5 0.972353 0.118719 0.856600
O O6 0.398960 0.214405 0.902581
O O7 0.500000 0.000000 0.000000
O O8 0.250000 0.500000 0.428749
O O9 0.250000 0.000000 0.426643
#
# Coordination Sequence:
#
# PCOD9422607 Si02
#       4
#     4   8   8   8
#     4  10  24  40  72 104 134 174 252 294 346 400
#     4  12  24  44  75 100 136 186 243 295 343 425
#     4  12  26  46  67 103 147 184 225 290 372 428
#     4  10  21  41  68  96 133 177 231 280 351 411
#
# _framework density 20.887115000000001
#
# number of rings (size 3 to 8) (size 9 to 14) (size 15 to 20)
#    0.857    0.000    2.857    5.143    4.000    0.000 
#    7.714    0.000    0.000    0.000    0.000    0.000 
#    0.000    0.000    0.000    0.000    0.000    0.000 
#
# Total GULP energy -156203.784847 kJ/mol
# GULP energy per Si atom -5578.706602 kJ/mol
# Density = 2.083957 g / cm^3
# Si number density = 20.887115 Si / 1000 Ang^3
#
#
#
# Elastic Constant Matrix: (Units=GPa)
#
#
# Indices 1 2 3 4 5 6 
#
# 1 195.6931 51.9228 51.0716 0.0000 0.0000 0.0000
# 2 51.9228 148.5986 12.9917 0.0000 0.0000 0.0000
# 3 51.0716 12.9917 45.1543 0.0000 0.0000 0.0000
# 4 0.0000 0.0000 0.0000 61.5986 0.0000 0.0000
# 5 0.0000 0.0000 0.0000 0.0000 14.1188 0.0000
# 6 0.0000 0.0000 0.0000 0.0000 0.0000 22.0204
#
#
#
# Elastic Compliance Matrix: (Units=1/GPa)
#
#
# Indices 1 2 3 4 5 6 
#
# 1 0.007791 -0.002002 -0.008235 0.000000 0.000000 0.000000
# 2 -0.002002 0.007418 0.000130 0.000000 0.000000 0.000000
# 3 -0.008235 0.000130 0.031423 0.000000 0.000000 0.000000
# 4 0.000000 0.000000 0.000000 0.016234 0.000000 0.000000
# 5 0.000000 0.000000 0.000000 0.000000 0.070828 0.000000
# 6 0.000000 0.000000 0.000000 0.000000 0.000000 0.045412
#
#
# Mechanical properties :
#
#
# Convention : Reuss Voigt Hill
#
# Bulk Modulus (GPa) = 37.85414 69.04645 53.45030
# Shear Modulus (GPa) = 24.02391 37.77823 30.90107
#
# Velocity S-wave (km/s) = 3.39511 4.25748 3.85051
# Velocity P-wave (km/s) = 5.79064 7.56947 6.73901
#
# Compressibility (1/GPa) = 0.02641719
#
# Stress axis : x y z
#
# Youngs Moduli (GPa) = 128.36122 134.81220 31.82341
#
# Poissons Ratio (x) = 0.26991 0.26208
# Poissons Ratio (y) = 0.25700 -0.00415
# Poissons Ratio (z) = 1.05710 -0.01756
#
# Static dielectric constant tensor:
#      x y z
#    x 1.685440 0.000000 0.000000 
#    y 0.000000 1.754140 0.000000 
#    z 0.000000 0.000000 1.794760 
# 
# From -- ./inp_files/17537.got.cif
#   From: 2010.05.17/outbox.cif.g08.bks.cpg/sg54_9_cif.got.tgz:17537.got - 2010.06.03 13:09:01.
