data_PCOD9422245
_publ_section_title
;
Structure prediction by ZEFSAII (Michael W. Deem and Ramdas Pophale) SiO2 
 PCOD9422245
Probable space group: P C C A
;
_chemical_formula_sum "Si O2"
_cell_formula_units_Z 24
_cell_length_a 7.766005
_cell_length_b 5.036525
_cell_length_c 27.442330
_cell_angle_alpha 90.000000
_cell_angle_beta 90.000000
_cell_angle_gamma 90.000000
_cell_volume 1073.370468
_symmetry_space_group_name_H-M "P C C A"
_symmetry_group_IT_number 54
_symmetry_cell_setting 'orthorhombic'
loop_
_space_group_symop_operation_xyz
x,y,z
1/2-x,-y,z
1/2+x,-y,1/2-z
-x,y,1/2-z
-x,-y,-z
1/2+x,y,-z
1/2-x,y,1/2+z
x,-y,1/2+z
loop_
_atom_site_type_symbol
_atom_site_label
_atom_site_fract_x
_atom_site_fract_y
_atom_site_fract_z
Si Si1 0.541201 0.484794 0.616884
Si Si2 0.044708 0.978423 0.443550
Si Si3 0.860423 0.739924 0.289270
O O1 0.750000 0.500000 0.623542
O O2 0.485200 0.200710 0.595372
O O3 0.450850 0.593052 0.665248
O O4 0.491244 0.692095 0.575056
O O5 0.250000 0.000000 0.440848
O O6 0.000000 0.000000 0.500000
O O7 0.750000 0.500000 0.265922
O O8 0.000000 0.832013 0.250000
O O9 0.750000 0.000000 0.302787
#
# Coordination Sequence:
#
# PCOD9422245 Si02
#       3
#     8   8   8
#     4  10  22  41  63  90 127 168 213 266 322 381
#     4  10  21  37  60  90 125 166 210 263 321 378
#     4  12  26  44  68  98 130 172 219 273 332 395
#
# _framework density 22.359476000000001
#
# number of rings (size 3 to 8) (size 9 to 14) (size 15 to 20)
#    0.000    1.333    0.000    5.000    0.000    8.000 
#    0.000    0.000    0.000    0.000    0.000    0.000 
#    0.000    0.000    0.000    0.000    0.000    0.000 
#
# Total GULP energy -134145.150487 kJ/mol
# GULP energy per Si atom -5589.381270 kJ/mol
# Density = 2.230858 g / cm^3
# Si number density = 22.359476 Si / 1000 Ang^3
#
#
#
# Elastic Constant Matrix: (Units=GPa)
#
#
# Indices 1 2 3 4 5 6 
#
# 1 57.5066 45.2620 44.1582 0.0000 0.0000 0.0000
# 2 45.2620 119.3898 16.1469 0.0000 0.0000 0.0000
# 3 44.1582 16.1469 117.8491 0.0000 0.0000 0.0000
# 4 0.0000 0.0000 0.0000 34.7663 0.0000 0.0000
# 5 0.0000 0.0000 0.0000 0.0000 32.9084 0.0000
# 6 0.0000 0.0000 0.0000 0.0000 0.0000 24.5569
#
#
#
# Elastic Compliance Matrix: (Units=1/GPa)
#
#
# Indices 1 2 3 4 5 6 
#
# 1 0.035921 -0.012020 -0.011813 0.000000 0.000000 0.000000
# 2 -0.012020 0.012557 0.002784 0.000000 0.000000 0.000000
# 3 -0.011813 0.002784 0.012530 0.000000 0.000000 0.000000
# 4 0.000000 0.000000 0.000000 0.028764 0.000000 0.000000
# 5 0.000000 0.000000 0.000000 0.000000 0.030387 0.000000
# 6 0.000000 0.000000 0.000000 0.000000 0.000000 0.040722
#
#
# Mechanical properties :
#
#
# Convention : Reuss Voigt Hill
#
# Bulk Modulus (GPa) = 52.88523 56.20884 54.54703
# Shear Modulus (GPa) = 23.89115 31.05820 27.47468
#
# Velocity S-wave (km/s) = 3.27234 3.73103 3.50919
# Velocity P-wave (km/s) = 6.16289 6.61468 6.39278
#
# Compressibility (1/GPa) = 0.01890887
#
# Stress axis : x y z
#
# Youngs Moduli (GPa) = 27.83881 79.63973 79.80678
#
# Poissons Ratio (x) = 0.95731 0.94273
# Poissons Ratio (y) = 0.33464 -0.22216
# Poissons Ratio (z) = 0.32885 -0.22169
#
# Static dielectric constant tensor:
#      x y z
#    x 1.864560 0.000000 0.000000 
#    y 0.000000 1.824120 0.000000 
#    z 0.000000 0.000000 1.792120 
# 
# From -- ./inp_files/23081.got.cif
#   From: 2010.05.17/outbox.cif.g08.bks.cpg/sg54_12_cif.got.tgz:23081.got - 2010.06.03 13:09:01.
