data_PCOD9422231
_publ_section_title
;
Structure prediction by ZEFSAII (Michael W. Deem and Ramdas Pophale) SiO2 
 PCOD9422231
Probable space group: P C C A
;
_chemical_formula_sum "Si O2"
_cell_formula_units_Z 48
_cell_length_a 10.649936
_cell_length_b 10.592063
_cell_length_c 20.224341
_cell_angle_alpha 90.000000
_cell_angle_beta 90.000000
_cell_angle_gamma 90.000000
_cell_volume 2281.402601
_symmetry_space_group_name_H-M "P C C A"
_symmetry_group_IT_number 54
_symmetry_cell_setting 'orthorhombic'
loop_
_space_group_symop_operation_xyz
x,y,z
1/2-x,-y,z
1/2+x,-y,1/2-z
-x,y,1/2-z
-x,-y,-z
1/2+x,y,-z
1/2-x,y,1/2+z
x,-y,1/2+z
loop_
_atom_site_type_symbol
_atom_site_label
_atom_site_fract_x
_atom_site_fract_y
_atom_site_fract_z
Si Si1 0.000000 0.038334 0.750000
Si Si2 0.849556 0.115117 0.341165
Si Si3 0.000000 0.546559 0.250000
Si Si4 0.289620 0.755314 0.774483
Si Si5 0.707589 0.645623 0.590001
Si Si6 0.803557 0.682272 0.942567
Si Si7 0.061624 0.455628 0.607771
O O1 0.115429 0.127038 0.769869
O O2 0.028579 0.952625 0.686932
O O3 0.808518 0.211542 0.282446
O O4 0.853859 0.192851 0.408230
O O5 0.750000 0.000000 0.347560
O O6 0.877100 0.634377 0.240935
O O7 0.969934 0.484170 0.320187
O O8 0.242724 0.726640 0.848351
O O9 0.750000 0.500000 0.595851
O O10 0.741586 0.695447 0.517645
O O11 0.944110 0.365223 0.593817
O O12 0.686995 0.629043 0.898781
O O13 0.909138 0.572416 0.940163
#
# Coordination Sequence:
#
# PCOD9422231 Si02
#       7
#     4   8   4   8   8   8   8
#     4   9  20  39  60  86 114 159 199 262 304 336
#     4  10  21  39  62  85 114 157 208 246 299 353
#     4   9  16  33  58  84 108 155 191 238 298 348
#     4   9  19  36  59  82 117 150 197 248 295 355
#     4  11  23  37  59  90 122 163 194 241 310 368
#     4  11  22  38  60  88 124 159 194 248 300 363
#     4  10  21  37  59  86 126 157 197 244 309 360
#
# _framework density 21.039688999999999
#
# number of rings (size 3 to 8) (size 9 to 14) (size 15 to 20)
#    0.000    2.000    3.333    0.500    2.333    4.667 
#    0.000    3.333    0.000    0.000    0.000    0.000 
#    0.000    0.000    0.000    0.000    0.000    0.000 
#
# Total GULP energy -267763.153468 kJ/mol
# GULP energy per Si atom -5578.399031 kJ/mol
# Density = 2.099180 g / cm^3
# Si number density = 21.039689 Si / 1000 Ang^3
#
#
#
# Elastic Constant Matrix: (Units=GPa)
#
#
# Indices 1 2 3 4 5 6 
#
# 1 24.1868 -3.5636 -8.6240 0.0000 0.0000 0.0000
# 2 -3.5636 60.3526 27.6301 0.0000 0.0000 0.0000
# 3 -8.6240 27.6301 130.8995 0.0000 0.0000 0.0000
# 4 0.0000 0.0000 0.0000 23.8339 0.0000 0.0000
# 5 0.0000 0.0000 0.0000 0.0000 17.3928 0.0000
# 6 0.0000 0.0000 0.0000 0.0000 0.0000 -9.5711
#
#
#
# Elastic Compliance Matrix: (Units=1/GPa)
#
#
# Indices 1 2 3 4 5 6 
#
# 1 0.042440 0.001357 0.002510 0.000000 0.000000 0.000000
# 2 0.001357 0.018385 -0.003791 0.000000 0.000000 0.000000
# 3 0.002510 -0.003791 0.008605 0.000000 0.000000 0.000000
# 4 0.000000 0.000000 0.000000 0.041957 0.000000 0.000000
# 5 0.000000 0.000000 0.000000 0.000000 0.057495 0.000000
# 6 0.000000 0.000000 0.000000 0.000000 0.000000 -0.104481
#
#
# Mechanical properties :
#
#
# Convention : Reuss Voigt Hill
#
# Bulk Modulus (GPa) = 14.37187 27.36932 20.87059
# Shear Modulus (GPa) = 57.17952 19.66421 38.42187
#
# Velocity S-wave (km/s) = 5.21881 3.06048 4.27800
# Velocity P-wave (km/s) = 6.56965 5.05226 5.86028
#
# Compressibility (1/GPa) = 0.06958038
#
# Stress axis : x y z
#
# Youngs Moduli (GPa) = 23.56289 54.39182 116.21071
#
# Poissons Ratio (x) = -0.07381 -0.29164
# Poissons Ratio (y) = -0.03197 0.44059
# Poissons Ratio (z) = -0.05913 0.20622
#
# Static dielectric constant tensor:
#      x y z
#    x 1.805500 0.000000 0.000000 
#    y 0.000000 1.738270 0.000000 
#    z 0.000000 0.000000 1.796930 
# 
# From -- ./inp_files/17352.got.cif
#   From: 2010.05.17/outbox.cif.g08.bks.cpg/sg54_9_cif.got.tgz:17352.got - 2010.06.03 13:09:01.
