data_PCOD9422475
_publ_section_title
;
Structure prediction by ZEFSAII (Michael W. Deem and Ramdas Pophale) SiO2 
 PCOD9422475
Probable space group: P C C A
;
_chemical_formula_sum "Si O2"
_cell_formula_units_Z 40
_cell_length_a 14.200106
_cell_length_b 7.292905
_cell_length_c 17.627214
_cell_angle_alpha 90.000000
_cell_angle_beta 90.000000
_cell_angle_gamma 90.000000
_cell_volume 1825.474706
_symmetry_space_group_name_H-M "P C C A"
_symmetry_group_IT_number 54
_symmetry_cell_setting 'orthorhombic'
loop_
_space_group_symop_operation_xyz
x,y,z
1/2-x,-y,z
1/2+x,-y,1/2-z
-x,y,1/2-z
-x,-y,-z
1/2+x,y,-z
1/2-x,y,1/2+z
x,-y,1/2+z
loop_
_atom_site_type_symbol
_atom_site_label
_atom_site_fract_x
_atom_site_fract_y
_atom_site_fract_z
Si Si1 0.354446 0.420435 0.292739
Si Si2 0.283247 0.792045 0.931667
Si Si3 0.550482 0.482393 0.854219
Si Si4 0.414668 0.139620 0.569811
Si Si5 0.400913 0.750029 0.513696
O O1 0.250000 0.500000 0.284153
O O2 0.333904 0.264194 0.354415
O O3 0.396076 0.395543 0.208725
O O4 0.441165 0.533079 0.330472
O O5 0.250000 0.000000 0.923419
O O6 0.356084 0.780661 0.999872
O O7 0.189742 0.692737 0.964251
O O8 0.596372 0.279696 0.860397
O O9 0.561816 0.586594 0.933976
O O10 0.522865 0.167823 0.544753
O O11 0.385105 0.926281 0.570109
#
# Coordination Sequence:
#
# PCOD9422475 Si02
#       5
#     8   8   8   8   8
#     4  11  25  43  60  94 130 169 211 253 328 387
#     4  10  22  40  64  94 125 163 213 264 317 376
#     4  11  24  43  64  91 132 169 208 262 319 387
#     4  10  21  39  66  97 122 159 216 264 317 373
#     4  10  21  39  69  95 122 164 214 268 316 376
#
# _framework density 21.912106999999999
#
# number of rings (size 3 to 8) (size 9 to 14) (size 15 to 20)
#    0.000    1.600    2.000    1.800    5.600    0.000 
#    3.600    2.000    0.000    0.000    0.000    0.000 
#    0.000    0.000    0.000    0.000    0.000    0.000 
#
# Total GULP energy -222933.424257 kJ/mol
# GULP energy per Si atom -5573.335606 kJ/mol
# Density = 2.186223 g / cm^3
# Si number density = 21.912107 Si / 1000 Ang^3
#
#
#
# Elastic Constant Matrix: (Units=GPa)
#
#
# Indices 1 2 3 4 5 6 
#
# 1 104.7927 17.9739 34.9993 0.0000 0.0000 0.0000
# 2 17.9739 50.4902 32.4314 0.0000 0.0000 0.0000
# 3 34.9993 32.4314 90.0752 0.0000 0.0000 0.0000
# 4 0.0000 0.0000 0.0000 65.8292 0.0000 0.0000
# 5 0.0000 0.0000 0.0000 0.0000 -38.0029 0.0000
# 6 0.0000 0.0000 0.0000 0.0000 0.0000 29.4959
#
#
#
# Elastic Compliance Matrix: (Units=1/GPa)
#
#
# Indices 1 2 3 4 5 6 
#
# 1 0.011056 -0.001530 -0.003745 0.000000 0.000000 0.000000
# 2 -0.001530 0.025976 -0.008758 0.000000 0.000000 0.000000
# 3 -0.003745 -0.008758 0.015710 0.000000 0.000000 0.000000
# 4 0.000000 0.000000 0.000000 0.015191 0.000000 0.000000
# 5 0.000000 0.000000 0.000000 0.000000 -0.026314 0.000000
# 6 0.000000 0.000000 0.000000 0.000000 0.000000 0.033903
#
#
# Mechanical properties :
#
#
# Convention : Reuss Voigt Hill
#
# Bulk Modulus (GPa) = 40.52548 46.24082 43.38315
# Shear Modulus (GPa) = 44.71706 22.12799 33.42252
#
# Velocity S-wave (km/s) = 4.52236 3.18126 3.90975
# Velocity P-wave (km/s) = 6.76785 5.88580 6.34217
#
# Compressibility (1/GPa) = 0.02467583
#
# Stress axis : x y z
#
# Youngs Moduli (GPa) = 90.44980 38.49679 63.65273
#
# Poissons Ratio (x) = 0.05891 0.23837
# Poissons Ratio (y) = 0.13842 0.55748
# Poissons Ratio (z) = 0.33872 0.33716
#
# Static dielectric constant tensor:
#      x y z
#    x 1.864000 0.000000 0.000000 
#    y 0.000000 1.891190 0.000000 
#    z 0.000000 0.000000 1.840710 
# 
# From -- ./inp_files/17835.got.cif
#   From: 2010.05.17/outbox.cif.g08.bks.cpg/sg54_9_cif.got.tgz:17835.got - 2010.06.03 13:09:01.
