data_PCOD9422014
_publ_section_title
;
Structure prediction by ZEFSAII (Michael W. Deem and Ramdas Pophale) SiO2 
 PCOD9422014
Probable space group: P C C A
;
_chemical_formula_sum "Si O2"
_cell_formula_units_Z 56
_cell_length_a 14.863630
_cell_length_b 7.430956
_cell_length_c 22.238087
_cell_angle_alpha 90.000000
_cell_angle_beta 90.000000
_cell_angle_gamma 90.000000
_cell_volume 2456.218514
_symmetry_space_group_name_H-M "P C C A"
_symmetry_group_IT_number 54
_symmetry_cell_setting 'orthorhombic'
loop_
_space_group_symop_operation_xyz
x,y,z
1/2-x,-y,z
1/2+x,-y,1/2-z
-x,y,1/2-z
-x,-y,-z
1/2+x,y,-z
1/2-x,y,1/2+z
x,-y,1/2+z
loop_
_atom_site_type_symbol
_atom_site_label
_atom_site_fract_x
_atom_site_fract_y
_atom_site_fract_z
Si Si1 0.674602 0.093853 0.679567
Si Si2 0.606639 0.553240 0.243655
Si Si3 0.951493 0.034882 0.080887
Si Si4 0.317851 0.653766 0.867122
Si Si5 0.144360 0.946656 0.543251
Si Si6 0.656306 0.582511 0.379936
Si Si7 0.523967 0.471749 0.568577
O O1 0.623526 0.259262 0.709424
O O2 0.596950 0.987921 0.643777
O O3 0.749227 0.180069 0.634485
O O4 0.750000 0.000000 0.722441
O O5 0.500000 0.520875 0.250000
O O6 0.651304 0.400464 0.201198
O O7 0.652287 0.587694 0.307894
O O8 0.951631 0.257750 0.077961
O O9 0.054457 0.966728 0.075186
O O10 0.891517 0.962157 0.025400
O O11 0.250000 0.500000 0.888038
O O12 0.401622 0.611271 0.909182
O O13 0.146595 0.760636 0.580005
O O14 0.250000 0.000000 0.544626
O O15 0.750000 0.500000 0.398959
O O16 0.565545 0.479118 0.395369
O O17 0.500000 0.500000 0.500000
#
# Coordination Sequence:
#
# PCOD9422014 Si02
#       7
#     8   8   8   8   8   8   8
#     4  11  23  40  69 101 131 174 229 277 341 401
#     4  11  20  44  74  92 133 177 227 286 338 393
#     4  10  21  43  63  91 131 178 228 273 328 399
#     4  10  20  41  69  96 121 177 230 277 330 401
#     4  10  23  40  63  90 132 185 215 266 348 406
#     4  11  24  42  63  99 135 174 220 280 338 396
#     4  11  23  38  64 100 130 171 225 276 330 398
#
# _framework density 22.799275000000002
#
# number of rings (size 3 to 8) (size 9 to 14) (size 15 to 20)
#    0.000    1.429    4.286    2.571    2.000    6.857 
#    0.000    0.714    0.000    0.000    0.000    0.000 
#    0.000    0.000    0.000    0.000    0.000    0.000 
#
# Total GULP energy -311877.093055 kJ/mol
# GULP energy per Si atom -5569.233805 kJ/mol
# Density = 2.274738 g / cm^3
# Si number density = 22.799275 Si / 1000 Ang^3
#
#
#
# Elastic Constant Matrix: (Units=GPa)
#
#
# Indices 1 2 3 4 5 6 
#
# 1 211.1717 34.6948 43.9237 0.0000 0.0000 0.0000
# 2 34.6948 62.3144 28.8282 0.0000 0.0000 0.0000
# 3 43.9237 28.8282 99.3304 0.0000 0.0000 0.0000
# 4 0.0000 0.0000 0.0000 45.5554 0.0000 0.0000
# 5 0.0000 0.0000 0.0000 0.0000 95.2190 0.0000
# 6 0.0000 0.0000 0.0000 0.0000 0.0000 39.2989
#
#
#
# Elastic Compliance Matrix: (Units=1/GPa)
#
#
# Indices 1 2 3 4 5 6 
#
# 1 0.005470 -0.002225 -0.001773 0.000000 0.000000 0.000000
# 2 -0.002225 0.019442 -0.004658 0.000000 0.000000 0.000000
# 3 -0.001773 -0.004658 0.012203 0.000000 0.000000 0.000000
# 4 0.000000 0.000000 0.000000 0.021951 0.000000 0.000000
# 5 0.000000 0.000000 0.000000 0.000000 0.010502 0.000000
# 6 0.000000 0.000000 0.000000 0.000000 0.000000 0.025446
#
#
# Mechanical properties :
#
#
# Convention : Reuss Voigt Hill
#
# Bulk Modulus (GPa) = 50.50079 65.30110 57.90095
# Shear Modulus (GPa) = 42.04212 53.70598 47.87405
#
# Velocity S-wave (km/s) = 4.29885 4.85872 4.58734
# Velocity P-wave (km/s) = 6.84386 7.75758 7.31500
#
# Compressibility (1/GPa) = 0.01980167
#
# Stress axis : x y z
#
# Youngs Moduli (GPa) = 182.82022 51.43566 81.94424
#
# Poissons Ratio (x) = 0.11446 0.14528
# Poissons Ratio (y) = 0.40682 0.38174
# Poissons Ratio (z) = 0.32413 0.23961
#
# Static dielectric constant tensor:
#      x y z
#    x 1.955930 0.000000 0.000000 
#    y 0.000000 2.292960 0.000000 
#    z 0.000000 0.000000 1.998850 
# 
# From -- ./inp_files/21624.got.cif
#   From: 2010.05.17/outbox.cif.g08.bks.cpg/sg54_11_cif.got.tgz:21624.got - 2010.06.03 13:09:01.
