data_PCOD9422212
_publ_section_title
;
Structure prediction by ZEFSAII (Michael W. Deem and Ramdas Pophale) SiO2 
 PCOD9422212
Probable space group: P C C A
;
_chemical_formula_sum "Si O2"
_cell_formula_units_Z 56
_cell_length_a 5.280209
_cell_length_b 26.226138
_cell_length_c 18.259544
_cell_angle_alpha 90.000000
_cell_angle_beta 90.000000
_cell_angle_gamma 90.000000
_cell_volume 2528.572339
_symmetry_space_group_name_H-M "P C C A"
_symmetry_group_IT_number 54
_symmetry_cell_setting 'orthorhombic'
loop_
_space_group_symop_operation_xyz
x,y,z
1/2-x,-y,z
1/2+x,-y,1/2-z
-x,y,1/2-z
-x,-y,-z
1/2+x,y,-z
1/2-x,y,1/2+z
x,-y,1/2+z
loop_
_atom_site_type_symbol
_atom_site_label
_atom_site_fract_x
_atom_site_fract_y
_atom_site_fract_z
Si Si1 0.483708 0.873255 0.949485
Si Si2 0.656373 0.420513 0.038357
Si Si3 0.896147 0.692764 0.978902
Si Si4 0.499759 0.034677 0.334233
Si Si5 0.463525 0.718490 0.330066
Si Si6 0.751778 0.561414 0.208784
Si Si7 0.536996 0.216102 0.333095
O O1 0.494802 0.921881 0.895421
O O2 0.489431 0.824947 0.895226
O O3 0.728619 0.873238 0.002234
O O4 0.724844 0.427951 0.122579
O O5 0.383742 0.440892 0.012622
O O6 0.631059 0.359829 0.022563
O O7 0.952013 0.681666 0.894814
O O8 0.636525 0.722069 0.990129
O O9 0.500000 0.054873 0.250000
O O10 0.750000 0.000000 0.342684
O O11 0.250000 0.000000 0.341884
O O12 0.500000 0.696360 0.250000
O O13 0.178967 0.739542 0.339394
O O14 0.674948 0.763132 0.336178
O O15 0.750000 0.500000 0.215507
O O16 0.500000 0.579406 0.250000
O O17 0.000000 0.581813 0.250000
O O18 0.500000 0.195718 0.250000
#
# Coordination Sequence:
#
# PCOD9422212 Si02
#       7
#     8   8   8   8   8   8   8
#     4  12  25  38  58  90 121 150 189 241 298 345
#     4  10  21  38  58  87 121 157 199 246 304 360
#     4  10  21  37  56  82 116 152 190 235 292 352
#     4  10  22  41  63  84 113 158 200 234 282 346
#     4  10  21  38  61  84 110 150 196 240 289 347
#     4  10  21  38  61  89 122 162 207 254 303 360
#     4  10  22  40  60  84 115 152 193 239 291 350
#
# _framework density 22.146885999999999
#
# number of rings (size 3 to 8) (size 9 to 14) (size 15 to 20)
#    0.000    1.714    0.000    3.857    0.000    5.714 
#    0.000   14.286    0.000    0.000    0.000    0.000 
#    0.000    0.000    0.000    0.000    0.000    0.000 
#
# Total GULP energy -313048.867528 kJ/mol
# GULP energy per Si atom -5590.158349 kJ/mol
# Density = 2.209648 g / cm^3
# Si number density = 22.146886 Si / 1000 Ang^3
#
#
#
# Elastic Constant Matrix: (Units=GPa)
#
#
# Indices 1 2 3 4 5 6 
#
# 1 185.9461 15.7154 66.8642 0.0000 0.0000 0.0000
# 2 15.7154 54.6223 24.9426 0.0000 0.0000 0.0000
# 3 66.8642 24.9426 154.6725 0.0000 0.0000 0.0000
# 4 0.0000 0.0000 0.0000 47.1251 0.0000 0.0000
# 5 0.0000 0.0000 0.0000 0.0000 63.8816 0.0000
# 6 0.0000 0.0000 0.0000 0.0000 0.0000 6.1839
#
#
#
# Elastic Compliance Matrix: (Units=1/GPa)
#
#
# Indices 1 2 3 4 5 6 
#
# 1 0.006387 -0.000623 -0.002661 0.000000 0.000000 0.000000
# 2 -0.000623 0.019824 -0.002928 0.000000 0.000000 0.000000
# 3 -0.002661 -0.002928 0.008088 0.000000 0.000000 0.000000
# 4 0.000000 0.000000 0.000000 0.021220 0.000000 0.000000
# 5 0.000000 0.000000 0.000000 0.000000 0.015654 0.000000
# 6 0.000000 0.000000 0.000000 0.000000 0.000000 0.161710
#
#
# Mechanical properties :
#
#
# Convention : Reuss Voigt Hill
#
# Bulk Modulus (GPa) = 45.71139 67.80947 56.76043
# Shear Modulus (GPa) = 19.79438 42.61936 31.20687
#
# Velocity S-wave (km/s) = 2.99285 4.39155 3.75785
# Velocity P-wave (km/s) = 5.71208 7.50992 6.67183
#
# Compressibility (1/GPa) = 0.02187639
#
# Stress axis : x y z
#
# Youngs Moduli (GPa) = 156.56017 50.44505 123.64565
#
# Poissons Ratio (x) = 0.03141 0.32900
# Poissons Ratio (y) = 0.09749 0.36198
# Poissons Ratio (z) = 0.41657 0.14768
#
# Static dielectric constant tensor:
#      x y z
#    x 1.891710 0.000000 0.000000 
#    y 0.000000 1.816360 0.000000 
#    z 0.000000 0.000000 1.832310 
# 
# From -- ./inp_files/11009.got.cif
#   From: 2010.05.17/outbox.cif.g08.bks.cpg/sg54_6_cif.got.tgz:11009.got - 2010.06.03 13:09:01.
