data_PCOD9422047
_publ_section_title
;
Structure prediction by ZEFSAII (Michael W. Deem and Ramdas Pophale) SiO2 
 PCOD9422047
Probable space group: P C C A
;
_chemical_formula_sum "Si O2"
_cell_formula_units_Z 48
_cell_length_a 8.625104
_cell_length_b 16.046347
_cell_length_c 16.091570
_cell_angle_alpha 90.000000
_cell_angle_beta 90.000000
_cell_angle_gamma 90.000000
_cell_volume 2227.096004
_symmetry_space_group_name_H-M "P C C A"
_symmetry_group_IT_number 54
_symmetry_cell_setting 'orthorhombic'
loop_
_space_group_symop_operation_xyz
x,y,z
1/2-x,-y,z
1/2+x,-y,1/2-z
-x,y,1/2-z
-x,-y,-z
1/2+x,y,-z
1/2-x,y,1/2+z
x,-y,1/2+z
loop_
_atom_site_type_symbol
_atom_site_label
_atom_site_fract_x
_atom_site_fract_y
_atom_site_fract_z
Si Si1 0.038035 0.266311 0.541734
Si Si2 0.500000 0.901498 0.750000
Si Si3 0.191604 0.743064 0.311947
Si Si4 0.000000 0.784595 0.750000
Si Si5 0.000000 0.602336 0.250000
Si Si6 0.750000 0.000000 0.366372
Si Si7 0.410336 0.547534 0.572346
Si Si8 0.841672 0.832832 0.910307
O O1 0.107445 0.358763 0.536560
O O2 0.175590 0.211230 0.580374
O O3 0.889198 0.277739 0.601558
O O4 0.966394 0.216548 0.464661
O O5 0.618465 0.834598 0.706880
O O6 0.611420 0.958032 0.809738
O O7 0.374961 0.738637 0.306547
O O8 0.139123 0.669962 0.249080
O O9 0.895858 0.833117 0.815018
O O10 0.007331 0.552984 0.163439
O O11 0.679478 0.929724 0.426749
O O12 0.250000 0.500000 0.586043
O O13 0.500000 0.500000 0.500000
#
# Coordination Sequence:
#
# PCOD9422047 Si02
#       8
#     8   4   8   4   4   4   8   8
#     4  11  24  48  68  97 146 184 234 298 370 436
#     4  11  21  42  64  99 141 178 238 302 342 412
#     4  10  20  42  70  96 133 191 234 289 351 434
#     4  12  21  38  68 102 129 184 250 279 360 424
#     4   9  22  46  72  99 144 186 236 295 368 446
#     4  12  24  40  66 102 140 190 244 300 358 420
#     4  11  24  44  72 106 139 182 231 299 368 438
#     4  12  25  43  67  98 136 190 240 293 363 431
#
# _framework density 21.552731999999999
#
# number of rings (size 3 to 8) (size 9 to 14) (size 15 to 20)
#    0.000    1.000    3.333    4.500    0.000    2.667 
#    0.000    5.833    0.000    0.000    0.000    0.000 
#    0.000    0.000    0.000    0.000    0.000    0.000 
#
# Total GULP energy -267600.501695 kJ/mol
# GULP energy per Si atom -5575.010452 kJ/mol
# Density = 2.150368 g / cm^3
# Si number density = 21.552732 Si / 1000 Ang^3
#
#
#
# Elastic Constant Matrix: (Units=GPa)
#
#
# Indices 1 2 3 4 5 6 
#
# 1 127.3478 44.2499 33.3536 0.0000 0.0000 0.0000
# 2 44.2499 140.3228 52.6286 0.0000 0.0000 0.0000
# 3 33.3536 52.6286 106.1506 0.0000 0.0000 0.0000
# 4 0.0000 0.0000 0.0000 65.5560 0.0000 0.0000
# 5 0.0000 0.0000 0.0000 0.0000 35.7103 0.0000
# 6 0.0000 0.0000 0.0000 0.0000 0.0000 123.7344
#
#
#
# Elastic Compliance Matrix: (Units=1/GPa)
#
#
# Indices 1 2 3 4 5 6 
#
# 1 0.009079 -0.002203 -0.001761 0.000000 0.000000 0.000000
# 2 -0.002203 0.009289 -0.003913 0.000000 0.000000 0.000000
# 3 -0.001761 -0.003913 0.011914 0.000000 0.000000 0.000000
# 4 0.000000 0.000000 0.000000 0.015254 0.000000 0.000000
# 5 0.000000 0.000000 0.000000 0.000000 0.028003 0.000000
# 6 0.000000 0.000000 0.000000 0.000000 0.000000 0.008082
#
#
# Mechanical properties :
#
#
# Convention : Reuss Voigt Hill
#
# Bulk Modulus (GPa) = 68.82957 70.47617 69.65287
# Shear Modulus (GPa) = 48.91583 61.23943 55.07763
#
# Velocity S-wave (km/s) = 4.76919 5.33624 5.06066
# Velocity P-wave (km/s) = 7.89504 8.41057 8.15688
#
# Compressibility (1/GPa) = 0.01452864
#
# Stress axis : x y z
#
# Youngs Moduli (GPa) = 110.14419 107.65821 83.93562
#
# Poissons Ratio (x) = 0.23714 0.14778
# Poissons Ratio (y) = 0.24261 0.32845
# Poissons Ratio (z) = 0.19393 0.42128
#
# Static dielectric constant tensor:
#      x y z
#    x 1.806490 0.000000 0.000000 
#    y 0.000000 1.835040 0.000000 
#    z 0.000000 0.000000 1.897290 
# 
# From -- ./inp_files/16706.got.cif
#   From: 2010.05.17/outbox.cif.g08.bks.cpg/sg54_9_cif.got.tgz:16706.got - 2010.06.03 13:09:01.
