data_PCOD9422215
_publ_section_title
;
Structure prediction by ZEFSAII (Michael W. Deem and Ramdas Pophale) SiO2 
 PCOD9422215
Probable space group: P C C A
;
_chemical_formula_sum "Si O2"
_cell_formula_units_Z 56
_cell_length_a 8.753773
_cell_length_b 22.560635
_cell_length_c 12.926561
_cell_angle_alpha 90.000000
_cell_angle_beta 90.000000
_cell_angle_gamma 90.000000
_cell_volume 2552.875290
_symmetry_space_group_name_H-M "P C C A"
_symmetry_group_IT_number 54
_symmetry_cell_setting 'orthorhombic'
loop_
_space_group_symop_operation_xyz
x,y,z
1/2-x,-y,z
1/2+x,-y,1/2-z
-x,y,1/2-z
-x,-y,-z
1/2+x,y,-z
1/2-x,y,1/2+z
x,-y,1/2+z
loop_
_atom_site_type_symbol
_atom_site_label
_atom_site_fract_x
_atom_site_fract_y
_atom_site_fract_z
Si Si1 0.536219 0.429700 0.995460
Si Si2 0.158392 0.940698 0.189696
Si Si3 0.805529 0.618168 0.369063
Si Si4 0.966988 0.846645 0.463647
Si Si5 0.715344 0.157791 0.657586
Si Si6 0.145445 0.448016 0.313131
Si Si7 0.658949 0.748747 0.811026
O O1 0.703190 0.412858 0.957921
O O2 0.434536 0.407732 0.897980
O O3 0.500000 0.500000 0.000000
O O4 0.477335 0.397266 0.097133
O O5 0.109416 0.904912 0.087260
O O6 0.255914 0.897197 0.264885
O O7 0.000000 0.953235 0.250000
O O8 0.250000 0.000000 0.167513
O O9 0.750698 0.586770 0.265621
O O10 0.779390 0.687507 0.355521
O O11 0.934049 0.844445 0.585705
O O12 0.884308 0.792209 0.405084
O O13 0.141513 0.844015 0.423568
O O14 0.735356 0.215817 0.729508
O O15 0.250000 0.500000 0.357243
O O16 0.000000 0.473785 0.250000
O O17 0.500000 0.736607 0.750000
#
# Coordination Sequence:
#
# PCOD9422215 Si02
#       7
#     8   8   8   8   8   8   8
#     4  11  23  40  59  85 117 148 189 238 291 355
#     4   9  19  35  55  83 121 157 196 242 290 349
#     4  11  23  38  60  87 114 150 191 238 292 353
#     4   9  19  37  59  82 114 155 195 241 298 347
#     4   9  19  38  59  82 114 154 195 244 296 347
#     4  10  21  37  57  82 112 145 185 233 288 350
#     4   9  21  39  58  83 114 149 193 242 294 351
#
# _framework density 21.936050999999999
#
# number of rings (size 3 to 8) (size 9 to 14) (size 15 to 20)
#    0.000    2.286    0.000    4.714    0.000    8.000 
#    0.000    7.857    0.000    0.000    0.000    0.000 
#    0.000    0.000    0.000    0.000    0.000    0.000 
#
# Total GULP energy -312835.137835 kJ/mol
# GULP energy per Si atom -5586.341747 kJ/mol
# Density = 2.188612 g / cm^3
# Si number density = 21.936051 Si / 1000 Ang^3
#
#
#
# Elastic Constant Matrix: (Units=GPa)
#
#
# Indices 1 2 3 4 5 6 
#
# 1 38.6750 20.0192 22.0206 0.0000 0.0000 0.0000
# 2 20.0192 125.5427 5.5761 0.0000 0.0000 0.0000
# 3 22.0206 5.5761 44.1992 0.0000 0.0000 0.0000
# 4 0.0000 0.0000 0.0000 12.5092 0.0000 0.0000
# 5 0.0000 0.0000 0.0000 0.0000 54.1664 0.0000
# 6 0.0000 0.0000 0.0000 0.0000 0.0000 12.7287
#
#
#
# Elastic Compliance Matrix: (Units=1/GPa)
#
#
# Indices 1 2 3 4 5 6 
#
# 1 0.039490 -0.005454 -0.018986 0.000000 0.000000 0.000000
# 2 -0.005454 0.008764 0.001612 0.000000 0.000000 0.000000
# 3 -0.018986 0.001612 0.031881 0.000000 0.000000 0.000000
# 4 0.000000 0.000000 0.000000 0.079941 0.000000 0.000000
# 5 0.000000 0.000000 0.000000 0.000000 0.018462 0.000000
# 6 0.000000 0.000000 0.000000 0.000000 0.000000 0.078562
#
#
# Mechanical properties :
#
#
# Convention : Reuss Voigt Hill
#
# Bulk Modulus (GPa) = 29.00481 33.73874 31.37178
# Shear Modulus (GPa) = 15.91094 26.60092 21.25593
#
# Velocity S-wave (km/s) = 2.69612 3.48610 3.11625
# Velocity P-wave (km/s) = 4.78991 5.62297 5.22307
#
# Compressibility (1/GPa) = 0.03447704
#
# Stress axis : x y z
#
# Youngs Moduli (GPa) = 25.32290 114.10949 31.36685
#
# Poissons Ratio (x) = 0.62233 0.59554
# Poissons Ratio (y) = 0.13811 -0.05055
# Poissons Ratio (z) = 0.48079 -0.18390
#
# Static dielectric constant tensor:
#      x y z
#    x 1.941850 0.000000 0.000000 
#    y 0.000000 1.771680 0.000000 
#    z 0.000000 0.000000 1.827060 
# 
# From -- ./inp_files/11884.got.cif
#   From: 2010.05.17/outbox.cif.g08.bks.cpg/sg54_6_cif.got.tgz:11884.got - 2010.06.03 13:09:01.
