data_PCOD9422880
_publ_section_title
;
Structure prediction by ZEFSAII (Michael W. Deem and Ramdas Pophale) SiO2 
 PCOD9422880
Probable space group: P C C A
;
_chemical_formula_sum "Si O2"
_cell_formula_units_Z 40
_cell_length_a 23.911579
_cell_length_b 8.220199
_cell_length_c 9.850889
_cell_angle_alpha 90.000000
_cell_angle_beta 90.000000
_cell_angle_gamma 90.000000
_cell_volume 1936.270427
_symmetry_space_group_name_H-M "P C C A"
_symmetry_group_IT_number 54
_symmetry_cell_setting 'orthorhombic'
loop_
_space_group_symop_operation_xyz
x,y,z
1/2-x,-y,z
1/2+x,-y,1/2-z
-x,y,1/2-z
-x,-y,-z
1/2+x,y,-z
1/2-x,y,1/2+z
x,-y,1/2+z
loop_
_atom_site_type_symbol
_atom_site_label
_atom_site_fract_x
_atom_site_fract_y
_atom_site_fract_z
Si Si1 0.602580 0.834757 0.431188
Si Si2 0.619431 0.141340 0.619120
Si Si3 0.708907 0.347830 0.973183
Si Si4 0.490628 0.659567 0.411364
Si Si5 0.238075 0.187542 0.296054
O O1 0.607390 0.898254 0.276998
O O2 0.642549 0.674381 0.444657
O O3 0.538808 0.785761 0.455014
O O4 0.621483 0.978210 0.530803
O O5 0.570128 0.259735 0.570800
O O6 0.679689 0.227095 0.627939
O O7 0.750000 0.500000 0.949497
O O8 0.732478 0.218927 0.863065
O O9 0.716670 0.296434 0.128864
O O10 0.500000 0.627424 0.250000
O O11 0.500000 0.500000 0.500000
O O12 0.250000 0.000000 0.319723
#
# Coordination Sequence:
#
# PCOD9422880 Si02
#       5
#     8   8   8   8   8
#     4  10  22  41  62  90 120 161 207 257 308 369
#     4  10  22  39  63  89 120 158 207 258 301 370
#     4  11  24  39  60  91 128 162 203 260 317 371
#     4  10  23  42  61  90 125 158 205 256 313 371
#     4  11  22  40  62  90 123 164 210 252 309 376
#
# _framework density 20.658272
#
# number of rings (size 3 to 8) (size 9 to 14) (size 15 to 20)
#    0.000    1.600    2.000    1.800    5.600    1.600 
#    3.600    0.000    0.000    0.000    0.000    0.000 
#    0.000    0.000    0.000    0.000    0.000    0.000 
#
# Total GULP energy -223096.185296 kJ/mol
# GULP energy per Si atom -5577.404632 kJ/mol
# Density = 2.061125 g / cm^3
# Si number density = 20.658272 Si / 1000 Ang^3
#
#
#
# Elastic Constant Matrix: (Units=GPa)
#
#
# Indices 1 2 3 4 5 6 
#
# 1 70.8398 14.9736 1.6326 0.0000 0.0000 0.0000
# 2 14.9736 62.2886 6.8581 0.0000 0.0000 0.0000
# 3 1.6326 6.8581 35.5020 0.0000 0.0000 0.0000
# 4 0.0000 0.0000 0.0000 25.4054 0.0000 0.0000
# 5 0.0000 0.0000 0.0000 0.0000 24.9163 0.0000
# 6 0.0000 0.0000 0.0000 0.0000 0.0000 30.9686
#
#
#
# Elastic Compliance Matrix: (Units=1/GPa)
#
#
# Indices 1 2 3 4 5 6 
#
# 1 0.014872 -0.003576 0.000007 0.000000 0.000000 0.000000
# 2 -0.003576 0.017263 -0.003170 0.000000 0.000000 0.000000
# 3 0.000007 -0.003170 0.028780 0.000000 0.000000 0.000000
# 4 0.000000 0.000000 0.000000 0.039362 0.000000 0.000000
# 5 0.000000 0.000000 0.000000 0.000000 0.040134 0.000000
# 6 0.000000 0.000000 0.000000 0.000000 0.000000 0.032291
#
#
# Mechanical properties :
#
#
# Convention : Reuss Voigt Hill
#
# Bulk Modulus (GPa) = 21.08108 23.95101 22.51604
# Shear Modulus (GPa) = 24.75344 25.93580 25.34462
#
# Velocity S-wave (km/s) = 3.46531 3.54710 3.50644
# Velocity P-wave (km/s) = 5.12230 5.32869 5.22652
#
# Compressibility (1/GPa) = 0.04743589
#
# Stress axis : x y z
#
# Youngs Moduli (GPa) = 67.24031 57.92745 34.74685
#
# Poissons Ratio (x) = 0.20714 -0.00024
# Poissons Ratio (y) = 0.24044 0.11016
# Poissons Ratio (z) = -0.00046 0.18365
#
# Static dielectric constant tensor:
#      x y z
#    x 1.787770 0.000000 0.000000 
#    y 0.000000 1.714380 0.000000 
#    z 0.000000 0.000000 1.702780 
# 
# From -- ./inp_files/5004.got.cif
#   From: 2010.05.17/outbox.cif.g08.bks.cpg/sg54_3_cif.got.tgz:5004.got - 2010.06.03 13:09:01.
