data_PCOD9422370
_publ_section_title
;
Structure prediction by ZEFSAII (Michael W. Deem and Ramdas Pophale) SiO2 
 PCOD9422370
Probable space group: P C C A
;
_chemical_formula_sum "Si O2"
_cell_formula_units_Z 32
_cell_length_a 7.933263
_cell_length_b 11.101255
_cell_length_c 14.722062
_cell_angle_alpha 90.000000
_cell_angle_beta 90.000000
_cell_angle_gamma 90.000000
_cell_volume 1296.559863
_symmetry_space_group_name_H-M "P C C A"
_symmetry_group_IT_number 54
_symmetry_cell_setting 'orthorhombic'
loop_
_space_group_symop_operation_xyz
x,y,z
1/2-x,-y,z
1/2+x,-y,1/2-z
-x,y,1/2-z
-x,-y,-z
1/2+x,y,-z
1/2-x,y,1/2+z
x,-y,1/2+z
loop_
_atom_site_type_symbol
_atom_site_label
_atom_site_fract_x
_atom_site_fract_y
_atom_site_fract_z
Si Si1 0.751364 0.752156 0.948937
Si Si2 0.807295 0.632537 0.275286
Si Si3 0.433990 0.949650 0.659360
Si Si4 0.117330 0.199473 0.366028
O O1 0.691199 0.643989 0.885230
O O2 0.622535 0.860809 0.920259
O O3 0.940362 0.760369 0.910115
O O4 0.750610 0.762196 0.056793
O O5 0.750000 0.500000 0.246886
O O6 0.686038 0.732282 0.224371
O O7 0.000000 0.644082 0.250000
O O8 0.500000 0.887186 0.750000
O O9 0.250000 0.000000 0.683129
O O10 0.568738 0.057026 0.642958
#
# Coordination Sequence:
#
# PCOD9422370 Si02
#       4
#     8   8   8   8
#     4  11  23  41  66 100 137 181 228 282 342 407
#     4  12  26  47  72  99 135 183 234 288 343 407
#     4  10  21  38  64  97 140 185 227 279 342 407
#     4  11  23  42  67 100 139 179 229 283 343 411
#
# _framework density 24.680696999999999
#
# number of rings (size 3 to 8) (size 9 to 14) (size 15 to 20)
#    0.000    1.000    0.000    8.250    0.000    3.000 
#    0.000    5.000    0.000    0.000    0.000    0.000 
#    0.000    0.000    0.000    0.000    0.000    0.000 
#
# Total GULP energy -178391.255552 kJ/mol
# GULP energy per Si atom -5574.726736 kJ/mol
# Density = 2.462452 g / cm^3
# Si number density = 24.680697 Si / 1000 Ang^3
#
#
#
# Elastic Constant Matrix: (Units=GPa)
#
#
# Indices 1 2 3 4 5 6 
#
# 1 154.8627 50.2817 26.8341 0.0000 0.0000 0.0000
# 2 50.2817 118.7788 8.7037 0.0000 0.0000 0.0000
# 3 26.8341 8.7037 104.4028 0.0000 0.0000 0.0000
# 4 0.0000 0.0000 0.0000 8.1225 0.0000 0.0000
# 5 0.0000 0.0000 0.0000 0.0000 38.0082 0.0000
# 6 0.0000 0.0000 0.0000 0.0000 0.0000 23.0929
#
#
#
# Elastic Compliance Matrix: (Units=1/GPa)
#
#
# Indices 1 2 3 4 5 6 
#
# 1 0.007787 -0.003169 -0.001737 0.000000 0.000000 0.000000
# 2 -0.003169 0.009761 0.000001 0.000000 0.000000 0.000000
# 3 -0.001737 0.000001 0.010025 0.000000 0.000000 0.000000
# 4 0.000000 0.000000 0.000000 0.123114 0.000000 0.000000
# 5 0.000000 0.000000 0.000000 0.000000 0.026310 0.000000
# 6 0.000000 0.000000 0.000000 0.000000 0.000000 0.043303
#
#
# Mechanical properties :
#
#
# Convention : Reuss Voigt Hill
#
# Bulk Modulus (GPa) = 56.30236 61.07592 58.68914
# Shear Modulus (GPa) = 21.18356 33.32640 27.25498
#
# Velocity S-wave (km/s) = 2.93286 3.67863 3.32671
# Velocity P-wave (km/s) = 5.85924 6.54548 6.21184
#
# Compressibility (1/GPa) = 0.01776124
#
# Stress axis : x y z
#
# Youngs Moduli (GPa) = 128.41271 102.45307 99.75314
#
# Poissons Ratio (x) = 0.32470 0.17330
# Poissons Ratio (y) = 0.40697 -0.00009
# Poissons Ratio (z) = 0.22310 -0.00009
#
# Static dielectric constant tensor:
#      x y z
#    x 1.984150 0.000000 0.000000 
#    y 0.000000 2.145330 0.000000 
#    z 0.000000 0.000000 2.001180 
# 
# From -- ./inp_files/11336.got.cif
#   From: 2010.05.17/outbox.cif.g08.bks.cpg/sg54_6_cif.got.tgz:11336.got - 2010.06.03 13:09:01.
