data_PCOD9422742
_publ_section_title
;
Structure prediction by ZEFSAII (Michael W. Deem and Ramdas Pophale) SiO2 
 PCOD9422742
Probable space group: P C C A
;
_chemical_formula_sum "Si O2"
_cell_formula_units_Z 56
_cell_length_a 20.459049
_cell_length_b 5.515375
_cell_length_c 23.117047
_cell_angle_alpha 90.000000
_cell_angle_beta 90.000000
_cell_angle_gamma 90.000000
_cell_volume 2608.512034
_symmetry_space_group_name_H-M "P C C A"
_symmetry_group_IT_number 54
_symmetry_cell_setting 'orthorhombic'
loop_
_space_group_symop_operation_xyz
x,y,z
1/2-x,-y,z
1/2+x,-y,1/2-z
-x,y,1/2-z
-x,-y,-z
1/2+x,y,-z
1/2-x,y,1/2+z
x,-y,1/2+z
loop_
_atom_site_type_symbol
_atom_site_label
_atom_site_fract_x
_atom_site_fract_y
_atom_site_fract_z
Si Si1 0.004638 0.319796 0.819759
Si Si2 0.290720 0.746146 0.518327
Si Si3 0.618649 0.995320 0.198479
Si Si4 0.188186 0.668073 0.221333
Si Si5 0.920314 0.286446 0.309719
Si Si6 0.710202 0.744479 0.116352
Si Si7 0.624255 0.895904 0.880959
O O1 0.990860 0.607472 0.826102
O O2 0.945222 0.205996 0.857144
O O3 0.000000 0.296462 0.750000
O O4 0.070864 0.180555 0.834577
O O5 0.250000 0.500000 0.534766
O O6 0.308751 0.714414 0.450983
O O7 0.354011 0.794651 0.557953
O O8 0.250000 0.000000 0.524185
O O9 0.677851 0.150230 0.226195
O O10 0.582560 0.897774 0.256311
O O11 0.649266 0.788655 0.158790
O O12 0.250000 0.500000 0.225827
O O13 0.124908 0.497796 0.215866
O O14 0.183029 0.817017 0.162000
O O15 0.885770 0.178926 0.366645
O O16 0.750000 0.500000 0.131888
O O17 0.750000 0.000000 0.117928
#
# Coordination Sequence:
#
# PCOD9422742 Si02
#       7
#     8   8   8   8   8   8   8
#     4  11  21  39  55  91 128 175 224 260 338 412
#     4  10  23  44  70  95 129 174 227 291 355 410
#     4  11  24  38  63  91 131 185 218 282 342 422
#     4  10  22  34  54  95 130 171 214 274 343 416
#     4  10  22  35  58  87 133 172 217 274 334 414
#     4  10  25  46  68  97 130 175 232 287 353 418
#     4  10  22  36  61  90 129 172 224 279 339 410
#
# _framework density 21.468178000000002
#
# number of rings (size 3 to 8) (size 9 to 14) (size 15 to 20)
#    0.000    1.714    4.286    0.429   12.000    1.143 
#    0.000    0.714    0.000    0.857    0.000    0.000 
#    0.000    0.000    0.000    0.000    0.000    0.000 
#
# Total GULP energy -312282.078861 kJ/mol
# GULP energy per Si atom -5576.465694 kJ/mol
# Density = 2.141932 g / cm^3
# Si number density = 21.468178 Si / 1000 Ang^3
#
#
#
# Elastic Constant Matrix: (Units=GPa)
#
#
# Indices 1 2 3 4 5 6 
#
# 1 92.7420 45.0928 32.2353 0.0000 0.0000 0.0000
# 2 45.0928 120.3000 34.4833 0.0000 0.0000 0.0000
# 3 32.2353 34.4833 80.3242 0.0000 0.0000 0.0000
# 4 0.0000 0.0000 0.0000 20.6505 0.0000 0.0000
# 5 0.0000 0.0000 0.0000 0.0000 15.5174 0.0000
# 6 0.0000 0.0000 0.0000 0.0000 0.0000 52.4310
#
#
#
# Elastic Compliance Matrix: (Units=1/GPa)
#
#
# Indices 1 2 3 4 5 6 
#
# 1 0.014175 -0.004199 -0.003886 0.000000 0.000000 0.000000
# 2 -0.004199 0.010723 -0.002918 0.000000 0.000000 0.000000
# 3 -0.003886 -0.002918 0.015262 0.000000 0.000000 0.000000
# 4 0.000000 0.000000 0.000000 0.048425 0.000000 0.000000
# 5 0.000000 0.000000 0.000000 0.000000 0.064444 0.000000
# 6 0.000000 0.000000 0.000000 0.000000 0.000000 0.019073
#
#
# Mechanical properties :
#
#
# Convention : Reuss Voigt Hill
#
# Bulk Modulus (GPa) = 55.08711 57.44323 56.26517
# Shear Modulus (GPa) = 24.98008 29.82343 27.40176
#
# Velocity S-wave (km/s) = 3.41484 3.73123 3.57654
# Velocity P-wave (km/s) = 6.42369 6.73634 6.58187
#
# Compressibility (1/GPa) = 0.01815307
#
# Stress axis : x y z
#
# Youngs Moduli (GPa) = 70.54625 93.25628 65.52328
#
# Poissons Ratio (x) = 0.39163 0.25461
# Poissons Ratio (y) = 0.29626 0.19121
# Poissons Ratio (z) = 0.27413 0.27214
#
# Static dielectric constant tensor:
#      x y z
#    x 1.862220 0.000000 0.000000 
#    y 0.000000 1.980470 0.000000 
#    z 0.000000 0.000000 1.756530 
# 
# From -- ./inp_files/24748.got.cif
#   From: 2010.05.17/outbox.cif.g08.bks.cpg/sg54_13_cif.got.tgz:24748.got - 2010.06.03 13:09:01.
