data_PCOD9422984
_publ_section_title
;
Structure prediction by ZEFSAII (Michael W. Deem and Ramdas Pophale) SiO2 
 PCOD9422984
Probable space group: P C C A
;
_chemical_formula_sum "Si O2"
_cell_formula_units_Z 64
_cell_length_a 16.535888
_cell_length_b 13.220629
_cell_length_c 14.581359
_cell_angle_alpha 90.000000
_cell_angle_beta 90.000000
_cell_angle_gamma 90.000000
_cell_volume 3187.701471
_symmetry_space_group_name_H-M "P C C A"
_symmetry_group_IT_number 54
_symmetry_cell_setting 'orthorhombic'
loop_
_space_group_symop_operation_xyz
x,y,z
1/2-x,-y,z
1/2+x,-y,1/2-z
-x,y,1/2-z
-x,-y,-z
1/2+x,y,-z
1/2-x,y,1/2+z
x,-y,1/2+z
loop_
_atom_site_type_symbol
_atom_site_label
_atom_site_fract_x
_atom_site_fract_y
_atom_site_fract_z
Si Si1 0.591799 0.416088 0.765560
Si Si2 0.629988 0.198834 0.717001
Si Si3 0.458981 0.111259 0.406586
Si Si4 0.328707 0.444778 0.369223
Si Si5 0.567317 0.712611 0.828710
Si Si6 0.019896 0.888101 0.620760
Si Si7 0.310638 0.781960 0.816991
Si Si8 0.586947 0.517414 0.953317
O O1 0.500000 0.384802 0.750000
O O2 0.640397 0.318709 0.733711
O O3 0.605849 0.515661 0.704181
O O4 0.604154 0.439655 0.871450
O O5 0.561160 0.177845 0.640528
O O6 0.588653 0.146966 0.806851
O O7 0.721619 0.170216 0.691291
O O8 0.525189 0.193861 0.378763
O O9 0.450965 0.117016 0.516274
O O10 0.374372 0.141085 0.360934
O O11 0.490250 0.003759 0.369833
O O12 0.250000 0.500000 0.331806
O O13 0.316445 0.324745 0.373208
O O14 0.350540 0.496279 0.465582
O O15 0.500000 0.686454 0.750000
O O16 0.649784 0.747636 0.779728
O O17 0.583858 0.624682 0.901889
O O18 0.500000 0.500000 0.000000
#
# Coordination Sequence:
#
# PCOD9422984 Si02
#       8
#     8   8   8   8   8   8   8   8
#     4  12  23  42  63  92 132 179 224 277 319 413
#     4  11  25  41  72  95 137 176 230 273 348 412
#     4  10  24  45  72  94 137 166 229 287 342 402
#     4  12  26  41  61  96 143 174 218 275 334 390
#     4  10  22  40  65  96 131 180 223 280 336 405
#     4  10  24  48  68  99 127 181 220 285 346 408
#     4  11  24  44  67 102 134 181 222 286 338 404
#     4  12  24  36  66  96 128 181 231 263 328 406
#
# _framework density 20.077162999999999
#
# number of rings (size 3 to 8) (size 9 to 14) (size 15 to 20)
#    0.000    1.000    5.000    1.875   10.500    2.000 
#    2.250    0.000    0.000    0.000    0.000    0.000 
#    0.000    0.000    0.000    0.000    0.000    0.000 
#
# Total GULP energy -357279.268644 kJ/mol
# GULP energy per Si atom -5582.488573 kJ/mol
# Density = 2.003147 g / cm^3
# Si number density = 20.077163 Si / 1000 Ang^3
#
#
#
# Elastic Constant Matrix: (Units=GPa)
#
#
# Indices 1 2 3 4 5 6 
#
# 1 89.7871 34.3031 18.6185 0.0000 0.0000 0.0000
# 2 34.3031 103.3092 32.8605 0.0000 0.0000 0.0000
# 3 18.6185 32.8605 91.7201 0.0000 0.0000 0.0000
# 4 0.0000 0.0000 0.0000 31.9124 0.0000 0.0000
# 5 0.0000 0.0000 0.0000 0.0000 15.2432 0.0000
# 6 0.0000 0.0000 0.0000 0.0000 0.0000 23.9208
#
#
#
# Elastic Compliance Matrix: (Units=1/GPa)
#
#
# Indices 1 2 3 4 5 6 
#
# 1 0.012876 -0.003887 -0.001221 0.000000 0.000000 0.000000
# 2 -0.003887 0.012098 -0.003545 0.000000 0.000000 0.000000
# 3 -0.001221 -0.003545 0.012421 0.000000 0.000000 0.000000
# 4 0.000000 0.000000 0.000000 0.031336 0.000000 0.000000
# 5 0.000000 0.000000 0.000000 0.000000 0.065603 0.000000
# 6 0.000000 0.000000 0.000000 0.000000 0.000000 0.041805
#
#
# Mechanical properties :
#
#
# Convention : Reuss Voigt Hill
#
# Bulk Modulus (GPa) = 49.78145 50.70896 50.24521
# Shear Modulus (GPa) = 24.98247 27.48423 26.23335
#
# Velocity S-wave (km/s) = 3.53132 3.70392 3.61865
# Velocity P-wave (km/s) = 6.44018 6.60332 6.52226
#
# Compressibility (1/GPa) = 0.02008780
#
# Stress axis : x y z
#
# Youngs Moduli (GPa) = 77.66604 82.65840 80.51011
#
# Poissons Ratio (x) = 0.32128 0.09831
# Poissons Ratio (y) = 0.30188 0.28543
# Poissons Ratio (z) = 0.09484 0.29305
#
# Static dielectric constant tensor:
#      x y z
#    x 1.676160 0.000000 0.000000 
#    y 0.000000 1.739900 0.000000 
#    z 0.000000 0.000000 1.717860 
# 
# From -- ./inp_files/14335.got.cif
#   From: 2010.05.17/outbox.cif.g08.bks.cpg/sg54_8_cif.got.tgz:14335.got - 2010.06.03 13:09:01.
