data_PCOD9422757
_publ_section_title
;
Structure prediction by ZEFSAII (Michael W. Deem and Ramdas Pophale) SiO2 
 PCOD9422757
Probable space group: P C C A
;
_chemical_formula_sum "Si O2"
_cell_formula_units_Z 56
_cell_length_a 17.068368
_cell_length_b 5.328170
_cell_length_c 27.840231
_cell_angle_alpha 90.000000
_cell_angle_beta 90.000000
_cell_angle_gamma 90.000000
_cell_volume 2531.878758
_symmetry_space_group_name_H-M "P C C A"
_symmetry_group_IT_number 54
_symmetry_cell_setting 'orthorhombic'
loop_
_space_group_symop_operation_xyz
x,y,z
1/2-x,-y,z
1/2+x,-y,1/2-z
-x,y,1/2-z
-x,-y,-z
1/2+x,y,-z
1/2-x,y,1/2+z
x,-y,1/2+z
loop_
_atom_site_type_symbol
_atom_site_label
_atom_site_fract_x
_atom_site_fract_y
_atom_site_fract_z
Si Si1 0.871728 0.524834 0.323054
Si Si2 0.021668 0.255955 0.469643
Si Si3 0.472368 0.158480 0.302726
Si Si4 0.798290 0.264813 0.726286
Si Si5 0.702980 0.257558 0.524653
Si Si6 0.682070 0.199281 0.412696
Si Si7 0.948604 0.860702 0.875678
O O1 0.822593 0.637231 0.279627
O O2 0.827966 0.596222 0.371887
O O3 0.890527 0.234676 0.333221
O O4 0.959836 0.638989 0.316362
O O5 0.113906 0.241059 0.458328
O O6 0.000000 0.500000 0.500000
O O7 0.978270 0.308478 0.418831
O O8 0.000000 0.000000 0.500000
O O9 0.500000 0.062201 0.250000
O O10 0.383004 0.240708 0.298452
O O11 0.479158 0.962469 0.345610
O O12 0.750000 0.500000 0.705176
O O13 0.750000 0.000000 0.726930
O O14 0.750000 0.500000 0.542859
O O15 0.694641 0.287066 0.466665
O O16 0.750000 0.000000 0.533455
O O17 0.750000 0.000000 0.401883
O O18 0.599581 0.060684 0.406355
#
# Coordination Sequence:
#
# PCOD9422757 Si02
#       7
#     8   8   8   8   8   8   8
#     4  10  23  38  65 101 133 177 219 284 343 417
#     4  12  25  45  71 103 141 185 238 285 343 423
#     4   9  23  45  66  97 138 180 232 276 343 415
#     4  11  26  43  70 100 136 179 223 284 350 408
#     4  11  24  42  66  95 135 183 226 284 348 401
#     4  10  22  35  59  98 139 170 219 276 353 404
#     4  11  24  41  72 100 137 187 233 283 342 418
#
# _framework density 22.117963
#
# number of rings (size 3 to 8) (size 9 to 14) (size 15 to 20)
#    0.000    1.429    1.429    2.143   18.000    0.571 
#    0.000    0.714    0.000    0.000    0.000    0.000 
#    0.000    0.000    0.000    0.000    0.000    0.000 
#
# Total GULP energy -312297.386904 kJ/mol
# GULP energy per Si atom -5576.739052 kJ/mol
# Density = 2.206762 g / cm^3
# Si number density = 22.117963 Si / 1000 Ang^3
#
#
#
# Elastic Constant Matrix: (Units=GPa)
#
#
# Indices 1 2 3 4 5 6 
#
# 1 130.9290 30.2151 20.4426 0.0000 0.0000 0.0000
# 2 30.2151 76.3289 28.3635 0.0000 0.0000 0.0000
# 3 20.4426 28.3635 46.8677 0.0000 0.0000 0.0000
# 4 0.0000 0.0000 0.0000 20.6267 0.0000 0.0000
# 5 0.0000 0.0000 0.0000 0.0000 24.6156 0.0000
# 6 0.0000 0.0000 0.0000 0.0000 0.0000 19.6473
#
#
#
# Elastic Compliance Matrix: (Units=1/GPa)
#
#
# Indices 1 2 3 4 5 6 
#
# 1 0.008574 -0.002586 -0.002175 0.000000 0.000000 0.000000
# 2 -0.002586 0.017682 -0.009573 0.000000 0.000000 0.000000
# 3 -0.002175 -0.009573 0.028079 0.000000 0.000000 0.000000
# 4 0.000000 0.000000 0.000000 0.048481 0.000000 0.000000
# 5 0.000000 0.000000 0.000000 0.000000 0.040625 0.000000
# 6 0.000000 0.000000 0.000000 0.000000 0.000000 0.050898
#
#
# Mechanical properties :
#
#
# Convention : Reuss Voigt Hill
#
# Bulk Modulus (GPa) = 38.95999 45.79644 42.37821
# Shear Modulus (GPa) = 21.59254 24.65153 23.12203
#
# Velocity S-wave (km/s) = 3.12788 3.34211 3.23677
# Velocity P-wave (km/s) = 5.54055 5.97021 5.75939
#
# Compressibility (1/GPa) = 0.02566736
#
# Stress axis : x y z
#
# Youngs Moduli (GPa) = 116.63078 56.55431 35.61419
#
# Poissons Ratio (x) = 0.14624 0.07746
# Poissons Ratio (y) = 0.30160 0.34093
# Poissons Ratio (z) = 0.25366 0.54139
#
# Static dielectric constant tensor:
#      x y z
#    x 1.894290 0.000000 0.000000 
#    y 0.000000 1.915310 0.000000 
#    z 0.000000 0.000000 1.814620 
# 
# From -- ./inp_files/28214.got.cif
#   From: 2010.05.17/outbox.cif.g08.bks.cpg/sg54_15_cif.got.tgz:28214.got - 2010.06.03 13:09:01.
