data_PCOD9422811
_publ_section_title
;
Structure prediction by ZEFSAII (Michael W. Deem and Ramdas Pophale) SiO2 
 PCOD9422811
Probable space group: P C C A
;
_chemical_formula_sum "Si O2"
_cell_formula_units_Z 52
_cell_length_a 23.299334
_cell_length_b 10.622499
_cell_length_c 9.329527
_cell_angle_alpha 90.000000
_cell_angle_beta 90.000000
_cell_angle_gamma 90.000000
_cell_volume 2309.031363
_symmetry_space_group_name_H-M "P C C A"
_symmetry_group_IT_number 54
_symmetry_cell_setting 'orthorhombic'
loop_
_space_group_symop_operation_xyz
x,y,z
1/2-x,-y,z
1/2+x,-y,1/2-z
-x,y,1/2-z
-x,-y,-z
1/2+x,y,-z
1/2-x,y,1/2+z
x,-y,1/2+z
loop_
_atom_site_type_symbol
_atom_site_label
_atom_site_fract_x
_atom_site_fract_y
_atom_site_fract_z
Si Si1 0.934952 0.648522 0.263800
Si Si2 0.000000 0.110734 0.250000
Si Si3 0.620085 0.001314 0.358631
Si Si4 0.301111 0.582050 0.958247
Si Si5 0.369180 0.585711 0.242500
Si Si6 0.157444 0.827948 0.389052
Si Si7 0.582214 0.230076 0.553174
O O1 0.925069 0.501760 0.234195
O O2 0.895035 0.739064 0.168028
O O3 0.918013 0.666829 0.429237
O O4 0.000000 0.688676 0.250000
O O5 0.020076 0.194764 0.384098
O O6 0.057450 0.034216 0.208110
O O7 0.658923 0.063165 0.232947
O O8 0.607638 0.109564 0.474985
O O9 0.645674 0.890650 0.456942
O O10 0.250000 0.500000 0.023391
O O11 0.349332 0.594974 0.080290
O O12 0.322300 0.494978 0.828581
O O13 0.291463 0.724933 0.903115
O O14 0.380455 0.718314 0.316291
#
# Coordination Sequence:
#
# PCOD9422811 Si02
#       7
#     8   4   8   8   8   8   8
#     4  10  22  38  59  91 146 185 228 274 335 404
#     4  12  22  34  60  94 136 200 232 256 318 400
#     4  11  22  40  60  98 143 184 229 270 323 394
#     4  11  24  46  73 100 123 172 229 292 363 417
#     4  11  23  44  64 100 131 172 229 293 349 406
#     4  10  23  40  65  99 135 178 224 280 330 402
#     4  11  23  36  59  92 138 181 239 270 325 401
#
# _framework density 22.520264999999998
#
# number of rings (size 3 to 8) (size 9 to 14) (size 15 to 20)
#    0.000    1.231    3.077    2.769    5.385    1.846 
#    0.000    0.000    0.000    0.923    8.000    0.000 
#    0.000    0.000    0.000    0.000    0.000    0.000 
#
# Total GULP energy -290317.000023 kJ/mol
# GULP energy per Si atom -5583.019231 kJ/mol
# Density = 2.246901 g / cm^3
# Si number density = 22.520265 Si / 1000 Ang^3
#
#
#
# Elastic Constant Matrix: (Units=GPa)
#
#
# Indices 1 2 3 4 5 6 
#
# 1 25.4379 25.8467 9.9939 0.0000 0.0000 0.0000
# 2 25.8467 102.3817 48.3426 0.0000 0.0000 0.0000
# 3 9.9939 48.3426 129.3733 0.0000 0.0000 0.0000
# 4 0.0000 0.0000 0.0000 43.6050 0.0000 0.0000
# 5 0.0000 0.0000 0.0000 0.0000 19.7704 0.0000
# 6 0.0000 0.0000 0.0000 0.0000 0.0000 14.1753
#
#
#
# Elastic Compliance Matrix: (Units=1/GPa)
#
#
# Indices 1 2 3 4 5 6 
#
# 1 0.053003 -0.013900 0.001100 0.000000 0.000000 0.000000
# 2 -0.013900 0.015505 -0.004720 0.000000 0.000000 0.000000
# 3 0.001100 -0.004720 0.009408 0.000000 0.000000 0.000000
# 4 0.000000 0.000000 0.000000 0.022933 0.000000 0.000000
# 5 0.000000 0.000000 0.000000 0.000000 0.050581 0.000000
# 6 0.000000 0.000000 0.000000 0.000000 0.000000 0.070545
#
#
# Mechanical properties :
#
#
# Convention : Reuss Voigt Hill
#
# Bulk Modulus (GPa) = 23.32332 47.28434 35.30383
# Shear Modulus (GPa) = 18.42922 27.04412 22.73667
#
# Velocity S-wave (km/s) = 2.86377 3.46913 3.18088
# Velocity P-wave (km/s) = 4.61670 6.09003 5.40381
#
# Compressibility (1/GPa) = 0.04287555
#
# Stress axis : x y z
#
# Youngs Moduli (GPa) = 18.86689 64.49448 106.28850
#
# Poissons Ratio (x) = 0.89647 -0.11688
# Poissons Ratio (y) = 0.26225 0.50169
# Poissons Ratio (z) = -0.02075 0.30442
#
# Static dielectric constant tensor:
#      x y z
#    x 1.874800 0.000000 0.000000 
#    y 0.000000 1.862810 0.000000 
#    z 0.000000 0.000000 1.847940 
# 
# From -- ./inp_files/5545.got.cif
#   From: 2010.05.17/outbox.cif.g08.bks.cpg/sg54_3_cif.got.tgz:5545.got - 2010.06.03 13:09:01.
