data_PCOD9422187
_publ_section_title
;
Structure prediction by ZEFSAII (Michael W. Deem and Ramdas Pophale) SiO2 
 PCOD9422187
Probable space group: P C C A
;
_chemical_formula_sum "Si O2"
_cell_formula_units_Z 40
_cell_length_a 5.166973
_cell_length_b 27.288258
_cell_length_c 14.422413
_cell_angle_alpha 90.000000
_cell_angle_beta 90.000000
_cell_angle_gamma 90.000000
_cell_volume 2033.526950
_symmetry_space_group_name_H-M "P C C A"
_symmetry_group_IT_number 54
_symmetry_cell_setting 'orthorhombic'
loop_
_space_group_symop_operation_xyz
x,y,z
1/2-x,-y,z
1/2+x,-y,1/2-z
-x,y,1/2-z
-x,-y,-z
1/2+x,y,-z
1/2-x,y,1/2+z
x,-y,1/2+z
loop_
_atom_site_type_symbol
_atom_site_label
_atom_site_fract_x
_atom_site_fract_y
_atom_site_fract_z
Si Si1 0.248709 0.795528 0.684872
Si Si2 0.750000 0.000000 0.936994
Si Si3 0.153214 0.592222 0.566344
Si Si4 0.249439 0.902833 0.184927
Si Si5 0.500000 0.531784 0.250000
Si Si6 0.233310 0.701722 0.057498
O O1 0.500000 0.790250 0.750000
O O2 0.260313 0.849207 0.636822
O O3 0.221455 0.749374 0.618454
O O4 0.000000 0.796462 0.750000
O O5 0.751563 0.950360 0.878130
O O6 0.500000 0.000000 0.000000
O O7 0.413499 0.583854 0.505101
O O8 0.098311 0.561638 0.659392
O O9 0.188328 0.648969 0.598846
O O10 0.500000 0.904320 0.250000
O O11 0.000000 0.905201 0.250000
O O12 0.750000 0.500000 0.220890
O O13 0.432227 0.703191 0.970978
#
# Coordination Sequence:
#
# PCOD9422187 Si02
#       6
#     8   4   8   8   4   8
#     4  10  21  36  58  88 113 151 196 240 289 350
#     4  12  24  36  56  86 110 146 196 246 296 342
#     4  10  23  43  63  92 129 164 204 256 310 367
#     4  10  21  39  58  78 114 154 193 233 294 358
#     4  12  26  42  66  98 122 166 218 252 312 368
#     4  10  21  38  59  86 120 156 192 236 303 353
#
# _framework density 19.670256999999999
#
# number of rings (size 3 to 8) (size 9 to 14) (size 15 to 20)
#    0.000    1.600    0.000    4.200    1.400    4.000 
#    1.800    0.000    0.000    0.000    0.000    0.000 
#    0.000    0.000    0.000    0.000    0.000    0.000 
#
# Total GULP energy -223193.367305 kJ/mol
# GULP energy per Si atom -5579.834183 kJ/mol
# Density = 1.962549 g / cm^3
# Si number density = 19.670257 Si / 1000 Ang^3
#
#
#
# Elastic Constant Matrix: (Units=GPa)
#
#
# Indices 1 2 3 4 5 6 
#
# 1 139.7684 27.2463 21.3519 0.0000 0.0000 0.0000
# 2 27.2463 141.6724 66.8028 0.0000 0.0000 0.0000
# 3 21.3519 66.8028 61.2415 0.0000 0.0000 0.0000
# 4 0.0000 0.0000 0.0000 55.6889 0.0000 0.0000
# 5 0.0000 0.0000 0.0000 0.0000 22.5176 0.0000
# 6 0.0000 0.0000 0.0000 0.0000 0.0000 26.5646
#
#
#
# Elastic Compliance Matrix: (Units=1/GPa)
#
#
# Indices 1 2 3 4 5 6 
#
# 1 0.007570 -0.000435 -0.002165 0.000000 0.000000 0.000000
# 2 -0.000435 0.014559 -0.015730 0.000000 0.000000 0.000000
# 3 -0.002165 -0.015730 0.034241 0.000000 0.000000 0.000000
# 4 0.000000 0.000000 0.000000 0.017957 0.000000 0.000000
# 5 0.000000 0.000000 0.000000 0.000000 0.044410 0.000000
# 6 0.000000 0.000000 0.000000 0.000000 0.000000 0.037644
#
#
# Mechanical properties :
#
#
# Convention : Reuss Voigt Hill
#
# Bulk Modulus (GPa) = 50.73038 63.72048 57.22543
# Shear Modulus (GPa) = 25.04872 36.10632 30.57752
#
# Velocity S-wave (km/s) = 3.57239 4.28901 3.94700
# Velocity P-wave (km/s) = 6.54693 7.54932 7.06592
#
# Compressibility (1/GPa) = 0.01971205
#
# Stress axis : x y z
#
# Youngs Moduli (GPa) = 132.09662 68.68512 29.20436
#
# Poissons Ratio (x) = 0.02989 0.06322
# Poissons Ratio (y) = 0.05749 0.45937
# Poissons Ratio (z) = 0.28594 1.08039
#
# Static dielectric constant tensor:
#      x y z
#    x 1.594970 0.000000 0.000000 
#    y 0.000000 1.747770 0.000000 
#    z 0.000000 0.000000 1.658530 
# 
# From -- ./inp_files/6445.got.cif
#   From: 2010.05.17/outbox.cif.g08.bks.cpg/sg54_4_cif.got.tgz:6445.got - 2010.06.03 13:09:01.
