data_PCOD9422804
_publ_section_title
;
Structure prediction by ZEFSAII (Michael W. Deem and Ramdas Pophale) SiO2 
 PCOD9422804
Probable space group: P C C A
;
_chemical_formula_sum "Si O2"
_cell_formula_units_Z 56
_cell_length_a 16.322674
_cell_length_b 5.348193
_cell_length_c 31.110781
_cell_angle_alpha 90.000000
_cell_angle_beta 90.000000
_cell_angle_gamma 90.000000
_cell_volume 2715.871964
_symmetry_space_group_name_H-M "P C C A"
_symmetry_group_IT_number 54
_symmetry_cell_setting 'orthorhombic'
loop_
_space_group_symop_operation_xyz
x,y,z
1/2-x,-y,z
1/2+x,-y,1/2-z
-x,y,1/2-z
-x,-y,-z
1/2+x,y,-z
1/2-x,y,1/2+z
x,-y,1/2+z
loop_
_atom_site_type_symbol
_atom_site_label
_atom_site_fract_x
_atom_site_fract_y
_atom_site_fract_z
Si Si1 0.012758 0.814795 0.798120
Si Si2 0.601738 0.518717 0.846084
Si Si3 0.449936 0.981086 0.544038
Si Si4 0.045662 0.185387 0.875238
Si Si5 0.656776 0.588388 0.685729
Si Si6 0.343864 0.477337 0.562343
Si Si7 0.303768 0.756581 0.724566
O O1 0.089408 0.622580 0.802185
O O2 0.000000 0.905371 0.750000
O O3 0.928027 0.681208 0.811657
O O4 0.027320 0.016463 0.834201
O O5 0.518651 0.589479 0.871102
O O6 0.659469 0.452011 0.885481
O O7 0.637575 0.736340 0.816511
O O8 0.393084 0.227973 0.548210
O O9 0.500000 0.000000 0.500000
O O10 0.518599 0.958054 0.582036
O O11 0.393396 0.730555 0.548857
O O12 0.132726 0.295226 0.860654
O O13 0.750000 0.500000 0.682872
O O14 0.655264 0.763334 0.728216
O O15 0.250000 0.500000 0.546599
O O16 0.250000 0.500000 0.722916
O O17 0.250000 0.000000 0.720369
#
# Coordination Sequence:
#
# PCOD9422804 Si02
#       7
#     8   8   8   8   8   8   8
#     4  11  21  37  62  88 128 171 228 272 328 401
#     4  10  22  38  57  95 130 172 218 275 332 403
#     4  11  24  47  74 101 135 180 222 280 348 422
#     4  10  24  37  64  90 122 170 224 270 329 405
#     4  10  24  39  56  85 126 175 224 278 331 382
#     4  11  23  43  73 105 142 170 221 286 353 408
#     4  11  25  37  56  87 130 178 222 266 328 387
#
# _framework density 20.619527999999999
#
# number of rings (size 3 to 8) (size 9 to 14) (size 15 to 20)
#    0.000    1.429    2.857    1.286    8.000    2.286 
#    0.000    0.714    3.143    0.000    0.000    0.000 
#    0.000    0.000    0.000    0.000    0.000    0.000 
#
# Total GULP energy -312313.531775 kJ/mol
# GULP energy per Si atom -5577.027353 kJ/mol
# Density = 2.057260 g / cm^3
# Si number density = 20.619528 Si / 1000 Ang^3
#
#
#
# Elastic Constant Matrix: (Units=GPa)
#
#
# Indices 1 2 3 4 5 6 
#
# 1 128.8252 50.5232 62.1091 0.0000 0.0000 0.0000
# 2 50.5232 102.9953 36.8106 0.0000 0.0000 0.0000
# 3 62.1091 36.8106 142.7565 0.0000 0.0000 0.0000
# 4 0.0000 0.0000 0.0000 15.3244 0.0000 0.0000
# 5 0.0000 0.0000 0.0000 0.0000 23.4876 0.0000
# 6 0.0000 0.0000 0.0000 0.0000 0.0000 40.5721
#
#
#
# Elastic Compliance Matrix: (Units=1/GPa)
#
#
# Indices 1 2 3 4 5 6 
#
# 1 0.011227 -0.004144 -0.003816 0.000000 0.000000 0.000000
# 2 -0.004144 0.012224 -0.001349 0.000000 0.000000 0.000000
# 3 -0.003816 -0.001349 0.009013 0.000000 0.000000 0.000000
# 4 0.000000 0.000000 0.000000 0.065255 0.000000 0.000000
# 5 0.000000 0.000000 0.000000 0.000000 0.042576 0.000000
# 6 0.000000 0.000000 0.000000 0.000000 0.000000 0.024648
#
#
# Mechanical properties :
#
#
# Convention : Reuss Voigt Hill
#
# Bulk Modulus (GPa) = 72.22105 74.82919 73.52512
# Shear Modulus (GPa) = 26.57077 30.88576 28.72827
#
# Velocity S-wave (km/s) = 3.59363 3.87446 3.73668
# Velocity P-wave (km/s) = 7.23329 7.50896 7.37241
#
# Compressibility (1/GPa) = 0.01384638
#
# Stress axis : x y z
#
# Youngs Moduli (GPa) = 89.06802 81.80646 110.94830
#
# Poissons Ratio (x) = 0.33897 0.42341
# Poissons Ratio (y) = 0.36906 0.14970
# Poissons Ratio (z) = 0.33991 0.11038
#
# Static dielectric constant tensor:
#      x y z
#    x 1.832100 0.000000 0.000000 
#    y 0.000000 1.873080 0.000000 
#    z 0.000000 0.000000 1.833550 
# 
# From -- ./inp_files/28218.got.cif
#   From: 2010.05.17/outbox.cif.g08.bks.cpg/sg54_15_cif.got.tgz:28218.got - 2010.06.03 13:09:01.
