data_PCOD9422217
_publ_section_title
;
Structure prediction by ZEFSAII (Michael W. Deem and Ramdas Pophale) SiO2 
 PCOD9422217
Probable space group: P C C A
;
_chemical_formula_sum "Si O2"
_cell_formula_units_Z 48
_cell_length_a 17.535358
_cell_length_b 21.548791
_cell_length_c 5.167662
_cell_angle_alpha 90.000000
_cell_angle_beta 90.000000
_cell_angle_gamma 90.000000
_cell_volume 1952.682553
_symmetry_space_group_name_H-M "P C C A"
_symmetry_group_IT_number 54
_symmetry_cell_setting 'orthorhombic'
loop_
_space_group_symop_operation_xyz
x,y,z
1/2-x,-y,z
1/2+x,-y,1/2-z
-x,y,1/2-z
-x,-y,-z
1/2+x,y,-z
1/2-x,y,1/2+z
x,-y,1/2+z
loop_
_atom_site_type_symbol
_atom_site_label
_atom_site_fract_x
_atom_site_fract_y
_atom_site_fract_z
Si Si1 0.549456 0.243192 0.001056
Si Si2 0.281125 0.930765 0.911632
Si Si3 0.047349 0.093320 0.003873
Si Si4 0.279012 0.406854 0.088419
Si Si5 0.425400 0.455198 0.847358
Si Si6 0.216437 0.733972 0.280727
O O1 0.500000 0.260788 0.250000
O O2 0.555113 0.168180 0.985828
O O3 0.635325 0.264718 0.071627
O O4 0.500000 0.262811 0.750000
O O5 0.269390 0.899949 0.634216
O O6 0.367991 0.932837 0.994771
O O7 0.250000 0.000000 0.864125
O O8 0.000000 0.077611 0.750000
O O9 0.000000 0.072246 0.250000
O O10 0.280396 0.436389 0.379322
O O11 0.145147 0.411188 0.413758
O O12 0.266858 0.337019 0.191341
O O13 0.500000 0.417639 0.750000
O O14 0.425254 0.504876 0.612836
O O15 0.275798 0.761858 0.490605
#
# Coordination Sequence:
#
# PCOD9422217 Si02
#       6
#     8   8   8   8   8   8
#     4  10  21  38  60  88 119 152 198 250 300 365
#     4  10  21  38  56  83 118 152 197 247 292 353
#     4  10  21  38  60  85 116 155 198 248 304 358
#     4  10  21  37  57  83 116 152 195 243 295 360
#     4  10  21  37  57  83 116 154 199 249 298 351
#     4  10  21  38  59  86 120 156 192 240 303 364
#
# _framework density 24.581568999999998
#
# number of rings (size 3 to 8) (size 9 to 14) (size 15 to 20)
#    0.000    2.000    0.000    3.000    0.000    3.333 
#    0.000   18.333    0.000    0.000    0.000    0.000 
#    0.000    0.000    0.000    0.000    0.000    0.000 
#
# Total GULP energy -267563.093172 kJ/mol
# GULP energy per Si atom -5574.231108 kJ/mol
# Density = 2.452562 g / cm^3
# Si number density = 24.581569 Si / 1000 Ang^3
#
#
#
# Elastic Constant Matrix: (Units=GPa)
#
#
# Indices 1 2 3 4 5 6 
#
# 1 156.5315 28.9363 61.4912 0.0000 0.0000 0.0000
# 2 28.9363 66.5722 43.5609 0.0000 0.0000 0.0000
# 3 61.4912 43.5609 235.8686 0.0000 0.0000 0.0000
# 4 0.0000 0.0000 0.0000 69.1669 0.0000 0.0000
# 5 0.0000 0.0000 0.0000 0.0000 58.9784 0.0000
# 6 0.0000 0.0000 0.0000 0.0000 0.0000 34.9664
#
#
#
# Elastic Compliance Matrix: (Units=1/GPa)
#
#
# Indices 1 2 3 4 5 6 
#
# 1 0.007395 -0.002221 -0.001518 0.000000 0.000000 0.000000
# 2 -0.002221 0.017753 -0.002700 0.000000 0.000000 0.000000
# 3 -0.001518 -0.002700 0.005134 0.000000 0.000000 0.000000
# 4 0.000000 0.000000 0.000000 0.014458 0.000000 0.000000
# 5 0.000000 0.000000 0.000000 0.000000 0.016955 0.000000
# 6 0.000000 0.000000 0.000000 0.000000 0.000000 0.028599
#
#
# Mechanical properties :
#
#
# Convention : Reuss Voigt Hill
#
# Bulk Modulus (GPa) = 57.45431 80.77211 69.11321
# Shear Modulus (GPa) = 45.88264 54.28793 50.08528
#
# Velocity S-wave (km/s) = 4.32504 4.70455 4.51878
# Velocity P-wave (km/s) = 6.95449 7.90193 7.44330
#
# Compressibility (1/GPa) = 0.01740514
#
# Stress axis : x y z
#
# Youngs Moduli (GPa) = 135.22018 56.32756 194.78393
#
# Poissons Ratio (x) = 0.12512 0.29563
# Poissons Ratio (y) = 0.30037 0.52584
# Poissons Ratio (z) = 0.20523 0.15206
#
# Static dielectric constant tensor:
#      x y z
#    x 2.108930 0.000000 0.000000 
#    y 0.000000 3.594370 0.000000 
#    z 0.000000 0.000000 2.087850 
# 
# From -- ./inp_files/606.got.cif
#   From: 2010.05.17/outbox.cif.g08.bks.cpg/sg54_1_cif.got.tgz:606.got - 2010.06.03 13:09:01.
