data_PCOD9422257
_publ_section_title
;
Structure prediction by ZEFSAII (Michael W. Deem and Ramdas Pophale) SiO2 
 PCOD9422257
Probable space group: P C C A
;
_chemical_formula_sum "Si O2"
_cell_formula_units_Z 56
_cell_length_a 20.486896
_cell_length_b 8.684506
_cell_length_c 13.580177
_cell_angle_alpha 90.000000
_cell_angle_beta 90.000000
_cell_angle_gamma 90.000000
_cell_volume 2416.165689
_symmetry_space_group_name_H-M "P C C A"
_symmetry_group_IT_number 54
_symmetry_cell_setting 'orthorhombic'
loop_
_space_group_symop_operation_xyz
x,y,z
1/2-x,-y,z
1/2+x,-y,1/2-z
-x,y,1/2-z
-x,-y,-z
1/2+x,y,-z
1/2-x,y,1/2+z
x,-y,1/2+z
loop_
_atom_site_type_symbol
_atom_site_label
_atom_site_fract_x
_atom_site_fract_y
_atom_site_fract_z
Si Si1 0.047096 0.870929 0.952267
Si Si2 0.989727 0.430336 0.368804
Si Si3 0.108948 0.371218 0.886798
Si Si4 0.720474 0.671076 0.457687
Si Si5 0.659882 0.177311 0.395081
Si Si6 0.077683 0.940748 0.273517
Si Si7 0.649549 0.496011 0.804314
O O1 0.001558 0.737055 0.911472
O O2 0.087506 0.937909 0.860167
O O3 0.099565 0.810809 0.030147
O O4 0.000000 0.000000 0.000000
O O5 0.916224 0.484483 0.368054
O O6 0.000000 0.425071 0.250000
O O7 0.041938 0.545715 0.416922
O O8 0.159929 0.312546 0.967276
O O9 0.086221 0.227567 0.821032
O O10 0.140999 0.496890 0.812476
O O11 0.750000 0.500000 0.484156
O O12 0.771898 0.812258 0.455848
O O13 0.691985 0.640590 0.348258
O O14 0.629916 0.054412 0.316279
O O15 0.672057 0.333766 0.333894
O O16 0.000000 0.955791 0.250000
#
# Coordination Sequence:
#
# PCOD9422257 Si02
#       7
#     8   8   8   8   8   8   8
#     4  12  25  38  64  93 131 176 219 281 342 407
#     4  10  21  37  62 100 130 164 223 281 344 399
#     4  10  21  38  66  96 129 166 218 280 338 403
#     4  10  21  37  63  95 129 168 215 267 327 410
#     4  10  22  42  63  95 130 173 228 267 344 425
#     4  11  22  42  67  95 128 172 219 287 353 400
#     4   9  20  38  67  98 129 164 218 288 339 390
#
# _framework density 23.177219000000001
#
# number of rings (size 3 to 8) (size 9 to 14) (size 15 to 20)
#    0.000    1.714    1.429    4.286    2.000    4.000 
#    0.000    0.714    0.000    5.143    0.000    0.000 
#    0.000    0.000    0.000    0.000    0.000    0.000 
#
# Total GULP energy -312368.866147 kJ/mol
# GULP energy per Si atom -5578.015467 kJ/mol
# Density = 2.312447 g / cm^3
# Si number density = 23.177219 Si / 1000 Ang^3
#
#
#
# Elastic Constant Matrix: (Units=GPa)
#
#
# Indices 1 2 3 4 5 6 
#
# 1 136.0492 21.9787 49.2591 0.0000 0.0000 0.0000
# 2 21.9787 48.9591 10.3940 0.0000 0.0000 0.0000
# 3 49.2591 10.3940 75.8973 0.0000 0.0000 0.0000
# 4 0.0000 0.0000 0.0000 27.1196 0.0000 0.0000
# 5 0.0000 0.0000 0.0000 0.0000 33.7478 0.0000
# 6 0.0000 0.0000 0.0000 0.0000 0.0000 16.9139
#
#
#
# Elastic Compliance Matrix: (Units=1/GPa)
#
#
# Indices 1 2 3 4 5 6 
#
# 1 0.010081 -0.003230 -0.006100 0.000000 0.000000 0.000000
# 2 -0.003230 0.022072 -0.000926 0.000000 0.000000 0.000000
# 3 -0.006100 -0.000926 0.017262 0.000000 0.000000 0.000000
# 4 0.000000 0.000000 0.000000 0.036874 0.000000 0.000000
# 5 0.000000 0.000000 0.000000 0.000000 0.029632 0.000000
# 6 0.000000 0.000000 0.000000 0.000000 0.000000 0.059123
#
#
# Mechanical properties :
#
#
# Convention : Reuss Voigt Hill
#
# Bulk Modulus (GPa) = 34.60087 47.12990 40.86538
# Shear Modulus (GPa) = 24.36762 27.50784 25.93773
#
# Velocity S-wave (km/s) = 3.24599 3.44880 3.34893
# Velocity P-wave (km/s) = 5.38608 6.01978 5.71172
#
# Compressibility (1/GPa) = 0.02890101
#
# Stress axis : x y z
#
# Youngs Moduli (GPa) = 99.19765 45.30622 57.93148
#
# Poissons Ratio (x) = 0.14636 0.35340
# Poissons Ratio (y) = 0.32045 0.05365
# Poissons Ratio (z) = 0.60514 0.04196
#
# Static dielectric constant tensor:
#      x y z
#    x 2.009630 0.000000 0.000000 
#    y 0.000000 1.865290 0.000000 
#    z 0.000000 0.000000 1.946660 
# 
# From -- ./inp_files/14687.got.cif
#   From: 2010.05.17/outbox.cif.g08.bks.cpg/sg54_8_cif.got.tgz:14687.got - 2010.06.03 13:09:01.
