data_PCOD9422921
_publ_section_title
;
Structure prediction by ZEFSAII (Michael W. Deem and Ramdas Pophale) SiO2 
 PCOD9422921
Probable space group: P C C A
;
_chemical_formula_sum "Si O2"
_cell_formula_units_Z 60
_cell_length_a 11.445215
_cell_length_b 26.193961
_cell_length_c 9.109987
_cell_angle_alpha 90.000000
_cell_angle_beta 90.000000
_cell_angle_gamma 90.000000
_cell_volume 2731.133247
_symmetry_space_group_name_H-M "P C C A"
_symmetry_group_IT_number 54
_symmetry_cell_setting 'orthorhombic'
loop_
_space_group_symop_operation_xyz
x,y,z
1/2-x,-y,z
1/2+x,-y,1/2-z
-x,y,1/2-z
-x,-y,-z
1/2+x,y,-z
1/2-x,y,1/2+z
x,-y,1/2+z
loop_
_atom_site_type_symbol
_atom_site_label
_atom_site_fract_x
_atom_site_fract_y
_atom_site_fract_z
Si Si1 0.941692 0.774069 0.598939
Si Si2 0.250000 0.000000 0.991977
Si Si3 0.381412 0.489194 0.141673
Si Si4 0.361624 0.067242 0.240562
Si Si5 0.124142 0.823034 0.168016
Si Si6 0.092760 0.313719 0.973971
Si Si7 0.751724 0.716418 0.267042
Si Si8 0.490489 0.583948 0.427593
O O1 0.899097 0.821800 0.505948
O O2 0.844858 0.733058 0.647627
O O3 0.000000 0.790499 0.750000
O O4 0.030078 0.740658 0.500428
O O5 0.315320 0.960759 0.884828
O O6 0.169701 0.967088 0.100487
O O7 0.250000 0.500000 0.205472
O O8 0.500000 0.483426 0.250000
O O9 0.408501 0.541589 0.054244
O O10 0.387177 0.443698 0.020678
O O11 0.500000 0.071845 0.250000
O O12 0.315703 0.125091 0.220227
O O13 0.196719 0.771337 0.188444
O O14 0.000000 0.818575 0.250000
O O15 0.191297 0.312968 0.100913
O O16 0.011628 0.361462 0.002321
O O17 0.149775 0.315080 0.815137
O O18 0.500000 0.592144 0.250000
#
# Coordination Sequence:
#
# PCOD9422921 Si02
#       8
#     8   4   8   8   8   8   8   8
#     4  10  22  40  59  88 131 168 220 272 324 398
#     4  10  22  44  66  96 128 172 226 288 344 416
#     4  10  24  46  72 103 138 181 237 305 358 440
#     4  10  23  41  67  94 132 172 224 286 346 410
#     4  11  22  40  62  93 130 175 223 277 334 412
#     4  11  23  40  63  93 134 178 223 277 336 402
#     4  11  22  38  62  92 134 174 221 275 327 410
#     4  10  23  43  67  96 136 179 231 289 354 425
#
# _framework density 21.968902
#
# number of rings (size 3 to 8) (size 9 to 14) (size 15 to 20)
#    0.000    1.600    2.667    1.600    1.867    8.000 
#    4.800    0.667    0.000    0.000    0.000    0.000 
#    0.000    0.000    0.000    0.000    0.000    0.000 
#
# Total GULP energy -334623.930574 kJ/mol
# GULP energy per Si atom -5577.065510 kJ/mol
# Density = 2.191890 g / cm^3
# Si number density = 21.968902 Si / 1000 Ang^3
#
#
#
# Elastic Constant Matrix: (Units=GPa)
#
#
# Indices 1 2 3 4 5 6 
#
# 1 72.4255 10.7426 33.4837 0.0000 0.0000 0.0000
# 2 10.7426 87.7971 44.4495 0.0000 0.0000 0.0000
# 3 33.4837 44.4495 96.3964 0.0000 0.0000 0.0000
# 4 0.0000 0.0000 0.0000 30.0613 0.0000 0.0000
# 5 0.0000 0.0000 0.0000 0.0000 25.5493 0.0000
# 6 0.0000 0.0000 0.0000 0.0000 0.0000 14.5818
#
#
#
# Elastic Compliance Matrix: (Units=1/GPa)
#
#
# Indices 1 2 3 4 5 6 
#
# 1 0.016538 0.001154 -0.006277 0.000000 0.000000 0.000000
# 2 0.001154 0.014939 -0.007290 0.000000 0.000000 0.000000
# 3 -0.006277 -0.007290 0.015915 0.000000 0.000000 0.000000
# 4 0.000000 0.000000 0.000000 0.033265 0.000000 0.000000
# 5 0.000000 0.000000 0.000000 0.000000 0.039140 0.000000
# 6 0.000000 0.000000 0.000000 0.000000 0.000000 0.068578
#
#
# Mechanical properties :
#
#
# Convention : Reuss Voigt Hill
#
# Bulk Modulus (GPa) = 44.30982 48.21895 46.26438
# Shear Modulus (GPa) = 22.65279 25.23470 23.94374
#
# Velocity S-wave (km/s) = 3.21460 3.39286 3.30493
# Velocity P-wave (km/s) = 5.83021 6.11106 5.97229
#
# Compressibility (1/GPa) = 0.02256836
#
# Stress axis : x y z
#
# Youngs Moduli (GPa) = 60.46699 66.93804 62.83224
#
# Poissons Ratio (x) = -0.07726 0.39438
# Poissons Ratio (y) = -0.06979 0.45802
# Poissons Ratio (z) = 0.37954 0.48795
#
# Static dielectric constant tensor:
#      x y z
#    x 1.929710 0.000000 0.000000 
#    y 0.000000 1.766990 0.000000 
#    z 0.000000 0.000000 1.883330 
# 
# From -- ./inp_files/3061.got.cif
#   From: 2010.05.17/outbox.cif.g08.bks.cpg/sg54_2_cif.got.tgz:3061.got - 2010.06.03 13:09:01.
