data_PCOD9422502
_publ_section_title
;
Structure prediction by ZEFSAII (Michael W. Deem and Ramdas Pophale) SiO2 
 PCOD9422502
Probable space group: P C C A
;
_chemical_formula_sum "Si O2"
_cell_formula_units_Z 48
_cell_length_a 15.765997
_cell_length_b 23.782681
_cell_length_c 5.295365
_cell_angle_alpha 90.000000
_cell_angle_beta 90.000000
_cell_angle_gamma 90.000000
_cell_volume 1985.537761
_symmetry_space_group_name_H-M "P C C A"
_symmetry_group_IT_number 54
_symmetry_cell_setting 'orthorhombic'
loop_
_space_group_symop_operation_xyz
x,y,z
1/2-x,-y,z
1/2+x,-y,1/2-z
-x,y,1/2-z
-x,-y,-z
1/2+x,y,-z
1/2-x,y,1/2+z
x,-y,1/2+z
loop_
_atom_site_type_symbol
_atom_site_label
_atom_site_fract_x
_atom_site_fract_y
_atom_site_fract_z
Si Si1 0.465481 0.564516 0.500170
Si Si2 0.397553 0.967272 0.760650
Si Si3 0.216280 0.298924 0.169030
Si Si4 0.945332 0.753306 0.002391
Si Si5 0.222174 0.573967 0.165101
Si Si6 0.692055 0.850539 0.605480
O O1 0.500000 0.592034 0.250000
O O2 0.500000 0.500000 0.500000
O O3 0.365465 0.566921 0.520193
O O4 0.500000 0.592900 0.750000
O O5 0.500000 0.960579 0.750000
O O6 0.353764 0.910346 0.851596
O O7 0.374453 0.986977 0.477172
O O8 0.227617 0.272328 0.444842
O O9 0.252164 0.361509 0.208408
O O10 0.120550 0.295644 0.076676
O O11 0.883218 0.804653 0.079840
O O12 0.000000 0.739520 0.250000
O O13 0.000000 0.766105 0.750000
O O14 0.212623 0.551523 0.451457
O O15 0.746134 0.845903 0.347647
#
# Coordination Sequence:
#
# PCOD9422502 Si02
#       6
#     8   8   8   8   8   8
#     4  10  21  40  62  92 128 166 213 261 306 366
#     4  10  22  40  62  90 128 170 214 265 321 379
#     4  10  21  42  65  92 126 162 204 257 320 383
#     4  12  25  43  67  94 125 164 212 265 324 391
#     4  10  21  40  64  91 125 167 207 257 316 374
#     4  12  25  41  65  94 129 170 215 269 323 390
#
# _framework density 24.174814000000001
#
# number of rings (size 3 to 8) (size 9 to 14) (size 15 to 20)
#    0.000    1.333    0.000    5.500    0.000    4.000 
#    0.000   30.000    0.000    0.000    0.000    0.000 
#    0.000    0.000    0.000    0.000    0.000    0.000 
#
# Total GULP energy -268391.967410 kJ/mol
# GULP energy per Si atom -5591.499321 kJ/mol
# Density = 2.411979 g / cm^3
# Si number density = 24.174814 Si / 1000 Ang^3
#
#
#
# Elastic Constant Matrix: (Units=GPa)
#
#
# Indices 1 2 3 4 5 6 
#
# 1 92.3738 36.2733 26.0565 0.0000 0.0000 0.0000
# 2 36.2733 101.8883 5.5498 0.0000 0.0000 0.0000
# 3 26.0565 5.5498 208.7431 0.0000 0.0000 0.0000
# 4 0.0000 0.0000 0.0000 31.8158 0.0000 0.0000
# 5 0.0000 0.0000 0.0000 0.0000 60.9999 0.0000
# 6 0.0000 0.0000 0.0000 0.0000 0.0000 42.2171
#
#
#
# Elastic Compliance Matrix: (Units=1/GPa)
#
#
# Indices 1 2 3 4 5 6 
#
# 1 0.013042 -0.004561 -0.001507 0.000000 0.000000 0.000000
# 2 -0.004561 0.011424 0.000266 0.000000 0.000000 0.000000
# 3 -0.001507 0.000266 0.004972 0.000000 0.000000 0.000000
# 4 0.000000 0.000000 0.000000 0.031431 0.000000 0.000000
# 5 0.000000 0.000000 0.000000 0.000000 0.016393 0.000000
# 6 0.000000 0.000000 0.000000 0.000000 0.000000 0.023687
#
#
# Mechanical properties :
#
#
# Convention : Reuss Voigt Hill
#
# Bulk Modulus (GPa) = 56.07527 59.86271 57.96899
# Shear Modulus (GPa) = 42.19527 49.34829 45.77178
#
# Velocity S-wave (km/s) = 4.18236 4.52299 4.35600
# Velocity P-wave (km/s) = 6.82414 7.21753 7.02359
#
# Compressibility (1/GPa) = 0.01783317
#
# Stress axis : x y z
#
# Youngs Moduli (GPa) = 76.67814 87.53567 201.14303
#
# Poissons Ratio (x) = 0.39924 0.30305
# Poissons Ratio (y) = 0.34972 -0.05342
# Poissons Ratio (z) = 0.11553 -0.02325
#
# Static dielectric constant tensor:
#      x y z
#    x 1.940070 0.000000 0.000000 
#    y 0.000000 2.018690 0.000000 
#    z 0.000000 0.000000 2.034010 
# 
# From -- ./inp_files/608.got.cif
#   From: 2010.05.17/outbox.cif.g08.bks.cpg/sg54_1_cif.got.tgz:608.got - 2010.06.03 13:09:01.
