data_PCOD9422632
_publ_section_title
;
Structure prediction by ZEFSAII (Michael W. Deem and Ramdas Pophale) SiO2 
 PCOD9422632
Probable space group: P C C A
;
_chemical_formula_sum "Si O2"
_cell_formula_units_Z 32
_cell_length_a 11.827332
_cell_length_b 11.319174
_cell_length_c 9.477665
_cell_angle_alpha 90.000000
_cell_angle_beta 90.000000
_cell_angle_gamma 90.000000
_cell_volume 1268.828362
_symmetry_space_group_name_H-M "P C C A"
_symmetry_group_IT_number 54
_symmetry_cell_setting 'orthorhombic'
loop_
_space_group_symop_operation_xyz
x,y,z
1/2-x,-y,z
1/2+x,-y,1/2-z
-x,y,1/2-z
-x,-y,-z
1/2+x,y,-z
1/2-x,y,1/2+z
x,-y,1/2+z
loop_
_atom_site_type_symbol
_atom_site_label
_atom_site_fract_x
_atom_site_fract_y
_atom_site_fract_z
Si Si1 0.597012 0.590544 0.458299
Si Si2 0.000000 0.941399 0.250000
Si Si3 0.250000 0.500000 0.298350
Si Si4 0.272746 0.862620 0.864845
Si Si5 0.885286 0.165718 0.366855
O O1 0.500000 0.500000 0.500000
O O2 0.658941 0.551143 0.313395
O O3 0.685672 0.587372 0.590695
O O4 0.550468 0.721368 0.427058
O O5 0.948457 0.040082 0.359072
O O6 0.900782 0.857804 0.193011
O O7 0.170872 0.804080 0.782518
O O8 0.250000 0.000000 0.840403
O O9 0.277754 0.842803 0.030116
#
# Coordination Sequence:
#
# PCOD9422632 Si02
#       5
#     8   4   4   8   8
#     4  11  24  45  72  97 141 185 236 292 349 421
#     4  10  22  38  66 100 136 170 226 278 346 418
#     4  10  24  46  66  98 140 176 238 294 344 402
#     4  10  21  42  64  98 137 171 221 283 337 419
#     4  11  23  40  68  97 132 180 225 276 356 407
#
# _framework density 25.220116999999998
#
# number of rings (size 3 to 8) (size 9 to 14) (size 15 to 20)
#    0.000    1.500    0.000    5.250    3.500    2.000 
#   18.000    0.000    0.000    0.000    0.000    0.000 
#    0.000    0.000    0.000    0.000    0.000    0.000 
#
# Total GULP energy -178649.496307 kJ/mol
# GULP energy per Si atom -5582.796760 kJ/mol
# Density = 2.516271 g / cm^3
# Si number density = 25.220117 Si / 1000 Ang^3
#
#
#
# Elastic Constant Matrix: (Units=GPa)
#
#
# Indices 1 2 3 4 5 6 
#
# 1 78.7961 22.5310 45.3670 0.0000 0.0000 0.0000
# 2 22.5310 84.5566 29.3659 0.0000 0.0000 0.0000
# 3 45.3670 29.3659 146.9324 0.0000 0.0000 0.0000
# 4 0.0000 0.0000 0.0000 26.6959 0.0000 0.0000
# 5 0.0000 0.0000 0.0000 0.0000 48.3441 0.0000
# 6 0.0000 0.0000 0.0000 0.0000 0.0000 24.5319
#
#
#
# Elastic Compliance Matrix: (Units=1/GPa)
#
#
# Indices 1 2 3 4 5 6 
#
# 1 0.016004 -0.002738 -0.004394 0.000000 0.000000 0.000000
# 2 -0.002738 0.013177 -0.001788 0.000000 0.000000 0.000000
# 3 -0.004394 -0.001788 0.008520 0.000000 0.000000 0.000000
# 4 0.000000 0.000000 0.000000 0.037459 0.000000 0.000000
# 5 0.000000 0.000000 0.000000 0.000000 0.020685 0.000000
# 6 0.000000 0.000000 0.000000 0.000000 0.000000 0.040763
#
#
# Mechanical properties :
#
#
# Convention : Reuss Voigt Hill
#
# Bulk Modulus (GPa) = 50.35289 56.09034 53.22161
# Shear Modulus (GPa) = 31.04256 34.11579 32.57917
#
# Velocity S-wave (km/s) = 3.51217 3.68193 3.59805
# Velocity P-wave (km/s) = 6.03787 6.35327 6.19758
#
# Compressibility (1/GPa) = 0.01985983
#
# Stress axis : x y z
#
# Youngs Moduli (GPa) = 62.48478 75.88957 117.37177
#
# Poissons Ratio (x) = 0.20781 0.51574
# Poissons Ratio (y) = 0.17111 0.20987
# Poissons Ratio (z) = 0.27456 0.13570
#
# Static dielectric constant tensor:
#      x y z
#    x 2.086080 0.000000 0.000000 
#    y 0.000000 2.057180 0.000000 
#    z 0.000000 0.000000 2.027370 
# 
# From -- ./inp_files/2872.got.cif
#   From: 2010.05.17/outbox.cif.g08.bks.cpg/sg54_2_cif.got.tgz:2872.got - 2010.06.03 13:09:01.
