data_PCOD9422887
_publ_section_title
;
Structure prediction by ZEFSAII (Michael W. Deem and Ramdas Pophale) SiO2 
 PCOD9422887
Probable space group: P C C A
;
_chemical_formula_sum "Si O2"
_cell_formula_units_Z 24
_cell_length_a 4.961844
_cell_length_b 17.294804
_cell_length_c 10.806295
_cell_angle_alpha 90.000000
_cell_angle_beta 90.000000
_cell_angle_gamma 90.000000
_cell_volume 927.332690
_symmetry_space_group_name_H-M "P C C A"
_symmetry_group_IT_number 54
_symmetry_cell_setting 'orthorhombic'
loop_
_space_group_symop_operation_xyz
x,y,z
1/2-x,-y,z
1/2+x,-y,1/2-z
-x,y,1/2-z
-x,-y,-z
1/2+x,y,-z
1/2-x,y,1/2+z
x,-y,1/2+z
loop_
_atom_site_type_symbol
_atom_site_label
_atom_site_fract_x
_atom_site_fract_y
_atom_site_fract_z
Si Si1 0.750000 0.500000 0.409290
Si Si2 0.320594 0.080056 0.413153
Si Si3 0.500000 0.630838 0.750000
Si Si4 0.205753 0.245920 0.416070
O O1 0.500000 0.500000 0.500000
O O2 0.698129 0.425435 0.325556
O O3 0.620934 0.079429 0.467050
O O4 0.260115 0.162548 0.353015
O O5 0.250000 0.000000 0.345398
O O6 0.687863 0.684801 0.666200
O O7 0.399426 0.248909 0.537752
#
# Coordination Sequence:
#
# PCOD9422887 Si02
#       4
#     4   8   4   8
#     4  12  28  48  70 100 136 176 226 284 348 420
#     4   8  14  28  53  84 121 165 207 254 314 375
#     4  12  26  46  72  98 132 176 224 278 346 406
#     4  10  22  39  63  96 131 169 218 270 323 390
#
# _framework density 25.880680999999999
#
# number of rings (size 3 to 8) (size 9 to 14) (size 15 to 20)
#    0.000    2.000    0.000    3.000    0.000    6.667 
#    0.000    0.000    0.000   20.000    0.000    0.000 
#    0.000    0.000    0.000    0.000    0.000    0.000 
#
# Total GULP energy -134549.284620 kJ/mol
# GULP energy per Si atom -5606.220193 kJ/mol
# Density = 2.582178 g / cm^3
# Si number density = 25.880681 Si / 1000 Ang^3
#
#
#
# Elastic Constant Matrix: (Units=GPa)
#
#
# Indices 1 2 3 4 5 6 
#
# 1 140.9104 30.2079 33.9786 0.0000 0.0000 0.0000
# 2 30.2079 256.7293 71.3750 0.0000 0.0000 0.0000
# 3 33.9786 71.3750 71.3832 0.0000 0.0000 0.0000
# 4 0.0000 0.0000 0.0000 104.8313 0.0000 0.0000
# 5 0.0000 0.0000 0.0000 0.0000 32.6719 0.0000
# 6 0.0000 0.0000 0.0000 0.0000 0.0000 45.7169
#
#
#
# Elastic Compliance Matrix: (Units=1/GPa)
#
#
# Indices 1 2 3 4 5 6 
#
# 1 0.008022 0.000163 -0.003981 0.000000 0.000000 0.000000
# 2 0.000163 0.005398 -0.005475 0.000000 0.000000 0.000000
# 3 -0.003981 -0.005475 0.021379 0.000000 0.000000 0.000000
# 4 0.000000 0.000000 0.000000 0.009539 0.000000 0.000000
# 5 0.000000 0.000000 0.000000 0.000000 0.030607 0.000000
# 6 0.000000 0.000000 0.000000 0.000000 0.000000 0.021874
#
#
# Mechanical properties :
#
#
# Convention : Reuss Voigt Hill
#
# Bulk Modulus (GPa) = 61.68464 82.23844 71.96154
# Shear Modulus (GPa) = 41.38746 58.87478 50.13112
#
# Velocity S-wave (km/s) = 4.00329 4.77472 4.40592
# Velocity P-wave (km/s) = 6.72714 7.88937 7.33133
#
# Compressibility (1/GPa) = 0.01621149
#
# Stress axis : x y z
#
# Youngs Moduli (GPa) = 124.65992 185.24891 46.77592
#
# Poissons Ratio (x) = -0.03020 0.18623
# Poissons Ratio (y) = -0.02032 0.25610
# Poissons Ratio (z) = 0.49632 1.01426
#
# Static dielectric constant tensor:
#      x y z
#    x 1.938070 0.000000 0.000000 
#    y 0.000000 2.066430 0.000000 
#    z 0.000000 0.000000 2.013190 
# 
# From -- ./inp_files/6196.got.cif
#   From: 2010.05.17/outbox.cif.g08.bks.cpg/sg54_4_cif.got.tgz:6196.got - 2010.06.03 13:09:01.
