data_PCOD9422446
_publ_section_title
;
Structure prediction by ZEFSAII (Michael W. Deem and Ramdas Pophale) SiO2 
 PCOD9422446
Probable space group: P C C A
;
_chemical_formula_sum "Si O2"
_cell_formula_units_Z 48
_cell_length_a 9.690707
_cell_length_b 8.319405
_cell_length_c 32.355947
_cell_angle_alpha 90.000000
_cell_angle_beta 90.000000
_cell_angle_gamma 90.000000
_cell_volume 2608.566094
_symmetry_space_group_name_H-M "P C C A"
_symmetry_group_IT_number 54
_symmetry_cell_setting 'orthorhombic'
loop_
_space_group_symop_operation_xyz
x,y,z
1/2-x,-y,z
1/2+x,-y,1/2-z
-x,y,1/2-z
-x,-y,-z
1/2+x,y,-z
1/2-x,y,1/2+z
x,-y,1/2+z
loop_
_atom_site_type_symbol
_atom_site_label
_atom_site_fract_x
_atom_site_fract_y
_atom_site_fract_z
Si Si1 0.694607 0.171328 0.849879
Si Si2 0.465547 0.629062 0.629693
Si Si3 0.904477 0.563956 0.789757
Si Si4 0.980656 0.697271 0.917796
Si Si5 0.872362 0.882372 0.993464
Si Si6 0.713413 0.814433 0.586392
O O1 0.825865 0.268728 0.867480
O O2 0.624163 0.267967 0.812721
O O3 0.585108 0.171120 0.886843
O O4 0.750000 0.000000 0.836991
O O5 0.475335 0.549587 0.675364
O O6 0.444417 0.479585 0.598536
O O7 0.595482 0.734142 0.614665
O O8 0.750000 0.500000 0.780071
O O9 0.000000 0.574888 0.750000
O O10 0.144559 0.715787 0.913948
O O11 0.918722 0.744009 0.962052
O O12 0.750000 0.000000 0.977897
O O13 0.834170 0.817582 0.038624
O O14 0.000000 0.000000 0.000000
O O15 0.750000 0.000000 0.597596
#
# Coordination Sequence:
#
# PCOD9422446 Si02
#       6
#     8   8   8   8   8   8
#     4  10  21  39  64  90 118 156 201 247 297 360
#     4  10  23  40  60  90 118 157 202 245 302 365
#     4   9  20  40  64  91 122 155 191 239 304 363
#     4  11  21  37  58  85 120 159 204 247 301 353
#     4  11  22  38  56  87 122 166 205 251 307 347
#     4  11  22  37  58  86 121 158 207 249 297 354
#
# _framework density 18.400915000000001
#
# number of rings (size 3 to 8) (size 9 to 14) (size 15 to 20)
#    0.000    1.667    3.333    3.500    2.333    3.333 
#    0.000    5.000    0.000    5.000    0.000    0.000 
#    0.000    0.000    0.000    0.000    0.000    0.000 
#
# Total GULP energy -267895.046901 kJ/mol
# GULP energy per Si atom -5581.146810 kJ/mol
# Density = 1.835903 g / cm^3
# Si number density = 18.400915 Si / 1000 Ang^3
#
#
#
# Elastic Constant Matrix: (Units=GPa)
#
#
# Indices 1 2 3 4 5 6 
#
# 1 119.3961 41.2542 77.1572 0.0000 0.0000 0.0000
# 2 41.2542 80.7767 56.1197 0.0000 0.0000 0.0000
# 3 77.1572 56.1197 117.6097 0.0000 0.0000 0.0000
# 4 0.0000 0.0000 0.0000 8.2259 0.0000 0.0000
# 5 0.0000 0.0000 0.0000 0.0000 38.2126 0.0000
# 6 0.0000 0.0000 0.0000 0.0000 0.0000 34.5494
#
#
#
# Elastic Compliance Matrix: (Units=1/GPa)
#
#
# Indices 1 2 3 4 5 6 
#
# 1 0.014617 -0.001201 -0.009016 0.000000 0.000000 0.000000
# 2 -0.001201 0.018618 -0.008096 0.000000 0.000000 0.000000
# 3 -0.009016 -0.008096 0.018281 0.000000 0.000000 0.000000
# 4 0.000000 0.000000 0.000000 0.121568 0.000000 0.000000
# 5 0.000000 0.000000 0.000000 0.000000 0.026169 0.000000
# 6 0.000000 0.000000 0.000000 0.000000 0.000000 0.028944
#
#
# Mechanical properties :
#
#
# Convention : Reuss Voigt Hill
#
# Bulk Modulus (GPa) = 67.16270 74.09388 70.62829
# Shear Modulus (GPa) = 18.53313 25.74766 22.14040
#
# Velocity S-wave (km/s) = 3.17706 3.74473 3.47251
# Velocity P-wave (km/s) = 7.07370 7.68447 7.38540
#
# Compressibility (1/GPa) = 0.01488922
#
# Stress axis : x y z
#
# Youngs Moduli (GPa) = 68.41292 53.71181 54.70183
#
# Poissons Ratio (x) = 0.06451 0.49321
# Poissons Ratio (y) = 0.08217 0.44286
# Poissons Ratio (z) = 0.61683 0.43484
#
# Static dielectric constant tensor:
#      x y z
#    x 0.855790 0.000000 0.000000 
#    y 0.000000 1.644470 0.000000 
#    z 0.000000 0.000000 1.657530 
# 
# From -- ./inp_files/27732.got.cif
#   From: 2010.05.17/outbox.cif.g08.bks.cpg/sg54_14_cif.got.tgz:27732.got - 2010.06.03 13:09:01.
