data_PCOD9422774
_publ_section_title
;
Structure prediction by ZEFSAII (Michael W. Deem and Ramdas Pophale) SiO2 
 PCOD9422774
Probable space group: P C C A
;
_chemical_formula_sum "Si O2"
_cell_formula_units_Z 40
_cell_length_a 8.257651
_cell_length_b 15.759252
_cell_length_c 12.283184
_cell_angle_alpha 90.000000
_cell_angle_beta 90.000000
_cell_angle_gamma 90.000000
_cell_volume 1598.464817
_symmetry_space_group_name_H-M "P C C A"
_symmetry_group_IT_number 54
_symmetry_cell_setting 'orthorhombic'
loop_
_space_group_symop_operation_xyz
x,y,z
1/2-x,-y,z
1/2+x,-y,1/2-z
-x,y,1/2-z
-x,-y,-z
1/2+x,y,-z
1/2-x,y,1/2+z
x,-y,1/2+z
loop_
_atom_site_type_symbol
_atom_site_label
_atom_site_fract_x
_atom_site_fract_y
_atom_site_fract_z
Si Si1 0.687019 0.364759 0.359026
Si Si2 0.368632 0.062622 0.444126
Si Si3 0.477296 0.301961 0.879486
Si Si4 0.616389 0.181738 0.431310
Si Si5 0.830458 0.586311 0.112030
O O1 0.873156 0.368200 0.399840
O O2 0.666880 0.262020 0.359171
O O3 0.682180 0.411011 0.243791
O O4 0.519323 0.397969 0.410288
O O5 0.472572 0.129055 0.377321
O O6 0.255815 0.117195 0.527812
O O7 0.250000 0.000000 0.380429
O O8 0.500000 0.000000 0.500000
O O9 0.500000 0.283366 0.750000
O O10 0.469246 0.221975 0.959844
O O11 0.300866 0.340036 0.908234
O O12 0.750000 0.500000 0.070357
#
# Coordination Sequence:
#
# PCOD9422774 Si02
#       5
#     8   8   8   8   8
#     4  10  22  36  62  89 115 164 205 258 301 365
#     4   9  19  32  58  93 117 156 190 250 313 356
#     4  10  22  38  62  89 119 168 206 255 323 355
#     4  11  18  38  61  89 121 151 218 252 287 389
#     4  10  23  40  60  88 122 163 208 248 321 375
#
# _framework density 25.024009
#
# number of rings (size 3 to 8) (size 9 to 14) (size 15 to 20)
#    0.000    2.000    2.000    1.200    8.400    0.000 
#    0.000    2.000    0.000    3.600   26.000    0.000 
#    0.000    0.000    0.000    0.000    0.000    0.000 
#
# Total GULP energy -222877.625697 kJ/mol
# GULP energy per Si atom -5571.940642 kJ/mol
# Density = 2.496705 g / cm^3
# Si number density = 25.024009 Si / 1000 Ang^3
#
#
#
# Elastic Constant Matrix: (Units=GPa)
#
#
# Indices 1 2 3 4 5 6 
#
# 1 167.9831 41.7861 42.6472 0.0000 0.0000 0.0000
# 2 41.7861 115.2574 10.0526 0.0000 0.0000 0.0000
# 3 42.6472 10.0526 75.7688 0.0000 0.0000 0.0000
# 4 0.0000 0.0000 0.0000 -18.0403 0.0000 0.0000
# 5 0.0000 0.0000 0.0000 0.0000 41.7446 0.0000
# 6 0.0000 0.0000 0.0000 0.0000 0.0000 67.8133
#
#
#
# Elastic Compliance Matrix: (Units=1/GPa)
#
#
# Indices 1 2 3 4 5 6 
#
# 1 0.007546 -0.002393 -0.003930 0.000000 0.000000 0.000000
# 2 -0.002393 0.009537 0.000082 0.000000 0.000000 0.000000
# 3 -0.003930 0.000082 0.015399 0.000000 0.000000 0.000000
# 4 0.000000 0.000000 0.000000 -0.055431 0.000000 0.000000
# 5 0.000000 0.000000 0.000000 0.000000 0.023955 0.000000
# 6 0.000000 0.000000 0.000000 0.000000 0.000000 0.014746
#
#
# Mechanical properties :
#
#
# Convention : Reuss Voigt Hill
#
# Bulk Modulus (GPa) = 50.00142 60.88680 55.44411
# Shear Modulus (GPa) = 143.26326 35.93840 89.60083
#
# Velocity S-wave (km/s) = 7.57460 3.79378 5.99030
# Velocity P-wave (km/s) = 9.82467 6.60110 8.36955
#
# Compressibility (1/GPa) = 0.01999943
#
# Stress axis : x y z
#
# Youngs Moduli (GPa) = 132.52170 104.85821 64.93866
#
# Poissons Ratio (x) = 0.25093 0.25520
# Poissons Ratio (y) = 0.31712 -0.00530
# Poissons Ratio (z) = 0.52079 -0.00856
#
# Static dielectric constant tensor:
#      x y z
#    x 2.041550 0.000000 0.000000 
#    y 0.000000 1.989510 0.000000 
#    z 0.000000 0.000000 2.412580 
# 
# From -- ./inp_files/11482.got.cif
#   From: 2010.05.17/outbox.cif.g08.bks.cpg/sg54_6_cif.got.tgz:11482.got - 2010.06.03 13:09:01.
