data_PCOD9422353
_publ_section_title
;
Structure prediction by ZEFSAII (Michael W. Deem and Ramdas Pophale) SiO2 
 PCOD9422353
Probable space group: P C C A
;
_chemical_formula_sum "Si O2"
_cell_formula_units_Z 40
_cell_length_a 15.779350
_cell_length_b 7.995719
_cell_length_c 15.441574
_cell_angle_alpha 90.000000
_cell_angle_beta 90.000000
_cell_angle_gamma 90.000000
_cell_volume 1948.220906
_symmetry_space_group_name_H-M "P C C A"
_symmetry_group_IT_number 54
_symmetry_cell_setting 'orthorhombic'
loop_
_space_group_symop_operation_xyz
x,y,z
1/2-x,-y,z
1/2+x,-y,1/2-z
-x,y,1/2-z
-x,-y,-z
1/2+x,y,-z
1/2-x,y,1/2+z
x,-y,1/2+z
loop_
_atom_site_type_symbol
_atom_site_label
_atom_site_fract_x
_atom_site_fract_y
_atom_site_fract_z
Si Si1 0.553101 0.304319 0.926316
Si Si2 0.423221 0.182503 0.811480
Si Si3 0.615734 0.823515 0.769001
Si Si4 0.522055 0.668826 0.619419
Si Si5 0.708879 0.317923 0.799945
O O1 0.470812 0.191724 0.902368
O O2 0.522238 0.490235 0.897443
O O3 0.639290 0.272967 0.873065
O O4 0.565765 0.290439 0.028628
O O5 0.500000 0.243970 0.750000
O O6 0.342572 0.296310 0.790316
O O7 0.399850 0.998340 0.778808
O O8 0.588049 0.681812 0.698872
O O9 0.552115 0.794539 0.848992
O O10 0.711344 0.804061 0.797834
O O11 0.750000 0.500000 0.812715
#
# Coordination Sequence:
#
# PCOD9422353 Si02
#       5
#     8   8   8   8   8
#     4  10  22  40  63  95 124 164 214 257 309 376
#     4  10  21  38  63  89 120 168 202 249 314 377
#     4  11  21  40  63  91 125 166 208 256 316 374
#     4  10  21  40  65  91 125 164 211 253 316 378
#     4  11  21  37  63  90 123 163 212 258 306 366
#
# _framework density 20.531552000000001
#
# number of rings (size 3 to 8) (size 9 to 14) (size 15 to 20)
#    0.000    1.600    4.000    1.800    5.600    0.800 
#    3.600    1.000    0.000    0.000    0.000    0.000 
#    0.000    0.000    0.000    0.000    0.000    0.000 
#
# Total GULP energy -223064.537582 kJ/mol
# GULP energy per Si atom -5576.613440 kJ/mol
# Density = 2.048482 g / cm^3
# Si number density = 20.531552 Si / 1000 Ang^3
#
#
#
# Elastic Constant Matrix: (Units=GPa)
#
#
# Indices 1 2 3 4 5 6 
#
# 1 153.7657 31.8178 44.3019 0.0000 0.0000 0.0000
# 2 31.8178 74.3954 13.8326 0.0000 0.0000 0.0000
# 3 44.3019 13.8326 89.6449 0.0000 0.0000 0.0000
# 4 0.0000 0.0000 0.0000 11.8588 0.0000 0.0000
# 5 0.0000 0.0000 0.0000 0.0000 20.1960 0.0000
# 6 0.0000 0.0000 0.0000 0.0000 0.0000 33.7316
#
#
#
# Elastic Compliance Matrix: (Units=1/GPa)
#
#
# Indices 1 2 3 4 5 6 
#
# 1 0.008115 -0.002805 -0.003577 0.000000 0.000000 0.000000
# 2 -0.002805 0.014809 -0.000899 0.000000 0.000000 0.000000
# 3 -0.003577 -0.000899 0.013062 0.000000 0.000000 0.000000
# 4 0.000000 0.000000 0.000000 0.084325 0.000000 0.000000
# 5 0.000000 0.000000 0.000000 0.000000 0.049515 0.000000
# 6 0.000000 0.000000 0.000000 0.000000 0.000000 0.029646
#
#
# Mechanical properties :
#
#
# Convention : Reuss Voigt Hill
#
# Bulk Modulus (GPa) = 46.68041 55.30116 50.99079
# Shear Modulus (GPa) = 22.60664 28.34754 25.47709
#
# Velocity S-wave (km/s) = 3.32183 3.71978 3.52643
# Velocity P-wave (km/s) = 6.12357 6.74109 6.43973
#
# Compressibility (1/GPa) = 0.02142226
#
# Stress axis : x y z
#
# Youngs Moduli (GPa) = 123.23547 67.52843 76.56001
#
# Poissons Ratio (x) = 0.18944 0.27388
# Poissons Ratio (y) = 0.34572 0.06880
# Poissons Ratio (z) = 0.44085 0.06068
#
# Static dielectric constant tensor:
#      x y z
#    x 1.726650 0.000000 0.000000 
#    y 0.000000 1.810200 0.000000 
#    z 0.000000 0.000000 1.782460 
# 
# From -- ./inp_files/13253.got.cif
#   From: 2010.05.17/outbox.cif.g08.bks.cpg/sg54_7_cif.got.tgz:13253.got - 2010.06.03 13:09:01.
