data_PCOD9422174
_publ_section_title
;
Structure prediction by ZEFSAII (Michael W. Deem and Ramdas Pophale) SiO2 
 PCOD9422174
Probable space group: P C C A
;
_chemical_formula_sum "Si O2"
_cell_formula_units_Z 52
_cell_length_a 7.950040
_cell_length_b 13.955977
_cell_length_c 20.414168
_cell_angle_alpha 90.000000
_cell_angle_beta 90.000000
_cell_angle_gamma 90.000000
_cell_volume 2264.963686
_symmetry_space_group_name_H-M "P C C A"
_symmetry_group_IT_number 54
_symmetry_cell_setting 'orthorhombic'
loop_
_space_group_symop_operation_xyz
x,y,z
1/2-x,-y,z
1/2+x,-y,1/2-z
-x,y,1/2-z
-x,-y,-z
1/2+x,y,-z
1/2-x,y,1/2+z
x,-y,1/2+z
loop_
_atom_site_type_symbol
_atom_site_label
_atom_site_fract_x
_atom_site_fract_y
_atom_site_fract_z
Si Si1 0.572806 0.828608 0.522358
Si Si2 0.250000 0.500000 0.528288
Si Si3 0.502837 0.445222 0.358083
Si Si4 0.672204 0.270468 0.290075
Si Si5 0.844338 0.308773 0.046690
Si Si6 0.360688 0.636494 0.323281
Si Si7 0.722466 0.894433 0.896475
O O1 0.462518 0.733656 0.509323
O O2 0.727020 0.783048 0.560835
O O3 0.456123 0.895744 0.565117
O O4 0.642967 0.870575 0.454274
O O5 0.412709 0.513895 0.575646
O O6 0.260547 0.595539 0.483813
O O7 0.632137 0.370244 0.327280
O O8 0.456432 0.537221 0.314640
O O9 0.323410 0.389850 0.355668
O O10 0.500000 0.246748 0.250000
O O11 0.816360 0.298028 0.237810
O O12 0.715131 0.187546 0.341359
O O13 0.949291 0.319714 0.113206
O O14 0.750000 0.000000 0.868540
#
# Coordination Sequence:
#
# PCOD9422174 Si02
#       7
#     8   4   8   8   8   8   8
#     4  10  22  40  63  94 126 157 204 268 339 391
#     4  12  22  34  58  92 130 174 220 264 316 380
#     4  10  21  36  56  84 121 168 215 255 307 376
#     4  10  22  42  63  89 129 174 214 260 315 381
#     4  11  21  36  58  89 128 167 208 263 319 379
#     4  10  21  37  57  83 120 170 215 250 301 377
#     4  11  23  44  72  97 123 162 214 276 339 391
#
# _framework density 22.958424999999998
#
# number of rings (size 3 to 8) (size 9 to 14) (size 15 to 20)
#    0.000    1.538    0.000    6.923    0.000    5.538 
#    0.000    6.923    0.000    1.846    0.000    0.000 
#    0.000    0.000    0.000    0.000    0.000    0.000 
#
# Total GULP energy -290364.324271 kJ/mol
# GULP energy per Si atom -5583.929313 kJ/mol
# Density = 2.290617 g / cm^3
# Si number density = 22.958425 Si / 1000 Ang^3
#
#
#
# Elastic Constant Matrix: (Units=GPa)
#
#
# Indices 1 2 3 4 5 6 
#
# 1 76.1582 38.7059 26.6993 0.0000 0.0000 0.0000
# 2 38.7059 125.7244 63.4850 0.0000 0.0000 0.0000
# 3 26.6993 63.4850 140.3248 0.0000 0.0000 0.0000
# 4 0.0000 0.0000 0.0000 18.8152 0.0000 0.0000
# 5 0.0000 0.0000 0.0000 0.0000 22.9541 0.0000
# 6 0.0000 0.0000 0.0000 0.0000 0.0000 14.7525
#
#
#
# Elastic Compliance Matrix: (Units=1/GPa)
#
#
# Indices 1 2 3 4 5 6 
#
# 1 0.015682 -0.004304 -0.001036 0.000000 0.000000 0.000000
# 2 -0.004304 0.011491 -0.004379 0.000000 0.000000 0.000000
# 3 -0.001036 -0.004379 0.009305 0.000000 0.000000 0.000000
# 4 0.000000 0.000000 0.000000 0.053149 0.000000 0.000000
# 5 0.000000 0.000000 0.000000 0.000000 0.043565 0.000000
# 6 0.000000 0.000000 0.000000 0.000000 0.000000 0.067785
#
#
# Mechanical properties :
#
#
# Convention : Reuss Voigt Hill
#
# Bulk Modulus (GPa) = 58.69785 66.66532 62.68159
# Shear Modulus (GPa) = 22.11460 25.52552 23.82006
#
# Velocity S-wave (km/s) = 3.10699 3.33801 3.22457
# Velocity P-wave (km/s) = 6.20433 6.62999 6.42069
#
# Compressibility (1/GPa) = 0.01703640
#
# Stress axis : x y z
#
# Youngs Moduli (GPa) = 63.76933 87.02822 107.47108
#
# Poissons Ratio (x) = 0.37461 0.11137
# Poissons Ratio (y) = 0.27449 0.47067
# Poissons Ratio (z) = 0.06608 0.38114
#
# Static dielectric constant tensor:
#      x y z
#    x 2.051510 0.000000 0.000000 
#    y 0.000000 1.864650 0.000000 
#    z 0.000000 0.000000 1.969000 
# 
# From -- ./inp_files/20470.got.cif
#   From: 2010.05.17/outbox.cif.g08.bks.cpg/sg54_11_cif.got.tgz:20470.got - 2010.06.03 13:09:01.
