data_PCOD9422120
_publ_section_title
;
Structure prediction by ZEFSAII (Michael W. Deem and Ramdas Pophale) SiO2 
 PCOD9422120
Probable space group: P C C A
;
_chemical_formula_sum "Si O2"
_cell_formula_units_Z 60
_cell_length_a 5.177933
_cell_length_b 14.519266
_cell_length_c 36.002644
_cell_angle_alpha 90.000000
_cell_angle_beta 90.000000
_cell_angle_gamma 90.000000
_cell_volume 2706.671091
_symmetry_space_group_name_H-M "P C C A"
_symmetry_group_IT_number 54
_symmetry_cell_setting 'orthorhombic'
loop_
_space_group_symop_operation_xyz
x,y,z
1/2-x,-y,z
1/2+x,-y,1/2-z
-x,y,1/2-z
-x,-y,-z
1/2+x,y,-z
1/2-x,y,1/2+z
x,-y,1/2+z
loop_
_atom_site_type_symbol
_atom_site_label
_atom_site_fract_x
_atom_site_fract_y
_atom_site_fract_z
Si Si1 0.862057 0.135678 0.406886
Si Si2 0.743264 0.889445 0.727558
Si Si3 0.505100 0.437074 0.211759
Si Si4 0.858525 0.643235 0.133814
Si Si5 0.146538 0.359474 0.089261
Si Si6 0.250000 0.500000 0.525402
Si Si7 0.868856 0.897233 0.514923
Si Si8 0.149991 0.862364 0.360845
O O1 0.856503 0.247454 0.412213
O O2 0.595151 0.106662 0.386365
O O3 0.969457 0.100978 0.446753
O O4 0.085228 0.104110 0.378811
O O5 0.500000 0.852358 0.750000
O O6 0.682090 0.875628 0.683566
O O7 0.000000 0.855687 0.750000
O O8 0.750000 0.000000 0.731472
O O9 0.250000 0.500000 0.204048
O O10 0.500000 0.378993 0.250000
O O11 0.599980 0.383661 0.176050
O O12 0.750000 0.500000 0.220546
O O13 0.609680 0.610258 0.111277
O O14 0.850658 0.753050 0.133110
O O15 0.112331 0.610703 0.113551
O O16 0.199357 0.410321 0.050893
O O17 0.500000 0.500000 0.500000
O O18 0.580590 0.851334 0.513239
O O19 0.750000 0.000000 0.507502
#
# Coordination Sequence:
#
# PCOD9422120 Si02
#       8
#     8   8   8   8   8   4   8   8
#     4  10  21  39  60  87 120 152 198 248 299 355
#     4  10  21  38  59  86 121 162 205 249 302 358
#     4  10  21  35  53  83 116 146 190 240 283 339
#     4  10  21  38  59  85 115 156 198 238 294 358
#     4  10  23  39  60  86 114 155 198 240 298 362
#     4  12  26  42  60  90 120 148 200 252 296 364
#     4  10  21  37  58  86 117 152 193 234 292 368
#     4  10  21  38  59  87 118 153 203 249 289 356
#
# _framework density 22.167452000000001
#
# number of rings (size 3 to 8) (size 9 to 14) (size 15 to 20)
#    0.000    1.867    0.000    3.200    2.800    2.133 
#    0.000    3.333    0.000    0.000    0.000    0.000 
#    0.000    0.000    0.000    0.000    0.000    0.000 
#
# Total GULP energy -334123.180039 kJ/mol
# GULP energy per Si atom -5568.719667 kJ/mol
# Density = 2.211700 g / cm^3
# Si number density = 22.167452 Si / 1000 Ang^3
#
#
#
# Elastic Constant Matrix: (Units=GPa)
#
#
# Indices 1 2 3 4 5 6 
#
# 1 230.4133 44.5671 86.7096 0.0000 0.0000 0.0000
# 2 44.5671 51.0550 27.0377 0.0000 0.0000 0.0000
# 3 86.7096 27.0377 180.2038 0.0000 0.0000 0.0000
# 4 0.0000 0.0000 0.0000 47.7984 0.0000 0.0000
# 5 0.0000 0.0000 0.0000 0.0000 45.3673 0.0000
# 6 0.0000 0.0000 0.0000 0.0000 0.0000 28.5513
#
#
#
# Elastic Compliance Matrix: (Units=1/GPa)
#
#
# Indices 1 2 3 4 5 6 
#
# 1 0.005970 -0.004009 -0.002271 0.000000 0.000000 0.000000
# 2 -0.004009 0.023969 -0.001667 0.000000 0.000000 0.000000
# 3 -0.002271 -0.001667 0.006892 0.000000 0.000000 0.000000
# 4 0.000000 0.000000 0.000000 0.020921 0.000000 0.000000
# 5 0.000000 0.000000 0.000000 0.000000 0.022042 0.000000
# 6 0.000000 0.000000 0.000000 0.000000 0.000000 0.035025
#
#
# Mechanical properties :
#
#
# Convention : Reuss Voigt Hill
#
# Bulk Modulus (GPa) = 47.76279 86.47789 67.12034
# Shear Modulus (GPa) = 36.31266 44.56726 40.43996
#
# Velocity S-wave (km/s) = 4.05174 4.48870 4.27581
# Velocity P-wave (km/s) = 6.59409 8.12161 7.39738
#
# Compressibility (1/GPa) = 0.02093680
#
# Stress axis : x y z
#
# Youngs Moduli (GPa) = 167.50157 41.72060 145.08936
#
# Poissons Ratio (x) = 0.16724 0.32953
# Poissons Ratio (y) = 0.67145 0.24193
# Poissons Ratio (z) = 0.38043 0.06957
#
# Static dielectric constant tensor:
#      x y z
#    x 1.879830 0.000000 0.000000 
#    y 0.000000 1.892270 0.000000 
#    z 0.000000 0.000000 1.800540 
# 
# From -- ./inp_files/25491.got.cif
#   From: 2010.05.17/outbox.cif.g08.bks.cpg/sg54_13_cif.got.tgz:25491.got - 2010.06.03 13:09:01.
