data_PCOD9422002
_publ_section_title
;
Structure prediction by ZEFSAII (Michael W. Deem and Ramdas Pophale) SiO2 
 PCOD9422002
Probable space group: P C C A
;
_chemical_formula_sum "Si O2"
_cell_formula_units_Z 32
_cell_length_a 9.936243
_cell_length_b 7.983417
_cell_length_c 19.314855
_cell_angle_alpha 90.000000
_cell_angle_beta 90.000000
_cell_angle_gamma 90.000000
_cell_volume 1532.154181
_symmetry_space_group_name_H-M "P C C A"
_symmetry_group_IT_number 54
_symmetry_cell_setting 'orthorhombic'
loop_
_space_group_symop_operation_xyz
x,y,z
1/2-x,-y,z
1/2+x,-y,1/2-z
-x,y,1/2-z
-x,-y,-z
1/2+x,y,-z
1/2-x,y,1/2+z
x,-y,1/2+z
loop_
_atom_site_type_symbol
_atom_site_label
_atom_site_fract_x
_atom_site_fract_y
_atom_site_fract_z
Si Si1 0.123829 0.377004 0.496028
Si Si2 0.054146 0.802219 0.855213
Si Si3 0.790000 0.691636 0.777169
Si Si4 0.120865 0.114672 0.619622
O O1 0.250000 0.500000 0.502598
O O2 0.116788 0.278184 0.423641
O O3 0.108768 0.246222 0.558283
O O4 0.000000 0.500000 0.500000
O O5 0.156614 0.780758 0.791869
O O6 0.916658 0.705981 0.830665
O O7 0.004552 0.991472 0.869145
O O8 0.750000 0.500000 0.764574
O O9 0.665106 0.788294 0.811120
O O10 0.250000 0.000000 0.601987
#
# Coordination Sequence:
#
# PCOD9422002 Si02
#       4
#     8   8   8   8
#     4  12  24  42  68  99 132 174 221 271 329 394
#     4  10  22  39  62  95 126 168 224 267 321 398
#     4  10  20  41  64  89 130 173 215 273 332 385
#     4  10  21  42  65  91 131 174 213 275 337 382
#
# _framework density 20.885626999999999
#
# number of rings (size 3 to 8) (size 9 to 14) (size 15 to 20)
#    0.000    1.500    0.000    6.750    0.000    0.000 
#    0.000   48.750    0.000    0.000    0.000    0.000 
#    0.000    0.000    0.000    0.000    0.000    0.000 
#
# Total GULP energy -178995.267611 kJ/mol
# GULP energy per Si atom -5593.602113 kJ/mol
# Density = 2.083809 g / cm^3
# Si number density = 20.885627 Si / 1000 Ang^3
#
#
#
# Elastic Constant Matrix: (Units=GPa)
#
#
# Indices 1 2 3 4 5 6 
#
# 1 67.5950 71.9696 52.7903 0.0000 0.0000 0.0000
# 2 71.9696 186.7334 104.1833 0.0000 0.0000 0.0000
# 3 52.7903 104.1833 151.6541 0.0000 0.0000 0.0000
# 4 0.0000 0.0000 0.0000 75.0301 0.0000 0.0000
# 5 0.0000 0.0000 0.0000 0.0000 23.5263 0.0000
# 6 0.0000 0.0000 0.0000 0.0000 0.0000 34.1061
#
#
#
# Elastic Compliance Matrix: (Units=1/GPa)
#
#
# Indices 1 2 3 4 5 6 
#
# 1 0.026213 -0.008127 -0.003542 0.000000 0.000000 0.000000
# 2 -0.008127 0.011203 -0.004867 0.000000 0.000000 0.000000
# 3 -0.003542 -0.004867 0.011171 0.000000 0.000000 0.000000
# 4 0.000000 0.000000 0.000000 0.013328 0.000000 0.000000
# 5 0.000000 0.000000 0.000000 0.000000 0.042506 0.000000
# 6 0.000000 0.000000 0.000000 0.000000 0.000000 0.029320
#
#
# Mechanical properties :
#
#
# Convention : Reuss Voigt Hill
#
# Bulk Modulus (GPa) = 64.45482 95.98544 80.22013
# Shear Modulus (GPa) = 29.07265 38.33512 33.70389
#
# Velocity S-wave (km/s) = 3.73499 4.28890 4.02149
# Velocity P-wave (km/s) = 7.03762 8.40140 7.74957
#
# Compressibility (1/GPa) = 0.01551474
#
# Stress axis : x y z
#
# Youngs Moduli (GPa) = 38.14961 89.26196 89.52116
#
# Poissons Ratio (x) = 0.72541 0.31705
# Poissons Ratio (y) = 0.31003 0.43573
# Poissons Ratio (z) = 0.13511 0.43447
#
# Static dielectric constant tensor:
#      x y z
#    x 1.752850 0.000000 0.000000 
#    y 0.000000 1.718470 0.000000 
#    z 0.000000 0.000000 1.720190 
# 
# From -- ./inp_files/17001.got.cif
#   From: 2010.05.17/outbox.cif.g08.bks.cpg/sg54_9_cif.got.tgz:17001.got - 2010.06.03 13:09:01.
