data_PCOD9422599
_publ_section_title
;
Structure prediction by ZEFSAII (Michael W. Deem and Ramdas Pophale) SiO2 
 PCOD9422599
Probable space group: P C C A
;
_chemical_formula_sum "Si O2"
_cell_formula_units_Z 48
_cell_length_a 13.778732
_cell_length_b 17.280241
_cell_length_c 8.084584
_cell_angle_alpha 90.000000
_cell_angle_beta 90.000000
_cell_angle_gamma 90.000000
_cell_volume 1924.937911
_symmetry_space_group_name_H-M "P C C A"
_symmetry_group_IT_number 54
_symmetry_cell_setting 'orthorhombic'
loop_
_space_group_symop_operation_xyz
x,y,z
1/2-x,-y,z
1/2+x,-y,1/2-z
-x,y,1/2-z
-x,-y,-z
1/2+x,y,-z
1/2-x,y,1/2+z
x,-y,1/2+z
loop_
_atom_site_type_symbol
_atom_site_label
_atom_site_fract_x
_atom_site_fract_y
_atom_site_fract_z
Si Si1 0.094585 0.886556 0.326529
Si Si2 0.764550 0.296535 0.356422
Si Si3 0.136648 0.977601 0.008135
Si Si4 0.693555 0.182013 0.626926
Si Si5 0.109647 0.401068 0.691491
Si Si6 0.886856 0.573109 0.706002
O O1 0.193465 0.840916 0.345937
O O2 0.000000 0.845813 0.250000
O O3 0.076787 0.943229 0.480277
O O4 0.119688 0.953705 0.195520
O O5 0.701979 0.249656 0.491709
O O6 0.834514 0.228314 0.290134
O O7 0.677022 0.331773 0.243670
O O8 0.831788 0.372639 0.339678
O O9 0.133317 0.894102 0.915184
O O10 0.250000 0.000000 0.989236
O O11 0.140412 0.483633 0.765903
O O12 0.123196 0.406145 0.490204
O O13 0.000000 0.388487 0.750000
O O14 0.000000 0.578683 0.750000
#
# Coordination Sequence:
#
# PCOD9422599 Si02
#       6
#     8   8   8   8   8   8
#     4  11  23  41  66  96 127 169 223 274 329 394
#     4  12  25  44  68  96 136 179 221 272 349 405
#     4  10  21  41  66  88 124 170 215 264 320 397
#     4  11  24  43  64  94 133 171 219 268 339 401
#     4  11  25  43  72  97 134 176 229 281 331 401
#     4  11  25  44  67 101 130 177 230 281 332 399
#
# _framework density 24.935869
#
# number of rings (size 3 to 8) (size 9 to 14) (size 15 to 20)
#    0.000    1.000    3.333    4.500    7.000    2.000 
#    3.000    0.000    0.000    0.000    0.000    0.000 
#    0.000    0.000    0.000    0.000    0.000    0.000 
#
# Total GULP energy -267448.472788 kJ/mol
# GULP energy per Si atom -5571.843183 kJ/mol
# Density = 2.487911 g / cm^3
# Si number density = 24.935869 Si / 1000 Ang^3
#
#
#
# Elastic Constant Matrix: (Units=GPa)
#
#
# Indices 1 2 3 4 5 6 
#
# 1 94.5594 24.8696 -24.8961 0.0000 0.0000 0.0000
# 2 24.8696 116.1767 -1.2914 0.0000 0.0000 0.0000
# 3 -24.8961 -1.2914 37.3180 0.0000 0.0000 0.0000
# 4 0.0000 0.0000 0.0000 43.0217 0.0000 0.0000
# 5 0.0000 0.0000 0.0000 0.0000 29.0885 0.0000
# 6 0.0000 0.0000 0.0000 0.0000 0.0000 16.5235
#
#
#
# Elastic Compliance Matrix: (Units=1/GPa)
#
#
# Indices 1 2 3 4 5 6 
#
# 1 0.013701 -0.002832 0.009042 0.000000 0.000000 0.000000
# 2 -0.002832 0.009196 -0.001571 0.000000 0.000000 0.000000
# 3 0.009042 -0.001571 0.032775 0.000000 0.000000 0.000000
# 4 0.000000 0.000000 0.000000 0.023244 0.000000 0.000000
# 5 0.000000 0.000000 0.000000 0.000000 0.034378 0.000000
# 6 0.000000 0.000000 0.000000 0.000000 0.000000 0.060520
#
#
# Mechanical properties :
#
#
# Convention : Reuss Voigt Hill
#
# Bulk Modulus (GPa) = 15.39658 27.26871 21.33265
# Shear Modulus (GPa) = 26.85479 34.35154 30.60316
#
# Velocity S-wave (km/s) = 3.28526 3.71562 3.50705
# Velocity P-wave (km/s) = 4.53635 5.41914 4.99728
#
# Compressibility (1/GPa) = 0.06494949
#
# Stress axis : x y z
#
# Youngs Moduli (GPa) = 72.98716 108.73770 30.51123
#
# Poissons Ratio (x) = 0.30799 -0.27589
# Poissons Ratio (y) = 0.20673 0.04794
# Poissons Ratio (z) = -0.65998 0.17087
#
# Static dielectric constant tensor:
#      x y z
#    x 2.195370 0.000000 0.000000 
#    y 0.000000 1.942990 0.000000 
#    z 0.000000 0.000000 2.252430 
# 
# From -- ./inp_files/3562.got.cif
#   From: 2010.05.17/outbox.cif.g08.bks.cpg/sg54_2_cif.got.tgz:3562.got - 2010.06.03 13:09:01.
