data_PCOD9422416
_publ_section_title
;
Structure prediction by ZEFSAII (Michael W. Deem and Ramdas Pophale) SiO2 
 PCOD9422416
Probable space group: P C C A
;
_chemical_formula_sum "Si O2"
_cell_formula_units_Z 60
_cell_length_a 7.876713
_cell_length_b 13.751937
_cell_length_c 26.811238
_cell_angle_alpha 90.000000
_cell_angle_beta 90.000000
_cell_angle_gamma 90.000000
_cell_volume 2904.194934
_symmetry_space_group_name_H-M "P C C A"
_symmetry_group_IT_number 54
_symmetry_cell_setting 'orthorhombic'
loop_
_space_group_symop_operation_xyz
x,y,z
1/2-x,-y,z
1/2+x,-y,1/2-z
-x,y,1/2-z
-x,-y,-z
1/2+x,y,-z
1/2-x,y,1/2+z
x,-y,1/2+z
loop_
_atom_site_type_symbol
_atom_site_label
_atom_site_fract_x
_atom_site_fract_y
_atom_site_fract_z
Si Si1 0.559622 0.218874 0.151969
Si Si2 0.542433 0.714697 0.061543
Si Si3 0.451955 0.709425 0.946066
Si Si4 0.437891 0.035511 0.194845
Si Si5 0.556985 0.150485 0.651308
Si Si6 0.000000 0.274348 0.250000
Si Si7 0.330472 0.603222 0.783128
Si Si8 0.046332 0.502048 0.941649
O O1 0.484003 0.218733 0.096430
O O2 0.448736 0.150326 0.186483
O O3 0.742253 0.168025 0.151781
O O4 0.601322 0.325382 0.173474
O O5 0.747727 0.710379 0.059699
O O6 0.490459 0.795940 0.101366
O O7 0.484179 0.605895 0.078330
O O8 0.489266 0.728642 0.003892
O O9 0.519819 0.604019 0.927711
O O10 0.500000 0.013649 0.250000
O O11 0.250000 0.000000 0.190929
O O12 0.531030 0.964358 0.156181
O O13 0.488449 0.206945 0.700554
O O14 0.172043 0.339341 0.256832
O O15 0.250000 0.500000 0.799925
O O16 0.500000 0.585750 0.750000
O O17 0.250000 0.500000 0.935643
O O18 0.000000 0.500000 0.000000
#
# Coordination Sequence:
#
# PCOD9422416 Si02
#       8
#     8   8   8   8   8   4   8   8
#     4  10  23  39  63  89 123 166 210 254 321 384
#     4   9  18  33  57  85 120 160 202 253 307 366
#     4   9  18  34  55  85 120 159 202 249 304 371
#     4  12  25  41  65  91 118 153 206 267 321 385
#     4  10  21  39  62  89 119 160 205 262 321 376
#     4  10  22  40  62  92 128 168 210 266 322 392
#     4  11  23  41  64  92 134 174 215 261 328 400
#     4   8  14  27  49  76 111 150 194 236 285 348
#
# _framework density 20.659770000000002
#
# number of rings (size 3 to 8) (size 9 to 14) (size 15 to 20)
#    0.000    2.133    1.333    1.600    3.733    4.800 
#    0.000    0.667    0.000    0.000    0.000    0.000 
#    0.000    0.000    0.000    0.000    0.000    0.000 
#
# Total GULP energy -334325.082604 kJ/mol
# GULP energy per Si atom -5572.084710 kJ/mol
# Density = 2.061275 g / cm^3
# Si number density = 20.659770 Si / 1000 Ang^3
#
#
#
# Elastic Constant Matrix: (Units=GPa)
#
#
# Indices 1 2 3 4 5 6 
#
# 1 48.9210 19.0811 19.0544 0.0000 0.0000 0.0000
# 2 19.0811 100.5553 54.3745 0.0000 0.0000 0.0000
# 3 19.0544 54.3745 96.1842 0.0000 0.0000 0.0000
# 4 0.0000 0.0000 0.0000 240.4970 0.0000 0.0000
# 5 0.0000 0.0000 0.0000 0.0000 19.6450 0.0000
# 6 0.0000 0.0000 0.0000 0.0000 0.0000 26.8560
#
#
#
# Elastic Compliance Matrix: (Units=1/GPa)
#
#
# Indices 1 2 3 4 5 6 
#
# 1 0.022646 -0.002695 -0.002963 0.000000 0.000000 0.000000
# 2 -0.002695 0.014644 -0.007745 0.000000 0.000000 0.000000
# 3 -0.002963 -0.007745 0.015362 0.000000 0.000000 0.000000
# 4 0.000000 0.000000 0.000000 0.004158 0.000000 0.000000
# 5 0.000000 0.000000 0.000000 0.000000 0.050904 0.000000
# 6 0.000000 0.000000 0.000000 0.000000 0.000000 0.037236
#
#
# Mechanical properties :
#
#
# Convention : Reuss Voigt Hill
#
# Bulk Modulus (GPa) = 38.68900 47.85339 43.27119
# Shear Modulus (GPa) = 27.72078 67.60961 47.66520
#
# Velocity S-wave (km/s) = 3.66700 5.72680 4.80849
# Velocity P-wave (km/s) = 6.05777 8.18176 7.19854
#
# Compressibility (1/GPa) = 0.02584714
#
# Stress axis : x y z
#
# Youngs Moduli (GPa) = 44.15733 68.28711 65.09667
#
# Poissons Ratio (x) = 0.18405 0.19286
# Poissons Ratio (y) = 0.11902 0.50415
# Poissons Ratio (z) = 0.13082 0.52886
#
# Static dielectric constant tensor:
#      x y z
#    x 1.790300 0.000000 0.000000 
#    y 0.000000 1.821530 0.000000 
#    z 0.000000 0.000000 1.745850 
# 
# From -- ./inp_files/27913.got.cif
#   From: 2010.05.17/outbox.cif.g08.bks.cpg/sg54_14_cif.got.tgz:27913.got - 2010.06.03 13:09:01.
