data_PCOD9422780
_publ_section_title
;
Structure prediction by ZEFSAII (Michael W. Deem and Ramdas Pophale) SiO2 
 PCOD9422780
Probable space group: P C C A
;
_chemical_formula_sum "Si O2"
_cell_formula_units_Z 48
_cell_length_a 8.565509
_cell_length_b 16.173506
_cell_length_c 17.021729
_cell_angle_alpha 90.000000
_cell_angle_beta 90.000000
_cell_angle_gamma 90.000000
_cell_volume 2358.093503
_symmetry_space_group_name_H-M "P C C A"
_symmetry_group_IT_number 54
_symmetry_cell_setting 'orthorhombic'
loop_
_space_group_symop_operation_xyz
x,y,z
1/2-x,-y,z
1/2+x,-y,1/2-z
-x,y,1/2-z
-x,-y,-z
1/2+x,y,-z
1/2-x,y,1/2+z
x,-y,1/2+z
loop_
_atom_site_type_symbol
_atom_site_label
_atom_site_fract_x
_atom_site_fract_y
_atom_site_fract_z
Si Si1 0.020764 0.110773 0.574729
Si Si2 0.145341 0.265936 0.002049
Si Si3 0.250000 0.500000 0.334461
Si Si4 0.250000 0.000000 0.971368
Si Si5 0.500000 0.622059 0.750000
Si Si6 0.190755 0.231419 0.668679
Si Si7 0.000000 0.741204 0.750000
Si Si8 0.402704 0.351272 0.906706
O O1 0.080532 0.152598 0.654519
O O2 0.952293 0.185991 0.522609
O O3 0.879521 0.046251 0.579989
O O4 0.158590 0.064685 0.527331
O O5 0.239323 0.246752 0.081578
O O6 0.028580 0.339156 0.025453
O O7 0.256352 0.295813 0.932941
O O8 0.365408 0.438052 0.286248
O O9 0.144012 0.443479 0.389216
O O10 0.406218 0.687159 0.694218
O O11 0.337242 0.214770 0.726645
O O12 0.033481 0.685341 0.825585
#
# Coordination Sequence:
#
# PCOD9422780 Si02
#       8
#     8   8   4   4   4   8   4   8
#     4  11  20  40  66 105 133 175 211 284 329 415
#     4  11  22  40  68  99 129 168 233 283 325 408
#     4  12  26  42  62  92 138 174 230 290 348 400
#     4  10  22  36  66 112 138 160 214 276 364 392
#     4  12  27  44  66  95 128 194 230 276 345 422
#     4  11  23  43  68  96 130 182 237 272 334 419
#     4  10  23  42  64  97 126 178 236 276 329 420
#     4  11  23  42  63  96 131 175 228 285 344 395
#
# _framework density 20.355428
#
# number of rings (size 3 to 8) (size 9 to 14) (size 15 to 20)
#    0.000    1.000    5.000    1.500    2.333    0.667 
#    0.000    0.000    0.000    2.000    0.000    0.000 
#    0.000    0.000    0.000    0.000    0.000    0.000 
#
# Total GULP energy -267935.333368 kJ/mol
# GULP energy per Si atom -5581.986112 kJ/mol
# Density = 2.030910 g / cm^3
# Si number density = 20.355428 Si / 1000 Ang^3
#
#
#
# Elastic Constant Matrix: (Units=GPa)
#
#
# Indices 1 2 3 4 5 6 
#
# 1 114.7403 45.1490 26.1662 0.0000 0.0000 0.0000
# 2 45.1490 89.9272 19.3882 0.0000 0.0000 0.0000
# 3 26.1662 19.3882 47.4886 0.0000 0.0000 0.0000
# 4 0.0000 0.0000 0.0000 92.4075 0.0000 0.0000
# 5 0.0000 0.0000 0.0000 0.0000 42.7042 0.0000
# 6 0.0000 0.0000 0.0000 0.0000 0.0000 26.3043
#
#
#
# Elastic Compliance Matrix: (Units=1/GPa)
#
#
# Indices 1 2 3 4 5 6 
#
# 1 0.011650 -0.004896 -0.004420 0.000000 0.000000 0.000000
# 2 -0.004896 0.014251 -0.003121 0.000000 0.000000 0.000000
# 3 -0.004420 -0.003121 0.024767 0.000000 0.000000 0.000000
# 4 0.000000 0.000000 0.000000 0.010822 0.000000 0.000000
# 5 0.000000 0.000000 0.000000 0.000000 0.023417 0.000000
# 6 0.000000 0.000000 0.000000 0.000000 0.000000 0.038017
#
#
# Mechanical properties :
#
#
# Convention : Reuss Voigt Hill
#
# Bulk Modulus (GPa) = 38.76781 48.17366 43.47073
# Shear Modulus (GPa) = 31.97036 43.04672 37.50854
#
# Velocity S-wave (km/s) = 3.96739 4.60363 4.29730
# Velocity P-wave (km/s) = 6.33038 7.20941 6.78414
#
# Compressibility (1/GPa) = 0.02579460
#
# Stress axis : x y z
#
# Youngs Moduli (GPa) = 85.83804 70.17062 40.37595
#
# Poissons Ratio (x) = 0.34355 0.17847
# Poissons Ratio (y) = 0.42026 0.12600
# Poissons Ratio (z) = 0.37942 0.21897
#
# Static dielectric constant tensor:
#      x y z
#    x 1.819820 0.000000 0.000000 
#    y 0.000000 1.708560 0.000000 
#    z 0.000000 0.000000 1.700560 
# 
# From -- ./inp_files/16703.got.cif
#   From: 2010.05.17/outbox.cif.g08.bks.cpg/sg54_9_cif.got.tgz:16703.got - 2010.06.03 13:09:01.
