data_PCOD9422194
_publ_section_title
;
Structure prediction by ZEFSAII (Michael W. Deem and Ramdas Pophale) SiO2 
 PCOD9422194
Probable space group: P C C A
;
_chemical_formula_sum "Si O2"
_cell_formula_units_Z 48
_cell_length_a 25.068098
_cell_length_b 11.430602
_cell_length_c 8.283457
_cell_angle_alpha 90.000000
_cell_angle_beta 90.000000
_cell_angle_gamma 90.000000
_cell_volume 2373.570356
_symmetry_space_group_name_H-M "P C C A"
_symmetry_group_IT_number 54
_symmetry_cell_setting 'orthorhombic'
loop_
_space_group_symop_operation_xyz
x,y,z
1/2-x,-y,z
1/2+x,-y,1/2-z
-x,y,1/2-z
-x,-y,-z
1/2+x,y,-z
1/2-x,y,1/2+z
x,-y,1/2+z
loop_
_atom_site_type_symbol
_atom_site_label
_atom_site_fract_x
_atom_site_fract_y
_atom_site_fract_z
Si Si1 0.616062 0.948973 0.079163
Si Si2 0.437035 0.162435 0.227535
Si Si3 0.856395 0.646735 0.300386
Si Si4 0.315635 0.892854 0.135214
Si Si5 0.803499 0.442417 0.089587
Si Si6 0.234482 0.779811 0.329727
O O1 0.635393 0.878057 0.237623
O O2 0.587718 0.065804 0.150080
O O3 0.579498 0.878998 0.953405
O O4 0.665817 0.996949 0.971958
O O5 0.500000 0.165746 0.250000
O O6 0.409922 0.289587 0.253102
O O7 0.829921 0.542873 0.197184
O O8 0.852064 0.598708 0.479135
O O9 0.812275 0.748709 0.293139
O O10 0.266620 0.887302 0.258513
O O11 0.295960 0.801021 0.998483
O O12 0.750000 0.500000 0.006996
O O13 0.776719 0.327142 0.166026
#
# Coordination Sequence:
#
# PCOD9422194 Si02
#       6
#     8   8   8   8   8   8
#     4  10  24  41  62  92 127 171 208 268 310 379
#     4  11  23  45  67  90 121 165 222 276 325 365
#     4  11  22  38  59  91 122 163 206 257 309 370
#     4  11  23  37  58  92 135 166 208 242 314 376
#     4  10  21  36  60  89 125 163 201 243 306 385
#     4  11  21  36  59  89 131 167 202 242 304 387
#
# _framework density 20.2227
#
# number of rings (size 3 to 8) (size 9 to 14) (size 15 to 20)
#    0.000    1.333    3.333    3.000    2.333    2.000 
#    0.000    0.833    0.000    0.000    0.000    0.000 
#    0.000    0.000    0.000    0.000    0.000    0.000 
#
# Total GULP energy -267353.957851 kJ/mol
# GULP energy per Si atom -5569.874122 kJ/mol
# Density = 2.017667 g / cm^3
# Si number density = 20.222700 Si / 1000 Ang^3
#
#
#
# Elastic Constant Matrix: (Units=GPa)
#
#
# Indices 1 2 3 4 5 6 
#
# 1 98.6303 61.4449 31.6193 0.0000 0.0000 0.0000
# 2 61.4449 101.4549 30.1122 0.0000 0.0000 0.0000
# 3 31.6193 30.1122 70.9776 0.0000 0.0000 0.0000
# 4 0.0000 0.0000 0.0000 30.9699 0.0000 0.0000
# 5 0.0000 0.0000 0.0000 0.0000 21.0169 0.0000
# 6 0.0000 0.0000 0.0000 0.0000 0.0000 22.8700
#
#
#
# Elastic Compliance Matrix: (Units=1/GPa)
#
#
# Indices 1 2 3 4 5 6 
#
# 1 0.017085 -0.009254 -0.003685 0.000000 0.000000 0.000000
# 2 -0.009254 0.016288 -0.002788 0.000000 0.000000 0.000000
# 3 -0.003685 -0.002788 0.016914 0.000000 0.000000 0.000000
# 4 0.000000 0.000000 0.000000 0.032289 0.000000 0.000000
# 5 0.000000 0.000000 0.000000 0.000000 0.047581 0.000000
# 6 0.000000 0.000000 0.000000 0.000000 0.000000 0.043725
#
#
# Mechanical properties :
#
#
# Convention : Reuss Voigt Hill
#
# Bulk Modulus (GPa) = 53.09769 57.49063 55.29416
# Shear Modulus (GPa) = 23.62789 24.83044 24.22916
#
# Velocity S-wave (km/s) = 3.42187 3.50787 3.46514
# Velocity P-wave (km/s) = 6.47501 6.70055 6.58874
#
# Compressibility (1/GPa) = 0.01883321
#
# Stress axis : x y z
#
# Youngs Moduli (GPa) = 58.53037 61.39338 59.12428
#
# Poissons Ratio (x) = 0.56811 0.21789
# Poissons Ratio (y) = 0.54162 0.16484
# Poissons Ratio (z) = 0.21570 0.17117
#
# Static dielectric constant tensor:
#      x y z
#    x 1.714660 0.000000 0.000000 
#    y 0.000000 1.770830 0.000000 
#    z 0.000000 0.000000 1.809480 
# 
# From -- ./inp_files/5161.got.cif
#   From: 2010.05.17/outbox.cif.g08.bks.cpg/sg54_3_cif.got.tgz:5161.got - 2010.06.03 13:09:01.
