data_PCOD9422788
_publ_section_title
;
Structure prediction by ZEFSAII (Michael W. Deem and Ramdas Pophale) SiO2 
 PCOD9422788
Probable space group: P C C A
;
_chemical_formula_sum "Si O2"
_cell_formula_units_Z 48
_cell_length_a 22.966925
_cell_length_b 11.071682
_cell_length_c 8.909881
_cell_angle_alpha 90.000000
_cell_angle_beta 90.000000
_cell_angle_gamma 90.000000
_cell_volume 2265.626727
_symmetry_space_group_name_H-M "P C C A"
_symmetry_group_IT_number 54
_symmetry_cell_setting 'orthorhombic'
loop_
_space_group_symop_operation_xyz
x,y,z
1/2-x,-y,z
1/2+x,-y,1/2-z
-x,y,1/2-z
-x,-y,-z
1/2+x,y,-z
1/2-x,y,1/2+z
x,-y,1/2+z
loop_
_atom_site_type_symbol
_atom_site_label
_atom_site_fract_x
_atom_site_fract_y
_atom_site_fract_z
Si Si1 0.316707 0.237149 0.144254
Si Si2 0.632439 0.659015 0.398092
Si Si3 0.436682 0.131187 0.681727
Si Si4 0.875392 0.053960 0.018945
Si Si5 0.182269 0.480251 0.831895
Si Si6 0.216942 0.144601 0.956659
O O1 0.319379 0.370963 0.209626
O O2 0.289272 0.159441 0.279059
O O3 0.374872 0.169444 0.091759
O O4 0.275241 0.214964 0.003659
O O5 0.572750 0.728821 0.364983
O O6 0.641390 0.562036 0.531288
O O7 0.658083 0.598095 0.249720
O O8 0.671535 0.768995 0.457397
O O9 0.500000 0.112051 0.750000
O O10 0.391263 0.095418 0.814335
O O11 0.421361 0.043128 0.543574
O O12 0.811474 0.987367 0.012149
O O13 0.250000 0.500000 0.877426
#
# Coordination Sequence:
#
# PCOD9422788 Si02
#       6
#     8   8   8   8   8   8
#     4  11  23  35  60  94 134 169 202 244 307 388
#     4  10  24  39  64  92 128 166 214 258 304 370
#     4  11  25  47  68  89 121 166 221 276 330 379
#     4  11  23  41  66  92 125 163 208 271 325 381
#     4  11  22  40  64  96 134 175 207 244 306 384
#     4  10  22  37  56  96 131 163 203 241 310 386
#
# _framework density 21.186191000000001
#
# number of rings (size 3 to 8) (size 9 to 14) (size 15 to 20)
#    0.000    1.333    3.333    1.500    9.333    1.333 
#    0.000    0.833    0.000    0.000    0.000    0.000 
#    0.000    0.000    0.000    0.000    0.000    0.000 
#
# Total GULP energy -267695.613216 kJ/mol
# GULP energy per Si atom -5576.991942 kJ/mol
# Density = 2.113797 g / cm^3
# Si number density = 21.186191 Si / 1000 Ang^3
#
#
#
# Elastic Constant Matrix: (Units=GPa)
#
#
# Indices 1 2 3 4 5 6 
#
# 1 39.0558 5.8568 1.7004 0.0000 0.0000 0.0000
# 2 5.8568 45.0285 40.1535 0.0000 0.0000 0.0000
# 3 1.7004 40.1535 95.9246 0.0000 0.0000 0.0000
# 4 0.0000 0.0000 0.0000 36.6383 0.0000 0.0000
# 5 0.0000 0.0000 0.0000 0.0000 6.0625 0.0000
# 6 0.0000 0.0000 0.0000 0.0000 0.0000 -19.0606
#
#
#
# Elastic Compliance Matrix: (Units=1/GPa)
#
#
# Indices 1 2 3 4 5 6 
#
# 1 0.026255 -0.004787 0.001538 0.000000 0.000000 0.000000
# 2 -0.004787 0.036308 -0.015113 0.000000 0.000000 0.000000
# 3 0.001538 -0.015113 0.016724 0.000000 0.000000 0.000000
# 4 0.000000 0.000000 0.000000 0.027294 0.000000 0.000000
# 5 0.000000 0.000000 0.000000 0.000000 0.164947 0.000000
# 6 0.000000 0.000000 0.000000 0.000000 0.000000 -0.052464
#
#
# Mechanical properties :
#
#
# Convention : Reuss Voigt Hill
#
# Bulk Modulus (GPa) = 23.49436 30.60335 27.04886
# Shear Modulus (GPa) = 18.52020 13.54794 16.03407
#
# Velocity S-wave (km/s) = 2.95983 2.53152 2.75402
# Velocity P-wave (km/s) = 4.77434 4.79803 4.78620
#
# Compressibility (1/GPa) = 0.04256341
#
# Stress axis : x y z
#
# Youngs Moduli (GPa) = 38.08769 27.54218 59.79439
#
# Poissons Ratio (x) = 0.13184 -0.09198
# Poissons Ratio (y) = 0.18231 0.90370
# Poissons Ratio (z) = -0.05859 0.41626
#
# Static dielectric constant tensor:
#      x y z
#    x 1.853400 0.000000 0.000000 
#    y 0.000000 1.856820 0.000000 
#    z 0.000000 0.000000 1.790870 
# 
# From -- ./inp_files/5168.got.cif
#   From: 2010.05.17/outbox.cif.g08.bks.cpg/sg54_3_cif.got.tgz:5168.got - 2010.06.03 13:09:01.
