data_PCOD9422087
_publ_section_title
;
Structure prediction by ZEFSAII (Michael W. Deem and Ramdas Pophale) SiO2 
 PCOD9422087
Probable space group: P C C A
;
_chemical_formula_sum "Si O2"
_cell_formula_units_Z 56
_cell_length_a 18.013203
_cell_length_b 9.831877
_cell_length_c 13.897899
_cell_angle_alpha 90.000000
_cell_angle_beta 90.000000
_cell_angle_gamma 90.000000
_cell_volume 2461.367894
_symmetry_space_group_name_H-M "P C C A"
_symmetry_group_IT_number 54
_symmetry_cell_setting 'orthorhombic'
loop_
_space_group_symop_operation_xyz
x,y,z
1/2-x,-y,z
1/2+x,-y,1/2-z
-x,y,1/2-z
-x,-y,-z
1/2+x,y,-z
1/2-x,y,1/2+z
x,-y,1/2+z
loop_
_atom_site_type_symbol
_atom_site_label
_atom_site_fract_x
_atom_site_fract_y
_atom_site_fract_z
Si Si1 0.681584 0.786657 0.773526
Si Si2 0.964864 0.646020 0.498392
Si Si3 0.334645 0.523247 0.616807
Si Si4 0.042998 0.166561 0.844427
Si Si5 0.434579 0.128451 0.866831
Si Si6 0.663552 0.022859 0.457075
Si Si7 0.354309 0.783042 0.176561
O O1 0.667601 0.627377 0.793529
O O2 0.630758 0.829393 0.682926
O O3 0.655727 0.877516 0.864748
O O4 0.770617 0.803053 0.778820
O O5 0.882659 0.606840 0.460463
O O6 0.966763 0.729997 0.596268
O O7 0.000000 0.500000 0.500000
O O8 0.013080 0.738233 0.427018
O O9 0.250000 0.500000 0.583080
O O10 0.363458 0.374944 0.648335
O O11 0.000000 0.214306 0.750000
O O12 0.019680 0.011204 0.864462
O O13 0.404921 0.159326 0.761128
O O14 0.375902 0.088307 0.951252
O O15 0.750000 0.000000 0.478820
O O16 0.637021 0.876164 0.418197
#
# Coordination Sequence:
#
# PCOD9422087 Si02
#       7
#     8   8   8   8   8   8   8
#     4  10  20  45  69  99 140 184 224 282 357 409
#     4  12  29  47  66 102 143 184 236 292 350 424
#     4  10  22  47  72  96 139 188 231 290 355 407
#     4  12  25  44  73  94 141 188 227 283 354 419
#     4  12  26  44  71 107 136 181 244 281 344 428
#     4  10  21  40  69 105 142 175 222 295 348 401
#     4  10  24  41  73 107 137 179 234 290 344 414
#
# _framework density 22.751577000000001
#
# number of rings (size 3 to 8) (size 9 to 14) (size 15 to 20)
#    0.000    1.143    4.286    0.429    6.000    1.143 
#    2.571    0.000    0.000    0.000    0.000    0.000 
#    0.000    0.000    0.000    0.000    0.000    0.000 
#
# Total GULP energy -313079.417045 kJ/mol
# GULP energy per Si atom -5590.703876 kJ/mol
# Density = 2.269979 g / cm^3
# Si number density = 22.751577 Si / 1000 Ang^3
#
#
#
# Elastic Constant Matrix: (Units=GPa)
#
#
# Indices 1 2 3 4 5 6 
#
# 1 83.8545 25.0164 12.6982 0.0000 0.0000 0.0000
# 2 25.0164 167.0797 18.0404 0.0000 0.0000 0.0000
# 3 12.6982 18.0404 53.4192 0.0000 0.0000 0.0000
# 4 0.0000 0.0000 0.0000 27.5233 0.0000 0.0000
# 5 0.0000 0.0000 0.0000 0.0000 20.2605 0.0000
# 6 0.0000 0.0000 0.0000 0.0000 0.0000 39.1783
#
#
#
# Elastic Compliance Matrix: (Units=1/GPa)
#
#
# Indices 1 2 3 4 5 6 
#
# 1 0.012793 -0.001647 -0.002485 0.000000 0.000000 0.000000
# 2 -0.001647 0.006424 -0.001778 0.000000 0.000000 0.000000
# 3 -0.002485 -0.001778 0.019911 0.000000 0.000000 0.000000
# 4 0.000000 0.000000 0.000000 0.036333 0.000000 0.000000
# 5 0.000000 0.000000 0.000000 0.000000 0.049357 0.000000
# 6 0.000000 0.000000 0.000000 0.000000 0.000000 0.025524
#
#
# Mechanical properties :
#
#
# Convention : Reuss Voigt Hill
#
# Bulk Modulus (GPa) = 36.61901 46.20703 41.41302
# Shear Modulus (GPa) = 29.19463 33.96564 31.58013
#
# Velocity S-wave (km/s) = 3.58605 3.86799 3.72968
# Velocity P-wave (km/s) = 5.76857 6.34838 6.06541
#
# Compressibility (1/GPa) = 0.02730822
#
# Stress axis : x y z
#
# Youngs Moduli (GPa) = 78.16717 155.67208 50.22370
#
# Poissons Ratio (x) = 0.25642 0.12479
# Poissons Ratio (y) = 0.12876 0.08929
# Poissons Ratio (z) = 0.19423 0.27676
#
# Static dielectric constant tensor:
#      x y z
#    x 1.983450 0.000000 0.000000 
#    y 0.000000 1.826700 0.000000 
#    z 0.000000 0.000000 1.812130 
# 
# From -- ./inp_files/14691.got.cif
#   From: 2010.05.17/outbox.cif.g08.bks.cpg/sg54_8_cif.got.tgz:14691.got - 2010.06.03 13:09:01.
