data_PCOD9422616
_publ_section_title
;
Structure prediction by ZEFSAII (Michael W. Deem and Ramdas Pophale) SiO2 
 PCOD9422616
Probable space group: P C C A
;
_chemical_formula_sum "Si O2"
_cell_formula_units_Z 36
_cell_length_a 13.833448
_cell_length_b 5.726563
_cell_length_c 22.273799
_cell_angle_alpha 90.000000
_cell_angle_beta 90.000000
_cell_angle_gamma 90.000000
_cell_volume 1764.488292
_symmetry_space_group_name_H-M "P C C A"
_symmetry_group_IT_number 54
_symmetry_cell_setting 'orthorhombic'
loop_
_space_group_symop_operation_xyz
x,y,z
1/2-x,-y,z
1/2+x,-y,1/2-z
-x,y,1/2-z
-x,-y,-z
1/2+x,y,-z
1/2-x,y,1/2+z
x,-y,1/2+z
loop_
_atom_site_type_symbol
_atom_site_label
_atom_site_fract_x
_atom_site_fract_y
_atom_site_fract_z
Si Si1 0.002021 0.632830 0.363399
Si Si2 0.000000 0.666260 0.750000
Si Si3 0.806734 0.248354 0.571137
Si Si4 0.652214 0.647570 0.433301
Si Si5 0.142378 0.019769 0.178395
O O1 0.095571 0.758742 0.389743
O O2 0.035660 0.473740 0.308109
O O3 0.944300 0.497516 0.416337
O O4 0.919673 0.790526 0.332827
O O5 0.085038 0.821424 0.724171
O O6 0.750000 0.500000 0.583018
O O7 0.839233 0.269370 0.501473
O O8 0.750000 0.000000 0.578660
O O9 0.750000 0.500000 0.420893
O O10 0.649748 0.858177 0.386514
O O11 0.250000 0.000000 0.201538
#
# Coordination Sequence:
#
# PCOD9422616 Si02
#       5
#     8   4   8   8   8
#     4  11  24  46  67 100 138 189 235 293 351 422
#     4  10  26  44  64 100 134 176 252 290 354 414
#     4  11  27  46  69 108 150 188 229 291 360 429
#     4  10  21  41  72 105 136 175 233 286 354 428
#     4  11  22  43  71  99 132 181 236 294 345 420
#
# _framework density 20.402515999999999
#
# number of rings (size 3 to 8) (size 9 to 14) (size 15 to 20)
#    0.000    1.333    2.222    2.000    9.333    0.889 
#    8.000    0.000    0.000    0.000    0.000    0.000 
#    0.000    0.000    0.000    0.000    0.000    0.000 
#
# Total GULP energy -200951.829934 kJ/mol
# GULP energy per Si atom -5581.995276 kJ/mol
# Density = 2.035608 g / cm^3
# Si number density = 20.402516 Si / 1000 Ang^3
#
#
#
# Elastic Constant Matrix: (Units=GPa)
#
#
# Indices 1 2 3 4 5 6 
#
# 1 103.4544 35.9335 63.1262 0.0000 0.0000 0.0000
# 2 35.9335 76.2874 24.2819 0.0000 0.0000 0.0000
# 3 63.1262 24.2819 64.0931 0.0000 0.0000 0.0000
# 4 0.0000 0.0000 0.0000 103.7789 0.0000 0.0000
# 5 0.0000 0.0000 0.0000 0.0000 -26.1439 0.0000
# 6 0.0000 0.0000 0.0000 0.0000 0.0000 33.8703
#
#
#
# Elastic Compliance Matrix: (Units=1/GPa)
#
#
# Indices 1 2 3 4 5 6 
#
# 1 0.025557 -0.004578 -0.023437 0.000000 0.000000 0.000000
# 2 -0.004578 0.015726 -0.001449 0.000000 0.000000 0.000000
# 3 -0.023437 -0.001449 0.039235 0.000000 0.000000 0.000000
# 4 0.000000 0.000000 0.000000 0.009636 0.000000 0.000000
# 5 0.000000 0.000000 0.000000 0.000000 -0.038250 0.000000
# 6 0.000000 0.000000 0.000000 0.000000 0.000000 0.029524
#
#
# Mechanical properties :
#
#
# Convention : Reuss Voigt Hill
#
# Bulk Modulus (GPa) = 46.31831 54.50201 50.41016
# Shear Modulus (GPa) = 33.88605 30.33395 32.11000
#
# Velocity S-wave (km/s) = 4.07981 3.86006 3.97145
# Velocity P-wave (km/s) = 6.70408 6.82921 6.76693
#
# Compressibility (1/GPa) = 0.02158973
#
# Stress axis : x y z
#
# Youngs Moduli (GPa) = 39.12774 63.58940 25.48756
#
# Poissons Ratio (x) = 0.29113 0.59736
# Poissons Ratio (y) = 0.17914 0.03692
# Poissons Ratio (z) = 0.91705 0.09212
#
# Static dielectric constant tensor:
#      x y z
#    x 1.648480 0.000000 0.000000 
#    y 0.000000 1.785810 0.000000 
#    z 0.000000 0.000000 1.692420 
# 
# From -- ./inp_files/23832.got.cif
#   From: 2010.05.17/outbox.cif.g08.bks.cpg/sg54_12_cif.got.tgz:23832.got - 2010.06.03 13:09:01.
