data_PCOD9422612
_publ_section_title
;
Structure prediction by ZEFSAII (Michael W. Deem and Ramdas Pophale) SiO2 
 PCOD9422612
Probable space group: P C C A
;
_chemical_formula_sum "Si O2"
_cell_formula_units_Z 60
_cell_length_a 9.798495
_cell_length_b 10.826320
_cell_length_c 26.085766
_cell_angle_alpha 90.000000
_cell_angle_beta 90.000000
_cell_angle_gamma 90.000000
_cell_volume 2767.220900
_symmetry_space_group_name_H-M "P C C A"
_symmetry_group_IT_number 54
_symmetry_cell_setting 'orthorhombic'
loop_
_space_group_symop_operation_xyz
x,y,z
1/2-x,-y,z
1/2+x,-y,1/2-z
-x,y,1/2-z
-x,-y,-z
1/2+x,y,-z
1/2-x,y,1/2+z
x,-y,1/2+z
loop_
_atom_site_type_symbol
_atom_site_label
_atom_site_fract_x
_atom_site_fract_y
_atom_site_fract_z
Si Si1 0.964843 0.859425 0.596588
Si Si2 0.102262 0.963120 0.159729
Si Si3 0.863883 0.405652 0.111260
Si Si4 0.108773 0.718118 0.210852
Si Si5 0.119199 0.417935 0.601702
Si Si6 0.750000 0.000000 0.532355
Si Si7 0.274782 0.823177 0.561645
Si Si8 0.657203 0.382544 0.733705
O O1 0.875438 0.735389 0.592808
O O2 0.883369 0.967484 0.566102
O O3 0.117899 0.814932 0.580992
O O4 0.999227 0.924265 0.651109
O O5 0.050649 0.849958 0.192960
O O6 0.143463 0.908822 0.102801
O O7 0.250000 0.000000 0.181147
O O8 0.750000 0.500000 0.091389
O O9 0.841887 0.386673 0.172304
O O10 0.996967 0.485997 0.099408
O O11 0.119004 0.642287 0.158325
O O12 0.254818 0.724603 0.238937
O O13 0.000000 0.661813 0.250000
O O14 0.250000 0.500000 0.595403
O O15 0.139800 0.303489 0.562865
O O16 0.753969 0.885401 0.493101
O O17 0.750000 0.500000 0.750808
O O18 0.500000 0.382008 0.750000
#
# Coordination Sequence:
#
# PCOD9422612 Si02
#       8
#     8   8   8   8   8   4   8   8
#     4  11  23  43  68  94 130 173 218 273 347 408
#     4   9  21  41  64  88 124 172 223 263 320 403
#     4  11  24  42  62 100 142 173 216 281 340 394
#     4  11  22  38  62  95 129 178 228 278 319 379
#     4  11  21  39  72  91 129 185 220 267 335 406
#     4  12  24  42  72 100 128 162 222 288 350 402
#     4  10  21  41  69  99 120 165 227 270 325 422
#     4  11  22  36  61  94 130 172 229 274 322 385
#
# _framework density 21.682403000000001
#
# number of rings (size 3 to 8) (size 9 to 14) (size 15 to 20)
#    0.000    1.333    3.333    4.400    3.733    3.200 
#    2.400    1.333    0.000    0.000    0.000    0.000 
#    0.000    0.000    0.000    0.000    0.000    0.000 
#
# Total GULP energy -334381.733483 kJ/mol
# GULP energy per Si atom -5573.028891 kJ/mol
# Density = 2.163305 g / cm^3
# Si number density = 21.682403 Si / 1000 Ang^3
#
#
#
# Elastic Constant Matrix: (Units=GPa)
#
#
# Indices 1 2 3 4 5 6 
#
# 1 108.2344 30.7383 23.5838 0.0000 0.0000 0.0000
# 2 30.7383 119.3896 29.1324 0.0000 0.0000 0.0000
# 3 23.5838 29.1324 39.3889 0.0000 0.0000 0.0000
# 4 0.0000 0.0000 0.0000 -7.7135 0.0000 0.0000
# 5 0.0000 0.0000 0.0000 0.0000 4.9594 0.0000
# 6 0.0000 0.0000 0.0000 0.0000 0.0000 62.5414
#
#
#
# Elastic Compliance Matrix: (Units=1/GPa)
#
#
# Indices 1 2 3 4 5 6 
#
# 1 0.010833 -0.001472 -0.005398 0.000000 0.000000 0.000000
# 2 -0.001472 0.010420 -0.006826 0.000000 0.000000 0.000000
# 3 -0.005398 -0.006826 0.033668 0.000000 0.000000 0.000000
# 4 0.000000 0.000000 0.000000 -0.129643 0.000000 0.000000
# 5 0.000000 0.000000 0.000000 0.000000 0.201638 0.000000
# 6 0.000000 0.000000 0.000000 0.000000 0.000000 0.015989
#
#
# Mechanical properties :
#
#
# Convention : Reuss Voigt Hill
#
# Bulk Modulus (GPa) = 36.32266 48.21354 42.26810
# Shear Modulus (GPa) = 27.85919 24.19469 26.02694
#
# Velocity S-wave (km/s) = 3.58840 3.34408 3.46840
# Velocity P-wave (km/s) = 5.82730 6.09877 5.96458
#
# Compressibility (1/GPa) = 0.02753103
#
# Stress axis : x y z
#
# Youngs Moduli (GPa) = 92.30710 95.96472 29.70182
#
# Poissons Ratio (x) = 0.14127 0.16032
# Poissons Ratio (y) = 0.13589 0.20274
# Poissons Ratio (z) = 0.49824 0.65502
#
# Static dielectric constant tensor:
#      x y z
#    x 1.787040 0.000000 0.000000 
#    y 0.000000 1.795970 0.000000 
#    z 0.000000 0.000000 1.784620 
# 
# From -- ./inp_files/27916.got.cif
#   From: 2010.05.17/outbox.cif.g08.bks.cpg/sg54_14_cif.got.tgz:27916.got - 2010.06.03 13:09:01.
