data_PCOD9422153
_publ_section_title
;
Structure prediction by ZEFSAII (Michael W. Deem and Ramdas Pophale) SiO2 
 PCOD9422153
Probable space group: P C C A
;
_chemical_formula_sum "Si O2"
_cell_formula_units_Z 64
_cell_length_a 14.778757
_cell_length_b 39.266439
_cell_length_c 5.209996
_cell_angle_alpha 90.000000
_cell_angle_beta 90.000000
_cell_angle_gamma 90.000000
_cell_volume 3023.408404
_symmetry_space_group_name_H-M "P C C A"
_symmetry_group_IT_number 54
_symmetry_cell_setting 'orthorhombic'
loop_
_space_group_symop_operation_xyz
x,y,z
1/2-x,-y,z
1/2+x,-y,1/2-z
-x,y,1/2-z
-x,-y,-z
1/2+x,y,-z
1/2-x,y,1/2+z
x,-y,1/2+z
loop_
_atom_site_type_symbol
_atom_site_label
_atom_site_fract_x
_atom_site_fract_y
_atom_site_fract_z
Si Si1 0.808338 0.342615 0.908989
Si Si2 0.391503 0.728283 0.737350
Si Si3 0.309977 0.164246 0.597891
Si Si4 0.897481 0.514185 0.465477
Si Si5 0.392026 0.981925 0.235704
Si Si6 0.607967 0.764963 0.262650
Si Si7 0.687678 0.417706 0.326650
Si Si8 0.189926 0.088858 0.097667
O O1 0.726226 0.341449 0.701711
O O2 0.866692 0.309736 0.843595
O O3 0.851713 0.379633 0.858443
O O4 0.500000 0.730918 0.750000
O O5 0.357291 0.754013 0.516683
O O6 0.356654 0.739657 0.015823
O O7 0.269095 0.166125 0.312437
O O8 0.370857 0.196665 0.656571
O O9 0.352570 0.126559 0.627887
O O10 0.854712 0.491063 0.243712
O O11 0.884882 0.552647 0.374016
O O12 0.000000 0.500000 0.500000
O O13 0.500000 0.985893 0.250000
O O14 0.371258 0.943523 0.155025
O O15 0.356384 0.992808 0.514284
O O16 0.500000 0.761136 0.250000
O O17 0.763868 0.420732 0.550677
O O18 0.268817 0.086942 0.312677
#
# Coordination Sequence:
#
# PCOD9422153 Si02
#       8
#     8   8   8   8   8   8   8   8
#     4  10  21  37  58  83 112 143 184 225 268 323
#     4  10  21  37  55  82 112 144 182 223 270 320
#     4  10  21  36  54  80 110 140 181 225 273 323
#     4  10  21  37  56  81 114 141 182 227 265 319
#     4  10  21  36  54  78 106 138 180 226 271 324
#     4  10  21  36  56  79 112 144 183 224 266 325
#     4  10  21  37  58  83 112 145 182 225 272 320
#     4  10  21  36  54  78 108 140 177 225 272 329
#
# _framework density 21.168161999999999
#
# number of rings (size 3 to 8) (size 9 to 14) (size 15 to 20)
#    0.000    2.000    0.000    3.000    0.000    6.500 
#    2.250    0.000    5.500    9.000    0.000    0.000 
#    0.000    0.000    0.000    0.000    0.000    0.000 
#
# Total GULP energy -357299.005013 kJ/mol
# GULP energy per Si atom -5582.796953 kJ/mol
# Density = 2.111998 g / cm^3
# Si number density = 21.168162 Si / 1000 Ang^3
#
#
#
# Elastic Constant Matrix: (Units=GPa)
#
#
# Indices 1 2 3 4 5 6 
#
# 1 28.3456 -0.5032 -2.3272 0.0000 0.0000 0.0000
# 2 -0.5032 114.2430 13.6713 0.0000 0.0000 0.0000
# 3 -2.3272 13.6713 88.6926 0.0000 0.0000 0.0000
# 4 0.0000 0.0000 0.0000 32.6915 0.0000 0.0000
# 5 0.0000 0.0000 0.0000 0.0000 -14.7278 0.0000
# 6 0.0000 0.0000 0.0000 0.0000 0.0000 178.0143
#
#
#
# Elastic Compliance Matrix: (Units=1/GPa)
#
#
# Indices 1 2 3 4 5 6 
#
# 1 0.035355 0.000046 0.000921 0.000000 0.000000 0.000000
# 2 0.000046 0.008918 -0.001373 0.000000 0.000000 0.000000
# 3 0.000921 -0.001373 0.011511 0.000000 0.000000 0.000000
# 4 0.000000 0.000000 0.000000 0.030589 0.000000 0.000000
# 5 0.000000 0.000000 0.000000 0.000000 -0.067899 0.000000
# 6 0.000000 0.000000 0.000000 0.000000 0.000000 0.005618
#
#
# Mechanical properties :
#
#
# Convention : Reuss Voigt Hill
#
# Bulk Modulus (GPa) = 18.19191 28.10698 23.14944
# Shear Modulus (GPa) = 115.66321 53.89163 84.77742
#
# Velocity S-wave (km/s) = 7.39992 5.05115 6.33533
# Velocity P-wave (km/s) = 9.03462 6.87936 8.02963
#
# Compressibility (1/GPa) = 0.05496948
#
# Stress axis : x y z
#
# Youngs Moduli (GPa) = 28.28433 112.13493 86.87526
#
# Poissons Ratio (x) = -0.00511 -0.07998
# Poissons Ratio (y) = -0.00129 0.11932
# Poissons Ratio (z) = -0.02604 0.15401
#
# Static dielectric constant tensor:
#      x y z
#    x 1.687570 0.000000 0.000000 
#    y 0.000000 1.763660 0.000000 
#    z 0.000000 0.000000 1.806340 
# 
# From -- ./inp_files/1098.got.cif
#   From: 2010.05.17/outbox.cif.g08.bks.cpg/sg54_1_cif.got.tgz:1098.got - 2010.06.03 13:09:01.
