data_PCOD9422006
_publ_section_title
;
Structure prediction by ZEFSAII (Michael W. Deem and Ramdas Pophale) SiO2 
 PCOD9422006
Probable space group: P C C A
;
_chemical_formula_sum "Si O2"
_cell_formula_units_Z 60
_cell_length_a 26.946580
_cell_length_b 6.291345
_cell_length_c 15.518050
_cell_angle_alpha 90.000000
_cell_angle_beta 90.000000
_cell_angle_gamma 90.000000
_cell_volume 2630.778607
_symmetry_space_group_name_H-M "P C C A"
_symmetry_group_IT_number 54
_symmetry_cell_setting 'orthorhombic'
loop_
_space_group_symop_operation_xyz
x,y,z
1/2-x,-y,z
1/2+x,-y,1/2-z
-x,y,1/2-z
-x,-y,-z
1/2+x,y,-z
1/2-x,y,1/2+z
x,-y,1/2+z
loop_
_atom_site_type_symbol
_atom_site_label
_atom_site_fract_x
_atom_site_fract_y
_atom_site_fract_z
Si Si1 0.638658 0.723268 0.860832
Si Si2 0.106644 0.772018 0.822916
Si Si3 0.000000 0.765657 0.750000
Si Si4 0.465425 0.414616 0.116388
Si Si5 0.434222 0.598311 0.936942
Si Si6 0.294697 0.652077 0.067768
Si Si7 0.361253 0.051498 0.482101
Si Si8 0.800878 0.937205 0.769485
O O1 0.581631 0.683303 0.836332
O O2 0.662684 0.508236 0.897877
O O3 0.670988 0.840921 0.789058
O O4 0.638557 0.892981 0.938253
O O5 0.053924 0.853045 0.782963
O O6 0.095216 0.543822 0.867447
O O7 0.154340 0.781887 0.760930
O O8 0.127632 0.922999 0.897240
O O9 0.018803 0.625534 0.668185
O O10 0.517973 0.298100 0.109189
O O11 0.449961 0.445990 0.016464
O O12 0.404905 0.779223 0.985459
O O13 0.250000 0.500000 0.043361
O O14 0.281552 0.810820 0.145745
O O15 0.312868 0.801740 0.990579
O O16 0.750000 0.000000 0.719940
#
# Coordination Sequence:
#
# PCOD9422006 Si02
#       8
#     8   8   4   8   8   8   8   8
#     4  11  22  42  70  99 128 178 232 283 336 420
#     4  11  24  45  64 102 145 177 238 287 353 420
#     4  10  24  40  72 100 144 192 228 294 354 432
#     4  10  20  41  66  96 135 181 225 276 342 405
#     4  10  22  42  64  94 140 180 220 283 340 407
#     4  11  22  43  70  93 133 181 235 288 348 407
#     4  11  23  40  68 100 132 177 228 285 343 413
#     4  11  25  43  67 101 137 182 232 291 353 425
#
# _framework density 22.806937000000001
#
# number of rings (size 3 to 8) (size 9 to 14) (size 15 to 20)
#    0.000    1.333    4.000    0.800    1.867    4.800 
#    4.800    0.667    0.000    0.000    0.000    0.000 
#    0.000    0.000    0.000    0.000    0.000    0.000 
#
# Total GULP energy -334536.486532 kJ/mol
# GULP energy per Si atom -5575.608109 kJ/mol
# Density = 2.275503 g / cm^3
# Si number density = 22.806937 Si / 1000 Ang^3
#
#
#
# Elastic Constant Matrix: (Units=GPa)
#
#
# Indices 1 2 3 4 5 6 
#
# 1 164.7982 46.0096 42.9876 0.0000 0.0000 0.0000
# 2 46.0096 74.2304 9.2499 0.0000 0.0000 0.0000
# 3 42.9876 9.2499 47.8648 0.0000 0.0000 0.0000
# 4 0.0000 0.0000 0.0000 13.4846 0.0000 0.0000
# 5 0.0000 0.0000 0.0000 0.0000 27.1892 0.0000
# 6 0.0000 0.0000 0.0000 0.0000 0.0000 28.7012
#
#
#
# Elastic Compliance Matrix: (Units=1/GPa)
#
#
# Indices 1 2 3 4 5 6 
#
# 1 0.009384 -0.004884 -0.007484 0.000000 0.000000 0.000000
# 2 -0.004884 0.016346 0.001227 0.000000 0.000000 0.000000
# 3 -0.007484 0.001227 0.027376 0.000000 0.000000 0.000000
# 4 0.000000 0.000000 0.000000 0.074159 0.000000 0.000000
# 5 0.000000 0.000000 0.000000 0.000000 0.036779 0.000000
# 6 0.000000 0.000000 0.000000 0.000000 0.000000 0.034842
#
#
# Mechanical properties :
#
#
# Convention : Reuss Voigt Hill
#
# Bulk Modulus (GPa) = 32.44103 53.70972 43.07537
# Shear Modulus (GPa) = 21.60381 26.45141 24.02761
#
# Velocity S-wave (km/s) = 3.08108 3.40927 3.24932
# Velocity P-wave (km/s) = 5.18772 6.25287 5.74503
#
# Compressibility (1/GPa) = 0.03082517
#
# Stress axis : x y z
#
# Youngs Moduli (GPa) = 106.56907 61.17855 36.52811
#
# Poissons Ratio (x) = 0.29877 0.27336
# Poissons Ratio (y) = 0.52044 -0.04483
# Poissons Ratio (z) = 0.79753 -0.07508
#
# Static dielectric constant tensor:
#      x y z
#    x 1.984800 0.000000 0.000000 
#    y 0.000000 1.866760 0.000000 
#    z 0.000000 0.000000 1.892430 
# 
# From -- ./inp_files/19261.got.cif
#   From: 2010.05.17/outbox.cif.g08.bks.cpg/sg54_10_cif.got.tgz:19261.got - 2010.06.03 13:09:01.
