data_PCOD9422344
_publ_section_title
;
Structure prediction by ZEFSAII (Michael W. Deem and Ramdas Pophale) SiO2 
 PCOD9422344
Probable space group: P C C A
;
_chemical_formula_sum "Si O2"
_cell_formula_units_Z 56
_cell_length_a 8.663154
_cell_length_b 14.708081
_cell_length_c 20.618564
_cell_angle_alpha 90.000000
_cell_angle_beta 90.000000
_cell_angle_gamma 90.000000
_cell_volume 2627.183832
_symmetry_space_group_name_H-M "P C C A"
_symmetry_group_IT_number 54
_symmetry_cell_setting 'orthorhombic'
loop_
_space_group_symop_operation_xyz
x,y,z
1/2-x,-y,z
1/2+x,-y,1/2-z
-x,y,1/2-z
-x,-y,-z
1/2+x,y,-z
1/2-x,y,1/2+z
x,-y,1/2+z
loop_
_atom_site_type_symbol
_atom_site_label
_atom_site_fract_x
_atom_site_fract_y
_atom_site_fract_z
Si Si1 0.647730 0.683455 0.911015
Si Si2 0.681386 0.600468 0.768706
Si Si3 0.316251 0.727300 0.964353
Si Si4 0.882142 0.927350 0.972634
Si Si5 0.822313 0.087952 0.226874
Si Si6 0.832054 0.171364 0.352620
Si Si7 0.638040 0.271513 0.665266
O O1 0.680863 0.628376 0.845170
O O2 0.473532 0.685511 0.935899
O O3 0.691030 0.785661 0.890528
O O4 0.761948 0.671772 0.971990
O O5 0.750000 0.500000 0.763440
O O6 0.500000 0.605806 0.750000
O O7 0.783426 0.660236 0.717238
O O8 0.342923 0.835271 0.984650
O O9 0.187100 0.712339 0.908791
O O10 0.750000 0.000000 0.957839
O O11 0.931006 0.886274 0.903291
O O12 0.000000 0.000000 0.000000
O O13 0.753856 0.113995 0.296391
O O14 0.793101 0.173804 0.183044
O O15 0.000000 0.077905 0.250000
O O16 0.750000 0.000000 0.197362
O O17 0.953400 0.249814 0.328760
#
# Coordination Sequence:
#
# PCOD9422344 Si02
#       7
#     8   8   8   8   8   8   8
#     4  11  23  45  70 104 139 183 236 287 363 437
#     4  12  28  50  80 112 139 181 233 304 377 447
#     4  11  23  41  68  98 139 193 234 293 357 422
#     4  11  21  35  57  94 137 187 247 296 337 402
#     4  10  22  35  56  93 136 189 238 292 351 413
#     4  10  21  38  62  91 138 187 232 297 353 410
#     4  11  23  44  69 100 141 185 239 290 366 430
#
# _framework density 21.3156
#
# number of rings (size 3 to 8) (size 9 to 14) (size 15 to 20)
#    0.000    1.143    2.857    4.714    2.000    4.571 
#    0.000    1.429    0.000    0.000    0.000    0.000 
#    0.000    0.000    0.000    0.000    0.000    0.000 
#
# Total GULP energy -311815.074087 kJ/mol
# GULP energy per Si atom -5568.126323 kJ/mol
# Density = 2.126708 g / cm^3
# Si number density = 21.315600 Si / 1000 Ang^3
#
#
#
# Elastic Constant Matrix: (Units=GPa)
#
#
# Indices 1 2 3 4 5 6 
#
# 1 54.1161 35.3205 18.2324 0.0000 0.0000 0.0000
# 2 35.3205 94.7135 50.6248 0.0000 0.0000 0.0000
# 3 18.2324 50.6248 126.7376 0.0000 0.0000 0.0000
# 4 0.0000 0.0000 0.0000 36.6110 0.0000 0.0000
# 5 0.0000 0.0000 0.0000 0.0000 31.5996 0.0000
# 6 0.0000 0.0000 0.0000 0.0000 0.0000 25.8449
#
#
#
# Elastic Compliance Matrix: (Units=1/GPa)
#
#
# Indices 1 2 3 4 5 6 
#
# 1 0.024426 -0.009194 0.000158 0.000000 0.000000 0.000000
# 2 -0.009194 0.016885 -0.005422 0.000000 0.000000 0.000000
# 3 0.000158 -0.005422 0.010033 0.000000 0.000000 0.000000
# 4 0.000000 0.000000 0.000000 0.027314 0.000000 0.000000
# 5 0.000000 0.000000 0.000000 0.000000 0.031646 0.000000
# 6 0.000000 0.000000 0.000000 0.000000 0.000000 0.038692
#
#
# Mechanical properties :
#
#
# Convention : Reuss Voigt Hill
#
# Bulk Modulus (GPa) = 44.58372 53.76917 49.17644
# Shear Modulus (GPa) = 26.97063 30.23708 28.60385
#
# Velocity S-wave (km/s) = 3.56096 3.77044 3.66720
# Velocity P-wave (km/s) = 6.15376 6.65094 6.40717
#
# Compressibility (1/GPa) = 0.02242971
#
# Stress axis : x y z
#
# Youngs Moduli (GPa) = 40.94027 59.22538 99.66816
#
# Poissons Ratio (x) = 0.54449 -0.01579
# Poissons Ratio (y) = 0.37639 0.54039
# Poissons Ratio (z) = -0.00649 0.32112
#
# Static dielectric constant tensor:
#      x y z
#    x 1.737690 0.000000 0.000000 
#    y 0.000000 1.781510 0.000000 
#    z 0.000000 0.000000 1.883020 
# 
# From -- ./inp_files/20571.got.cif
#   From: 2010.05.17/outbox.cif.g08.bks.cpg/sg54_11_cif.got.tgz:20571.got - 2010.06.03 13:09:01.
