data_PCOD9422669
_publ_section_title
;
Structure prediction by ZEFSAII (Michael W. Deem and Ramdas Pophale) SiO2 
 PCOD9422669
Probable space group: P C C A
;
_chemical_formula_sum "Si O2"
_cell_formula_units_Z 60
_cell_length_a 30.440855
_cell_length_b 5.174858
_cell_length_c 17.702824
_cell_angle_alpha 90.000000
_cell_angle_beta 90.000000
_cell_angle_gamma 90.000000
_cell_volume 2788.674562
_symmetry_space_group_name_H-M "P C C A"
_symmetry_group_IT_number 54
_symmetry_cell_setting 'orthorhombic'
loop_
_space_group_symop_operation_xyz
x,y,z
1/2-x,-y,z
1/2+x,-y,1/2-z
-x,y,1/2-z
-x,-y,-z
1/2+x,y,-z
1/2-x,y,1/2+z
x,-y,1/2+z
loop_
_atom_site_type_symbol
_atom_site_label
_atom_site_fract_x
_atom_site_fract_y
_atom_site_fract_z
Si Si1 0.199891 0.018480 0.574182
Si Si2 0.381101 0.837970 0.165832
Si Si3 0.500000 0.782066 0.750000
Si Si4 0.300672 0.516163 0.976489
Si Si5 0.470446 0.109792 0.894340
Si Si6 0.094011 0.658721 0.253296
Si Si7 0.107675 0.453198 0.407800
Si Si8 0.053013 0.276413 0.030981
O O1 0.194543 0.310447 0.544827
O O2 0.250000 0.000000 0.599919
O O3 0.165876 0.930197 0.636429
O O4 0.193259 0.809218 0.506200
O O5 0.380483 0.563684 0.208030
O O6 0.413703 0.828875 0.093985
O O7 0.398125 0.061702 0.219585
O O8 0.542554 0.605819 0.759334
O O9 0.491088 0.956495 0.824022
O O10 0.250000 0.500000 0.948530
O O11 0.340732 0.429555 0.923233
O O12 0.423745 0.233249 0.874140
O O13 0.506761 0.318198 0.925017
O O14 0.459823 0.920946 0.964347
O O15 0.104221 0.662680 0.341768
O O16 0.082269 0.512958 0.486454
#
# Coordination Sequence:
#
# PCOD9422669 Si02
#       8
#     8   8   4   8   8   8   8   8
#     4  10  21  42  72 104 133 171 224 287 348 404
#     4  12  25  45  67 101 133 179 224 286 333 414
#     4  12  24  48  62  94 142 190 232 282 344 422
#     4  10  22  41  72 105 134 172 228 290 348 406
#     4  11  25  43  65 101 136 183 230 287 342 404
#     4  12  29  42  67  94 141 185 226 269 356 399
#     4  12  25  42  68  98 140 183 230 288 346 418
#     4  11  24  40  68  97 133 173 239 280 336 388
#
# _framework density 21.515597
#
# number of rings (size 3 to 8) (size 9 to 14) (size 15 to 20)
#    0.000    0.800    4.000    2.800    3.733    0.533 
#    0.000    1.333    0.000    0.000    0.000    0.000 
#    0.000    0.000    0.000    0.000    0.000    0.000 
#
# Total GULP energy -335189.642815 kJ/mol
# GULP energy per Si atom -5586.494047 kJ/mol
# Density = 2.146663 g / cm^3
# Si number density = 21.515597 Si / 1000 Ang^3
#
#
#
# Elastic Constant Matrix: (Units=GPa)
#
#
# Indices 1 2 3 4 5 6 
#
# 1 141.8671 11.0945 36.2953 0.0000 0.0000 0.0000
# 2 11.0945 63.8565 23.4356 0.0000 0.0000 0.0000
# 3 36.2953 23.4356 89.8612 0.0000 0.0000 0.0000
# 4 0.0000 0.0000 0.0000 24.8943 0.0000 0.0000
# 5 0.0000 0.0000 0.0000 0.0000 22.4812 0.0000
# 6 0.0000 0.0000 0.0000 0.0000 0.0000 30.2507
#
#
#
# Elastic Compliance Matrix: (Units=1/GPa)
#
#
# Indices 1 2 3 4 5 6 
#
# 1 0.007864 -0.000222 -0.003118 0.000000 0.000000 0.000000
# 2 -0.000222 0.017324 -0.004428 0.000000 0.000000 0.000000
# 3 -0.003118 -0.004428 0.013543 0.000000 0.000000 0.000000
# 4 0.000000 0.000000 0.000000 0.040170 0.000000 0.000000
# 5 0.000000 0.000000 0.000000 0.000000 0.044482 0.000000
# 6 0.000000 0.000000 0.000000 0.000000 0.000000 0.033057
#
#
# Mechanical properties :
#
#
# Convention : Reuss Voigt Hill
#
# Bulk Modulus (GPa) = 43.11597 48.58172 45.84884
# Shear Modulus (GPa) = 27.82296 30.50921 29.16609
#
# Velocity S-wave (km/s) = 3.59994 3.76973 3.68581
# Velocity P-wave (km/s) = 6.11248 6.44799 6.28247
#
# Compressibility (1/GPa) = 0.02319326
#
# Stress axis : x y z
#
# Youngs Moduli (GPa) = 127.16140 57.72368 73.84025
#
# Poissons Ratio (x) = 0.01280 0.23027
# Poissons Ratio (y) = 0.02821 0.32700
# Poissons Ratio (z) = 0.39655 0.25563
#
# Static dielectric constant tensor:
#      x y z
#    x 1.574980 0.000000 0.000000 
#    y 0.000000 1.831750 0.000000 
#    z 0.000000 0.000000 1.784900 
# 
# From -- ./inp_files/19307.got.cif
#   From: 2010.05.17/outbox.cif.g08.bks.cpg/sg54_10_cif.got.tgz:19307.got - 2010.06.03 13:09:01.
