data_PCOD9422596
_publ_section_title
;
Structure prediction by ZEFSAII (Michael W. Deem and Ramdas Pophale) SiO2 
 PCOD9422596
Probable space group: P C C A
;
_chemical_formula_sum "Si O2"
_cell_formula_units_Z 60
_cell_length_a 8.324892
_cell_length_b 15.502021
_cell_length_c 19.346816
_cell_angle_alpha 90.000000
_cell_angle_beta 90.000000
_cell_angle_gamma 90.000000
_cell_volume 2496.757886
_symmetry_space_group_name_H-M "P C C A"
_symmetry_group_IT_number 54
_symmetry_cell_setting 'orthorhombic'
loop_
_space_group_symop_operation_xyz
x,y,z
1/2-x,-y,z
1/2+x,-y,1/2-z
-x,y,1/2-z
-x,-y,-z
1/2+x,y,-z
1/2-x,y,1/2+z
x,-y,1/2+z
loop_
_atom_site_type_symbol
_atom_site_label
_atom_site_fract_x
_atom_site_fract_y
_atom_site_fract_z
Si Si1 0.250000 0.500000 0.970627
Si Si2 0.679862 0.822117 0.765712
Si Si3 0.298761 0.366082 0.588230
Si Si4 0.667876 0.385686 0.277278
Si Si5 0.285121 0.195822 0.882613
Si Si6 0.838827 0.827148 0.908828
Si Si7 0.867810 0.383809 0.144898
Si Si8 0.632292 0.063639 0.031655
O O1 0.185605 0.425036 0.021033
O O2 0.134943 0.545494 0.915288
O O3 0.500000 0.855435 0.750000
O O4 0.664228 0.718641 0.776688
O O5 0.782858 0.834048 0.696788
O O6 0.770540 0.852123 0.834185
O O7 0.175452 0.408957 0.641811
O O8 0.269165 0.266594 0.568945
O O9 0.448106 0.355582 0.641771
O O10 0.500000 0.419695 0.250000
O O11 0.801263 0.408814 0.219713
O O12 0.464966 0.177157 0.911715
O O13 0.267279 0.299721 0.879937
O O14 0.134975 0.149127 0.920487
O O15 0.784276 0.897024 0.963740
O O16 0.750000 0.000000 0.072686
O O17 0.500000 0.000000 0.000000
#
# Coordination Sequence:
#
# PCOD9422596 Si02
#       8
#     4   8   8   8   8   8   8   8
#     4  12  24  38  56  94 130 162 212 266 316 374
#     4   9  19  35  65  95 121 155 209 261 309 370
#     4  10  22  40  64  89 124 165 211 258 318 377
#     4   9  19  38  62  92 118 157 209 262 311 371
#     4  10  21  41  65  92 123 167 210 257 317 381
#     4  10  21  41  65  92 123 168 209 258 315 382
#     4  10  22  40  64  89 124 165 210 259 317 379
#     4  12  25  42  64  93 131 168 210 255 313 382
#
# _framework density 24.031165999999999
#
# number of rings (size 3 to 8) (size 9 to 14) (size 15 to 20)
#    0.000    1.867    1.333    2.000    1.867    5.867 
#    0.000    0.667    0.000    0.000    0.000    0.000 
#    0.000    0.000    0.000    0.000    0.000    0.000 
#
# Total GULP energy -334557.552715 kJ/mol
# GULP energy per Si atom -5575.959212 kJ/mol
# Density = 2.397647 g / cm^3
# Si number density = 24.031166 Si / 1000 Ang^3
#
#
#
# Elastic Constant Matrix: (Units=GPa)
#
#
# Indices 1 2 3 4 5 6 
#
# 1 42.3600 17.2967 5.5601 0.0000 0.0000 0.0000
# 2 17.2967 90.9474 38.0648 0.0000 0.0000 0.0000
# 3 5.5601 38.0648 132.3010 0.0000 0.0000 0.0000
# 4 0.0000 0.0000 0.0000 -18.6990 0.0000 0.0000
# 5 0.0000 0.0000 0.0000 0.0000 22.4788 0.0000
# 6 0.0000 0.0000 0.0000 0.0000 0.0000 26.9979
#
#
#
# Elastic Compliance Matrix: (Units=1/GPa)
#
#
# Indices 1 2 3 4 5 6 
#
# 1 0.025611 -0.005025 0.000370 0.000000 0.000000 0.000000
# 2 -0.005025 0.013487 -0.003669 0.000000 0.000000 0.000000
# 3 0.000370 -0.003669 0.008599 0.000000 0.000000 0.000000
# 4 0.000000 0.000000 0.000000 -0.053479 0.000000 0.000000
# 5 0.000000 0.000000 0.000000 0.000000 0.044486 0.000000
# 6 0.000000 0.000000 0.000000 0.000000 0.000000 0.037040
#
#
# Mechanical properties :
#
#
# Convention : Reuss Voigt Hill
#
# Bulk Modulus (GPa) = 32.21011 43.05018 37.63015
# Shear Modulus (GPa) = 48.66549 19.80133 34.23341
#
# Velocity S-wave (km/s) = 4.50499 2.87363 3.77841
# Velocity P-wave (km/s) = 6.36337 5.38178 5.89305
#
# Compressibility (1/GPa) = 0.03104615
#
# Stress axis : x y z
#
# Youngs Moduli (GPa) = 39.04620 74.14663 116.29729
#
# Poissons Ratio (x) = 0.37262 -0.04298
# Poissons Ratio (y) = 0.19622 0.42671
# Poissons Ratio (z) = -0.01443 0.27205
#
# Static dielectric constant tensor:
#      x y z
#    x 2.171480 0.000000 0.000000 
#    y 0.000000 1.957610 0.000000 
#    z 0.000000 0.000000 1.884410 
# 
# From -- ./inp_files/16832.got.cif
#   From: 2010.05.17/outbox.cif.g08.bks.cpg/sg54_9_cif.got.tgz:16832.got - 2010.06.03 13:09:01.
