data_PCOD9422950
_publ_section_title
;
Structure prediction by ZEFSAII (Michael W. Deem and Ramdas Pophale) SiO2 
 PCOD9422950
Probable space group: P C C A
;
_chemical_formula_sum "Si O2"
_cell_formula_units_Z 40
_cell_length_a 17.642098
_cell_length_b 12.079395
_cell_length_c 7.516615
_cell_angle_alpha 90.000000
_cell_angle_beta 90.000000
_cell_angle_gamma 90.000000
_cell_volume 1601.834782
_symmetry_space_group_name_H-M "P C C A"
_symmetry_group_IT_number 54
_symmetry_cell_setting 'orthorhombic'
loop_
_space_group_symop_operation_xyz
x,y,z
1/2-x,-y,z
1/2+x,-y,1/2-z
-x,y,1/2-z
-x,-y,-z
1/2+x,y,-z
1/2-x,y,1/2+z
x,-y,1/2+z
loop_
_atom_site_type_symbol
_atom_site_label
_atom_site_fract_x
_atom_site_fract_y
_atom_site_fract_z
Si Si1 0.419253 0.869523 0.275147
Si Si2 0.576827 0.622983 0.148153
Si Si3 0.834097 0.451725 0.465868
Si Si4 0.662356 0.783610 0.580805
Si Si5 0.195183 0.103037 0.561414
O O1 0.500000 0.926372 0.250000
O O2 0.432185 0.753372 0.380727
O O3 0.361314 0.930929 0.403871
O O4 0.386726 0.833699 0.082522
O O5 0.500000 0.590261 0.250000
O O6 0.649011 0.604497 0.277002
O O7 0.601875 0.545211 0.989182
O O8 0.750000 0.500000 0.475457
O O9 0.848402 0.348249 0.597738
O O10 0.654667 0.846466 0.767056
O O11 0.749199 0.804117 0.519679
O O12 0.250000 0.000000 0.606236
#
# Coordination Sequence:
#
# PCOD9422950 Si02
#       5
#     8   8   8   8   8
#     4  10  24  47  72 106 144 178 228 291 346 414
#     4  10  22  40  62  95 140 181 218 271 342 411
#     4  11  23  36  62  97 133 177 227 280 332 403
#     4  11  25  42  69 104 136 183 233 290 347 414
#     4  12  25  45  77  98 132 183 236 290 359 412
#
# _framework density 24.971366
#
# number of rings (size 3 to 8) (size 9 to 14) (size 15 to 20)
#    0.000    1.200    2.000    3.000    8.400    1.600 
#    0.000    1.000    0.000    0.000    0.000    0.000 
#    0.000    0.000    0.000    0.000    0.000    0.000 
#
# Total GULP energy -223866.061976 kJ/mol
# GULP energy per Si atom -5596.651549 kJ/mol
# Density = 2.491453 g / cm^3
# Si number density = 24.971366 Si / 1000 Ang^3
#
#
#
# Elastic Constant Matrix: (Units=GPa)
#
#
# Indices 1 2 3 4 5 6 
#
# 1 115.6344 7.3330 43.8228 0.0000 0.0000 0.0000
# 2 7.3330 77.8872 20.2539 0.0000 0.0000 0.0000
# 3 43.8228 20.2539 118.5706 0.0000 0.0000 0.0000
# 4 0.0000 0.0000 0.0000 33.6518 0.0000 0.0000
# 5 0.0000 0.0000 0.0000 0.0000 26.3390 0.0000
# 6 0.0000 0.0000 0.0000 0.0000 0.0000 14.8920
#
#
#
# Elastic Compliance Matrix: (Units=1/GPa)
#
#
# Indices 1 2 3 4 5 6 
#
# 1 0.010057 0.000021 -0.003720 0.000000 0.000000 0.000000
# 2 0.000021 0.013436 -0.002303 0.000000 0.000000 0.000000
# 3 -0.003720 -0.002303 0.010202 0.000000 0.000000 0.000000
# 4 0.000000 0.000000 0.000000 0.029716 0.000000 0.000000
# 5 0.000000 0.000000 0.000000 0.000000 0.037967 0.000000
# 6 0.000000 0.000000 0.000000 0.000000 0.000000 0.067150
#
#
# Mechanical properties :
#
#
# Convention : Reuss Voigt Hill
#
# Bulk Modulus (GPa) = 46.10465 50.54572 48.32518
# Shear Modulus (GPa) = 26.62941 31.02206 28.82574
#
# Velocity S-wave (km/s) = 3.26912 3.52846 3.40126
# Velocity P-wave (km/s) = 5.72299 6.07334 5.90076
#
# Compressibility (1/GPa) = 0.02168979
#
# Stress axis : x y z
#
# Youngs Moduli (GPa) = 99.43751 74.42723 98.01852
#
# Poissons Ratio (x) = -0.00154 0.36466
# Poissons Ratio (y) = -0.00205 0.22571
# Poissons Ratio (z) = 0.36994 0.17138
#
# Static dielectric constant tensor:
#      x y z
#    x 1.966970 0.000000 0.000000 
#    y 0.000000 2.092700 0.000000 
#    z 0.000000 0.000000 2.033340 
# 
# From -- ./inp_files/3980.got.cif
#   From: 2010.05.17/outbox.cif.g08.bks.cpg/sg54_2_cif.got.tgz:3980.got - 2010.06.03 13:09:01.
