data_PCOD9422419
_publ_section_title
;
Structure prediction by ZEFSAII (Michael W. Deem and Ramdas Pophale) SiO2 
 PCOD9422419
Probable space group: P C C A
;
_chemical_formula_sum "Si O2"
_cell_formula_units_Z 40
_cell_length_a 7.995209
_cell_length_b 15.536683
_cell_length_c 14.233766
_cell_angle_alpha 90.000000
_cell_angle_beta 90.000000
_cell_angle_gamma 90.000000
_cell_volume 1768.104574
_symmetry_space_group_name_H-M "P C C A"
_symmetry_group_IT_number 54
_symmetry_cell_setting 'orthorhombic'
loop_
_space_group_symop_operation_xyz
x,y,z
1/2-x,-y,z
1/2+x,-y,1/2-z
-x,y,1/2-z
-x,-y,-z
1/2+x,y,-z
1/2-x,y,1/2+z
x,-y,1/2+z
loop_
_atom_site_type_symbol
_atom_site_label
_atom_site_fract_x
_atom_site_fract_y
_atom_site_fract_z
Si Si1 0.157463 0.413262 0.940939
Si Si2 0.214768 0.590265 0.144355
Si Si3 0.679666 0.779754 0.858525
Si Si4 0.697587 0.225166 0.063634
Si Si5 0.183137 0.094739 0.292848
O O1 0.250000 0.500000 0.913380
O O2 0.249184 0.324002 0.916392
O O3 0.972602 0.412695 0.898571
O O4 0.159982 0.411879 0.054917
O O5 0.250000 0.500000 0.196878
O O6 0.220700 0.685893 0.187348
O O7 0.490617 0.781610 0.897087
O O8 0.708595 0.855238 0.785483
O O9 0.791892 0.787761 0.951953
O O10 0.808092 0.155071 0.116096
O O11 0.000000 0.088744 0.250000
O O12 0.250000 0.000000 0.313189
#
# Coordination Sequence:
#
# PCOD9422419 Si02
#       5
#     8   8   8   8   8
#     4   9  16  27  49  80 116 154 192 233 279 334
#     4   9  16  27  49  80 116 154 192 233 279 334
#     4  10  21  39  62  90 122 157 197 242 291 347
#     4  10  21  39  62  90 122 157 197 242 291 347
#     4  12  26  44  65  88 115 150 193 246 302 356
#
# _framework density 22.623094999999999
#
# number of rings (size 3 to 8) (size 9 to 14) (size 15 to 20)
#    0.000    2.000    0.000    5.400    0.000    5.600 
#    0.000    5.000    0.000    0.000    0.000    0.000 
#    0.000    0.000    0.000    0.000    0.000    0.000 
#
# Total GULP energy -223602.304282 kJ/mol
# GULP energy per Si atom -5590.057607 kJ/mol
# Density = 2.257160 g / cm^3
# Si number density = 22.623095 Si / 1000 Ang^3
#
#
#
# Elastic Constant Matrix: (Units=GPa)
#
#
# Indices 1 2 3 4 5 6 
#
# 1 56.7069 23.2733 -7.0832 0.0000 0.0000 0.0000
# 2 23.2733 191.7597 33.7344 0.0000 0.0000 0.0000
# 3 -7.0832 33.7344 70.0157 0.0000 0.0000 0.0000
# 4 0.0000 0.0000 0.0000 37.7506 0.0000 0.0000
# 5 0.0000 0.0000 0.0000 0.0000 19.8426 0.0000
# 6 0.0000 0.0000 0.0000 0.0000 0.0000 32.1503
#
#
#
# Elastic Compliance Matrix: (Units=1/GPa)
#
#
# Indices 1 2 3 4 5 6 
#
# 1 0.019256 -0.002928 0.003359 0.000000 0.000000 0.000000
# 2 -0.002928 0.006143 -0.003256 0.000000 0.000000 0.000000
# 3 0.003359 -0.003256 0.016191 0.000000 0.000000 0.000000
# 4 0.000000 0.000000 0.000000 0.026490 0.000000 0.000000
# 5 0.000000 0.000000 0.000000 0.000000 0.050397 0.000000
# 6 0.000000 0.000000 0.000000 0.000000 0.000000 0.031104
#
#
# Mechanical properties :
#
#
# Convention : Reuss Voigt Hill
#
# Bulk Modulus (GPa) = 27.82455 46.48125 37.15290
# Shear Modulus (GPa) = 29.90253 35.85257 32.87755
#
# Velocity S-wave (km/s) = 3.63956 3.98525 3.81632
# Velocity P-wave (km/s) = 5.47611 6.46272 5.98976
#
# Compressibility (1/GPa) = 0.03593949
#
# Stress axis : x y z
#
# Youngs Moduli (GPa) = 51.93269 162.78699 61.76244
#
# Poissons Ratio (x) = 0.47662 -0.20744
# Poissons Ratio (y) = 0.15205 0.20110
# Poissons Ratio (z) = -0.17443 0.53003
#
# Static dielectric constant tensor:
#      x y z
#    x 1.846640 0.000000 0.000000 
#    y 0.000000 1.906570 0.000000 
#    z 0.000000 0.000000 1.879110 
# 
# From -- ./inp_files/11464.got.cif
#   From: 2010.05.17/outbox.cif.g08.bks.cpg/sg54_6_cif.got.tgz:11464.got - 2010.06.03 13:09:01.
