data_PCOD9422401
_publ_section_title
;
Structure prediction by ZEFSAII (Michael W. Deem and Ramdas Pophale) SiO2 
 PCOD9422401
Probable space group: P C C A
;
_chemical_formula_sum "Si O2"
_cell_formula_units_Z 40
_cell_length_a 28.265770
_cell_length_b 6.245503
_cell_length_c 9.806373
_cell_angle_alpha 90.000000
_cell_angle_beta 90.000000
_cell_angle_gamma 90.000000
_cell_volume 1731.157774
_symmetry_space_group_name_H-M "P C C A"
_symmetry_group_IT_number 54
_symmetry_cell_setting 'orthorhombic'
loop_
_space_group_symop_operation_xyz
x,y,z
1/2-x,-y,z
1/2+x,-y,1/2-z
-x,y,1/2-z
-x,-y,-z
1/2+x,y,-z
1/2-x,y,1/2+z
x,-y,1/2+z
loop_
_atom_site_type_symbol
_atom_site_label
_atom_site_fract_x
_atom_site_fract_y
_atom_site_fract_z
Si Si1 0.345691 0.665399 0.428379
Si Si2 0.955119 0.224210 0.311178
Si Si3 0.066157 0.425762 0.916054
Si Si4 0.130326 0.938482 0.284220
Si Si5 0.802209 0.579223 0.309541
O O1 0.395435 0.582525 0.487650
O O2 0.348729 0.916124 0.405445
O O3 0.336019 0.573607 0.278146
O O4 0.307484 0.565832 0.528418
O O5 0.963245 0.314359 0.463412
O O6 0.952338 0.423286 0.204915
O O7 0.906219 0.089055 0.301644
O O8 0.000000 0.094429 0.250000
O O9 0.096115 0.238251 0.847352
O O10 0.175200 0.815172 0.218673
O O11 0.750000 0.500000 0.271942
#
# Coordination Sequence:
#
# PCOD9422401 Si02
#       5
#     8   8   8   8   8
#     4  10  21  40  63  90 126 166 207 257 318 381
#     4  11  23  39  63  95 128 168 218 265 313 374
#     4  10  21  39  61  87 126 170 208 258 316 372
#     4  10  22  39  64  91 125 168 213 261 319 377
#     4  11  23  41  65  93 126 163 209 264 323 387
#
# _framework density 23.105924000000002
#
# number of rings (size 3 to 8) (size 9 to 14) (size 15 to 20)
#    0.000    1.600    0.000    6.000    0.000    5.600 
#    0.000    2.000    0.000    0.000    0.000    0.000 
#    0.000    0.000    0.000    0.000    0.000    0.000 
#
# Total GULP energy -222939.028225 kJ/mol
# GULP energy per Si atom -5573.475706 kJ/mol
# Density = 2.305333 g / cm^3
# Si number density = 23.105924 Si / 1000 Ang^3
#
#
#
# Elastic Constant Matrix: (Units=GPa)
#
#
# Indices 1 2 3 4 5 6 
#
# 1 88.9622 29.9741 23.4948 0.0000 0.0000 0.0000
# 2 29.9741 82.6396 29.4760 0.0000 0.0000 0.0000
# 3 23.4948 29.4760 87.8485 0.0000 0.0000 0.0000
# 4 0.0000 0.0000 0.0000 5.3881 0.0000 0.0000
# 5 0.0000 0.0000 0.0000 0.0000 35.0021 0.0000
# 6 0.0000 0.0000 0.0000 0.0000 0.0000 28.1892
#
#
#
# Elastic Compliance Matrix: (Units=1/GPa)
#
#
# Indices 1 2 3 4 5 6 
#
# 1 0.013163 -0.003997 -0.002179 0.000000 0.000000 0.000000
# 2 -0.003997 0.014960 -0.003950 0.000000 0.000000 0.000000
# 3 -0.002179 -0.003950 0.013292 0.000000 0.000000 0.000000
# 4 0.000000 0.000000 0.000000 0.185594 0.000000 0.000000
# 5 0.000000 0.000000 0.000000 0.000000 0.028570 0.000000
# 6 0.000000 0.000000 0.000000 0.000000 0.000000 0.035475
#
#
# Mechanical properties :
#
#
# Convention : Reuss Voigt Hill
#
# Bulk Modulus (GPa) = 47.25751 47.26003 47.25877
# Shear Modulus (GPa) = 15.70553 25.48291 20.59422
#
# Velocity S-wave (km/s) = 2.60997 3.32456 2.98870
# Velocity P-wave (km/s) = 5.43871 5.93590 5.69274
#
# Compressibility (1/GPa) = 0.02116066
#
# Stress axis : x y z
#
# Youngs Moduli (GPa) = 75.97056 66.84696 75.23569
#
# Poissons Ratio (x) = 0.26719 0.16396
# Poissons Ratio (y) = 0.30366 0.29721
# Poissons Ratio (z) = 0.16556 0.26407
#
# Static dielectric constant tensor:
#      x y z
#    x 1.977850 0.000000 0.000000 
#    y 0.000000 1.893100 0.000000 
#    z 0.000000 0.000000 1.907010 
# 
# From -- ./inp_files/10422.got.cif
#   From: 2010.05.17/outbox.cif.g08.bks.cpg/sg54_6_cif.got.tgz:10422.got - 2010.06.03 13:09:01.
