data_PCOD9422017
_publ_section_title
;
Structure prediction by ZEFSAII (Michael W. Deem and Ramdas Pophale) SiO2 
 PCOD9422017
Probable space group: P C C A
;
_chemical_formula_sum "Si O2"
_cell_formula_units_Z 48
_cell_length_a 13.941022
_cell_length_b 11.150020
_cell_length_c 13.888194
_cell_angle_alpha 90.000000
_cell_angle_beta 90.000000
_cell_angle_gamma 90.000000
_cell_volume 2158.818014
_symmetry_space_group_name_H-M "P C C A"
_symmetry_group_IT_number 54
_symmetry_cell_setting 'orthorhombic'
loop_
_space_group_symop_operation_xyz
x,y,z
1/2-x,-y,z
1/2+x,-y,1/2-z
-x,y,1/2-z
-x,-y,-z
1/2+x,y,-z
1/2-x,y,1/2+z
x,-y,1/2+z
loop_
_atom_site_type_symbol
_atom_site_label
_atom_site_fract_x
_atom_site_fract_y
_atom_site_fract_z
Si Si1 0.143395 0.608103 0.626322
Si Si2 0.767601 0.316458 0.562272
Si Si3 0.500000 0.826207 0.750000
Si Si4 0.500000 0.749992 0.250000
Si Si5 0.907638 0.098915 0.557255
Si Si6 0.913380 0.168025 0.068505
Si Si7 0.175469 0.648089 0.223791
O O1 0.171851 0.605975 0.514604
O O2 0.048907 0.666855 0.669151
O O3 0.230413 0.689733 0.667171
O O4 0.147774 0.476634 0.673145
O O5 0.819199 0.187415 0.565146
O O6 0.656723 0.279483 0.542082
O O7 0.788111 0.370040 0.667283
O O8 0.534500 0.899974 0.658008
O O9 0.588337 0.739920 0.778654
O O10 0.573333 0.824609 0.184299
O O11 0.981648 0.158601 0.481303
O O12 0.876052 0.963401 0.537136
#
# Coordination Sequence:
#
# PCOD9422017 Si02
#       7
#     8   8   4   4   8   8   8
#     4  11  23  41  63  95 128 170 219 263 323 384
#     4  11  22  42  65  93 132 171 213 273 322 383
#     4  10  20  42  60  90 128 164 210 268 324 386
#     4  12  22  42  66  96 130 170 214 272 320 384
#     4  10  22  39  64  95 126 169 213 263 331 388
#     4  11  22  40  67  94 130 168 215 268 325 392
#     4  10  23  40  62  89 127 168 216 264 323 391
#
# _framework density 22.234389
#
# number of rings (size 3 to 8) (size 9 to 14) (size 15 to 20)
#    0.000    1.333    3.333    2.500    0.000    2.667 
#    3.000    2.500    0.000    0.000    0.000    0.000 
#    0.000    0.000    0.000    0.000    0.000    0.000 
#
# Total GULP energy -267753.543618 kJ/mol
# GULP energy per Si atom -5578.198825 kJ/mol
# Density = 2.218378 g / cm^3
# Si number density = 22.234389 Si / 1000 Ang^3
#
#
#
# Elastic Constant Matrix: (Units=GPa)
#
#
# Indices 1 2 3 4 5 6 
#
# 1 47.1086 9.0839 -14.5221 0.0000 0.0000 0.0000
# 2 9.0839 73.2545 -0.1570 0.0000 0.0000 0.0000
# 3 -14.5221 -0.1570 89.0268 0.0000 0.0000 0.0000
# 4 0.0000 0.0000 0.0000 19.0114 0.0000 0.0000
# 5 0.0000 0.0000 0.0000 0.0000 32.0531 0.0000
# 6 0.0000 0.0000 0.0000 0.0000 0.0000 17.3289
#
#
#
# Elastic Compliance Matrix: (Units=1/GPa)
#
#
# Indices 1 2 3 4 5 6 
#
# 1 0.022925 -0.002835 0.003735 0.000000 0.000000 0.000000
# 2 -0.002835 0.014002 -0.000438 0.000000 0.000000 0.000000
# 3 0.003735 -0.000438 0.011841 0.000000 0.000000 0.000000
# 4 0.000000 0.000000 0.000000 0.052600 0.000000 0.000000
# 5 0.000000 0.000000 0.000000 0.000000 0.031198 0.000000
# 6 0.000000 0.000000 0.000000 0.000000 0.000000 0.057707
#
#
# Mechanical properties :
#
#
# Convention : Reuss Voigt Hill
#
# Bulk Modulus (GPa) = 20.12391 22.02218 21.07304
# Shear Modulus (GPa) = 24.28206 28.01103 26.14654
#
# Velocity S-wave (km/s) = 3.30827 3.55323 3.43293
# Velocity P-wave (km/s) = 4.86450 5.17300 5.02112
#
# Compressibility (1/GPa) = 0.04969213
#
# Stress axis : x y z
#
# Youngs Moduli (GPa) = 43.61961 71.42026 84.45236
#
# Poissons Ratio (x) = 0.20247 -0.31540
# Poissons Ratio (y) = 0.12366 0.03697
# Poissons Ratio (z) = -0.16290 0.03126
#
# Static dielectric constant tensor:
#      x y z
#    x 1.874080 0.000000 0.000000 
#    y 0.000000 1.832150 0.000000 
#    z 0.000000 0.000000 1.856990 
# 
# From -- ./inp_files/13456.got.cif
#   From: 2010.05.17/outbox.cif.g08.bks.cpg/sg54_7_cif.got.tgz:13456.got - 2010.06.03 13:09:01.
