data_PCOD9422522
_publ_section_title
;
Structure prediction by ZEFSAII (Michael W. Deem and Ramdas Pophale) SiO2 
 PCOD9422522
Probable space group: P C C A
;
_chemical_formula_sum "Si O2"
_cell_formula_units_Z 40
_cell_length_a 8.171454
_cell_length_b 8.218328
_cell_length_c 23.964715
_cell_angle_alpha 90.000000
_cell_angle_beta 90.000000
_cell_angle_gamma 90.000000
_cell_volume 1609.366953
_symmetry_space_group_name_H-M "P C C A"
_symmetry_group_IT_number 54
_symmetry_cell_setting 'orthorhombic'
loop_
_space_group_symop_operation_xyz
x,y,z
1/2-x,-y,z
1/2+x,-y,1/2-z
-x,y,1/2-z
-x,-y,-z
1/2+x,y,-z
1/2-x,y,1/2+z
x,-y,1/2+z
loop_
_atom_site_type_symbol
_atom_site_label
_atom_site_fract_x
_atom_site_fract_y
_atom_site_fract_z
Si Si1 0.189236 0.683068 0.827729
Si Si2 0.678345 0.179781 0.279666
Si Si3 0.514820 0.174201 0.917832
Si Si4 0.816320 0.678930 0.484067
Si Si5 0.503367 0.203231 0.388203
O O1 0.250000 0.500000 0.836075
O O2 0.203614 0.723559 0.762324
O O3 0.024812 0.732316 0.859906
O O4 0.328418 0.788060 0.858685
O O5 0.500000 0.170270 0.250000
O O6 0.634925 0.248326 0.340326
O O7 0.750000 0.000000 0.286227
O O8 0.678448 0.228178 0.949004
O O9 0.522945 0.982762 0.907139
O O10 0.372780 0.225872 0.961283
O O11 0.750000 0.500000 0.495551
O O12 0.969765 0.680081 0.440944
#
# Coordination Sequence:
#
# PCOD9422522 Si02
#       5
#     8   8   8   8   8
#     4  11  23  42  67  95 130 173 222 283 347 401
#     4  10  21  40  64  93 128 168 219 274 334 408
#     4  12  24  43  68  98 136 181 227 276 334 405
#     4  12  25  42  66 100 139 177 224 280 338 398
#     4  11  24  43  65  96 132 175 228 277 334 410
#
# _framework density 24.854493000000002
#
# number of rings (size 3 to 8) (size 9 to 14) (size 15 to 20)
#    0.000    0.800    0.000    9.000    0.000    2.400 
#    0.000   11.000    0.000    0.000    0.000    0.000 
#    0.000    0.000    0.000    0.000    0.000    0.000 
#
# Total GULP energy -224254.656502 kJ/mol
# GULP energy per Si atom -5606.366413 kJ/mol
# Density = 2.479792 g / cm^3
# Si number density = 24.854493 Si / 1000 Ang^3
#
#
#
# Elastic Constant Matrix: (Units=GPa)
#
#
# Indices 1 2 3 4 5 6 
#
# 1 64.1463 14.3117 28.6128 0.0000 0.0000 0.0000
# 2 14.3117 78.5895 20.5964 0.0000 0.0000 0.0000
# 3 28.6128 20.5964 170.7454 0.0000 0.0000 0.0000
# 4 0.0000 0.0000 0.0000 -15.5345 0.0000 0.0000
# 5 0.0000 0.0000 0.0000 0.0000 41.5471 0.0000
# 6 0.0000 0.0000 0.0000 0.0000 0.0000 34.9767
#
#
#
# Elastic Compliance Matrix: (Units=1/GPa)
#
#
# Indices 1 2 3 4 5 6 
#
# 1 0.017301 -0.002469 -0.002601 0.000000 0.000000 0.000000
# 2 -0.002469 0.013492 -0.001214 0.000000 0.000000 0.000000
# 3 -0.002601 -0.001214 0.006439 0.000000 0.000000 0.000000
# 4 0.000000 0.000000 0.000000 -0.064373 0.000000 0.000000
# 5 0.000000 0.000000 0.000000 0.000000 0.024069 0.000000
# 6 0.000000 0.000000 0.000000 0.000000 0.000000 0.028590
#
#
# Mechanical properties :
#
#
# Convention : Reuss Voigt Hill
#
# Bulk Modulus (GPa) = 40.54537 48.94699 44.74618
# Shear Modulus (GPa) = 107.97397 28.86187 68.41792
#
# Velocity S-wave (km/s) = 6.59824 3.41138 5.25235
# Velocity P-wave (km/s) = 8.62540 5.93741 7.40440
#
# Compressibility (1/GPa) = 0.02466373
#
# Stress axis : x y z
#
# Youngs Moduli (GPa) = 57.80169 74.11778 155.30333
#
# Poissons Ratio (x) = 0.18298 0.40400
# Poissons Ratio (y) = 0.14270 0.18850
# Poissons Ratio (z) = 0.15036 0.08996
#
# Static dielectric constant tensor:
#      x y z
#    x 2.079990 0.000000 0.000000 
#    y 0.000000 1.864260 0.000000 
#    z 0.000000 0.000000 1.969510 
# 
# From -- ./inp_files/23239.got.cif
#   From: 2010.05.17/outbox.cif.g08.bks.cpg/sg54_12_cif.got.tgz:23239.got - 2010.06.03 13:09:01.
