data_PCOD9422078
_publ_section_title
;
Structure prediction by ZEFSAII (Michael W. Deem and Ramdas Pophale) SiO2 
 PCOD9422078
Probable space group: P C C A
;
_chemical_formula_sum "Si O2"
_cell_formula_units_Z 48
_cell_length_a 9.777127
_cell_length_b 17.288633
_cell_length_c 14.356738
_cell_angle_alpha 90.000000
_cell_angle_beta 90.000000
_cell_angle_gamma 90.000000
_cell_volume 2426.764799
_symmetry_space_group_name_H-M "P C C A"
_symmetry_group_IT_number 54
_symmetry_cell_setting 'orthorhombic'
loop_
_space_group_symop_operation_xyz
x,y,z
1/2-x,-y,z
1/2+x,-y,1/2-z
-x,y,1/2-z
-x,-y,-z
1/2+x,y,-z
1/2-x,y,1/2+z
x,-y,1/2+z
loop_
_atom_site_type_symbol
_atom_site_label
_atom_site_fract_x
_atom_site_fract_y
_atom_site_fract_z
Si Si1 0.345698 0.071592 0.359222
Si Si2 0.624497 0.551340 0.966899
Si Si3 0.002045 0.699129 0.559898
Si Si4 0.163416 0.074983 0.640524
Si Si5 0.745132 0.202686 0.507051
Si Si6 0.750000 0.500000 0.784061
Si Si7 0.000000 0.394515 0.250000
O O1 0.504928 0.053030 0.370731
O O2 0.315627 0.088916 0.250693
O O3 0.317715 0.145574 0.421395
O O4 0.250000 0.000000 0.386622
O O5 0.750000 0.500000 0.007302
O O6 0.660191 0.551081 0.857076
O O7 0.500000 0.500000 0.000000
O O8 0.578527 0.635435 0.998534
O O9 0.146355 0.730310 0.520813
O O10 0.023443 0.658151 0.659380
O O11 0.892574 0.768022 0.557342
O O12 0.203646 0.150495 0.581866
O O13 0.250000 0.000000 0.612590
O O14 0.636020 0.447434 0.734001
#
# Coordination Sequence:
#
# PCOD9422078 Si02
#       7
#     8   8   8   8   8   4   4
#     4  10  23  44  69  98 126 178 225 275 329 392
#     4  10  20  44  68  92 126 175 227 271 339 405
#     4  12  26  42  66  97 137 178 219 278 344 409
#     4  10  23  44  69  96 133 171 229 276 324 401
#     4  12  25  43  65  96 140 183 214 273 344 411
#     4  10  24  42  72  98 128 174 232 294 334 402
#     4  12  26  44  66 108 132 172 234 282 348 400
#
# _framework density 19.779418
#
# number of rings (size 3 to 8) (size 9 to 14) (size 15 to 20)
#    0.500    0.667    3.333    2.500    5.833    2.667 
#    0.000    0.000    0.000    0.000    0.000    0.000 
#    0.000    0.000    0.000    0.000    0.000    0.000 
#
# Total GULP energy -267726.192757 kJ/mol
# GULP energy per Si atom -5577.629016 kJ/mol
# Density = 1.973440 g / cm^3
# Si number density = 19.779418 Si / 1000 Ang^3
#
#
#
# Elastic Constant Matrix: (Units=GPa)
#
#
# Indices 1 2 3 4 5 6 
#
# 1 130.8392 40.2285 33.7888 0.0000 0.0000 0.0000
# 2 40.2285 80.6792 32.3975 0.0000 0.0000 0.0000
# 3 33.7888 32.3975 61.8163 0.0000 0.0000 0.0000
# 4 0.0000 0.0000 0.0000 44.6006 0.0000 0.0000
# 5 0.0000 0.0000 0.0000 0.0000 22.1906 0.0000
# 6 0.0000 0.0000 0.0000 0.0000 0.0000 46.3901
#
#
#
# Elastic Compliance Matrix: (Units=1/GPa)
#
#
# Indices 1 2 3 4 5 6 
#
# 1 0.009578 -0.003386 -0.003461 0.000000 0.000000 0.000000
# 2 -0.003386 0.016896 -0.007004 0.000000 0.000000 0.000000
# 3 -0.003461 -0.007004 0.021739 0.000000 0.000000 0.000000
# 4 0.000000 0.000000 0.000000 0.022421 0.000000 0.000000
# 5 0.000000 0.000000 0.000000 0.000000 0.045064 0.000000
# 6 0.000000 0.000000 0.000000 0.000000 0.000000 0.021556
#
#
# Mechanical properties :
#
#
# Convention : Reuss Voigt Hill
#
# Bulk Modulus (GPa) = 48.75364 54.01823 51.38594
# Shear Modulus (GPa) = 29.10482 33.76428 31.43455
#
# Velocity S-wave (km/s) = 3.84014 4.13612 3.99087
# Velocity P-wave (km/s) = 6.66066 7.08375 6.87546
#
# Compressibility (1/GPa) = 0.02051129
#
# Stress axis : x y z
#
# Youngs Moduli (GPa) = 104.40876 59.18670 45.99961
#
# Poissons Ratio (x) = 0.20041 0.15919
# Poissons Ratio (y) = 0.35353 0.32219
# Poissons Ratio (z) = 0.36132 0.41455
#
# Static dielectric constant tensor:
#      x y z
#    x 1.724490 0.000000 0.000000 
#    y 0.000000 1.704450 0.000000 
#    z 0.000000 0.000000 1.712800 
# 
# From -- ./inp_files/11783.got.cif
#   From: 2010.05.17/outbox.cif.g08.bks.cpg/sg54_6_cif.got.tgz:11783.got - 2010.06.03 13:09:01.
