data_PCOD9422182
_publ_section_title
;
Structure prediction by ZEFSAII (Michael W. Deem and Ramdas Pophale) SiO2 
 PCOD9422182
Probable space group: P C C A
;
_chemical_formula_sum "Si O2"
_cell_formula_units_Z 56
_cell_length_a 15.683641
_cell_length_b 9.433645
_cell_length_c 20.662235
_cell_angle_alpha 90.000000
_cell_angle_beta 90.000000
_cell_angle_gamma 90.000000
_cell_volume 3057.058282
_symmetry_space_group_name_H-M "P C C A"
_symmetry_group_IT_number 54
_symmetry_cell_setting 'orthorhombic'
loop_
_space_group_symop_operation_xyz
x,y,z
1/2-x,-y,z
1/2+x,-y,1/2-z
-x,y,1/2-z
-x,-y,-z
1/2+x,y,-z
1/2-x,y,1/2+z
x,-y,1/2+z
loop_
_atom_site_type_symbol
_atom_site_label
_atom_site_fract_x
_atom_site_fract_y
_atom_site_fract_z
Si Si1 0.670135 0.690784 0.972889
Si Si2 0.486616 0.145793 0.959369
Si Si3 0.415754 0.592767 0.004423
Si Si4 0.312929 0.134192 0.297491
Si Si5 0.289605 0.651381 0.908665
Si Si6 0.177919 0.121403 0.652550
Si Si7 0.009108 0.985414 0.822987
O O1 0.649889 0.522677 0.966270
O O2 0.685550 0.767255 0.905237
O O3 0.590269 0.771248 0.006031
O O4 0.744351 0.707120 0.025976
O O5 0.565171 0.257245 0.962208
O O6 0.468578 0.112344 0.884333
O O7 0.500000 0.000000 0.000000
O O8 0.500000 0.500000 0.000000
O O9 0.385903 0.627852 0.931762
O O10 0.281808 0.245129 0.349662
O O11 0.308582 0.186637 0.223736
O O12 0.250000 0.000000 0.301041
O O13 0.410351 0.090638 0.314329
O O14 0.250000 0.500000 0.893067
O O15 0.250000 0.000000 0.643445
O O16 0.081936 0.055323 0.657053
O O17 0.000000 0.921496 0.750000
#
# Coordination Sequence:
#
# PCOD9422182 Si02
#       7
#     8   8   8   8   8   8   8
#     4  10  21  37  58  85 118 152 197 240 301 350
#     4  11  19  33  60  87 111 152 197 241 291 346
#     4   9  21  36  55  81 119 149 189 245 297 349
#     4  10  21  39  62  86 118 155 196 245 302 352
#     4  10  21  37  58  84 111 153 194 241 288 358
#     4  10  22  37  58  90 120 153 194 250 295 352
#     4  10  21  36  57  87 120 152 193 245 296 349
#
# _framework density 18.318263999999999
#
# number of rings (size 3 to 8) (size 9 to 14) (size 15 to 20)
#    0.000    2.000    1.429    1.714    4.000    1.714 
#    0.000    2.143    9.429    0.000    0.000    0.000 
#    0.000    0.000    0.000    0.000    0.000    0.000 
#
# Total GULP energy -312014.265123 kJ/mol
# GULP energy per Si atom -5571.683306 kJ/mol
# Density = 1.827657 g / cm^3
# Si number density = 18.318264 Si / 1000 Ang^3
#
#
#
# Elastic Constant Matrix: (Units=GPa)
#
#
# Indices 1 2 3 4 5 6 
#
# 1 77.5301 21.8978 32.9058 0.0000 0.0000 0.0000
# 2 21.8978 91.9809 88.7052 0.0000 0.0000 0.0000
# 3 32.9058 88.7052 182.7500 0.0000 0.0000 0.0000
# 4 0.0000 0.0000 0.0000 28.0282 0.0000 0.0000
# 5 0.0000 0.0000 0.0000 0.0000 13.6616 0.0000
# 6 0.0000 0.0000 0.0000 0.0000 0.0000 16.9871
#
#
#
# Elastic Compliance Matrix: (Units=1/GPa)
#
#
# Indices 1 2 3 4 5 6 
#
# 1 0.014107 -0.001709 -0.001711 0.000000 0.000000 0.000000
# 2 -0.001709 0.020647 -0.009714 0.000000 0.000000 0.000000
# 3 -0.001711 -0.009714 0.010495 0.000000 0.000000 0.000000
# 4 0.000000 0.000000 0.000000 0.035678 0.000000 0.000000
# 5 0.000000 0.000000 0.000000 0.000000 0.073198 0.000000
# 6 0.000000 0.000000 0.000000 0.000000 0.000000 0.058868
#
#
# Mechanical properties :
#
#
# Convention : Reuss Voigt Hill
#
# Bulk Modulus (GPa) = 52.68183 71.03097 61.85640
# Shear Modulus (GPa) = 20.35938 25.65220 23.00579
#
# Velocity S-wave (km/s) = 3.33742 3.74620 3.54770
# Velocity P-wave (km/s) = 6.60854 7.58764 7.11495
#
# Compressibility (1/GPa) = 0.01898188
#
# Stress axis : x y z
#
# Youngs Moduli (GPa) = 70.88737 48.43383 95.28243
#
# Poissons Ratio (x) = 0.08275 0.16300
# Poissons Ratio (y) = 0.12112 0.92558
# Poissons Ratio (z) = 0.12127 0.47049
#
# Static dielectric constant tensor:
#      x y z
#    x 1.757980 0.000000 0.000000 
#    y 0.000000 1.626930 0.000000 
#    z 0.000000 0.000000 7.300440 
# 
# From -- ./inp_files/21873.got.cif
#   From: 2010.05.17/outbox.cif.g08.bks.cpg/sg54_11_cif.got.tgz:21873.got - 2010.06.03 13:09:01.
