data_PCOD9422480
_publ_section_title
;
Structure prediction by ZEFSAII (Michael W. Deem and Ramdas Pophale) SiO2 
 PCOD9422480
Probable space group: P C C A
;
_chemical_formula_sum "Si O2"
_cell_formula_units_Z 64
_cell_length_a 8.872998
_cell_length_b 17.147447
_cell_length_c 20.899367
_cell_angle_alpha 90.000000
_cell_angle_beta 90.000000
_cell_angle_gamma 90.000000
_cell_volume 3179.823285
_symmetry_space_group_name_H-M "P C C A"
_symmetry_group_IT_number 54
_symmetry_cell_setting 'orthorhombic'
loop_
_space_group_symop_operation_xyz
x,y,z
1/2-x,-y,z
1/2+x,-y,1/2-z
-x,y,1/2-z
-x,-y,-z
1/2+x,y,-z
1/2-x,y,1/2+z
x,-y,1/2+z
loop_
_atom_site_type_symbol
_atom_site_label
_atom_site_fract_x
_atom_site_fract_y
_atom_site_fract_z
Si Si1 0.599802 0.949971 0.950880
Si Si2 0.747487 0.209227 0.938798
Si Si3 0.018985 0.176348 0.173756
Si Si4 0.932065 0.996429 0.317460
Si Si5 0.597095 0.333333 0.629998
Si Si6 0.855054 0.431041 0.596741
Si Si7 0.921180 0.471986 0.318223
Si Si8 0.499892 0.305205 0.489570
O O1 0.665155 0.865502 0.967643
O O2 0.750000 0.000000 0.941987
O O3 0.528956 0.945433 0.879800
O O4 0.500000 0.000000 0.000000
O O5 0.669834 0.193249 0.869672
O O6 0.875613 0.274682 0.940019
O O7 0.615149 0.238108 0.986110
O O8 0.003572 0.083045 0.166553
O O9 0.000000 0.187977 0.250000
O O10 0.905909 0.242342 0.147444
O O11 0.000000 0.970013 0.250000
O O12 0.750000 0.000000 0.309125
O O13 0.749853 0.380019 0.644732
O O14 0.458802 0.382446 0.660512
O O15 0.578041 0.334971 0.553906
O O16 0.750000 0.500000 0.571285
O O17 0.911081 0.374736 0.542209
O O18 0.991224 0.472814 0.632333
O O19 0.750000 0.500000 0.315699
O O20 0.000000 0.481538 0.250000
#
# Coordination Sequence:
#
# PCOD9422480 Si02
#       8
#     8   8   8   8   8   8   8   8
#     4  11  22  39  64  97 131 170 221 274 330 399
#     4  11  22  40  64  95 133 177 215 277 334 404
#     4  10  21  39  68  90 123 173 227 268 335 398
#     4  10  21  41  64  92 131 176 222 276 332 402
#     4  10  22  40  63  91 128 174 218 272 335 403
#     4  10  23  42  61  92 132 168 221 272 326 404
#     4  11  24  41  66  93 129 172 223 280 337 399
#     4  11  23  39  64  95 136 170 216 271 338 396
#
# _framework density 20.126904
#
# number of rings (size 3 to 8) (size 9 to 14) (size 15 to 20)
#    0.000    1.500    3.750    2.250    5.250    3.000 
#    0.000    2.500    0.000    0.750    0.000    0.000 
#    0.000    0.000    0.000    0.000    0.000    0.000 
#
# Total GULP energy -356694.068291 kJ/mol
# GULP energy per Si atom -5573.344817 kJ/mol
# Density = 2.008109 g / cm^3
# Si number density = 20.126904 Si / 1000 Ang^3
#
#
#
# Elastic Constant Matrix: (Units=GPa)
#
#
# Indices 1 2 3 4 5 6 
#
# 1 75.9549 16.5349 25.5555 0.0000 0.0000 0.0000
# 2 16.5349 62.1351 7.6899 0.0000 0.0000 0.0000
# 3 25.5555 7.6899 91.6891 0.0000 0.0000 0.0000
# 4 0.0000 0.0000 0.0000 -110.7365 0.0000 0.0000
# 5 0.0000 0.0000 0.0000 0.0000 -8.4576 0.0000
# 6 0.0000 0.0000 0.0000 0.0000 0.0000 27.4073
#
#
#
# Elastic Compliance Matrix: (Units=1/GPa)
#
#
# Indices 1 2 3 4 5 6 
#
# 1 0.015276 -0.003575 -0.003958 0.000000 0.000000 0.000000
# 2 -0.003575 0.017100 -0.000438 0.000000 0.000000 0.000000
# 3 -0.003958 -0.000438 0.012046 0.000000 0.000000 0.000000
# 4 0.000000 0.000000 0.000000 -0.009030 0.000000 0.000000
# 5 0.000000 0.000000 0.000000 0.000000 -0.118236 0.000000
# 6 0.000000 0.000000 0.000000 0.000000 0.000000 0.036487
#
#
# Mechanical properties :
#
#
# Convention : Reuss Voigt Hill
#
# Bulk Modulus (GPa) = 35.11214 36.59327 35.85271
# Shear Modulus (GPa) = -238.95763 -6.35744 -122.65754
#
# Velocity S-wave (km/s) = -10.90794 -1.77920 -7.81501
# Velocity P-wave (km/s) = 11.88112 3.74166 7.97374
#
# Compressibility (1/GPa) = 0.02848018
#
# Stress axis : x y z
#
# Youngs Moduli (GPa) = 65.46374 58.48111 83.01350
#
# Poissons Ratio (x) = 0.20908 0.32855
# Poissons Ratio (y) = 0.23405 0.03633
# Poissons Ratio (z) = 0.25909 0.02559
#
# Static dielectric constant tensor:
#      x y z
#    x 1.737290 0.000000 0.000000 
#    y 0.000000 1.071370 0.000000 
#    z 0.000000 0.000000 1.739580 
# 
# From -- ./inp_files/20677.got.cif
#   From: 2010.05.17/outbox.cif.g08.bks.cpg/sg54_11_cif.got.tgz:20677.got - 2010.06.03 13:09:01.
