data_PCOD9422434
_publ_section_title
;
Structure prediction by ZEFSAII (Michael W. Deem and Ramdas Pophale) SiO2 
 PCOD9422434
Probable space group: P C C A
;
_chemical_formula_sum "Si O2"
_cell_formula_units_Z 40
_cell_length_a 5.122622
_cell_length_b 27.037801
_cell_length_c 12.079805
_cell_angle_alpha 90.000000
_cell_angle_beta 90.000000
_cell_angle_gamma 90.000000
_cell_volume 1673.106557
_symmetry_space_group_name_H-M "P C C A"
_symmetry_group_IT_number 54
_symmetry_cell_setting 'orthorhombic'
loop_
_space_group_symop_operation_xyz
x,y,z
1/2-x,-y,z
1/2+x,-y,1/2-z
-x,y,1/2-z
-x,-y,-z
1/2+x,y,-z
1/2-x,y,1/2+z
x,-y,1/2+z
loop_
_atom_site_type_symbol
_atom_site_label
_atom_site_fract_x
_atom_site_fract_y
_atom_site_fract_z
Si Si1 0.250000 0.500000 0.421136
Si Si2 0.816285 0.948165 0.926176
Si Si3 0.000000 0.318276 0.750000
Si Si4 0.248093 0.841292 0.676030
Si Si5 0.216626 0.257478 0.064006
Si Si6 0.237603 0.391282 0.420592
O O1 0.500000 0.500000 0.500000
O O2 0.250674 0.446286 0.365501
O O3 0.766610 0.897986 0.861426
O O4 0.750000 0.000000 0.866183
O O5 0.611126 0.948021 0.028612
O O6 0.818118 0.284027 0.826423
O O7 0.820918 0.352606 0.672282
O O8 0.500000 0.833812 0.750000
O O9 0.244195 0.801559 0.578651
O O10 0.000000 0.829597 0.750000
O O11 0.424720 0.270971 0.969192
O O12 0.457223 0.386843 0.518536
#
# Coordination Sequence:
#
# PCOD9422434 Si02
#       6
#     4   8   4   8   8   8
#     4   8  16  36  64  90 128 168 212 260 324 392
#     4  10  21  39  63  92 129 173 220 273 341 411
#     4  12  26  44  70 102 138 176 238 280 336 414
#     4  12  24  42  66  96 131 170 229 284 335 410
#     4  12  27  46  69  96 136 183 226 286 347 404
#     4  10  22  42  66  98 134 175 217 274 331 391
#
# _framework density 23.907622
#
# number of rings (size 3 to 8) (size 9 to 14) (size 15 to 20)
#    0.000    1.200    1.000    4.800    0.000    3.200 
#    0.000    6.000    0.000    0.000    0.000    0.000 
#    0.000    0.000    0.000    0.000    0.000    0.000 
#
# Total GULP energy -224080.156145 kJ/mol
# GULP energy per Si atom -5602.003904 kJ/mol
# Density = 2.385321 g / cm^3
# Si number density = 23.907622 Si / 1000 Ang^3
#
#
#
# Elastic Constant Matrix: (Units=GPa)
#
#
# Indices 1 2 3 4 5 6 
#
# 1 140.2245 8.8722 20.0945 0.0000 0.0000 0.0000
# 2 8.8722 153.8534 34.4602 0.0000 0.0000 0.0000
# 3 20.0945 34.4602 57.7550 0.0000 0.0000 0.0000
# 4 0.0000 0.0000 0.0000 31.6150 0.0000 0.0000
# 5 0.0000 0.0000 0.0000 0.0000 25.9015 0.0000
# 6 0.0000 0.0000 0.0000 0.0000 0.0000 32.1889
#
#
#
# Elastic Compliance Matrix: (Units=1/GPa)
#
#
# Indices 1 2 3 4 5 6 
#
# 1 0.007510 0.000176 -0.002718 0.000000 0.000000 0.000000
# 2 0.000176 0.007506 -0.004540 0.000000 0.000000 0.000000
# 3 -0.002718 -0.004540 0.020969 0.000000 0.000000 0.000000
# 4 0.000000 0.000000 0.000000 0.031631 0.000000 0.000000
# 5 0.000000 0.000000 0.000000 0.000000 0.038608 0.000000
# 6 0.000000 0.000000 0.000000 0.000000 0.000000 0.031067
#
#
# Mechanical properties :
#
#
# Convention : Reuss Voigt Hill
#
# Bulk Modulus (GPa) = 45.82698 53.18740 49.50719
# Shear Modulus (GPa) = 31.50051 37.16813 34.33432
#
# Velocity S-wave (km/s) = 3.63380 3.94719 3.79373
# Velocity P-wave (km/s) = 6.06762 6.56270 6.32001
#
# Compressibility (1/GPa) = 0.02182121
#
# Stress axis : x y z
#
# Youngs Moduli (GPa) = 133.16013 133.21943 47.68980
#
# Poissons Ratio (x) = -0.02340 0.12960
# Poissons Ratio (y) = -0.02339 0.21651
# Poissons Ratio (z) = 0.36188 0.60480
#
# Static dielectric constant tensor:
#      x y z
#    x 1.844760 0.000000 0.000000 
#    y 0.000000 1.966230 0.000000 
#    z 0.000000 0.000000 1.877630 
# 
# From -- ./inp_files/6470.got.cif
#   From: 2010.05.17/outbox.cif.g08.bks.cpg/sg54_4_cif.got.tgz:6470.got - 2010.06.03 13:09:01.
