data_PCOD9422979
_publ_section_title
;
Structure prediction by ZEFSAII (Michael W. Deem and Ramdas Pophale) SiO2 
 PCOD9422979
Probable space group: P C C A
;
_chemical_formula_sum "Si O2"
_cell_formula_units_Z 40
_cell_length_a 5.790383
_cell_length_b 11.130475
_cell_length_c 25.876062
_cell_angle_alpha 90.000000
_cell_angle_beta 90.000000
_cell_angle_gamma 90.000000
_cell_volume 1667.704775
_symmetry_space_group_name_H-M "P C C A"
_symmetry_group_IT_number 54
_symmetry_cell_setting 'orthorhombic'
loop_
_space_group_symop_operation_xyz
x,y,z
1/2-x,-y,z
1/2+x,-y,1/2-z
-x,y,1/2-z
-x,-y,-z
1/2+x,y,-z
1/2-x,y,1/2+z
x,-y,1/2+z
loop_
_atom_site_type_symbol
_atom_site_label
_atom_site_fract_x
_atom_site_fract_y
_atom_site_fract_z
Si Si1 0.785439 0.143664 0.477607
Si Si2 0.843056 0.868844 0.201822
Si Si3 0.997269 0.644422 0.808158
Si Si4 0.637776 0.772727 0.873778
Si Si5 0.988525 0.473094 0.591186
O O1 0.528014 0.185996 0.496760
O O2 0.806572 0.182068 0.417898
O O3 0.750000 0.000000 0.482425
O O4 0.670696 0.757678 0.193758
O O5 0.000000 0.837255 0.250000
O O6 0.988339 0.879070 0.149167
O O7 0.750000 0.000000 0.213635
O O8 0.761772 0.707836 0.825994
O O9 0.000000 0.591532 0.750000
O O10 0.028117 0.548989 0.854670
O O11 0.484274 0.667637 0.897543
O O12 0.750000 0.500000 0.561431
O O13 0.250000 0.500000 0.571042
#
# Coordination Sequence:
#
# PCOD9422979 Si02
#       5
#     8   8   8   8   8
#     4  10  25  46  73 104 137 181 240 300 364 433
#     4  12  26  39  61  97 143 186 233 281 348 429
#     4  11  23  41  65  95 141 188 236 279 340 417
#     4  11  25  43  69  99 138 182 234 296 359 414
#     4  10  22  40  64  97 131 179 231 282 329 406
#
# _framework density 23.985059
#
# number of rings (size 3 to 8) (size 9 to 14) (size 15 to 20)
#    0.000    1.200    4.000    0.600    5.600    4.000 
#    0.000    0.000    0.000   15.600    0.000    0.000 
#    0.000    0.000    0.000    0.000    0.000    0.000 
#
# Total GULP energy -223138.361730 kJ/mol
# GULP energy per Si atom -5578.459043 kJ/mol
# Density = 2.393047 g / cm^3
# Si number density = 23.985059 Si / 1000 Ang^3
#
#
#
# Elastic Constant Matrix: (Units=GPa)
#
#
# Indices 1 2 3 4 5 6 
#
# 1 138.8392 27.1918 21.7295 0.0000 0.0000 0.0000
# 2 27.1918 40.0889 20.9616 0.0000 0.0000 0.0000
# 3 21.7295 20.9616 68.2353 0.0000 0.0000 0.0000
# 4 0.0000 0.0000 0.0000 -44.4579 0.0000 0.0000
# 5 0.0000 0.0000 0.0000 0.0000 24.1124 0.0000
# 6 0.0000 0.0000 0.0000 0.0000 0.0000 39.1372
#
#
#
# Elastic Compliance Matrix: (Units=1/GPa)
#
#
# Indices 1 2 3 4 5 6 
#
# 1 0.008374 -0.005106 -0.001098 0.000000 0.000000 0.000000
# 2 -0.005106 0.032831 -0.008460 0.000000 0.000000 0.000000
# 3 -0.001098 -0.008460 0.017604 0.000000 0.000000 0.000000
# 4 0.000000 0.000000 0.000000 -0.022493 0.000000 0.000000
# 5 0.000000 0.000000 0.000000 0.000000 0.041472 0.000000
# 6 0.000000 0.000000 0.000000 0.000000 0.000000 0.025551
#
#
# Mechanical properties :
#
#
# Convention : Reuss Voigt Hill
#
# Bulk Modulus (GPa) = 33.91952 42.99212 38.45582
# Shear Modulus (GPa) = 35.08894 15.57703 25.33298
#
# Velocity S-wave (km/s) = 3.82900 2.55119 3.25345
# Velocity P-wave (km/s) = 5.80698 5.16155 5.49375
#
# Compressibility (1/GPa) = 0.02948155
#
# Stress axis : x y z
#
# Youngs Moduli (GPa) = 119.41023 30.45872 56.80622
#
# Poissons Ratio (x) = 0.15552 0.06239
# Poissons Ratio (y) = 0.60971 0.48056
# Poissons Ratio (z) = 0.13115 0.25767
#
# Static dielectric constant tensor:
#      x y z
#    x 2.135750 0.000000 0.000000 
#    y 0.000000 1.881010 0.000000 
#    z 0.000000 0.000000 1.909240 
# 
# From -- ./inp_files/25150.got.cif
#   From: 2010.05.17/outbox.cif.g08.bks.cpg/sg54_13_cif.got.tgz:25150.got - 2010.06.03 13:09:01.
