data_PCOD9422920
_publ_section_title
;
Structure prediction by ZEFSAII (Michael W. Deem and Ramdas Pophale) SiO2 
 PCOD9422920
Probable space group: P C C A
;
_chemical_formula_sum "Si O2"
_cell_formula_units_Z 36
_cell_length_a 5.095953
_cell_length_b 17.085110
_cell_length_c 22.792967
_cell_angle_alpha 90.000000
_cell_angle_beta 90.000000
_cell_angle_gamma 90.000000
_cell_volume 1984.467793
_symmetry_space_group_name_H-M "P C C A"
_symmetry_group_IT_number 54
_symmetry_cell_setting 'orthorhombic'
loop_
_space_group_symop_operation_xyz
x,y,z
1/2-x,-y,z
1/2+x,-y,1/2-z
-x,y,1/2-z
-x,-y,-z
1/2+x,y,-z
1/2-x,y,1/2+z
x,-y,1/2+z
loop_
_atom_site_type_symbol
_atom_site_label
_atom_site_fract_x
_atom_site_fract_y
_atom_site_fract_z
Si Si1 0.000000 0.053381 0.250000
Si Si2 0.500258 0.549059 0.821341
Si Si3 0.734362 0.906238 0.035753
Si Si4 0.538619 0.730150 0.679485
Si Si5 0.540257 0.824034 0.353736
O O1 0.941231 0.108287 0.305136
O O2 0.750000 0.000000 0.237020
O O3 0.750000 0.500000 0.841050
O O4 0.500000 0.549575 0.750000
O O5 0.497404 0.639794 0.838171
O O6 0.250000 0.500000 0.840956
O O7 0.596228 0.862646 0.089612
O O8 0.750000 0.000000 0.046455
O O9 0.533633 0.887748 0.982067
O O10 0.500000 0.737873 0.750000
O O11 0.325231 0.783429 0.645718
O O12 0.831845 0.759053 0.667296
#
# Coordination Sequence:
#
# PCOD9422920 Si02
#       5
#     4   8   8   8   8
#     4  12  24  36  52  76 108 146 180 212 262 332
#     4   9  17  29  47  72 105 148 183 209 247 318
#     4  10  22  40  59  78 102 140 188 241 285 315
#     4  11  20  34  52  79 117 148 177 216 275 325
#     4  12  22  37  55  80 111 145 182 226 275 331
#
# _framework density 18.140884
#
# number of rings (size 3 to 8) (size 9 to 14) (size 15 to 20)
#    0.000    1.333    2.222    4.667    0.000    6.222 
#    0.000    0.000    0.000    0.000    0.000    0.000 
#    0.000   62.222    0.000    0.000    0.000    0.000 
#
# Total GULP energy -200902.920366 kJ/mol
# GULP energy per Si atom -5580.636677 kJ/mol
# Density = 1.809959 g / cm^3
# Si number density = 18.140884 Si / 1000 Ang^3
#
#
#
# Elastic Constant Matrix: (Units=GPa)
#
#
# Indices 1 2 3 4 5 6 
#
# 1 99.0627 27.7859 -14.6416 0.0000 0.0000 0.0000
# 2 27.7859 102.1580 14.9909 0.0000 0.0000 0.0000
# 3 -14.6416 14.9909 38.2517 0.0000 0.0000 0.0000
# 4 0.0000 0.0000 0.0000 11.1792 0.0000 0.0000
# 5 0.0000 0.0000 0.0000 0.0000 17.6637 0.0000
# 6 0.0000 0.0000 0.0000 0.0000 0.0000 -5.4185
#
#
#
# Elastic Compliance Matrix: (Units=1/GPa)
#
#
# Indices 1 2 3 4 5 6 
#
# 1 0.012227 -0.004257 0.006349 0.000000 0.000000 0.000000
# 2 -0.004257 0.011868 -0.006281 0.000000 0.000000 0.000000
# 3 0.006349 -0.006281 0.031034 0.000000 0.000000 0.000000
# 4 0.000000 0.000000 0.000000 0.089452 0.000000 0.000000
# 5 0.000000 0.000000 0.000000 0.000000 0.056613 0.000000
# 6 0.000000 0.000000 0.000000 0.000000 0.000000 -0.184553
#
#
# Mechanical properties :
#
#
# Convention : Reuss Voigt Hill
#
# Bulk Modulus (GPa) = 21.39008 32.86030 27.12519
# Shear Modulus (GPa) = 123.13931 18.77402 70.95667
#
# Velocity S-wave (km/s) = 8.24784 3.22048 6.26092
# Velocity P-wave (km/s) = 10.12517 5.65525 8.20064
#
# Compressibility (1/GPa) = 0.04675065
#
# Stress axis : x y z
#
# Youngs Moduli (GPa) = 81.78591 84.25790 32.22261
#
# Poissons Ratio (x) = 0.35870 -0.20457
# Poissons Ratio (y) = 0.34818 0.20238
# Poissons Ratio (z) = -0.51922 0.52920
#
# Static dielectric constant tensor:
#      x y z
#    x 1.532900 0.000000 0.000000 
#    y 0.000000 1.602750 0.000000 
#    z 0.000000 0.000000 1.630010 
# 
# From -- ./inp_files/19598.got.cif
#   From: 2010.05.17/outbox.cif.g08.bks.cpg/sg54_10_cif.got.tgz:19598.got - 2010.06.03 13:09:01.
