data_PCOD9422720
_publ_section_title
;
Structure prediction by ZEFSAII (Michael W. Deem and Ramdas Pophale) SiO2 
 PCOD9422720
Probable space group: P C C A
;
_chemical_formula_sum "Si O2"
_cell_formula_units_Z 56
_cell_length_a 14.284746
_cell_length_b 14.498006
_cell_length_c 10.845404
_cell_angle_alpha 90.000000
_cell_angle_beta 90.000000
_cell_angle_gamma 90.000000
_cell_volume 2246.086782
_symmetry_space_group_name_H-M "P C C A"
_symmetry_group_IT_number 54
_symmetry_cell_setting 'orthorhombic'
loop_
_space_group_symop_operation_xyz
x,y,z
1/2-x,-y,z
1/2+x,-y,1/2-z
-x,y,1/2-z
-x,-y,-z
1/2+x,y,-z
1/2-x,y,1/2+z
x,-y,1/2+z
loop_
_atom_site_type_symbol
_atom_site_label
_atom_site_fract_x
_atom_site_fract_y
_atom_site_fract_z
Si Si1 0.652891 0.945817 0.274380
Si Si2 0.887008 0.285682 0.673392
Si Si3 0.942124 0.790456 0.439376
Si Si4 0.550315 0.512363 0.626504
Si Si5 0.636325 0.989331 0.020184
Si Si6 0.896738 0.247951 0.206962
Si Si7 0.212536 0.591881 0.779847
O O1 0.667015 0.841653 0.228839
O O2 0.750000 0.000000 0.290875
O O3 0.607778 0.943908 0.409155
O O4 0.601131 0.996099 0.160711
O O5 0.897427 0.247152 0.812138
O O6 0.942800 0.379372 0.647766
O O7 0.784274 0.332348 0.664551
O O8 0.945212 0.215564 0.586076
O O9 0.899298 0.890979 0.468227
O O10 0.910826 0.733666 0.560910
O O11 0.500000 0.476029 0.750000
O O12 0.500000 0.500000 0.500000
O O13 0.650682 0.463559 0.621605
O O14 0.750000 0.000000 0.034818
O O15 0.858303 0.335432 0.282432
O O16 0.000000 0.220729 0.250000
O O17 0.250000 0.500000 0.707455
#
# Coordination Sequence:
#
# PCOD9422720 Si02
#       7
#     8   8   8   8   8   8   8
#     4   9  20  41  66 102 140 185 233 294 365 437
#     4  10  22  44  66 102 135 186 248 296 364 445
#     4  10  21  44  71  98 142 196 244 299 373 448
#     4  11  22  44  72  99 144 189 238 306 376 445
#     4   9  19  38  68 101 140 185 236 296 363 439
#     4  11  24  47  68 103 146 191 241 306 372 441
#     4  10  24  43  67 109 138 188 248 308 369 441
#
# _framework density 24.932251000000001
#
# number of rings (size 3 to 8) (size 9 to 14) (size 15 to 20)
#    0.000    2.000    1.429    1.286    4.000    0.000 
#   15.429    1.429    0.000    0.000    0.000    0.000 
#    0.000    0.000    0.000    0.000    0.000    0.000 
#
# Total GULP energy -311926.026824 kJ/mol
# GULP energy per Si atom -5570.107622 kJ/mol
# Density = 2.487550 g / cm^3
# Si number density = 24.932251 Si / 1000 Ang^3
#
#
#
# Elastic Constant Matrix: (Units=GPa)
#
#
# Indices 1 2 3 4 5 6 
#
# 1 96.8743 33.9814 18.8733 0.0000 0.0000 0.0000
# 2 33.9814 127.1536 28.5538 0.0000 0.0000 0.0000
# 3 18.8733 28.5538 165.0509 0.0000 0.0000 0.0000
# 4 0.0000 0.0000 0.0000 18.2446 0.0000 0.0000
# 5 0.0000 0.0000 0.0000 0.0000 14.3205 0.0000
# 6 0.0000 0.0000 0.0000 0.0000 0.0000 49.5510
#
#
#
# Elastic Compliance Matrix: (Units=1/GPa)
#
#
# Indices 1 2 3 4 5 6 
#
# 1 0.011495 -0.002889 -0.000815 0.000000 0.000000 0.000000
# 2 -0.002889 0.008908 -0.001211 0.000000 0.000000 0.000000
# 3 -0.000815 -0.001211 0.006361 0.000000 0.000000 0.000000
# 4 0.000000 0.000000 0.000000 0.054811 0.000000 0.000000
# 5 0.000000 0.000000 0.000000 0.000000 0.069830 0.000000
# 6 0.000000 0.000000 0.000000 0.000000 0.000000 0.020181
#
#
# Mechanical properties :
#
#
# Convention : Reuss Voigt Hill
#
# Bulk Modulus (GPa) = 59.04671 61.32174 60.18422
# Shear Modulus (GPa) = 26.72929 36.93457 31.83193
#
# Velocity S-wave (km/s) = 3.27781 3.85307 3.57702
# Velocity P-wave (km/s) = 6.16925 6.66660 6.42274
#
# Compressibility (1/GPa) = 0.01693574
#
# Stress axis : x y z
#
# Youngs Moduli (GPa) = 86.99612 112.25257 157.19913
#
# Poissons Ratio (x) = 0.32430 0.12806
# Poissons Ratio (y) = 0.25133 0.19034
# Poissons Ratio (z) = 0.07087 0.13592
#
# Static dielectric constant tensor:
#      x y z
#    x 1.927240 0.000000 0.000000 
#    y 0.000000 2.063660 0.000000 
#    z 0.000000 0.000000 1.974580 
# 
# From -- ./inp_files/8443.got.cif
#   From: 2010.05.17/outbox.cif.g08.bks.cpg/sg54_5_cif.got.tgz:8443.got - 2010.06.03 13:09:01.
