data_PCOD9422554
_publ_section_title
;
Structure prediction by ZEFSAII (Michael W. Deem and Ramdas Pophale) SiO2 
 PCOD9422554
Probable space group: P C C A
;
_chemical_formula_sum "Si O2"
_cell_formula_units_Z 48
_cell_length_a 17.826017
_cell_length_b 7.893023
_cell_length_c 15.891960
_cell_angle_alpha 90.000000
_cell_angle_beta 90.000000
_cell_angle_gamma 90.000000
_cell_volume 2236.017241
_symmetry_space_group_name_H-M "P C C A"
_symmetry_group_IT_number 54
_symmetry_cell_setting 'orthorhombic'
loop_
_space_group_symop_operation_xyz
x,y,z
1/2-x,-y,z
1/2+x,-y,1/2-z
-x,y,1/2-z
-x,-y,-z
1/2+x,y,-z
1/2-x,y,1/2+z
x,-y,1/2+z
loop_
_atom_site_type_symbol
_atom_site_label
_atom_site_fract_x
_atom_site_fract_y
_atom_site_fract_z
Si Si1 0.413681 0.905732 0.768625
Si Si2 0.165532 0.939645 0.103057
Si Si3 0.836931 0.464715 0.884030
Si Si4 0.838982 0.456025 0.702797
Si Si5 0.073399 0.046042 0.947846
Si Si6 0.923982 0.434303 0.540981
O O1 0.500000 0.849080 0.750000
O O2 0.384294 0.994382 0.683449
O O3 0.356167 0.747302 0.786050
O O4 0.415231 0.020245 0.853080
O O5 0.153709 0.736060 0.100435
O O6 0.250000 0.000000 0.118604
O O7 0.139783 0.008728 0.012666
O O8 0.750000 0.500000 0.876882
O O9 0.868545 0.520238 0.793363
O O10 0.867206 0.562499 0.963640
O O11 0.750000 0.500000 0.692421
O O12 0.885961 0.519353 0.622378
O O13 0.062379 0.243980 0.931681
O O14 0.000000 0.000000 0.000000
O O15 0.000000 0.500000 0.500000
#
# Coordination Sequence:
#
# PCOD9422554 Si02
#       6
#     8   8   8   8   8   8
#     4  10  21  40  68  89 126 174 212 262 319 383
#     4  11  23  40  65  95 126 164 212 263 318 379
#     4  10  21  41  62  87 123 163 206 255 316 374
#     4   9  21  38  63  88 120 164 209 257 313 377
#     4  11  22  41  63  92 127 166 215 257 318 376
#     4  11  23  37  61  92 123 167 206 257 312 374
#
# _framework density 21.466740999999999
#
# number of rings (size 3 to 8) (size 9 to 14) (size 15 to 20)
#    0.000    1.667    1.667    2.500    7.000    2.000 
#    0.000   15.000    0.000    0.000    0.000    0.000 
#    0.000    0.000    0.000    0.000    0.000    0.000 
#
# Total GULP energy -267537.529359 kJ/mol
# GULP energy per Si atom -5573.698528 kJ/mol
# Density = 2.141788 g / cm^3
# Si number density = 21.466741 Si / 1000 Ang^3
#
#
#
# Elastic Constant Matrix: (Units=GPa)
#
#
# Indices 1 2 3 4 5 6 
#
# 1 89.5637 2.9123 32.6814 0.0000 0.0000 0.0000
# 2 2.9123 22.3423 -2.3649 0.0000 0.0000 0.0000
# 3 32.6814 -2.3649 160.8992 0.0000 0.0000 0.0000
# 4 0.0000 0.0000 0.0000 24.5302 0.0000 0.0000
# 5 0.0000 0.0000 0.0000 0.0000 22.2738 0.0000
# 6 0.0000 0.0000 0.0000 0.0000 0.0000 31.0171
#
#
#
# Elastic Compliance Matrix: (Units=1/GPa)
#
#
# Indices 1 2 3 4 5 6 
#
# 1 0.012135 -0.001845 -0.002492 0.000000 0.000000 0.000000
# 2 -0.001845 0.045109 0.001038 0.000000 0.000000 0.000000
# 3 -0.002492 0.001038 0.006736 0.000000 0.000000 0.000000
# 4 0.000000 0.000000 0.000000 0.040766 0.000000 0.000000
# 5 0.000000 0.000000 0.000000 0.000000 0.044896 0.000000
# 6 0.000000 0.000000 0.000000 0.000000 0.000000 0.032240
#
#
# Mechanical properties :
#
#
# Convention : Reuss Voigt Hill
#
# Bulk Modulus (GPa) = 17.42749 37.69586 27.56167
# Shear Modulus (GPa) = 24.08389 31.53596 27.80992
#
# Velocity S-wave (km/s) = 3.35314 3.83699 3.60319
# Velocity P-wave (km/s) = 4.80909 6.10150 5.49343
#
# Compressibility (1/GPa) = 0.05738062
#
# Stress axis : x y z
#
# Youngs Moduli (GPa) = 82.40953 22.16871 148.44582
#
# Poissons Ratio (x) = 0.04091 0.36991
# Poissons Ratio (y) = 0.15209 -0.15406
# Poissons Ratio (z) = 0.20535 -0.02301
#
# Static dielectric constant tensor:
#      x y z
#    x 1.894150 0.000000 0.000000 
#    y 0.000000 1.780260 0.000000 
#    z 0.000000 0.000000 1.615420 
# 
# From -- ./inp_files/14150.got.cif
#   From: 2010.05.17/outbox.cif.g08.bks.cpg/sg54_8_cif.got.tgz:14150.got - 2010.06.03 13:09:01.
