data_PCOD9422128
_publ_section_title
;
Structure prediction by ZEFSAII (Michael W. Deem and Ramdas Pophale) SiO2 
 PCOD9422128
Probable space group: P C C A
;
_chemical_formula_sum "Si O2"
_cell_formula_units_Z 40
_cell_length_a 11.965188
_cell_length_b 10.635667
_cell_length_c 13.475893
_cell_angle_alpha 90.000000
_cell_angle_beta 90.000000
_cell_angle_gamma 90.000000
_cell_volume 1714.911892
_symmetry_space_group_name_H-M "P C C A"
_symmetry_group_IT_number 54
_symmetry_cell_setting 'orthorhombic'
loop_
_space_group_symop_operation_xyz
x,y,z
1/2-x,-y,z
1/2+x,-y,1/2-z
-x,y,1/2-z
-x,-y,-z
1/2+x,y,-z
1/2-x,y,1/2+z
x,-y,1/2+z
loop_
_atom_site_type_symbol
_atom_site_label
_atom_site_fract_x
_atom_site_fract_y
_atom_site_fract_z
Si Si1 0.699665 0.771635 0.628280
Si Si2 0.349843 0.176576 0.041248
Si Si3 0.291655 0.356990 0.687830
Si Si4 0.957349 0.360843 0.479477
Si Si5 0.617185 0.032337 0.271655
O O1 0.766832 0.853587 0.548421
O O2 0.783802 0.705085 0.704697
O O3 0.637474 0.668604 0.561488
O O4 0.612435 0.849503 0.695191
O O5 0.288503 0.272662 0.117507
O O6 0.451839 0.253657 0.996397
O O7 0.385109 0.062827 0.111394
O O8 0.250000 0.500000 0.691673
O O9 0.408014 0.353950 0.630672
O O10 0.000000 0.500000 0.500000
O O11 0.500000 0.959609 0.250000
O O12 0.750000 0.000000 0.255639
#
# Coordination Sequence:
#
# PCOD9422128 Si02
#       5
#     8   8   8   8   8
#     4  10  24  42  64  97 141 177 232 301 351 436
#     4  10  22  43  65  95 139 176 227 294 354 431
#     4  10  21  35  58  95 137 182 229 273 347 435
#     4  11  21  38  65  95 138 190 227 281 363 435
#     4  11  24  50  76 102 137 187 243 309 369 421
#
# _framework density 23.324814
#
# number of rings (size 3 to 8) (size 9 to 14) (size 15 to 20)
#    0.000    1.600    4.000    0.000    2.800    1.600 
#   10.800    2.000    0.000    0.000    0.000    0.000 
#    0.000    0.000    0.000    0.000    0.000    0.000 
#
# Total GULP energy -223376.502475 kJ/mol
# GULP energy per Si atom -5584.412562 kJ/mol
# Density = 2.327173 g / cm^3
# Si number density = 23.324814 Si / 1000 Ang^3
#
#
#
# Elastic Constant Matrix: (Units=GPa)
#
#
# Indices 1 2 3 4 5 6 
#
# 1 124.2491 24.7254 53.7756 0.0000 0.0000 0.0000
# 2 24.7254 41.3969 28.5610 0.0000 0.0000 0.0000
# 3 53.7756 28.5610 153.4555 0.0000 0.0000 0.0000
# 4 0.0000 0.0000 0.0000 5.2449 0.0000 0.0000
# 5 0.0000 0.0000 0.0000 0.0000 28.7369 0.0000
# 6 0.0000 0.0000 0.0000 0.0000 0.0000 29.7236
#
#
#
# Elastic Compliance Matrix: (Units=1/GPa)
#
#
# Indices 1 2 3 4 5 6 
#
# 1 0.010060 -0.004103 -0.002762 0.000000 0.000000 0.000000
# 2 -0.004103 0.029389 -0.004032 0.000000 0.000000 0.000000
# 3 -0.002762 -0.004032 0.008235 0.000000 0.000000 0.000000
# 4 0.000000 0.000000 0.000000 0.190662 0.000000 0.000000
# 5 0.000000 0.000000 0.000000 0.000000 0.034798 0.000000
# 6 0.000000 0.000000 0.000000 0.000000 0.000000 0.033643
#
#
# Mechanical properties :
#
#
# Convention : Reuss Voigt Hill
#
# Bulk Modulus (GPa) = 38.62494 59.24727 48.93610
# Shear Modulus (GPa) = 14.82748 26.87705 20.85227
#
# Velocity S-wave (km/s) = 2.52404 3.39823 2.99322
# Velocity P-wave (km/s) = 5.00898 6.39167 5.74209
#
# Compressibility (1/GPa) = 0.02589001
#
# Stress axis : x y z
#
# Youngs Moduli (GPa) = 99.40185 34.02641 121.43671
#
# Poissons Ratio (x) = 0.13962 0.33537
# Poissons Ratio (y) = 0.40788 0.48962
# Poissons Ratio (z) = 0.27452 0.13719
#
# Static dielectric constant tensor:
#      x y z
#    x 1.970330 0.000000 0.000000 
#    y 0.000000 1.922870 0.000000 
#    z 0.000000 0.000000 1.839190 
# 
# From -- ./inp_files/12475.got.cif
#   From: 2010.05.17/outbox.cif.g08.bks.cpg/sg54_7_cif.got.tgz:12475.got - 2010.06.03 13:09:01.
