data_PCOD9422082
_publ_section_title
;
Structure prediction by ZEFSAII (Michael W. Deem and Ramdas Pophale) SiO2 
 PCOD9422082
Probable space group: P C C A
;
_chemical_formula_sum "Si O2"
_cell_formula_units_Z 32
_cell_length_a 9.708423
_cell_length_b 4.734587
_cell_length_c 28.390746
_cell_angle_alpha 90.000000
_cell_angle_beta 90.000000
_cell_angle_gamma 90.000000
_cell_volume 1304.991239
_symmetry_space_group_name_H-M "P C C A"
_symmetry_group_IT_number 54
_symmetry_cell_setting 'orthorhombic'
loop_
_space_group_symop_operation_xyz
x,y,z
1/2-x,-y,z
1/2+x,-y,1/2-z
-x,y,1/2-z
-x,-y,-z
1/2+x,y,-z
1/2-x,y,1/2+z
x,-y,1/2+z
loop_
_atom_site_type_symbol
_atom_site_label
_atom_site_fract_x
_atom_site_fract_y
_atom_site_fract_z
Si Si1 0.440466 0.112054 0.891417
Si Si2 0.907865 0.406518 0.544116
Si Si3 0.750000 0.000000 0.189684
Si Si4 0.500000 0.269917 0.250000
Si Si5 0.159295 0.743276 0.164384
O O1 0.401764 0.912878 0.936248
O O2 0.330361 0.184546 0.849985
O O3 0.558577 0.927651 0.867522
O O4 0.472361 0.410435 0.913550
O O5 0.750000 0.500000 0.536593
O O6 0.000000 0.500000 0.500000
O O7 0.874897 0.884893 0.221752
O O8 0.420872 0.415420 0.206900
O O9 0.250000 0.500000 0.140970
O O10 0.250000 0.000000 0.185213
#
# Coordination Sequence:
#
# PCOD9422082 Si02
#       5
#     8   8   4   4   8
#     4  11  24  45  73 101 142 191 230 290 362 431
#     4  12  25  46  72 106 138 181 237 294 365 430
#     4  10  20  44  72 100 150 184 240 286 356 434
#     4  10  22  42  68 108 140 194 238 302 350 428
#     4  11  24  44  66 103 146 185 245 292 357 422
#
# _framework density 24.521238
#
# number of rings (size 3 to 8) (size 9 to 14) (size 15 to 20)
#    0.000    1.000    3.750    2.250    0.000    4.000 
#    9.000    0.000    0.000    0.000    0.000    0.000 
#    0.000    0.000    0.000    0.000    0.000    0.000 
#
# Total GULP energy -178338.994230 kJ/mol
# GULP energy per Si atom -5573.093570 kJ/mol
# Density = 2.446543 g / cm^3
# Si number density = 24.521238 Si / 1000 Ang^3
#
#
#
# Elastic Constant Matrix: (Units=GPa)
#
#
# Indices 1 2 3 4 5 6 
#
# 1 130.1370 32.9607 54.7066 0.0000 0.0000 0.0000
# 2 32.9607 114.4453 13.1670 0.0000 0.0000 0.0000
# 3 54.7066 13.1670 110.3416 0.0000 0.0000 0.0000
# 4 0.0000 0.0000 0.0000 16.1553 0.0000 0.0000
# 5 0.0000 0.0000 0.0000 0.0000 47.7371 0.0000
# 6 0.0000 0.0000 0.0000 0.0000 0.0000 35.4081
#
#
#
# Elastic Compliance Matrix: (Units=1/GPa)
#
#
# Indices 1 2 3 4 5 6 
#
# 1 0.010328 -0.002419 -0.004832 0.000000 0.000000 0.000000
# 2 -0.002419 0.009426 0.000074 0.000000 0.000000 0.000000
# 3 -0.004832 0.000074 0.011450 0.000000 0.000000 0.000000
# 4 0.000000 0.000000 0.000000 0.061899 0.000000 0.000000
# 5 0.000000 0.000000 0.000000 0.000000 0.020948 0.000000
# 6 0.000000 0.000000 0.000000 0.000000 0.000000 0.028242
#
#
# Mechanical properties :
#
#
# Convention : Reuss Voigt Hill
#
# Bulk Modulus (GPa) = 59.34377 61.84363 60.59370
# Shear Modulus (GPa) = 30.81431 36.79940 33.80686
#
# Velocity S-wave (km/s) = 3.54875 3.87811 3.71708
# Velocity P-wave (km/s) = 6.40664 6.73262 6.57165
#
# Compressibility (1/GPa) = 0.01685097
#
# Stress axis : x y z
#
# Youngs Moduli (GPa) = 96.82396 106.09165 87.33978
#
# Poissons Ratio (x) = 0.25659 0.42202
# Poissons Ratio (y) = 0.23418 -0.00649
# Poissons Ratio (z) = 0.46785 -0.00789
#
# Static dielectric constant tensor:
#      x y z
#    x 2.034680 0.000000 0.000000 
#    y 0.000000 2.077800 0.000000 
#    z 0.000000 0.000000 1.967940 
# 
# From -- ./inp_files/27508.got.cif
#   From: 2010.05.17/outbox.cif.g08.bks.cpg/sg54_14_cif.got.tgz:27508.got - 2010.06.03 13:09:01.
