data_PCOD9422155
_publ_section_title
;
Structure prediction by ZEFSAII (Michael W. Deem and Ramdas Pophale) SiO2 
 PCOD9422155
Probable space group: P C C A
;
_chemical_formula_sum "Si O2"
_cell_formula_units_Z 56
_cell_length_a 5.152730
_cell_length_b 34.338775
_cell_length_c 16.386488
_cell_angle_alpha 90.000000
_cell_angle_beta 90.000000
_cell_angle_gamma 90.000000
_cell_volume 2899.399560
_symmetry_space_group_name_H-M "P C C A"
_symmetry_group_IT_number 54
_symmetry_cell_setting 'orthorhombic'
loop_
_space_group_symop_operation_xyz
x,y,z
1/2-x,-y,z
1/2+x,-y,1/2-z
-x,y,1/2-z
-x,-y,-z
1/2+x,y,-z
1/2-x,y,1/2+z
x,-y,1/2+z
loop_
_atom_site_type_symbol
_atom_site_label
_atom_site_fract_x
_atom_site_fract_y
_atom_site_fract_z
Si Si1 0.614501 0.689343 0.054744
Si Si2 0.751641 0.954537 0.306514
Si Si3 0.622261 0.107584 0.444259
Si Si4 0.000079 0.766498 0.652121
Si Si5 0.581571 0.602155 0.055391
Si Si6 0.996134 0.186109 0.848639
Si Si7 0.000855 0.475614 0.348300
O O1 0.566217 0.724983 0.114643
O O2 0.569913 0.646042 0.090687
O O3 0.402170 0.692111 0.982409
O O4 0.500000 0.946612 0.250000
O O5 0.793708 0.926549 0.382727
O O6 0.000000 0.948773 0.250000
O O7 0.750000 0.000000 0.331738
O O8 0.339383 0.105647 0.485458
O O9 0.604092 0.147361 0.392384
O O10 0.781163 0.798301 0.627487
O O11 0.000000 0.764177 0.750000
O O12 0.285695 0.781019 0.628871
O O13 0.520724 0.567662 0.117189
O O14 0.365487 0.598609 0.984498
O O15 0.000000 0.180455 0.750000
O O16 0.750000 0.500000 0.375203
O O17 0.250000 0.500000 0.375523
O O18 0.000000 0.473959 0.250000
#
# Coordination Sequence:
#
# PCOD9422155 Si02
#       7
#     8   8   8   8   8   8   8
#     4  10  21  36  55  79 109 142 176 223 276 326
#     4  10  22  42  66  88 116 160 203 236 285 352
#     4  12  25  38  59  92 123 152 192 244 296 340
#     4  10  21  37  58  82 107 144 191 232 274 328
#     4  10  21  36  54  79 107 139 180 218 264 326
#     4  10  22  39  57  80 114 152 190 231 277 339
#     4  10  21  36  54  78 107 138 174 219 270 318
#
# _framework density 19.314342
#
# number of rings (size 3 to 8) (size 9 to 14) (size 15 to 20)
#    0.000    1.714    0.000    3.857    0.000    8.000 
#    0.000    0.000    0.000   10.286    0.000    0.000 
#    0.000    0.000    0.000    0.000    0.000    0.000 
#
# Total GULP energy -312737.213970 kJ/mol
# GULP energy per Si atom -5584.593107 kJ/mol
# Density = 1.927038 g / cm^3
# Si number density = 19.314342 Si / 1000 Ang^3
#
#
#
# Elastic Constant Matrix: (Units=GPa)
#
#
# Indices 1 2 3 4 5 6 
#
# 1 87.3285 15.0174 7.6511 0.0000 0.0000 0.0000
# 2 15.0174 111.3296 49.6551 0.0000 0.0000 0.0000
# 3 7.6511 49.6551 26.4194 0.0000 0.0000 0.0000
# 4 0.0000 0.0000 0.0000 34.4795 0.0000 0.0000
# 5 0.0000 0.0000 0.0000 0.0000 6.4594 0.0000
# 6 0.0000 0.0000 0.0000 0.0000 0.0000 33.9137
#
#
#
# Elastic Compliance Matrix: (Units=1/GPa)
#
#
# Indices 1 2 3 4 5 6 
#
# 1 0.011752 -0.000416 -0.002622 0.000000 0.000000 0.000000
# 2 -0.000416 0.055561 -0.104306 0.000000 0.000000 0.000000
# 3 -0.002622 -0.104306 0.234652 0.000000 0.000000 0.000000
# 4 0.000000 0.000000 0.000000 0.029003 0.000000 0.000000
# 5 0.000000 0.000000 0.000000 0.000000 0.154814 0.000000
# 6 0.000000 0.000000 0.000000 0.000000 0.000000 0.029487
#
#
# Mechanical properties :
#
#
# Convention : Reuss Voigt Hill
#
# Bulk Modulus (GPa) = 11.45759 41.08054 26.26906
# Shear Modulus (GPa) = 6.58720 25.15410 15.87065
#
# Velocity S-wave (km/s) = 1.84876 3.61273 2.86965
# Velocity P-wave (km/s) = 3.24072 6.22238 4.96086
#
# Compressibility (1/GPa) = 0.08727842
#
# Stress axis : x y z
#
# Youngs Moduli (GPa) = 85.09013 17.99831 4.26163
#
# Poissons Ratio (x) = 0.00749 0.01117
# Poissons Ratio (y) = 0.03539 0.44451
# Poissons Ratio (z) = 0.22309 1.87733
#
# Static dielectric constant tensor:
#      x y z
#    x 1.653350 0.000000 0.000000 
#    y 0.000000 1.831820 0.000000 
#    z 0.000000 0.000000 1.631580 
# 
# From -- ./inp_files/11004.got.cif
#   From: 2010.05.17/outbox.cif.g08.bks.cpg/sg54_6_cif.got.tgz:11004.got - 2010.06.03 13:09:01.
