data_PCOD9422436
_publ_section_title
;
Structure prediction by ZEFSAII (Michael W. Deem and Ramdas Pophale) SiO2 
 PCOD9422436
Probable space group: P C C A
;
_chemical_formula_sum "Si O2"
_cell_formula_units_Z 36
_cell_length_a 4.884868
_cell_length_b 26.936779
_cell_length_c 11.300622
_cell_angle_alpha 90.000000
_cell_angle_beta 90.000000
_cell_angle_gamma 90.000000
_cell_volume 1486.965335
_symmetry_space_group_name_H-M "P C C A"
_symmetry_group_IT_number 54
_symmetry_cell_setting 'orthorhombic'
loop_
_space_group_symop_operation_xyz
x,y,z
1/2-x,-y,z
1/2+x,-y,1/2-z
-x,y,1/2-z
-x,-y,-z
1/2+x,y,-z
1/2-x,y,1/2+z
x,-y,1/2+z
loop_
_atom_site_type_symbol
_atom_site_label
_atom_site_fract_x
_atom_site_fract_y
_atom_site_fract_z
Si Si1 0.000000 0.415902 0.250000
Si Si2 0.500000 0.736996 0.750000
Si Si3 0.500000 0.811118 0.250000
Si Si4 0.750000 0.000000 0.410079
Si Si5 0.750000 0.500000 0.910544
Si Si6 0.412515 0.354877 0.417230
Si Si7 0.759793 0.893073 0.418230
O O1 0.815100 0.453304 0.328275
O O2 0.769759 0.383652 0.181230
O O3 0.246466 0.773349 0.773901
O O4 0.531833 0.699488 0.638700
O O5 0.641074 0.848081 0.343855
O O6 0.763758 0.053827 0.350452
O O7 0.500000 0.000000 0.500000
O O8 0.500000 0.500000 0.000000
O O9 0.714918 0.364383 0.469467
O O10 0.571692 0.891414 0.536884
#
# Coordination Sequence:
#
# PCOD9422436 Si02
#       7
#     4   4   4   4   4   8   8
#     4  12  27  51  78 116 154 191 253 304 348 448
#     4  12  28  47  67 102 139 175 242 308 358 440
#     4  12  25  42  67 100 135 178 233 296 368 434
#     4   8  16  34  58  86 122 166 214 266 330 410
#     4  12  28  48  76 114 158 200 232 290 368 428
#     4  12  27  49  77 104 140 194 245 303 369 426
#     4  10  21  39  63  92 131 174 221 281 348 425
#
# _framework density 24.210383
#
# number of rings (size 3 to 8) (size 9 to 14) (size 15 to 20)
#    0.000    0.889    0.000    6.667    0.000   11.556 
#    0.000    7.778    0.000    0.000    0.000    0.000 
#    0.000    0.000    0.000    0.000    0.000    0.000 
#
# Total GULP energy -200824.356233 kJ/mol
# GULP energy per Si atom -5578.454340 kJ/mol
# Density = 2.415528 g / cm^3
# Si number density = 24.210383 Si / 1000 Ang^3
#
#
#
# Elastic Constant Matrix: (Units=GPa)
#
#
# Indices 1 2 3 4 5 6 
#
# 1 152.5165 15.4881 3.1855 0.0000 0.0000 0.0000
# 2 15.4881 152.5659 42.6982 0.0000 0.0000 0.0000
# 3 3.1855 42.6982 56.2283 0.0000 0.0000 0.0000
# 4 0.0000 0.0000 0.0000 48.6940 0.0000 0.0000
# 5 0.0000 0.0000 0.0000 0.0000 33.2302 0.0000
# 6 0.0000 0.0000 0.0000 0.0000 0.0000 47.1752
#
#
#
# Elastic Compliance Matrix: (Units=1/GPa)
#
#
# Indices 1 2 3 4 5 6 
#
# 1 0.006626 -0.000721 0.000172 0.000000 0.000000 0.000000
# 2 -0.000721 0.008402 -0.006339 0.000000 0.000000 0.000000
# 3 0.000172 -0.006339 0.022589 0.000000 0.000000 0.000000
# 4 0.000000 0.000000 0.000000 0.020536 0.000000 0.000000
# 5 0.000000 0.000000 0.000000 0.000000 0.030093 0.000000
# 6 0.000000 0.000000 0.000000 0.000000 0.000000 0.021198
#
#
# Mechanical properties :
#
#
# Convention : Reuss Voigt Hill
#
# Bulk Modulus (GPa) = 41.94519 53.78381 47.86450
# Shear Modulus (GPa) = 38.11925 45.81579 41.96752
#
# Velocity S-wave (km/s) = 3.97230 4.35489 4.16799
# Velocity P-wave (km/s) = 6.19692 6.89567 6.55561
#
# Compressibility (1/GPa) = 0.02384063
#
# Stress axis : x y z
#
# Youngs Moduli (GPa) = 150.91437 119.02090 44.26971
#
# Poissons Ratio (x) = 0.08579 -0.00761
# Poissons Ratio (y) = 0.10878 0.28064
# Poissons Ratio (z) = -0.02595 0.75451
#
# Static dielectric constant tensor:
#      x y z
#    x 1.881660 0.000000 0.000000 
#    y 0.000000 1.957050 0.000000 
#    z 0.000000 0.000000 1.977600 
# 
# From -- ./inp_files/6417.got.cif
#   From: 2010.05.17/outbox.cif.g08.bks.cpg/sg54_4_cif.got.tgz:6417.got - 2010.06.03 13:09:01.
