data_PCOD9422030
_publ_section_title
;
Structure prediction by ZEFSAII (Michael W. Deem and Ramdas Pophale) SiO2 
 PCOD9422030
Probable space group: P C C A
;
_chemical_formula_sum "Si O2"
_cell_formula_units_Z 44
_cell_length_a 8.025794
_cell_length_b 17.441220
_cell_length_c 15.799648
_cell_angle_alpha 90.000000
_cell_angle_beta 90.000000
_cell_angle_gamma 90.000000
_cell_volume 2211.629021
_symmetry_space_group_name_H-M "P C C A"
_symmetry_group_IT_number 54
_symmetry_cell_setting 'orthorhombic'
loop_
_space_group_symop_operation_xyz
x,y,z
1/2-x,-y,z
1/2+x,-y,1/2-z
-x,y,1/2-z
-x,-y,-z
1/2+x,y,-z
1/2-x,y,1/2+z
x,-y,1/2+z
loop_
_atom_site_type_symbol
_atom_site_label
_atom_site_fract_x
_atom_site_fract_y
_atom_site_fract_z
Si Si1 0.807326 0.412884 0.620822
Si Si2 0.065102 0.967132 0.587181
Si Si3 0.308593 0.677695 0.218067
Si Si4 0.686007 0.587207 0.941450
Si Si5 0.250000 0.000000 0.792812
Si Si6 0.332397 0.847701 0.196515
O O1 0.750000 0.500000 0.640442
O O2 0.788540 0.362635 0.704944
O O3 0.704151 0.384243 0.538320
O O4 0.996395 0.413070 0.588919
O O5 0.102745 0.877359 0.605028
O O6 0.250000 0.000000 0.595332
O O7 0.000000 0.000000 0.500000
O O8 0.920119 0.991300 0.653163
O O9 0.500000 0.676070 0.250000
O O10 0.287876 0.632738 0.129982
O O11 0.249441 0.765076 0.200880
O O12 0.750000 0.500000 0.943622
O O13 0.259721 0.919943 0.740707
O O14 0.500000 0.838837 0.250000
#
# Coordination Sequence:
#
# PCOD9422030 Si02
#       6
#     8   8   8   8   4   8
#     4  11  22  40  64  92 123 169 218 268 327 389
#     4  11  21  39  63  94 120 161 212 261 320 382
#     4  11  22  41  62  91 131 166 209 268 329 390
#     4  11  22  40  63  93 124 168 221 268 323 392
#     4  10  20  42  66  86 122 164 216 260 318 392
#     4   9  21  40  63  89 119 163 207 257 321 380
#
# _framework density 19.894836000000002
#
# number of rings (size 3 to 8) (size 9 to 14) (size 15 to 20)
#    0.000    1.455    1.818    5.455    0.000    0.000 
#    9.818    0.000    0.000    0.000    0.000    0.000 
#    0.000    0.000    0.000    0.000    0.000    0.000 
#
# Total GULP energy -245197.268696 kJ/mol
# GULP energy per Si atom -5572.665198 kJ/mol
# Density = 1.984955 g / cm^3
# Si number density = 19.894836 Si / 1000 Ang^3
#
#
#
# Elastic Constant Matrix: (Units=GPa)
#
#
# Indices 1 2 3 4 5 6 
#
# 1 89.4387 14.6083 9.5074 0.0000 0.0000 0.0000
# 2 14.6083 121.3037 74.4584 0.0000 0.0000 0.0000
# 3 9.5074 74.4584 134.4615 0.0000 0.0000 0.0000
# 4 0.0000 0.0000 0.0000 -1.7408 0.0000 0.0000
# 5 0.0000 0.0000 0.0000 0.0000 28.7755 0.0000
# 6 0.0000 0.0000 0.0000 0.0000 0.0000 21.8442
#
#
#
# Elastic Compliance Matrix: (Units=1/GPa)
#
#
# Indices 1 2 3 4 5 6 
#
# 1 0.011406 -0.001331 -0.000069 0.000000 0.000000 0.000000
# 2 -0.001331 0.012644 -0.006908 0.000000 0.000000 0.000000
# 3 -0.000069 -0.006908 0.011267 0.000000 0.000000 0.000000
# 4 0.000000 0.000000 0.000000 -0.574438 0.000000 0.000000
# 5 0.000000 0.000000 0.000000 0.000000 0.034752 0.000000
# 6 0.000000 0.000000 0.000000 0.000000 0.000000 0.045779
#
#
# Mechanical properties :
#
#
# Convention : Reuss Voigt Hill
#
# Bulk Modulus (GPa) = 53.47353 60.26133 56.86743
# Shear Modulus (GPa) = -11.47468 26.21778 7.37155
#
# Velocity S-wave (km/s) = -2.40420 3.63411 1.92699
# Velocity P-wave (km/s) = 4.38515 6.92566 5.79630
#
# Compressibility (1/GPa) = 0.01870084
#
# Stress axis : x y z
#
# Youngs Moduli (GPa) = 87.67618 79.08876 88.75433
#
# Poissons Ratio (x) = 0.10526 0.00617
# Poissons Ratio (y) = 0.11669 0.61307
# Poissons Ratio (z) = 0.00609 0.54631
#
# Static dielectric constant tensor:
#      x y z
#    x 1.819850 0.000000 0.000000 
#    y 0.000000 1.844310 0.000000 
#    z 0.000000 0.000000 1.780480 
# 
# From -- ./inp_files/11649.got.cif
#   From: 2010.05.17/outbox.cif.g08.bks.cpg/sg54_6_cif.got.tgz:11649.got - 2010.06.03 13:09:01.
