data_PCOD9422584
_publ_section_title
;
Structure prediction by ZEFSAII (Michael W. Deem and Ramdas Pophale) SiO2 
 PCOD9422584
Probable space group: P C C A
;
_chemical_formula_sum "Si O2"
_cell_formula_units_Z 64
_cell_length_a 15.915233
_cell_length_b 11.559121
_cell_length_c 17.192266
_cell_angle_alpha 90.000000
_cell_angle_beta 90.000000
_cell_angle_gamma 90.000000
_cell_volume 3162.794195
_symmetry_space_group_name_H-M "P C C A"
_symmetry_group_IT_number 54
_symmetry_cell_setting 'orthorhombic'
loop_
_space_group_symop_operation_xyz
x,y,z
1/2-x,-y,z
1/2+x,-y,1/2-z
-x,y,1/2-z
-x,-y,-z
1/2+x,y,-z
1/2-x,y,1/2+z
x,-y,1/2+z
loop_
_atom_site_type_symbol
_atom_site_label
_atom_site_fract_x
_atom_site_fract_y
_atom_site_fract_z
Si Si1 0.070719 0.143765 0.566634
Si Si2 0.561520 0.405527 0.401718
Si Si3 0.931981 0.931004 0.182906
Si Si4 0.881774 0.463954 0.549742
Si Si5 0.670499 0.084950 0.582460
Si Si6 0.739982 0.338232 0.609678
Si Si7 0.202147 0.876723 0.202058
Si Si8 0.791724 0.621543 0.286198
O O1 0.072768 0.281652 0.556774
O O2 0.103344 0.087542 0.487642
O O3 0.140274 0.106744 0.629565
O O4 0.981647 0.117085 0.608061
O O5 0.595681 0.501205 0.461783
O O6 0.462897 0.432087 0.399167
O O7 0.614252 0.390514 0.322296
O O8 0.858776 0.855661 0.223143
O O9 0.000000 0.951226 0.250000
O O10 0.882293 0.043314 0.156328
O O11 0.816041 0.359821 0.550315
O O12 0.833356 0.572155 0.587632
O O13 0.706555 0.210227 0.600717
O O14 0.750000 0.000000 0.568076
O O15 0.776479 0.371160 0.694044
O O16 0.243335 0.749436 0.187443
O O17 0.250000 0.000000 0.211754
O O18 0.750000 0.500000 0.312942
#
# Coordination Sequence:
#
# PCOD9422584 Si02
#       8
#     8   8   8   8   8   8   8   8
#     4  10  22  39  63  95 127 162 220 273 311 385
#     4  10  23  41  66  92 124 171 219 260 331 387
#     4  10  22  40  62  88 128 173 209 266 319 387
#     4  10  22  43  65  86 126 168 209 264 325 387
#     4  12  24  40  66  95 125 167 216 261 326 386
#     4  11  23  42  64  92 131 168 209 269 327 386
#     4  10  21  41  64  89 130 174 220 260 329 389
#     4  11  23  38  63 100 127 163 220 273 317 390
#
# _framework density 20.235271000000001
#
# number of rings (size 3 to 8) (size 9 to 14) (size 15 to 20)
#    0.000    1.500    2.500    2.625    5.250    0.500 
#    0.000    3.750    0.000    0.000    0.000    0.000 
#    0.000    0.000    0.000    0.000    0.000    0.000 
#
# Total GULP energy -356590.760369 kJ/mol
# GULP energy per Si atom -5571.730631 kJ/mol
# Density = 2.018921 g / cm^3
# Si number density = 20.235271 Si / 1000 Ang^3
#
#
#
# Elastic Constant Matrix: (Units=GPa)
#
#
# Indices 1 2 3 4 5 6 
#
# 1 82.6428 36.4620 21.6712 0.0000 0.0000 0.0000
# 2 36.4620 95.4811 7.2521 0.0000 0.0000 0.0000
# 3 21.6712 7.2521 53.2792 0.0000 0.0000 0.0000
# 4 0.0000 0.0000 0.0000 27.2337 0.0000 0.0000
# 5 0.0000 0.0000 0.0000 0.0000 26.5244 0.0000
# 6 0.0000 0.0000 0.0000 0.0000 0.0000 24.6076
#
#
#
# Elastic Compliance Matrix: (Units=1/GPa)
#
#
# Indices 1 2 3 4 5 6 
#
# 1 0.016144 -0.005725 -0.005787 0.000000 0.000000 0.000000
# 2 -0.005725 0.012613 0.000612 0.000000 0.000000 0.000000
# 3 -0.005787 0.000612 0.021040 0.000000 0.000000 0.000000
# 4 0.000000 0.000000 0.000000 0.036719 0.000000 0.000000
# 5 0.000000 0.000000 0.000000 0.000000 0.037701 0.000000
# 6 0.000000 0.000000 0.000000 0.000000 0.000000 0.040638
#
#
# Mechanical properties :
#
#
# Convention : Reuss Voigt Hill
#
# Bulk Modulus (GPa) = 35.72003 40.24151 37.98077
# Shear Modulus (GPa) = 25.51177 26.74100 26.12639
#
# Velocity S-wave (km/s) = 3.55457 3.63919 3.59713
# Velocity P-wave (km/s) = 5.87684 6.13093 6.00523
#
# Compressibility (1/GPa) = 0.02799549
#
# Stress axis : x y z
#
# Youngs Moduli (GPa) = 61.94302 79.28198 47.52929
#
# Poissons Ratio (x) = 0.45392 0.27506
# Poissons Ratio (y) = 0.35465 -0.02909
# Poissons Ratio (z) = 0.35847 -0.04852
#
# Static dielectric constant tensor:
#      x y z
#    x 1.735900 0.000000 0.000000 
#    y 0.000000 1.738610 0.000000 
#    z 0.000000 0.000000 1.748680 
# 
# From -- ./inp_files/18232.got.cif
#   From: 2010.05.17/outbox.cif.g08.bks.cpg/sg54_10_cif.got.tgz:18232.got - 2010.06.03 13:09:01.
