data_PCOD9422988
_publ_section_title
;
Structure prediction by ZEFSAII (Michael W. Deem and Ramdas Pophale) SiO2 
 PCOD9422988
Probable space group: P C C A
;
_chemical_formula_sum "Si O2"
_cell_formula_units_Z 40
_cell_length_a 11.728321
_cell_length_b 15.211469
_cell_length_c 9.490756
_cell_angle_alpha 90.000000
_cell_angle_beta 90.000000
_cell_angle_gamma 90.000000
_cell_volume 1693.198242
_symmetry_space_group_name_H-M "P C C A"
_symmetry_group_IT_number 54
_symmetry_cell_setting 'orthorhombic'
loop_
_space_group_symop_operation_xyz
x,y,z
1/2-x,-y,z
1/2+x,-y,1/2-z
-x,y,1/2-z
-x,-y,-z
1/2+x,y,-z
1/2-x,y,1/2+z
x,-y,1/2+z
loop_
_atom_site_type_symbol
_atom_site_label
_atom_site_fract_x
_atom_site_fract_y
_atom_site_fract_z
Si Si1 0.250000 0.500000 0.142390
Si Si2 0.191715 0.840348 0.584299
Si Si3 0.894517 0.338158 0.348920
Si Si4 0.466645 0.413319 0.085868
Si Si5 0.622128 0.107909 0.212464
Si Si6 0.000000 0.938967 0.750000
O O1 0.340854 0.569046 0.206966
O O2 0.330109 0.425717 0.070413
O O3 0.193907 0.740841 0.640869
O O4 0.186144 0.847952 0.417035
O O5 0.298256 0.890148 0.651521
O O6 0.074629 0.882221 0.643823
O O7 0.000000 0.316000 0.250000
O O8 0.955358 0.344768 0.502251
O O9 0.500000 0.411128 0.250000
O O10 0.500000 0.500000 0.000000
O O11 0.500000 0.151132 0.250000
O O12 0.586731 0.007590 0.175227
#
# Coordination Sequence:
#
# PCOD9422988 Si02
#       6
#     4   8   8   8   8   4
#     4  10  22  42  68  94 134 186 228 294 360 432
#     4  12  25  48  76 110 154 200 250 324 378 463
#     4  11  26  44  69 101 141 189 246 302 376 443
#     4  10  22  40  65  99 134 181 242 298 363 449
#     4  10  28  45  76 112 150 199 257 308 391 463
#     4  10  24  48  80 106 152 194 260 304 396 462
#
# _framework density 23.623933000000001
#
# number of rings (size 3 to 8) (size 9 to 14) (size 15 to 20)
#    0.600    0.800    1.000    3.600    2.800   14.400 
#    0.000    1.000    0.000    0.000    0.000    0.000 
#    0.000    0.000    0.000    0.000    0.000    0.000 
#
# Total GULP energy -222920.337295 kJ/mol
# GULP energy per Si atom -5573.008432 kJ/mol
# Density = 2.357016 g / cm^3
# Si number density = 23.623933 Si / 1000 Ang^3
#
#
#
# Elastic Constant Matrix: (Units=GPa)
#
#
# Indices 1 2 3 4 5 6 
#
# 1 95.7751 7.0962 27.4454 0.0000 0.0000 0.0000
# 2 7.0962 94.5715 4.0476 0.0000 0.0000 0.0000
# 3 27.4454 4.0476 138.4908 0.0000 0.0000 0.0000
# 4 0.0000 0.0000 0.0000 38.7298 0.0000 0.0000
# 5 0.0000 0.0000 0.0000 0.0000 25.2701 0.0000
# 6 0.0000 0.0000 0.0000 0.0000 0.0000 32.9633
#
#
#
# Elastic Compliance Matrix: (Units=1/GPa)
#
#
# Indices 1 2 3 4 5 6 
#
# 1 0.011121 -0.000741 -0.002182 0.000000 0.000000 0.000000
# 2 -0.000741 0.010637 -0.000164 0.000000 0.000000 0.000000
# 3 -0.002182 -0.000164 0.007658 0.000000 0.000000 0.000000
# 4 0.000000 0.000000 0.000000 0.025820 0.000000 0.000000
# 5 0.000000 0.000000 0.000000 0.000000 0.039573 0.000000
# 6 0.000000 0.000000 0.000000 0.000000 0.000000 0.030337
#
#
# Mechanical properties :
#
#
# Convention : Reuss Voigt Hill
#
# Bulk Modulus (GPa) = 43.02709 45.11285 44.06997
# Shear Modulus (GPa) = 35.95386 38.74251 37.34819
#
# Velocity S-wave (km/s) = 3.90542 4.05405 3.98043
# Velocity P-wave (km/s) = 6.21203 6.40714 6.31034
#
# Compressibility (1/GPa) = 0.02324117
#
# Stress axis : x y z
#
# Youngs Moduli (GPa) = 89.91674 94.01473 130.58289
#
# Poissons Ratio (x) = 0.06967 0.28497
# Poissons Ratio (y) = 0.06664 0.02142
# Poissons Ratio (z) = 0.19623 0.01542
#
# Static dielectric constant tensor:
#      x y z
#    x 2.013740 0.000000 0.000000 
#    y 0.000000 1.936430 0.000000 
#    z 0.000000 0.000000 1.921240 
# 
# From -- ./inp_files/2973.got.cif
#   From: 2010.05.17/outbox.cif.g08.bks.cpg/sg54_2_cif.got.tgz:2973.got - 2010.06.03 13:09:01.
