data_PCOD9422185
_publ_section_title
;
Structure prediction by ZEFSAII (Michael W. Deem and Ramdas Pophale) SiO2 
 PCOD9422185
Probable space group: P C C A
;
_chemical_formula_sum "Si O2"
_cell_formula_units_Z 48
_cell_length_a 7.600406
_cell_length_b 14.418546
_cell_length_c 18.430843
_cell_angle_alpha 90.000000
_cell_angle_beta 90.000000
_cell_angle_gamma 90.000000
_cell_volume 2019.777171
_symmetry_space_group_name_H-M "P C C A"
_symmetry_group_IT_number 54
_symmetry_cell_setting 'orthorhombic'
loop_
_space_group_symop_operation_xyz
x,y,z
1/2-x,-y,z
1/2+x,-y,1/2-z
-x,y,1/2-z
-x,-y,-z
1/2+x,y,-z
1/2-x,y,1/2+z
x,-y,1/2+z
loop_
_atom_site_type_symbol
_atom_site_label
_atom_site_fract_x
_atom_site_fract_y
_atom_site_fract_z
Si Si1 0.480953 0.247596 0.970475
Si Si2 0.223612 0.105943 0.216679
Si Si3 0.665675 0.590240 0.295781
Si Si4 0.926862 0.549871 0.571346
Si Si5 0.346884 0.251402 0.118952
Si Si6 0.346695 0.900814 0.366678
O O1 0.390852 0.343084 0.946022
O O2 0.669034 0.248566 0.930371
O O3 0.375924 0.159036 0.939080
O O4 0.493559 0.254411 0.057398
O O5 0.355726 0.156947 0.163768
O O6 0.239062 0.151439 0.296761
O O7 0.041764 0.097703 0.170849
O O8 0.250000 0.000000 0.234644
O O9 0.750000 0.500000 0.258195
O O10 0.500000 0.631070 0.250000
O O11 0.573347 0.548800 0.367231
O O12 0.805665 0.666256 0.323918
O O13 0.750000 0.500000 0.593517
O O14 0.000000 0.500000 0.500000
O O15 0.250000 0.000000 0.381873
#
# Coordination Sequence:
#
# PCOD9422185 Si02
#       6
#     8   8   8   8   8   8
#     4  10  21  36  57  89 114 163 197 249 302 359
#     4   9  19  36  59  83 113 159 202 248 307 359
#     4  11  24  41  62  89 121 158 201 253 304 366
#     4  11  21  37  62  88 122 164 202 247 305 367
#     4  10  22  37  62  85 123 156 202 248 302 367
#     4   9  19  36  58  82 115 155 205 251 301 361
#
# _framework density 23.764996
#
# number of rings (size 3 to 8) (size 9 to 14) (size 15 to 20)
#    0.000    2.000    0.000    4.000    7.000    2.000 
#    0.000    3.333    3.667    0.000    0.000    0.000 
#    0.000    0.000    0.000    0.000    0.000    0.000 
#
# Total GULP energy -267727.447246 kJ/mol
# GULP energy per Si atom -5577.655151 kJ/mol
# Density = 2.371091 g / cm^3
# Si number density = 23.764996 Si / 1000 Ang^3
#
#
#
# Elastic Constant Matrix: (Units=GPa)
#
#
# Indices 1 2 3 4 5 6 
#
# 1 56.2771 11.4288 -0.8567 0.0000 0.0000 0.0000
# 2 11.4288 73.9836 14.4391 0.0000 0.0000 0.0000
# 3 -0.8567 14.4391 79.3080 0.0000 0.0000 0.0000
# 4 0.0000 0.0000 0.0000 10.9791 0.0000 0.0000
# 5 0.0000 0.0000 0.0000 0.0000 -21.1491 0.0000
# 6 0.0000 0.0000 0.0000 0.0000 0.0000 23.6008
#
#
#
# Elastic Compliance Matrix: (Units=1/GPa)
#
#
# Indices 1 2 3 4 5 6 
#
# 1 0.018387 -0.002985 0.000742 0.000000 0.000000 0.000000
# 2 -0.002985 0.014499 -0.002672 0.000000 0.000000 0.000000
# 3 0.000742 -0.002672 0.013104 0.000000 0.000000 0.000000
# 4 0.000000 0.000000 0.000000 0.091082 0.000000 0.000000
# 5 0.000000 0.000000 0.000000 0.000000 -0.047283 0.000000
# 6 0.000000 0.000000 0.000000 0.000000 0.000000 0.042371
#
#
# Mechanical properties :
#
#
# Convention : Reuss Voigt Hill
#
# Bulk Modulus (GPa) = 27.65540 28.84345 28.24942
# Shear Modulus (GPa) = 32.45852 14.99001 23.72427
#
# Velocity S-wave (km/s) = 3.69970 2.51422 3.16299
# Velocity P-wave (km/s) = 5.46925 4.53781 5.02515
#
# Compressibility (1/GPa) = 0.03615931
#
# Stress axis : x y z
#
# Youngs Moduli (GPa) = 54.38697 68.96965 76.31518
#
# Poissons Ratio (x) = 0.20589 -0.05663
# Poissons Ratio (y) = 0.16235 0.20391
# Poissons Ratio (z) = -0.04036 0.18429
#
# Static dielectric constant tensor:
#      x y z
#    x 2.121780 0.000000 0.000000 
#    y 0.000000 1.755730 0.000000 
#    z 0.000000 0.000000 1.938790 
# 
# From -- ./inp_files/16617.got.cif
#   From: 2010.05.17/outbox.cif.g08.bks.cpg/sg54_9_cif.got.tgz:16617.got - 2010.06.03 13:09:01.
