data_PCOD9422821
_publ_section_title
;
Structure prediction by ZEFSAII (Michael W. Deem and Ramdas Pophale) SiO2 
 PCOD9422821
Probable space group: P C C A
;
_chemical_formula_sum "Si O2"
_cell_formula_units_Z 32
_cell_length_a 9.238705
_cell_length_b 8.990388
_cell_length_c 16.405639
_cell_angle_alpha 90.000000
_cell_angle_beta 90.000000
_cell_angle_gamma 90.000000
_cell_volume 1362.644871
_symmetry_space_group_name_H-M "P C C A"
_symmetry_group_IT_number 54
_symmetry_cell_setting 'orthorhombic'
loop_
_space_group_symop_operation_xyz
x,y,z
1/2-x,-y,z
1/2+x,-y,1/2-z
-x,y,1/2-z
-x,-y,-z
1/2+x,y,-z
1/2-x,y,1/2+z
x,-y,1/2+z
loop_
_atom_site_type_symbol
_atom_site_label
_atom_site_fract_x
_atom_site_fract_y
_atom_site_fract_z
Si Si1 0.284668 0.167079 0.751477
Si Si2 0.500000 0.337544 0.250000
Si Si3 0.544052 0.832329 0.416001
Si Si4 0.611219 0.573498 0.121643
Si Si5 0.250000 0.000000 0.967961
O O1 0.131814 0.234218 0.722979
O O2 0.393209 0.152827 0.675548
O O3 0.335737 0.294727 0.815261
O O4 0.250000 0.000000 0.781946
O O5 0.540713 0.446137 0.176205
O O6 0.499446 0.662705 0.433090
O O7 0.673718 0.878251 0.474922
O O8 0.396651 0.929026 0.428394
O O9 0.750000 0.500000 0.080965
#
# Coordination Sequence:
#
# PCOD9422821 Si02
#       5
#     8   4   8   8   4
#     4  11  23  36  69 105 132 173 224 285 360 417
#     4  10  22  38  62 104 138 176 208 270 380 422
#     4  11  22  45  66  93 141 176 238 283 339 399
#     4  10  22  41  66 100 138 176 214 287 363 422
#     4  10  26  42  70  98 130 196 242 290 316 396
#
# _framework density 23.483740000000001
#
# number of rings (size 3 to 8) (size 9 to 14) (size 15 to 20)
#    0.000    1.500    3.750    0.000    5.250    2.000 
#    0.000    1.250    0.000    0.000    0.000    0.000 
#    0.000    0.000    0.000    0.000    0.000    0.000 
#
# Total GULP energy -178672.028026 kJ/mol
# GULP energy per Si atom -5583.500876 kJ/mol
# Density = 2.343029 g / cm^3
# Si number density = 23.483740 Si / 1000 Ang^3
#
#
#
# Elastic Constant Matrix: (Units=GPa)
#
#
# Indices 1 2 3 4 5 6 
#
# 1 168.2158 65.9532 36.0176 0.0000 0.0000 0.0000
# 2 65.9532 146.5725 13.6657 0.0000 0.0000 0.0000
# 3 36.0176 13.6657 31.1809 0.0000 0.0000 0.0000
# 4 0.0000 0.0000 0.0000 -3.9121 0.0000 0.0000
# 5 0.0000 0.0000 0.0000 0.0000 17.5419 0.0000
# 6 0.0000 0.0000 0.0000 0.0000 0.0000 60.5616
#
#
#
# Elastic Compliance Matrix: (Units=1/GPa)
#
#
# Indices 1 2 3 4 5 6 
#
# 1 0.009199 -0.003283 -0.009187 0.000000 0.000000 0.000000
# 2 -0.003283 0.008285 0.000161 0.000000 0.000000 0.000000
# 3 -0.009187 0.000161 0.042612 0.000000 0.000000 0.000000
# 4 0.000000 0.000000 0.000000 -0.255620 0.000000 0.000000
# 5 0.000000 0.000000 0.000000 0.000000 0.057007 0.000000
# 6 0.000000 0.000000 0.000000 0.000000 0.000000 0.016512
#
#
# Mechanical properties :
#
#
# Convention : Reuss Voigt Hill
#
# Bulk Modulus (GPa) = 28.18617 64.13802 46.16210
# Shear Modulus (GPa) = -58.43738 30.19380 -14.12179
#
# Velocity S-wave (km/s) = -4.99382 3.58960 -2.45489
# Velocity P-wave (km/s) = 4.60678 6.67467 3.41532
#
# Compressibility (1/GPa) = 0.03547839
#
# Stress axis : x y z
#
# Youngs Moduli (GPa) = 108.70876 120.70502 23.46730
#
# Poissons Ratio (x) = 0.39623 0.21560
# Poissons Ratio (y) = 0.35685 -0.00378
# Poissons Ratio (z) = 0.99872 -0.01942
#
# Static dielectric constant tensor:
#      x y z
#    x 1.921920 0.000000 0.000000 
#    y 0.000000 1.881560 0.000000 
#    z 0.000000 0.000000 1.973670 
# 
# From -- ./inp_files/23166.got.cif
#   From: 2010.05.17/outbox.cif.g08.bks.cpg/sg54_12_cif.got.tgz:23166.got - 2010.06.03 13:09:01.
