data_PCOD9422173
_publ_section_title
;
Structure prediction by ZEFSAII (Michael W. Deem and Ramdas Pophale) SiO2 
 PCOD9422173
Probable space group: P C C A
;
_chemical_formula_sum "Si O2"
_cell_formula_units_Z 32
_cell_length_a 24.381141
_cell_length_b 4.916055
_cell_length_c 13.392242
_cell_angle_alpha 90.000000
_cell_angle_beta 90.000000
_cell_angle_gamma 90.000000
_cell_volume 1605.181137
_symmetry_space_group_name_H-M "P C C A"
_symmetry_group_IT_number 54
_symmetry_cell_setting 'orthorhombic'
loop_
_space_group_symop_operation_xyz
x,y,z
1/2-x,-y,z
1/2+x,-y,1/2-z
-x,y,1/2-z
-x,-y,-z
1/2+x,y,-z
1/2-x,y,1/2+z
x,-y,1/2+z
loop_
_atom_site_type_symbol
_atom_site_label
_atom_site_fract_x
_atom_site_fract_y
_atom_site_fract_z
Si Si1 0.937279 0.681396 0.257365
Si Si2 0.697570 0.797460 0.170083
Si Si3 0.141861 0.296242 0.921626
Si Si4 0.118680 0.800876 0.651370
O O1 0.910431 0.642109 0.147977
O O2 0.929730 0.393238 0.310441
O O3 0.000000 0.766830 0.250000
O O4 0.901166 0.895018 0.321962
O O5 0.689718 0.507506 0.113544
O O6 0.672471 0.749213 0.280032
O O7 0.750000 0.000000 0.177423
O O8 0.656834 0.990822 0.109209
O O9 0.131393 0.281701 0.038632
#
# Coordination Sequence:
#
# PCOD9422173 Si02
#       4
#     8   8   8   8
#     4  10  21  36  56  84 116 151 192 236 283 340
#     4  10  21  38  57  81 111 144 187 235 283 339
#     4  10  21  37  57  83 114 148 189 236 285 339
#     4  10  21  37  57  82 114 149 189 236 285 339
#
# _framework density 19.935445000000001
#
# number of rings (size 3 to 8) (size 9 to 14) (size 15 to 20)
#    0.000    2.000    0.000    3.000    0.000    3.000 
#    0.000    7.500    0.000    0.000    0.000    0.000 
#    0.000    0.000    0.000    0.000    0.000    0.000 
#
# Total GULP energy -178190.059798 kJ/mol
# GULP energy per Si atom -5568.439369 kJ/mol
# Density = 1.989007 g / cm^3
# Si number density = 19.935445 Si / 1000 Ang^3
#
#
#
# Elastic Constant Matrix: (Units=GPa)
#
#
# Indices 1 2 3 4 5 6 
#
# 1 73.5550 -1.6933 51.0804 0.0000 0.0000 0.0000
# 2 -1.6933 100.3200 29.0941 0.0000 0.0000 0.0000
# 3 51.0804 29.0941 182.4208 0.0000 0.0000 0.0000
# 4 0.0000 0.0000 0.0000 15.0474 0.0000 0.0000
# 5 0.0000 0.0000 0.0000 0.0000 1.8743 0.0000
# 6 0.0000 0.0000 0.0000 0.0000 0.0000 26.9914
#
#
#
# Elastic Compliance Matrix: (Units=1/GPa)
#
#
# Indices 1 2 3 4 5 6 
#
# 1 0.017170 0.001766 -0.005090 0.000000 0.000000 0.000000
# 2 0.001766 0.010633 -0.002190 0.000000 0.000000 0.000000
# 3 -0.005090 -0.002190 0.007256 0.000000 0.000000 0.000000
# 4 0.000000 0.000000 0.000000 0.066457 0.000000 0.000000
# 5 0.000000 0.000000 0.000000 0.000000 0.533525 0.000000
# 6 0.000000 0.000000 0.000000 0.000000 0.000000 0.037049
#
#
# Mechanical properties :
#
#
# Convention : Reuss Voigt Hill
#
# Bulk Modulus (GPa) = 41.61167 57.02871 49.32019
# Shear Modulus (GPa) = 7.23454 27.30360 17.26907
#
# Velocity S-wave (km/s) = 1.90706 3.70483 2.94640
# Velocity P-wave (km/s) = 5.07619 6.85345 6.03065
#
# Compressibility (1/GPa) = 0.02403172
#
# Stress axis : x y z
#
# Youngs Moduli (GPa) = 58.23981 94.04561 137.81088
#
# Poissons Ratio (x) = -0.16607 0.70140
# Poissons Ratio (y) = -0.10284 0.30185
# Poissons Ratio (z) = 0.29642 0.20599
#
# Static dielectric constant tensor:
#      x y z
#    x 1.772730 0.000000 0.000000 
#    y 0.000000 1.697510 0.000000 
#    z 0.000000 0.000000 1.698220 
# 
# From -- ./inp_files/9208.got.cif
#   From: 2010.05.17/outbox.cif.g08.bks.cpg/sg54_5_cif.got.tgz:9208.got - 2010.06.03 13:09:01.
