data_PCOD9422381
_publ_section_title
;
Structure prediction by ZEFSAII (Michael W. Deem and Ramdas Pophale) SiO2 
 PCOD9422381
Probable space group: P C C A
;
_chemical_formula_sum "Si O2"
_cell_formula_units_Z 48
_cell_length_a 17.550737
_cell_length_b 9.345357
_cell_length_c 13.969985
_cell_angle_alpha 90.000000
_cell_angle_beta 90.000000
_cell_angle_gamma 90.000000
_cell_volume 2291.327643
_symmetry_space_group_name_H-M "P C C A"
_symmetry_group_IT_number 54
_symmetry_cell_setting 'orthorhombic'
loop_
_space_group_symop_operation_xyz
x,y,z
1/2-x,-y,z
1/2+x,-y,1/2-z
-x,y,1/2-z
-x,-y,-z
1/2+x,y,-z
1/2-x,y,1/2+z
x,-y,1/2+z
loop_
_atom_site_type_symbol
_atom_site_label
_atom_site_fract_x
_atom_site_fract_y
_atom_site_fract_z
Si Si1 0.452801 0.644364 0.020355
Si Si2 0.049279 0.903684 0.928986
Si Si3 0.297653 0.637555 0.135861
Si Si4 0.216036 0.149672 0.497827
Si Si5 0.238752 0.835378 0.279879
Si Si6 0.071120 0.813405 0.318254
O O1 0.501867 0.758205 0.083222
O O2 0.375955 0.612294 0.079739
O O3 0.500000 0.500000 0.000000
O O4 0.434174 0.723546 0.918127
O O5 0.126701 0.863422 0.982921
O O6 0.068691 0.015852 0.844492
O O7 0.000000 0.000000 0.000000
O O8 0.250000 0.500000 0.164854
O O9 0.301551 0.739208 0.228143
O O10 0.243083 0.725123 0.064690
O O11 0.251097 0.172663 0.393338
O O12 0.250000 0.000000 0.534121
O O13 0.151284 0.787772 0.264460
O O14 0.250000 0.000000 0.252178
O O15 0.000000 0.779827 0.250000
#
# Coordination Sequence:
#
# PCOD9422381 Si02
#       6
#     8   8   8   8   8   8
#     4  11  25  47  65  99 138 184 224 273 343 414
#     4  10  21  38  68  97 129 170 221 270 336 393
#     4  12  27  43  68  96 136 181 226 275 343 404
#     4  11  20  44  69  97 131 174 223 282 330 398
#     4  11  24  44  70 102 133 173 229 284 337 397
#     4  11  24  42  70 100 137 170 223 285 341 399
#
# _framework density 20.948553
#
# number of rings (size 3 to 8) (size 9 to 14) (size 15 to 20)
#    0.000    1.000    5.000    2.500    9.333    0.667 
#    3.000    0.833    0.000    0.000    0.000    0.000 
#    0.000    0.000    0.000    0.000    0.000    0.000 
#
# Total GULP energy -268150.926925 kJ/mol
# GULP energy per Si atom -5586.477644 kJ/mol
# Density = 2.090087 g / cm^3
# Si number density = 20.948553 Si / 1000 Ang^3
#
#
#
# Elastic Constant Matrix: (Units=GPa)
#
#
# Indices 1 2 3 4 5 6 
#
# 1 116.3827 8.9600 -12.2112 0.0000 0.0000 0.0000
# 2 8.9600 109.8043 9.3368 0.0000 0.0000 0.0000
# 3 -12.2112 9.3368 51.7964 0.0000 0.0000 0.0000
# 4 0.0000 0.0000 0.0000 18.6021 0.0000 0.0000
# 5 0.0000 0.0000 0.0000 0.0000 28.2355 0.0000
# 6 0.0000 0.0000 0.0000 0.0000 0.0000 52.5196
#
#
#
# Elastic Compliance Matrix: (Units=1/GPa)
#
#
# Indices 1 2 3 4 5 6 
#
# 1 0.008901 -0.000919 0.002264 0.000000 0.000000 0.000000
# 2 -0.000919 0.009344 -0.001901 0.000000 0.000000 0.000000
# 3 0.002264 -0.001901 0.020183 0.000000 0.000000 0.000000
# 4 0.000000 0.000000 0.000000 0.053757 0.000000 0.000000
# 5 0.000000 0.000000 0.000000 0.000000 0.035416 0.000000
# 6 0.000000 0.000000 0.000000 0.000000 0.000000 0.019041
#
#
# Mechanical properties :
#
#
# Convention : Reuss Voigt Hill
#
# Bulk Modulus (GPa) = 26.79839 32.23938 29.51889
# Shear Modulus (GPa) = 31.21270 37.99797 34.60533
#
# Velocity S-wave (km/s) = 3.86420 4.26358 4.06879
# Velocity P-wave (km/s) = 5.72098 6.29767 6.01624
#
# Compressibility (1/GPa) = 0.03731567
#
# Stress axis : x y z
#
# Youngs Moduli (GPa) = 112.35166 107.02370 49.54723
#
# Poissons Ratio (x) = 0.09833 -0.11217
# Poissons Ratio (y) = 0.10323 0.09418
# Poissons Ratio (z) = -0.25436 0.20344
#
# Static dielectric constant tensor:
#      x y z
#    x 1.741410 0.000000 0.000000 
#    y 0.000000 1.735130 0.000000 
#    z 0.000000 0.000000 1.775880 
# 
# From -- ./inp_files/14109.got.cif
#   From: 2010.05.17/outbox.cif.g08.bks.cpg/sg54_8_cif.got.tgz:14109.got - 2010.06.03 13:09:01.
