data_PCOD9422861
_publ_section_title
;
Structure prediction by ZEFSAII (Michael W. Deem and Ramdas Pophale) SiO2 
 PCOD9422861
Probable space group: P C C A
;
_chemical_formula_sum "Si O2"
_cell_formula_units_Z 32
_cell_length_a 8.896638
_cell_length_b 5.180527
_cell_length_c 31.981662
_cell_angle_alpha 90.000000
_cell_angle_beta 90.000000
_cell_angle_gamma 90.000000
_cell_volume 1474.011563
_symmetry_space_group_name_H-M "P C C A"
_symmetry_group_IT_number 54
_symmetry_cell_setting 'orthorhombic'
loop_
_space_group_symop_operation_xyz
x,y,z
1/2-x,-y,z
1/2+x,-y,1/2-z
-x,y,1/2-z
-x,-y,-z
1/2+x,y,-z
1/2-x,y,1/2+z
x,-y,1/2+z
loop_
_atom_site_type_symbol
_atom_site_label
_atom_site_fract_x
_atom_site_fract_y
_atom_site_fract_z
Si Si1 0.854410 0.756484 0.982230
Si Si2 0.930542 0.516648 0.344599
Si Si3 0.923072 0.550123 0.068253
Si Si4 0.068334 0.986671 0.704944
O O1 0.750000 0.500000 0.979470
O O2 0.990668 0.697362 0.951083
O O3 0.750000 0.000000 0.973701
O O4 0.918904 0.750684 0.029511
O O5 0.750000 0.500000 0.347465
O O6 0.977798 0.234639 0.328190
O O7 0.991644 0.607860 0.389242
O O8 0.978471 0.732142 0.311278
O O9 0.750000 0.500000 0.078349
O O10 0.000000 0.927750 0.750000
O O11 0.250000 0.000000 0.707691
#
# Coordination Sequence:
#
# PCOD9422861 Si02
#       4
#     8   8   8   8
#     4  10  23  42  62  85 123 169 207 252 310 364
#     4  10  22  39  60  87 121 158 194 241 305 369
#     4  10  23  39  62  93 122 158 211 259 301 357
#     4  10  22  40  62  87 116 153 195 241 301 368
#
# _framework density 21.709461000000001
#
# number of rings (size 3 to 8) (size 9 to 14) (size 15 to 20)
#    0.000    2.000    0.000    1.500    0.000   21.000 
#    0.000    0.000    0.000    0.000    0.000    0.000 
#    0.000    0.000    0.000    0.000    0.000    0.000 
#
# Total GULP energy -178856.015870 kJ/mol
# GULP energy per Si atom -5589.250496 kJ/mol
# Density = 2.166005 g / cm^3
# Si number density = 21.709461 Si / 1000 Ang^3
#
#
#
# Elastic Constant Matrix: (Units=GPa)
#
#
# Indices 1 2 3 4 5 6 
#
# 1 60.4501 39.5970 16.1222 0.0000 0.0000 0.0000
# 2 39.5970 118.0987 3.9663 0.0000 0.0000 0.0000
# 3 16.1222 3.9663 88.7488 0.0000 0.0000 0.0000
# 4 0.0000 0.0000 0.0000 -0.6800 0.0000 0.0000
# 5 0.0000 0.0000 0.0000 0.0000 9.9761 0.0000
# 6 0.0000 0.0000 0.0000 0.0000 0.0000 26.0529
#
#
#
# Elastic Compliance Matrix: (Units=1/GPa)
#
#
# Indices 1 2 3 4 5 6 
#
# 1 0.022369 -0.007375 -0.003734 0.000000 0.000000 0.000000
# 2 -0.007375 0.010912 0.000852 0.000000 0.000000 0.000000
# 3 -0.003734 0.000852 0.011908 0.000000 0.000000 0.000000
# 4 0.000000 0.000000 0.000000 -1.470494 0.000000 0.000000
# 5 0.000000 0.000000 0.000000 0.000000 0.100240 0.000000
# 6 0.000000 0.000000 0.000000 0.000000 0.000000 0.038383
#
#
# Mechanical properties :
#
#
# Convention : Reuss Voigt Hill
#
# Bulk Modulus (GPa) = 40.52628 42.96316 41.74472
# Shear Modulus (GPa) = -3.97474 20.91058 8.46792
#
# Velocity S-wave (km/s) = -1.35457 3.10692 1.97713
# Velocity P-wave (km/s) = 4.03257 5.71871 4.94799
#
# Compressibility (1/GPa) = 0.02467535
#
# Stress axis : x y z
#
# Youngs Moduli (GPa) = 44.70445 91.64627 83.97708
#
# Poissons Ratio (x) = 0.67586 0.31357
# Poissons Ratio (y) = 0.32968 -0.07155
# Poissons Ratio (z) = 0.16693 -0.07809
#
# Static dielectric constant tensor:
#      x y z
#    x 1.796930 0.000000 0.000000 
#    y 0.000000 1.818150 0.000000 
#    z 0.000000 0.000000 1.739590 
# 
# From -- ./inp_files/27497.got.cif
#   From: 2010.05.17/outbox.cif.g08.bks.cpg/sg54_14_cif.got.tgz:27497.got - 2010.06.03 13:09:01.
