data_PCOD9422670
_publ_section_title
;
Structure prediction by ZEFSAII (Michael W. Deem and Ramdas Pophale) SiO2 
 PCOD9422670
Probable space group: P C C A
;
_chemical_formula_sum "Si O2"
_cell_formula_units_Z 56
_cell_length_a 11.217640
_cell_length_b 14.963405
_cell_length_c 15.174260
_cell_angle_alpha 90.000000
_cell_angle_beta 90.000000
_cell_angle_gamma 90.000000
_cell_volume 2547.061611
_symmetry_space_group_name_H-M "P C C A"
_symmetry_group_IT_number 54
_symmetry_cell_setting 'orthorhombic'
loop_
_space_group_symop_operation_xyz
x,y,z
1/2-x,-y,z
1/2+x,-y,1/2-z
-x,y,1/2-z
-x,-y,-z
1/2+x,y,-z
1/2-x,y,1/2+z
x,-y,1/2+z
loop_
_atom_site_type_symbol
_atom_site_label
_atom_site_fract_x
_atom_site_fract_y
_atom_site_fract_z
Si Si1 0.338076 0.904162 0.395648
Si Si2 0.621133 0.383634 0.188481
Si Si3 0.107153 0.062752 0.589310
Si Si4 0.850196 0.898009 0.807723
Si Si5 0.398557 0.797930 0.919429
Si Si6 0.601886 0.419790 0.675742
Si Si7 0.476092 0.251604 0.605226
O O1 0.368078 0.956338 0.486118
O O2 0.347498 0.930123 0.292723
O O3 0.204154 0.869065 0.404411
O O4 0.415456 0.815629 0.405298
O O5 0.500000 0.382858 0.250000
O O6 0.613378 0.289209 0.140279
O O7 0.765430 0.392137 0.212914
O O8 0.609083 0.479245 0.138328
O O9 0.224240 0.094164 0.642862
O O10 0.016468 0.144062 0.597061
O O11 0.071929 0.969292 0.635723
O O12 0.899453 0.796781 0.817080
O O13 0.396923 0.760300 0.018666
O O14 0.500000 0.423577 0.750000
O O15 0.541004 0.346062 0.613737
#
# Coordination Sequence:
#
# PCOD9422670 Si02
#       7
#     8   8   8   8   8   8   8
#     4  11  23  45  67  94 136 185 221 293 349 412
#     4  10  23  42  69 107 143 182 238 287 360 424
#     4  10  26  46  62 100 138 173 235 294 341 419
#     4  11  24  46  67  99 132 185 237 281 354 426
#     4  11  24  43  68  97 140 178 226 301 347 411
#     4  10  21  42  72 104 142 187 230 291 352 434
#     4  11  23  43  69  97 135 177 241 285 350 423
#
# _framework density 21.986118999999999
#
# number of rings (size 3 to 8) (size 9 to 14) (size 15 to 20)
#    0.000    1.429    2.857    1.286    2.000    5.143 
#   10.286    0.000    0.000    0.000    0.000    0.000 
#    0.000    0.000    0.000    0.000    0.000    0.000 
#
# Total GULP energy -311971.914723 kJ/mol
# GULP energy per Si atom -5570.927049 kJ/mol
# Density = 2.193608 g / cm^3
# Si number density = 21.986119 Si / 1000 Ang^3
#
#
#
# Elastic Constant Matrix: (Units=GPa)
#
#
# Indices 1 2 3 4 5 6 
#
# 1 122.0432 37.6975 58.0245 0.0000 0.0000 0.0000
# 2 37.6975 140.3390 47.9491 0.0000 0.0000 0.0000
# 3 58.0245 47.9491 140.6601 0.0000 0.0000 0.0000
# 4 0.0000 0.0000 0.0000 23.8273 0.0000 0.0000
# 5 0.0000 0.0000 0.0000 0.0000 5.5994 0.0000
# 6 0.0000 0.0000 0.0000 0.0000 0.0000 26.0569
#
#
#
# Elastic Compliance Matrix: (Units=1/GPa)
#
#
# Indices 1 2 3 4 5 6 
#
# 1 0.010469 -0.001513 -0.003803 0.000000 0.000000 0.000000
# 2 -0.001513 0.008284 -0.002200 0.000000 0.000000 0.000000
# 3 -0.003803 -0.002200 0.009428 0.000000 0.000000 0.000000
# 4 0.000000 0.000000 0.000000 0.041969 0.000000 0.000000
# 5 0.000000 0.000000 0.000000 0.000000 0.178589 0.000000
# 6 0.000000 0.000000 0.000000 0.000000 0.000000 0.038377
#
#
# Mechanical properties :
#
#
# Convention : Reuss Voigt Hill
#
# Bulk Modulus (GPa) = 76.04754 76.70941 76.37847
# Shear Modulus (GPa) = 16.31160 28.38816 22.34988
#
# Velocity S-wave (km/s) = 2.72675 3.59721 3.19179
# Velocity P-wave (km/s) = 6.67664 7.22626 6.95688
#
# Compressibility (1/GPa) = 0.01314967
#
# Stress axis : x y z
#
# Youngs Moduli (GPa) = 95.51802 120.72138 106.06735
#
# Poissons Ratio (x) = 0.18263 0.40337
# Poissons Ratio (y) = 0.14451 0.23331
# Poissons Ratio (z) = 0.36326 0.26555
#
# Static dielectric constant tensor:
#      x y z
#    x 1.900770 0.000000 0.000000 
#    y 0.000000 1.827870 0.000000 
#    z 0.000000 0.000000 1.846300 
# 
# From -- ./inp_files/12719.got.cif
#   From: 2010.05.17/outbox.cif.g08.bks.cpg/sg54_7_cif.got.tgz:12719.got - 2010.06.03 13:09:01.
