data_PCOD9422034
_publ_section_title
;
Structure prediction by ZEFSAII (Michael W. Deem and Ramdas Pophale) SiO2 
 PCOD9422034
Probable space group: P C C A
;
_chemical_formula_sum "Si O2"
_cell_formula_units_Z 64
_cell_length_a 16.839987
_cell_length_b 15.507211
_cell_length_c 11.067284
_cell_angle_alpha 90.000000
_cell_angle_beta 90.000000
_cell_angle_gamma 90.000000
_cell_volume 2890.124175
_symmetry_space_group_name_H-M "P C C A"
_symmetry_group_IT_number 54
_symmetry_cell_setting 'orthorhombic'
loop_
_space_group_symop_operation_xyz
x,y,z
1/2-x,-y,z
1/2+x,-y,1/2-z
-x,y,1/2-z
-x,-y,-z
1/2+x,y,-z
1/2-x,y,1/2+z
x,-y,1/2+z
loop_
_atom_site_type_symbol
_atom_site_label
_atom_site_fract_x
_atom_site_fract_y
_atom_site_fract_z
Si Si1 0.593789 0.821896 0.267094
Si Si2 0.619928 0.718234 0.705416
Si Si3 0.874315 0.143407 0.919014
Si Si4 0.595033 0.013982 0.224040
Si Si5 0.590012 0.479547 0.268625
Si Si6 0.205986 0.264685 0.408008
Si Si7 0.944510 0.152035 0.533412
Si Si8 0.333325 0.452944 0.976062
O O1 0.500000 0.805169 0.250000
O O2 0.646986 0.750204 0.204951
O O3 0.600412 0.831916 0.409910
O O4 0.617978 0.915188 0.213478
O O5 0.618052 0.781394 0.819280
O O6 0.599001 0.621653 0.738425
O O7 0.706087 0.723386 0.642445
O O8 0.559587 0.761097 0.611203
O O9 0.861865 0.058641 0.837823
O O10 0.961550 0.131929 0.980882
O O11 0.808525 0.180611 0.008771
O O12 0.500000 0.013681 0.250000
O O13 0.598565 0.075903 0.108139
O O14 0.500000 0.507819 0.250000
O O15 0.615121 0.486635 0.409633
O O16 0.638038 0.526034 0.160501
O O17 0.179540 0.350029 0.479943
O O18 0.250000 0.500000 0.991744
#
# Coordination Sequence:
#
# PCOD9422034 Si02
#       8
#     8   8   8   8   8   8   8   8
#     4  11  23  37  65 103 139 177 229 293 343 397
#     4  11  24  42  68  92 129 183 223 270 348 420
#     4  10  20  42  66  92 131 175 232 278 333 405
#     4   8  19  36  65  96 131 183 228 277 337 410
#     4  12  26  47  76 107 140 182 239 297 355 429
#     4  12  26  41  68 100 138 178 229 285 345 423
#     4  10  21  40  65  97 131 178 234 283 338 409
#     4  12  27  49  73 106 145 193 232 292 370 439
#
# _framework density 22.144376999999999
#
# number of rings (size 3 to 8) (size 9 to 14) (size 15 to 20)
#    0.000    1.250    3.750    2.625    3.500    3.000 
#    0.000    2.500    0.000    0.000    0.000    0.000 
#    0.000    0.000    0.000    0.000    0.000    0.000 
#
# Total GULP energy -357665.408761 kJ/mol
# GULP energy per Si atom -5588.522012 kJ/mol
# Density = 2.209398 g / cm^3
# Si number density = 22.144377 Si / 1000 Ang^3
#
#
#
# Elastic Constant Matrix: (Units=GPa)
#
#
# Indices 1 2 3 4 5 6 
#
# 1 63.2269 -5.2738 16.1689 0.0000 0.0000 0.0000
# 2 -5.2738 49.9811 9.5356 0.0000 0.0000 0.0000
# 3 16.1689 9.5356 111.0340 0.0000 0.0000 0.0000
# 4 0.0000 0.0000 0.0000 142.5313 0.0000 0.0000
# 5 0.0000 0.0000 0.0000 0.0000 22.0485 0.0000
# 6 0.0000 0.0000 0.0000 0.0000 0.0000 12.1563
#
#
#
# Elastic Compliance Matrix: (Units=1/GPa)
#
#
# Indices 1 2 3 4 5 6 
#
# 1 0.016675 0.002260 -0.002622 0.000000 0.000000 0.000000
# 2 0.002260 0.020647 -0.002102 0.000000 0.000000 0.000000
# 3 -0.002622 -0.002102 0.009569 0.000000 0.000000 0.000000
# 4 0.000000 0.000000 0.000000 0.007016 0.000000 0.000000
# 5 0.000000 0.000000 0.000000 0.000000 0.045355 0.000000
# 6 0.000000 0.000000 0.000000 0.000000 0.000000 0.082262
#
#
# Mechanical properties :
#
#
# Convention : Reuss Voigt Hill
#
# Bulk Modulus (GPa) = 23.83147 29.45592 26.64369
# Shear Modulus (GPa) = 24.94515 48.93465 36.93990
#
# Velocity S-wave (km/s) = 3.35995 4.70595 4.08872
# Velocity P-wave (km/s) = 5.08306 6.54665 5.86072
#
# Compressibility (1/GPa) = 0.04196132
#
# Stress axis : x y z
#
# Youngs Moduli (GPa) = 59.96952 48.43304 104.50787
#
# Poissons Ratio (x) = -0.10945 0.27405
# Poissons Ratio (y) = -0.13552 0.21970
# Poissons Ratio (z) = 0.15726 0.10182
#
# Static dielectric constant tensor:
#      x y z
#    x 1.806240 0.000000 0.000000 
#    y 0.000000 1.796940 0.000000 
#    z 0.000000 0.000000 1.881960 
# 
# From -- ./inp_files/8560.got.cif
#   From: 2010.05.17/outbox.cif.g08.bks.cpg/sg54_5_cif.got.tgz:8560.got - 2010.06.03 13:09:01.
