data_PCOD9422618
_publ_section_title
;
Structure prediction by ZEFSAII (Michael W. Deem and Ramdas Pophale) SiO2 
 PCOD9422618
Probable space group: P C C A
;
_chemical_formula_sum "Si O2"
_cell_formula_units_Z 40
_cell_length_a 12.189216
_cell_length_b 7.918060
_cell_length_c 18.422307
_cell_angle_alpha 90.000000
_cell_angle_beta 90.000000
_cell_angle_gamma 90.000000
_cell_volume 1778.027922
_symmetry_space_group_name_H-M "P C C A"
_symmetry_group_IT_number 54
_symmetry_cell_setting 'orthorhombic'
loop_
_space_group_symop_operation_xyz
x,y,z
1/2-x,-y,z
1/2+x,-y,1/2-z
-x,y,1/2-z
-x,-y,-z
1/2+x,y,-z
1/2-x,y,1/2+z
x,-y,1/2+z
loop_
_atom_site_type_symbol
_atom_site_label
_atom_site_fract_x
_atom_site_fract_y
_atom_site_fract_z
Si Si1 0.835057 0.747965 0.749901
Si Si2 0.392902 0.128636 0.207674
Si Si3 0.691779 0.236763 0.435675
Si Si4 0.093451 0.401049 0.107351
Si Si5 0.842503 0.353478 0.083442
O O1 0.707638 0.750315 0.771806
O O2 0.900335 0.628874 0.805719
O O3 0.836321 0.706417 0.665932
O O4 0.874312 0.939626 0.763094
O O5 0.500000 0.191236 0.250000
O O6 0.377466 0.122246 0.120247
O O7 0.643543 0.421810 0.417047
O O8 0.821999 0.256201 0.420397
O O9 0.677451 0.213941 0.521282
O O10 0.970523 0.401516 0.077705
O O11 0.750000 0.500000 0.072660
#
# Coordination Sequence:
#
# PCOD9422618 Si02
#       5
#     8   8   8   8   8
#     4  10  24  42  62  93 126 170 209 259 317 375
#     4  10  22  42  65  88 126 169 220 250 308 387
#     4  10  23  39  64  95 123 168 208 262 320 370
#     4  10  21  42  60  89 134 160 210 258 319 370
#     4  12  24  37  66  98 128 161 212 271 319 366
#
# _framework density 22.496835999999998
#
# number of rings (size 3 to 8) (size 9 to 14) (size 15 to 20)
#    0.000    1.600    2.000    2.400    8.400    0.000 
#    0.000   12.000    0.000    0.000    0.000    0.000 
#    0.000    0.000    0.000    0.000    0.000    0.000 
#
# Total GULP energy -223217.737447 kJ/mol
# GULP energy per Si atom -5580.443436 kJ/mol
# Density = 2.244563 g / cm^3
# Si number density = 22.496836 Si / 1000 Ang^3
#
#
#
# Elastic Constant Matrix: (Units=GPa)
#
#
# Indices 1 2 3 4 5 6 
#
# 1 174.9479 17.8567 39.9366 0.0000 0.0000 0.0000
# 2 17.8567 40.2598 18.8318 0.0000 0.0000 0.0000
# 3 39.9366 18.8318 180.2626 0.0000 0.0000 0.0000
# 4 0.0000 0.0000 0.0000 85.1830 0.0000 0.0000
# 5 0.0000 0.0000 0.0000 0.0000 18.4111 0.0000
# 6 0.0000 0.0000 0.0000 0.0000 0.0000 6.8388
#
#
#
# Elastic Compliance Matrix: (Units=1/GPa)
#
#
# Indices 1 2 3 4 5 6 
#
# 1 0.006203 -0.002217 -0.001143 0.000000 0.000000 0.000000
# 2 -0.002217 0.026907 -0.002320 0.000000 0.000000 0.000000
# 3 -0.001143 -0.002320 0.006043 0.000000 0.000000 0.000000
# 4 0.000000 0.000000 0.000000 0.011739 0.000000 0.000000
# 5 0.000000 0.000000 0.000000 0.000000 0.054315 0.000000
# 6 0.000000 0.000000 0.000000 0.000000 0.000000 0.146226
#
#
# Mechanical properties :
#
#
# Convention : Reuss Voigt Hill
#
# Bulk Modulus (GPa) = 35.97840 60.96896 48.47368
# Shear Modulus (GPa) = 18.37853 43.34291 30.86072
#
# Velocity S-wave (km/s) = 2.86131 4.39409 3.70777
# Velocity P-wave (km/s) = 5.19072 7.27352 6.31853
#
# Compressibility (1/GPa) = 0.02779446
#
# Stress axis : x y z
#
# Youngs Moduli (GPa) = 161.20963 37.16505 165.48150
#
# Poissons Ratio (x) = 0.08239 0.18909
# Poissons Ratio (y) = 0.35737 0.38389
# Poissons Ratio (z) = 0.18421 0.08622
#
# Static dielectric constant tensor:
#      x y z
#    x 1.885770 0.000000 0.000000 
#    y 0.000000 1.830140 0.000000 
#    z 0.000000 0.000000 1.901270 
# 
# From -- ./inp_files/17101.got.cif
#   From: 2010.05.17/outbox.cif.g08.bks.cpg/sg54_9_cif.got.tgz:17101.got - 2010.06.03 13:09:01.
