data_PCOD9422139
_publ_section_title
;
Structure prediction by ZEFSAII (Michael W. Deem and Ramdas Pophale) SiO2 
 PCOD9422139
Probable space group: P C C A
;
_chemical_formula_sum "Si O2"
_cell_formula_units_Z 48
_cell_length_a 8.362810
_cell_length_b 7.932177
_cell_length_c 30.637740
_cell_angle_alpha 90.000000
_cell_angle_beta 90.000000
_cell_angle_gamma 90.000000
_cell_volume 2032.363341
_symmetry_space_group_name_H-M "P C C A"
_symmetry_group_IT_number 54
_symmetry_cell_setting 'orthorhombic'
loop_
_space_group_symop_operation_xyz
x,y,z
1/2-x,-y,z
1/2+x,-y,1/2-z
-x,y,1/2-z
-x,-y,-z
1/2+x,y,-z
1/2-x,y,1/2+z
x,-y,1/2+z
loop_
_atom_site_type_symbol
_atom_site_label
_atom_site_fract_x
_atom_site_fract_y
_atom_site_fract_z
Si Si1 0.557438 0.169450 0.298567
Si Si2 0.265592 0.193821 0.828989
Si Si3 0.150292 0.672890 0.571740
Si Si4 0.717114 0.681440 0.078494
Si Si5 0.389942 0.207433 0.671186
Si Si6 0.638569 0.129817 0.009639
O O1 0.500000 0.128451 0.250000
O O2 0.407579 0.270925 0.318254
O O3 0.733279 0.251362 0.300550
O O4 0.582944 0.995345 0.325472
O O5 0.281778 0.193494 0.881082
O O6 0.434662 0.271887 0.813858
O O7 0.250000 0.000000 0.812609
O O8 0.250000 0.500000 0.568843
O O9 0.149262 0.736284 0.621705
O O10 0.214063 0.803416 0.535537
O O11 0.961349 0.669064 0.558544
O O12 0.750000 0.500000 0.099060
O O13 0.855180 0.715408 0.042842
O O14 0.750000 0.000000 0.035515
O O15 0.000000 0.000000 0.000000
#
# Coordination Sequence:
#
# PCOD9422139 Si02
#       6
#     8   8   8   8   8   8
#     4  10  21  35  65  99 128 163 215 277 348 402
#     4   9  20  38  63  90 130 169 215 280 332 396
#     4  11  26  45  64  95 135 182 223 277 340 408
#     4  11  25  43  64  94 132 180 228 272 339 410
#     4   9  22  37  60  95 130 163 220 266 331 403
#     4  12  26  41  68  96 133 171 228 287 336 393
#
# _framework density 23.617823999999999
#
# number of rings (size 3 to 8) (size 9 to 14) (size 15 to 20)
#    0.000    1.667    1.667    1.000   18.667    1.333 
#    0.000    0.000    0.000    2.000    0.000    0.000 
#    0.000    0.000    0.000    0.000    0.000    0.000 
#
# Total GULP energy -267251.756575 kJ/mol
# GULP energy per Si atom -5567.744929 kJ/mol
# Density = 2.356407 g / cm^3
# Si number density = 23.617824 Si / 1000 Ang^3
#
#
#
# Elastic Constant Matrix: (Units=GPa)
#
#
# Indices 1 2 3 4 5 6 
#
# 1 199.8525 30.0178 47.7241 0.0000 0.0000 0.0000
# 2 30.0178 72.6754 42.2669 0.0000 0.0000 0.0000
# 3 47.7241 42.2669 80.0748 0.0000 0.0000 0.0000
# 4 0.0000 0.0000 0.0000 4.0879 0.0000 0.0000
# 5 0.0000 0.0000 0.0000 0.0000 33.0869 0.0000
# 6 0.0000 0.0000 0.0000 0.0000 0.0000 19.4650
#
#
#
# Elastic Compliance Matrix: (Units=1/GPa)
#
#
# Indices 1 2 3 4 5 6 
#
# 1 0.005850 -0.000561 -0.003191 0.000000 0.000000 0.000000
# 2 -0.000561 0.019909 -0.010175 0.000000 0.000000 0.000000
# 3 -0.003191 -0.010175 0.019760 0.000000 0.000000 0.000000
# 4 0.000000 0.000000 0.000000 0.244627 0.000000 0.000000
# 5 0.000000 0.000000 0.000000 0.000000 0.030223 0.000000
# 6 0.000000 0.000000 0.000000 0.000000 0.000000 0.051374
#
#
# Mechanical properties :
#
#
# Convention : Reuss Voigt Hill
#
# Bulk Modulus (GPa) = 56.60096 65.84671 61.22383
# Shear Modulus (GPa) = 12.33093 26.83419 19.58256
#
# Velocity S-wave (km/s) = 2.28744 3.37439 2.88261
# Velocity P-wave (km/s) = 5.56721 6.56678 6.08755
#
# Compressibility (1/GPa) = 0.01766754
#
# Stress axis : x y z
#
# Youngs Moduli (GPa) = 170.94653 50.22915 50.60624
#
# Poissons Ratio (x) = 0.02816 0.16146
# Poissons Ratio (y) = 0.09584 0.51490
# Poissons Ratio (z) = 0.54541 0.51106
#
# Static dielectric constant tensor:
#      x y z
#    x 2.354520 0.000000 0.000000 
#    y 0.000000 1.817780 0.000000 
#    z 0.000000 0.000000 1.823330 
# 
# From -- ./inp_files/27780.got.cif
#   From: 2010.05.17/outbox.cif.g08.bks.cpg/sg54_14_cif.got.tgz:27780.got - 2010.06.03 13:09:01.
