data_PCOD9422269
_publ_section_title
;
Structure prediction by ZEFSAII (Michael W. Deem and Ramdas Pophale) SiO2 
 PCOD9422269
Probable space group: P C C A
;
_chemical_formula_sum "Si O2"
_cell_formula_units_Z 48
_cell_length_a 8.765777
_cell_length_b 9.695643
_cell_length_c 27.475545
_cell_angle_alpha 90.000000
_cell_angle_beta 90.000000
_cell_angle_gamma 90.000000
_cell_volume 2335.142295
_symmetry_space_group_name_H-M "P C C A"
_symmetry_group_IT_number 54
_symmetry_cell_setting 'orthorhombic'
loop_
_space_group_symop_operation_xyz
x,y,z
1/2-x,-y,z
1/2+x,-y,1/2-z
-x,y,1/2-z
-x,-y,-z
1/2+x,y,-z
1/2-x,y,1/2+z
x,-y,1/2+z
loop_
_atom_site_type_symbol
_atom_site_label
_atom_site_fract_x
_atom_site_fract_y
_atom_site_fract_z
Si Si1 0.716090 0.341306 0.065756
Si Si2 0.818414 0.653177 0.339203
Si Si3 0.671852 0.652090 0.675764
Si Si4 0.783766 0.142974 0.926941
Si Si5 0.503451 0.781190 0.006688
Si Si6 0.181048 0.154084 0.242632
O O1 0.750000 0.500000 0.071408
O O2 0.693234 0.290964 0.120708
O O3 0.573196 0.328987 0.029661
O O4 0.858386 0.269055 0.039925
O O5 0.750000 0.500000 0.343694
O O6 0.820108 0.732505 0.390816
O O7 0.720512 0.751326 0.303978
O O8 0.989634 0.639690 0.318302
O O9 0.750000 0.500000 0.681206
O O10 0.743866 0.760553 0.712917
O O11 0.918984 0.119585 0.966381
O O12 0.750000 0.000000 0.899656
O O13 0.633776 0.176384 0.958369
O O14 0.000000 0.144144 0.250000
O O15 0.250000 0.000000 0.238815
#
# Coordination Sequence:
#
# PCOD9422269 Si02
#       6
#     8   8   8   8   8   8
#     4  10  21  37  64  96 138 175 228 274 338 392
#     4  12  26  45  72 103 138 179 227 284 344 408
#     4  11  24  45  69 101 142 178 228 280 344 407
#     4  11  24  42  66  95 137 180 232 278 342 400
#     4  10  22  40  62  95 131 184 227 282 329 404
#     4  12  27  49  76 105 137 177 222 277 341 409
#
# _framework density 20.555493999999999
#
# number of rings (size 3 to 8) (size 9 to 14) (size 15 to 20)
#    0.000    1.000    1.667    4.500    7.000    2.667 
#    0.000    0.833    0.000    0.000    0.000    0.000 
#    0.000    0.000    0.000    0.000    0.000    0.000 
#
# Total GULP energy -268007.373857 kJ/mol
# GULP energy per Si atom -5583.486955 kJ/mol
# Density = 2.050871 g / cm^3
# Si number density = 20.555494 Si / 1000 Ang^3
#
#
#
# Elastic Constant Matrix: (Units=GPa)
#
#
# Indices 1 2 3 4 5 6 
#
# 1 139.2110 45.4376 28.0096 0.0000 0.0000 0.0000
# 2 45.4376 132.2860 52.4326 0.0000 0.0000 0.0000
# 3 28.0096 52.4326 102.0402 0.0000 0.0000 0.0000
# 4 0.0000 0.0000 0.0000 33.3700 0.0000 0.0000
# 5 0.0000 0.0000 0.0000 0.0000 39.5297 0.0000
# 6 0.0000 0.0000 0.0000 0.0000 0.0000 18.5695
#
#
#
# Elastic Compliance Matrix: (Units=1/GPa)
#
#
# Indices 1 2 3 4 5 6 
#
# 1 0.008172 -0.002408 -0.001006 0.000000 0.000000 0.000000
# 2 -0.002408 0.010202 -0.004581 0.000000 0.000000 0.000000
# 3 -0.001006 -0.004581 0.012430 0.000000 0.000000 0.000000
# 4 0.000000 0.000000 0.000000 0.029967 0.000000 0.000000
# 5 0.000000 0.000000 0.000000 0.000000 0.025297 0.000000
# 6 0.000000 0.000000 0.000000 0.000000 0.000000 0.053852
#
#
# Mechanical properties :
#
#
# Convention : Reuss Voigt Hill
#
# Bulk Modulus (GPa) = 67.50453 69.47742 68.49098
# Shear Modulus (GPa) = 31.08502 34.80432 32.94467
#
# Velocity S-wave (km/s) = 3.89298 4.11930 4.00774
# Velocity P-wave (km/s) = 7.28825 7.51653 7.40327
#
# Compressibility (1/GPa) = 0.01481382
#
# Stress axis : x y z
#
# Youngs Moduli (GPa) = 122.37343 98.01591 80.44910
#
# Poissons Ratio (x) = 0.23604 0.08090
# Poissons Ratio (y) = 0.29470 0.36857
# Poissons Ratio (z) = 0.12307 0.44905
#
# Static dielectric constant tensor:
#      x y z
#    x 1.738680 0.000000 0.000000 
#    y 0.000000 1.718820 0.000000 
#    z 0.000000 0.000000 1.729140 
# 
# From -- ./inp_files/27783.got.cif
#   From: 2010.05.17/outbox.cif.g08.bks.cpg/sg54_14_cif.got.tgz:27783.got - 2010.06.03 13:09:01.
