data_PCOD9422134
_publ_section_title
;
Structure prediction by ZEFSAII (Michael W. Deem and Ramdas Pophale) SiO2 
 PCOD9422134
Probable space group: P C C A
;
_chemical_formula_sum "Si O2"
_cell_formula_units_Z 64
_cell_length_a 10.402846
_cell_length_b 9.535841
_cell_length_c 30.953958
_cell_angle_alpha 90.000000
_cell_angle_beta 90.000000
_cell_angle_gamma 90.000000
_cell_volume 3070.629086
_symmetry_space_group_name_H-M "P C C A"
_symmetry_group_IT_number 54
_symmetry_cell_setting 'orthorhombic'
loop_
_space_group_symop_operation_xyz
x,y,z
1/2-x,-y,z
1/2+x,-y,1/2-z
-x,y,1/2-z
-x,-y,-z
1/2+x,y,-z
1/2-x,y,1/2+z
x,-y,1/2+z
loop_
_atom_site_type_symbol
_atom_site_label
_atom_site_fract_x
_atom_site_fract_y
_atom_site_fract_z
Si Si1 0.613892 0.072338 0.553435
Si Si2 0.562696 0.675084 0.107364
Si Si3 0.359400 0.593396 0.730523
Si Si4 0.761561 0.834775 0.819295
Si Si5 0.741654 0.331263 0.904422
Si Si6 0.514726 0.343793 0.802134
Si Si7 0.459709 0.192328 0.038854
Si Si8 0.887467 0.459007 0.532989
O O1 0.627795 0.181481 0.592279
O O2 0.570223 0.157665 0.510934
O O3 0.750000 0.000000 0.544234
O O4 0.505238 0.953188 0.560513
O O5 0.411413 0.696488 0.094840
O O6 0.583099 0.643455 0.158198
O O7 0.604534 0.547464 0.076993
O O8 0.250000 0.500000 0.755479
O O9 0.500000 0.616577 0.750000
O O10 0.304462 0.744032 0.718592
O O11 0.392516 0.480590 0.692537
O O12 0.713611 0.754157 0.861895
O O13 0.910747 0.796831 0.814015
O O14 0.750000 0.000000 0.819657
O O15 0.750000 0.500000 0.902969
O O16 0.834246 0.266163 0.940855
O O17 0.500000 0.338490 0.750000
O O18 0.580847 0.297590 0.042023
O O19 0.750000 0.500000 0.513531
O O20 0.000000 0.500000 0.500000
#
# Coordination Sequence:
#
# PCOD9422134 Si02
#       8
#     8   8   8   8   8   8   8   8
#     4  11  26  44  61  91 140 182 220 268 340 416
#     4  11  23  41  68  96 133 178 229 287 338 405
#     4   9  18  37  64  92 127 167 216 273 338 407
#     4  10  21  35  62  98 132 167 223 284 341 415
#     4  11  23  40  66  99 127 173 227 284 335 398
#     4   9  20  41  67  92 129 177 228 287 353 407
#     4  11  26  40  68  95 134 181 223 269 337 407
#     4  12  26  43  67 102 138 177 231 287 341 405
#
# _framework density 20.842634
#
# number of rings (size 3 to 8) (size 9 to 14) (size 15 to 20)
#    0.000    1.500    2.500    2.625    8.750    0.500 
#    0.000    5.625    8.250    0.000    0.000    0.000 
#    0.000    0.000    0.000    0.000    0.000    0.000 
#
# Total GULP energy -356595.444258 kJ/mol
# GULP energy per Si atom -5571.803817 kJ/mol
# Density = 2.079520 g / cm^3
# Si number density = 20.842634 Si / 1000 Ang^3
#
#
#
# Elastic Constant Matrix: (Units=GPa)
#
#
# Indices 1 2 3 4 5 6 
#
# 1 89.5609 24.2635 21.9895 0.0000 0.0000 0.0000
# 2 24.2635 163.3660 53.1413 0.0000 0.0000 0.0000
# 3 21.9895 53.1413 111.4674 0.0000 0.0000 0.0000
# 4 0.0000 0.0000 0.0000 15.1409 0.0000 0.0000
# 5 0.0000 0.0000 0.0000 0.0000 26.2267 0.0000
# 6 0.0000 0.0000 0.0000 0.0000 0.0000 29.7180
#
#
#
# Elastic Compliance Matrix: (Units=1/GPa)
#
#
# Indices 1 2 3 4 5 6 
#
# 1 0.011926 -0.001191 -0.001785 0.000000 0.000000 0.000000
# 2 -0.001191 0.007364 -0.003276 0.000000 0.000000 0.000000
# 3 -0.001785 -0.003276 0.010885 0.000000 0.000000 0.000000
# 4 0.000000 0.000000 0.000000 0.066046 0.000000 0.000000
# 5 0.000000 0.000000 0.000000 0.000000 0.038129 0.000000
# 6 0.000000 0.000000 0.000000 0.000000 0.000000 0.033650
#
#
# Mechanical properties :
#
#
# Convention : Reuss Voigt Hill
#
# Bulk Modulus (GPa) = 56.58608 62.57589 59.58098
# Shear Modulus (GPa) = 26.82495 31.88379 29.35437
#
# Velocity S-wave (km/s) = 3.59140 3.91543 3.75691
# Velocity P-wave (km/s) = 6.66376 7.10838 6.88966
#
# Compressibility (1/GPa) = 0.01767219
#
# Stress axis : x y z
#
# Youngs Moduli (GPa) = 83.84728 135.80308 91.86921
#
# Poissons Ratio (x) = 0.16170 0.16400
# Poissons Ratio (y) = 0.09983 0.30093
# Poissons Ratio (z) = 0.14968 0.44484
#
# Static dielectric constant tensor:
#      x y z
#    x 1.834910 0.000000 0.000000 
#    y 0.000000 1.758250 0.000000 
#    z 0.000000 0.000000 1.827510 
# 
# From -- ./inp_files/28145.got.cif
#   From: 2010.05.17/outbox.cif.g08.bks.cpg/sg54_15_cif.got.tgz:28145.got - 2010.06.03 13:09:01.
