data_PCOD9422048
_publ_section_title
;
Structure prediction by ZEFSAII (Michael W. Deem and Ramdas Pophale) SiO2 
 PCOD9422048
Probable space group: P C C A
;
_chemical_formula_sum "Si O2"
_cell_formula_units_Z 60
_cell_length_a 23.096400
_cell_length_b 9.902721
_cell_length_c 12.272738
_cell_angle_alpha 90.000000
_cell_angle_beta 90.000000
_cell_angle_gamma 90.000000
_cell_volume 2806.986337
_symmetry_space_group_name_H-M "P C C A"
_symmetry_group_IT_number 54
_symmetry_cell_setting 'orthorhombic'
loop_
_space_group_symop_operation_xyz
x,y,z
1/2-x,-y,z
1/2+x,-y,1/2-z
-x,y,1/2-z
-x,-y,-z
1/2+x,y,-z
1/2-x,y,1/2+z
x,-y,1/2+z
loop_
_atom_site_type_symbol
_atom_site_label
_atom_site_fract_x
_atom_site_fract_y
_atom_site_fract_z
Si Si1 0.438094 0.709757 0.702003
Si Si2 0.215452 0.743778 0.526436
Si Si3 0.673585 0.685676 0.114174
Si Si4 0.135237 0.890376 0.360607
Si Si5 0.847193 0.540295 0.411017
Si Si6 0.250000 0.500000 0.231587
Si Si7 0.563960 0.030923 0.454409
Si Si8 0.651462 0.893756 0.295223
O O1 0.500000 0.670707 0.750000
O O2 0.409878 0.794487 0.800334
O O3 0.400598 0.579920 0.665558
O O4 0.437579 0.820897 0.602475
O O5 0.278658 0.745586 0.470463
O O6 0.177049 0.798386 0.428102
O O7 0.181350 0.605655 0.562517
O O8 0.201876 0.843695 0.625590
O O9 0.708794 0.583456 0.190265
O O10 0.643395 0.783251 0.200084
O O11 0.636414 0.602140 0.027783
O O12 0.105228 0.998306 0.442356
O O13 0.168208 0.970966 0.267103
O O14 0.791133 0.595329 0.342416
O O15 0.592980 0.930861 0.363067
O O16 0.500000 0.000000 0.500000
#
# Coordination Sequence:
#
# PCOD9422048 Si02
#       8
#     8   8   8   8   8   4   8   8
#     4  11  23  40  66  98 135 179 228 290 349 409
#     4  11  22  41  65  94 137 173 222 285 349 421
#     4  12  21  40  66  97 137 180 228 286 342 427
#     4  10  22  41  65  96 130 178 218 293 344 416
#     4  12  23  39  67 100 132 179 234 280 349 433
#     4  12  20  40  68  98 130 192 228 268 358 432
#     4  10  20  42  70  96 134 180 237 282 354 416
#     4  10  23  38  65  99 130 172 234 277 346 424
#
# _framework density 21.375238
#
# number of rings (size 3 to 8) (size 9 to 14) (size 15 to 20)
#    0.000    1.067    5.333    1.600    0.000    0.533 
#    0.000    4.667    5.867    0.000    0.000    0.000 
#    0.000    0.000    0.000    0.000    0.000    0.000 
#
# Total GULP energy -334215.940388 kJ/mol
# GULP energy per Si atom -5570.265673 kJ/mol
# Density = 2.132659 g / cm^3
# Si number density = 21.375238 Si / 1000 Ang^3
#
#
#
# Elastic Constant Matrix: (Units=GPa)
#
#
# Indices 1 2 3 4 5 6 
#
# 1 50.6733 36.7131 35.7500 0.0000 0.0000 0.0000
# 2 36.7131 55.8864 33.2468 0.0000 0.0000 0.0000
# 3 35.7500 33.2468 127.1806 0.0000 0.0000 0.0000
# 4 0.0000 0.0000 0.0000 20.1194 0.0000 0.0000
# 5 0.0000 0.0000 0.0000 0.0000 23.1391 0.0000
# 6 0.0000 0.0000 0.0000 0.0000 0.0000 26.7987
#
#
#
# Elastic Compliance Matrix: (Units=1/GPa)
#
#
# Indices 1 2 3 4 5 6 
#
# 1 0.040397 -0.023426 -0.005232 0.000000 0.000000 0.000000
# 2 -0.023426 0.034773 -0.002505 0.000000 0.000000 0.000000
# 3 -0.005232 -0.002505 0.009988 0.000000 0.000000 0.000000
# 4 0.000000 0.000000 0.000000 0.049703 0.000000 0.000000
# 5 0.000000 0.000000 0.000000 0.000000 0.043217 0.000000
# 6 0.000000 0.000000 0.000000 0.000000 0.000000 0.037315
#
#
# Mechanical properties :
#
#
# Convention : Reuss Voigt Hill
#
# Bulk Modulus (GPa) = 43.79592 49.46223 46.62908
# Shear Modulus (GPa) = 17.52359 22.54679 20.03519
#
# Velocity S-wave (km/s) = 2.86633 3.25131 3.06487
# Velocity P-wave (km/s) = 5.61142 6.10613 5.86400
#
# Compressibility (1/GPa) = 0.02283318
#
# Stress axis : x y z
#
# Youngs Moduli (GPa) = 24.75417 28.75827 100.11656
#
# Poissons Ratio (x) = 0.67368 0.52379
# Poissons Ratio (y) = 0.57988 0.25081
# Poissons Ratio (z) = 0.12951 0.07205
#
# Static dielectric constant tensor:
#      x y z
#    x 1.784500 0.000000 0.000000 
#    y 0.000000 1.857120 0.000000 
#    z 0.000000 0.000000 1.832300 
# 
# From -- ./inp_files/9613.got.cif
#   From: 2010.05.17/outbox.cif.g08.bks.cpg/sg54_5_cif.got.tgz:9613.got - 2010.06.03 13:09:01.
