data_PCOD9422295
_publ_section_title
;
Structure prediction by ZEFSAII (Michael W. Deem and Ramdas Pophale) SiO2 
 PCOD9422295
Probable space group: P C C A
;
_chemical_formula_sum "Si O2"
_cell_formula_units_Z 36
_cell_length_a 4.949753
_cell_length_b 25.877970
_cell_length_c 10.073962
_cell_angle_alpha 90.000000
_cell_angle_beta 90.000000
_cell_angle_gamma 90.000000
_cell_volume 1290.369356
_symmetry_space_group_name_H-M "P C C A"
_symmetry_group_IT_number 54
_symmetry_cell_setting 'orthorhombic'
loop_
_space_group_symop_operation_xyz
x,y,z
1/2-x,-y,z
1/2+x,-y,1/2-z
-x,y,1/2-z
-x,-y,-z
1/2+x,y,-z
1/2-x,y,1/2+z
x,-y,1/2+z
loop_
_atom_site_type_symbol
_atom_site_label
_atom_site_fract_x
_atom_site_fract_y
_atom_site_fract_z
Si Si1 0.188579 0.837717 0.594212
Si Si2 0.789986 0.380075 0.415136
Si Si3 0.326384 0.730303 0.592539
Si Si4 0.000000 0.532541 0.250000
Si Si5 0.814107 0.054074 0.905965
O O1 0.391508 0.837803 0.467420
O O2 0.253471 0.783629 0.664904
O O3 0.250843 0.891851 0.664904
O O4 0.603999 0.380090 0.548051
O O5 0.730929 0.325292 0.344747
O O6 0.675448 0.429962 0.343080
O O7 0.627279 0.731037 0.535618
O O8 0.250000 0.500000 0.314667
O O9 0.750000 0.000000 0.835324
O O10 0.611917 0.054078 0.033040
#
# Coordination Sequence:
#
# PCOD9422295 Si02
#       5
#     8   8   8   4   8
#     4   8  12  18  29  46  68  96 136 179 217 266
#     4  10  21  38  58  79 106 137 170 211 256 302
#     4   8  14  25  42  62  83 112 150 190 234 280
#     4  12  26  40  58  84 108 136 174 208 252 312
#     4   8  12  16  22  35  59  92 129 169 213 259
#
# _framework density 27.898987999999999
#
# number of rings (size 3 to 8) (size 9 to 14) (size 15 to 20)
#    0.000    3.111    0.000    1.333    0.000    2.667 
#    0.000    0.000    0.000    0.000    0.000    0.000 
#    0.000    0.000    0.000    0.000    0.000   82.222 
#
# Total GULP energy -201388.464486 kJ/mol
# GULP energy per Si atom -5594.124013 kJ/mol
# Density = 2.783549 g / cm^3
# Si number density = 27.898988 Si / 1000 Ang^3
#
#
#
# Elastic Constant Matrix: (Units=GPa)
#
#
# Indices 1 2 3 4 5 6 
#
# 1 153.1462 25.0534 41.0106 0.0000 0.0000 0.0000
# 2 25.0534 233.7368 26.2964 0.0000 0.0000 0.0000
# 3 41.0106 26.2964 58.5527 0.0000 0.0000 0.0000
# 4 0.0000 0.0000 0.0000 -664.1876 0.0000 0.0000
# 5 0.0000 0.0000 0.0000 0.0000 52.7980 0.0000
# 6 0.0000 0.0000 0.0000 0.0000 0.0000 44.9081
#
#
#
# Elastic Compliance Matrix: (Units=1/GPa)
#
#
# Indices 1 2 3 4 5 6 
#
# 1 0.008050 -0.000241 -0.005530 0.000000 0.000000 0.000000
# 2 -0.000241 0.004513 -0.001858 0.000000 0.000000 0.000000
# 3 -0.005530 -0.001858 0.021787 0.000000 0.000000 0.000000
# 4 0.000000 0.000000 0.000000 -0.001506 0.000000 0.000000
# 5 0.000000 0.000000 0.000000 0.000000 0.018940 0.000000
# 6 0.000000 0.000000 0.000000 0.000000 0.000000 0.022268
#
#
# Mechanical properties :
#
#
# Convention : Reuss Voigt Hill
#
# Bulk Modulus (GPa) = 52.37958 70.01738 61.19848
# Shear Modulus (GPa) = 52.26072 -89.75796 -18.74862
#
# Velocity S-wave (km/s) = 4.33276 -5.67823 -2.59514
# Velocity P-wave (km/s) = 6.62162 4.22357 3.60606
#
# Compressibility (1/GPa) = 0.01909141
#
# Stress axis : x y z
#
# Youngs Moduli (GPa) = 124.22379 221.57304 45.89981
#
# Poissons Ratio (x) = 0.05333 0.25383
# Poissons Ratio (y) = 0.02990 0.08530
# Poissons Ratio (z) = 0.68698 0.41175
#
# Static dielectric constant tensor:
#      x y z
#    x 2.045350 0.000000 0.000000 
#    y 0.000000 2.295330 0.000000 
#    z 0.000000 0.000000 1.551690 
# 
# From -- ./inp_files/6366.got.cif
#   From: 2010.05.17/outbox.cif.g08.bks.cpg/sg54_4_cif.got.tgz:6366.got - 2010.06.03 13:09:01.
