data_PCOD9422747
_publ_section_title
;
Structure prediction by ZEFSAII (Michael W. Deem and Ramdas Pophale) SiO2 
 PCOD9422747
Probable space group: P C C A
;
_chemical_formula_sum "Si O2"
_cell_formula_units_Z 60
_cell_length_a 17.192926
_cell_length_b 16.712499
_cell_length_c 9.295565
_cell_angle_alpha 90.000000
_cell_angle_beta 90.000000
_cell_angle_gamma 90.000000
_cell_volume 2670.957516
_symmetry_space_group_name_H-M "P C C A"
_symmetry_group_IT_number 54
_symmetry_cell_setting 'orthorhombic'
loop_
_space_group_symop_operation_xyz
x,y,z
1/2-x,-y,z
1/2+x,-y,1/2-z
-x,y,1/2-z
-x,-y,-z
1/2+x,y,-z
1/2-x,y,1/2+z
x,-y,1/2+z
loop_
_atom_site_type_symbol
_atom_site_label
_atom_site_fract_x
_atom_site_fract_y
_atom_site_fract_z
Si Si1 0.302600 0.914946 0.047743
Si Si2 0.720783 0.769809 0.784939
Si Si3 0.471053 0.077892 0.414558
Si Si4 0.911654 0.551298 0.710679
Si Si5 0.940870 0.248091 0.627996
Si Si6 0.300464 0.335789 0.942543
Si Si7 0.364244 0.405936 0.478503
Si Si8 0.750000 0.000000 0.703050
O O1 0.265456 0.840223 0.130538
O O2 0.314331 0.980709 0.176001
O O3 0.380810 0.921155 0.958070
O O4 0.244006 0.930380 0.914572
O O5 0.638383 0.785645 0.705429
O O6 0.780946 0.733622 0.671033
O O7 0.699211 0.702106 0.900694
O O8 0.500000 0.069428 0.250000
O O9 0.486227 0.173342 0.446529
O O10 0.500000 0.000000 0.500000
O O11 0.876135 0.616227 0.602221
O O12 0.903105 0.466318 0.633383
O O13 0.000000 0.567508 0.750000
O O14 0.866652 0.558785 0.861471
O O15 0.908549 0.320162 0.530291
O O16 0.000000 0.278862 0.750000
O O17 0.224907 0.392538 0.934736
#
# Coordination Sequence:
#
# PCOD9422747 Si02
#       8
#     8   8   8   8   8   8   8   4
#     4  11  21  41  64  98 136 175 238 298 365 445
#     4  11  23  43  72 103 140 196 247 309 376 443
#     4  11  24  44  70 100 141 188 236 300 374 449
#     4  12  27  43  72 106 151 191 257 309 386 439
#     4  10  24  44  71 101 148 191 241 305 385 443
#     4  11  24  43  70 102 146 189 259 303 368 449
#     4  11  25  46  70 105 145 203 248 317 368 457
#     4  10  22  34  64  92 126 170 218 294 354 430
#
# _framework density 22.463854999999999
#
# number of rings (size 3 to 8) (size 9 to 14) (size 15 to 20)
#    0.000    1.067    1.333    5.200    5.600    4.267 
#    0.000    3.333    0.000    0.000    0.000    0.000 
#    0.000    0.000    0.000    0.000    0.000    0.000 
#
# Total GULP energy -334425.660459 kJ/mol
# GULP energy per Si atom -5573.761008 kJ/mol
# Density = 2.241273 g / cm^3
# Si number density = 22.463855 Si / 1000 Ang^3
#
#
#
# Elastic Constant Matrix: (Units=GPa)
#
#
# Indices 1 2 3 4 5 6 
#
# 1 50.1376 21.0753 -6.7540 0.0000 0.0000 0.0000
# 2 21.0753 86.3822 34.1831 0.0000 0.0000 0.0000
# 3 -6.7540 34.1831 97.4064 0.0000 0.0000 0.0000
# 4 0.0000 0.0000 0.0000 54.3583 0.0000 0.0000
# 5 0.0000 0.0000 0.0000 0.0000 20.1868 0.0000
# 6 0.0000 0.0000 0.0000 0.0000 0.0000 34.0977
#
#
#
# Elastic Compliance Matrix: (Units=1/GPa)
#
#
# Indices 1 2 3 4 5 6 
#
# 1 0.023652 -0.007455 0.004256 0.000000 0.000000 0.000000
# 2 -0.007455 0.015793 -0.006059 0.000000 0.000000 0.000000
# 3 0.004256 -0.006059 0.012688 0.000000 0.000000 0.000000
# 4 0.000000 0.000000 0.000000 0.018396 0.000000 0.000000
# 5 0.000000 0.000000 0.000000 0.000000 0.049537 0.000000
# 6 0.000000 0.000000 0.000000 0.000000 0.000000 0.029327
#
#
# Mechanical properties :
#
#
# Convention : Reuss Voigt Hill
#
# Bulk Modulus (GPa) = 29.74677 36.77055 33.25866
# Shear Modulus (GPa) = 27.91494 34.09000 31.00247
#
# Velocity S-wave (km/s) = 3.52896 3.89980 3.71901
# Velocity P-wave (km/s) = 5.46586 6.05658 5.76879
#
# Compressibility (1/GPa) = 0.03361709
#
# Stress axis : x y z
#
# Youngs Moduli (GPa) = 42.27964 63.31922 78.81618
#
# Poissons Ratio (x) = 0.47203 -0.33545
# Poissons Ratio (y) = 0.31519 0.47756
# Poissons Ratio (z) = -0.17995 0.38366
#
# Static dielectric constant tensor:
#      x y z
#    x 1.585400 0.000000 0.000000 
#    y 0.000000 2.092530 0.000000 
#    z 0.000000 0.000000 1.841420 
# 
# From -- ./inp_files/4360.got.cif
#   From: 2010.05.17/outbox.cif.g08.bks.cpg/sg54_3_cif.got.tgz:4360.got - 2010.06.03 13:09:01.
