data_PCOD9422656
_publ_section_title
;
Structure prediction by ZEFSAII (Michael W. Deem and Ramdas Pophale) SiO2 
 PCOD9422656
Probable space group: P C C A
;
_chemical_formula_sum "Si O2"
_cell_formula_units_Z 32
_cell_length_a 10.481275
_cell_length_b 9.683748
_cell_length_c 14.278684
_cell_angle_alpha 90.000000
_cell_angle_beta 90.000000
_cell_angle_gamma 90.000000
_cell_volume 1449.258237
_symmetry_space_group_name_H-M "P C C A"
_symmetry_group_IT_number 54
_symmetry_cell_setting 'orthorhombic'
loop_
_space_group_symop_operation_xyz
x,y,z
1/2-x,-y,z
1/2+x,-y,1/2-z
-x,y,1/2-z
-x,-y,-z
1/2+x,y,-z
1/2-x,y,1/2+z
x,-y,1/2+z
loop_
_atom_site_type_symbol
_atom_site_label
_atom_site_fract_x
_atom_site_fract_y
_atom_site_fract_z
Si Si1 0.299230 0.714076 0.092677
Si Si2 0.653002 0.118777 0.740642
Si Si3 0.706708 0.657653 0.617620
Si Si4 0.543789 0.461160 0.393542
O O1 0.304630 0.848781 0.153591
O O2 0.164664 0.637982 0.102085
O O3 0.403792 0.609528 0.138155
O O4 0.317636 0.731100 0.981954
O O5 0.500000 0.091804 0.750000
O O6 0.695655 0.253079 0.678622
O O7 0.750000 0.000000 0.705004
O O8 0.750000 0.500000 0.598076
O O9 0.568177 0.620381 0.658682
O O10 0.500000 0.500000 0.500000
#
# Coordination Sequence:
#
# PCOD9422656 Si02
#       4
#     8   8   8   8
#     4  10  21  42  69 103 142 176 225 293 349 416
#     4  12  31  50  67 100 146 194 242 285 350 428
#     4  11  22  41  75 106 137 175 232 297 353 413
#     4   9  17  36  68 109 137 163 226 284 359 406
#
# _framework density 22.080259000000002
#
# number of rings (size 3 to 8) (size 9 to 14) (size 15 to 20)
#    0.000    1.500    5.000    1.500   10.500    1.000 
#    0.000    2.500    0.000    0.000    0.000    0.000 
#    0.000    0.000    0.000    0.000    0.000    0.000 
#
# Total GULP energy -178301.937427 kJ/mol
# GULP energy per Si atom -5571.935545 kJ/mol
# Density = 2.203000 g / cm^3
# Si number density = 22.080259 Si / 1000 Ang^3
#
#
#
# Elastic Constant Matrix: (Units=GPa)
#
#
# Indices 1 2 3 4 5 6 
#
# 1 152.7784 38.2738 19.6586 0.0000 0.0000 0.0000
# 2 38.2738 72.7112 24.0183 0.0000 0.0000 0.0000
# 3 19.6586 24.0183 89.6246 0.0000 0.0000 0.0000
# 4 0.0000 0.0000 0.0000 23.1124 0.0000 0.0000
# 5 0.0000 0.0000 0.0000 0.0000 35.2596 0.0000
# 6 0.0000 0.0000 0.0000 0.0000 0.0000 31.3023
#
#
#
# Elastic Compliance Matrix: (Units=1/GPa)
#
#
# Indices 1 2 3 4 5 6 
#
# 1 0.007574 -0.003772 -0.000650 0.000000 0.000000 0.000000
# 2 -0.003772 0.016967 -0.003720 0.000000 0.000000 0.000000
# 3 -0.000650 -0.003720 0.012297 0.000000 0.000000 0.000000
# 4 0.000000 0.000000 0.000000 0.043267 0.000000 0.000000
# 5 0.000000 0.000000 0.000000 0.000000 0.028361 0.000000
# 6 0.000000 0.000000 0.000000 0.000000 0.000000 0.031947
#
#
# Mechanical properties :
#
#
# Convention : Reuss Voigt Hill
#
# Bulk Modulus (GPa) = 48.65177 53.22395 50.93786
# Shear Modulus (GPa) = 30.57197 33.47910 32.02554
#
# Velocity S-wave (km/s) = 3.72504 3.89812 3.81256
# Velocity P-wave (km/s) = 6.37049 6.66465 6.51923
#
# Compressibility (1/GPa) = 0.02055424
#
# Stress axis : x y z
#
# Youngs Moduli (GPa) = 132.02931 58.93712 81.31962
#
# Poissons Ratio (x) = 0.22231 0.05290
# Poissons Ratio (y) = 0.49801 0.30248
# Poissons Ratio (z) = 0.08588 0.21923
#
# Static dielectric constant tensor:
#      x y z
#    x 1.938160 0.000000 0.000000 
#    y 0.000000 1.814860 0.000000 
#    z 0.000000 0.000000 1.872900 
# 
# From -- ./inp_files/12313.got.cif
#   From: 2010.05.17/outbox.cif.g08.bks.cpg/sg54_7_cif.got.tgz:12313.got - 2010.06.03 13:09:01.
