data_PCOD9422826
_publ_section_title
;
Structure prediction by ZEFSAII (Michael W. Deem and Ramdas Pophale) SiO2 
 PCOD9422826
Probable space group: P C C A
;
_chemical_formula_sum "Si O2"
_cell_formula_units_Z 32
_cell_length_a 5.276626
_cell_length_b 10.092689
_cell_length_c 26.356107
_cell_angle_alpha 90.000000
_cell_angle_beta 90.000000
_cell_angle_gamma 90.000000
_cell_volume 1403.603576
_symmetry_space_group_name_H-M "P C C A"
_symmetry_group_IT_number 54
_symmetry_cell_setting 'orthorhombic'
loop_
_space_group_symop_operation_xyz
x,y,z
1/2-x,-y,z
1/2+x,-y,1/2-z
-x,y,1/2-z
-x,-y,-z
1/2+x,y,-z
1/2-x,y,1/2+z
x,-y,1/2+z
loop_
_atom_site_type_symbol
_atom_site_label
_atom_site_fract_x
_atom_site_fract_y
_atom_site_fract_z
Si Si1 0.748503 0.647367 0.805400
Si Si2 0.932247 0.648718 0.018950
Si Si3 0.250000 0.000000 0.839668
Si Si4 0.000000 0.132613 0.250000
Si Si5 0.256760 0.292509 0.369909
O O1 0.750000 0.500000 0.783059
O O2 0.780398 0.762832 0.763963
O O3 0.489091 0.659835 0.835666
O O4 0.988981 0.667408 0.844074
O O5 0.809234 0.652577 0.074312
O O6 0.713821 0.711283 0.983266
O O7 0.000000 0.500000 0.000000
O O8 0.463573 0.042099 0.798910
O O9 0.216676 0.132782 0.871249
#
# Coordination Sequence:
#
# PCOD9422826 Si02
#       5
#     8   8   4   4   8
#     4  11  25  39  66  96 138 166 215 274 318 389
#     4  10  22  38  64  93 128 163 210 269 328 395
#     4  10  22  42  68  90 132 176 226 258 310 400
#     4  10  22  42  66  96 128 182 218 264 320 372
#     4  11  24  42  65  99 128 175 215 268 327 382
#
# _framework density 22.798458
#
# number of rings (size 3 to 8) (size 9 to 14) (size 15 to 20)
#    0.000    1.500    0.000    3.750   10.500   10.000 
#    0.000    1.250    0.000    0.000    0.000    0.000 
#    0.000    0.000    0.000    0.000    0.000    0.000 
#
# Total GULP energy -178711.524668 kJ/mol
# GULP energy per Si atom -5584.735146 kJ/mol
# Density = 2.274657 g / cm^3
# Si number density = 22.798458 Si / 1000 Ang^3
#
#
#
# Elastic Constant Matrix: (Units=GPa)
#
#
# Indices 1 2 3 4 5 6 
#
# 1 165.3140 11.0108 34.5249 0.0000 0.0000 0.0000
# 2 11.0108 152.1773 23.9230 0.0000 0.0000 0.0000
# 3 34.5249 23.9230 108.0273 0.0000 0.0000 0.0000
# 4 0.0000 0.0000 0.0000 42.1879 0.0000 0.0000
# 5 0.0000 0.0000 0.0000 0.0000 38.2669 0.0000
# 6 0.0000 0.0000 0.0000 0.0000 0.0000 17.3959
#
#
#
# Elastic Compliance Matrix: (Units=1/GPa)
#
#
# Indices 1 2 3 4 5 6 
#
# 1 0.006485 -0.000149 -0.002040 0.000000 0.000000 0.000000
# 2 -0.000149 0.006812 -0.001461 0.000000 0.000000 0.000000
# 3 -0.002040 -0.001461 0.010232 0.000000 0.000000 0.000000
# 4 0.000000 0.000000 0.000000 0.023703 0.000000 0.000000
# 5 0.000000 0.000000 0.000000 0.000000 0.026132 0.000000
# 6 0.000000 0.000000 0.000000 0.000000 0.000000 0.057485
#
#
# Mechanical properties :
#
#
# Convention : Reuss Voigt Hill
#
# Bulk Modulus (GPa) = 61.61221 62.71511 62.16366
# Shear Modulus (GPa) = 34.82909 43.30747 39.06828
#
# Velocity S-wave (km/s) = 3.91281 4.36314 4.14410
# Velocity P-wave (km/s) = 6.89180 7.27674 7.08688
#
# Compressibility (1/GPa) = 0.01623055
#
# Stress axis : x y z
#
# Youngs Moduli (GPa) = 154.20295 146.80603 97.72955
#
# Poissons Ratio (x) = 0.02181 0.19933
# Poissons Ratio (y) = 0.02291 0.14278
# Poissons Ratio (z) = 0.31452 0.21448
#
# Static dielectric constant tensor:
#      x y z
#    x 1.988040 0.000000 0.000000 
#    y 0.000000 1.881960 0.000000 
#    z 0.000000 0.000000 1.882170 
# 
# From -- ./inp_files/26958.got.cif
#   From: 2010.05.17/outbox.cif.g08.bks.cpg/sg54_14_cif.got.tgz:26958.got - 2010.06.03 13:09:01.
