data_PCOD9422285
_publ_section_title
;
Structure prediction by ZEFSAII (Michael W. Deem and Ramdas Pophale) SiO2 
 PCOD9422285
Probable space group: P C C A
;
_chemical_formula_sum "Si O2"
_cell_formula_units_Z 32
_cell_length_a 5.332157
_cell_length_b 7.414463
_cell_length_c 34.982931
_cell_angle_alpha 90.000000
_cell_angle_beta 90.000000
_cell_angle_gamma 90.000000
_cell_volume 1383.053003
_symmetry_space_group_name_H-M "P C C A"
_symmetry_group_IT_number 54
_symmetry_cell_setting 'orthorhombic'
loop_
_space_group_symop_operation_xyz
x,y,z
1/2-x,-y,z
1/2+x,-y,1/2-z
-x,y,1/2-z
-x,-y,-z
1/2+x,y,-z
1/2-x,y,1/2+z
x,-y,1/2+z
loop_
_atom_site_type_symbol
_atom_site_label
_atom_site_fract_x
_atom_site_fract_y
_atom_site_fract_z
Si Si1 0.247982 0.785070 0.230130
Si Si2 0.249035 0.280569 0.401915
Si Si3 0.248150 0.284116 0.140269
Si Si4 0.059730 0.796686 0.985776
O O1 0.500000 0.713563 0.250000
O O2 0.230927 0.756935 0.184920
O O3 0.000000 0.709985 0.250000
O O4 0.250000 0.000000 0.236625
O O5 0.250000 0.500000 0.403506
O O6 0.515623 0.219053 0.384907
O O7 0.020631 0.220842 0.374876
O O8 0.177802 0.212806 0.443900
O O9 0.250000 0.500000 0.136373
O O10 0.780241 0.713579 0.987838
O O11 0.000000 0.000000 0.000000
#
# Coordination Sequence:
#
# PCOD9422285 Si02
#       4
#     8   8   8   8
#     4  10  21  38  58  84 120 154 193 236 286 342
#     4  10  21  38  59  83 117 153 192 241 295 349
#     4  10  21  38  59  88 117 151 197 239 287 349
#     4  10  21  38  56  81 115 147 189 246 285 350
#
# _framework density 23.137219000000002
#
# number of rings (size 3 to 8) (size 9 to 14) (size 15 to 20)
#    0.000    2.000    0.000    3.000    0.000    2.000 
#   13.500    0.000    0.000    0.000    0.000    0.000 
#    0.000    0.000    0.000    0.000    0.000    0.000 
#
# Total GULP energy -178865.393005 kJ/mol
# GULP energy per Si atom -5589.543531 kJ/mol
# Density = 2.308456 g / cm^3
# Si number density = 23.137219 Si / 1000 Ang^3
#
#
#
# Elastic Constant Matrix: (Units=GPa)
#
#
# Indices 1 2 3 4 5 6 
#
# 1 238.4001 24.1284 93.1052 0.0000 0.0000 0.0000
# 2 24.1284 80.8851 3.3518 0.0000 0.0000 0.0000
# 3 93.1052 3.3518 169.1188 0.0000 0.0000 0.0000
# 4 0.0000 0.0000 0.0000 53.8605 0.0000 0.0000
# 5 0.0000 0.0000 0.0000 0.0000 52.2991 0.0000
# 6 0.0000 0.0000 0.0000 0.0000 0.0000 -11.5573
#
#
#
# Elastic Compliance Matrix: (Units=1/GPa)
#
#
# Indices 1 2 3 4 5 6 
#
# 1 0.005525 -0.001523 -0.003011 0.000000 0.000000 0.000000
# 2 -0.001523 0.012793 0.000585 0.000000 0.000000 0.000000
# 3 -0.003011 0.000585 0.007559 0.000000 0.000000 0.000000
# 4 0.000000 0.000000 0.000000 0.018566 0.000000 0.000000
# 5 0.000000 0.000000 0.000000 0.000000 0.019121 0.000000
# 6 0.000000 0.000000 0.000000 0.000000 0.000000 -0.086526
#
#
# Mechanical properties :
#
#
# Convention : Reuss Voigt Hill
#
# Bulk Modulus (GPa) = 55.62281 81.06387 68.34334
# Shear Modulus (GPa) = -551.34266 43.44171 -253.95047
#
# Velocity S-wave (km/s) = -15.45347 4.33779 -10.48793
# Velocity P-wave (km/s) = 17.15577 7.75892 10.81942
#
# Compressibility (1/GPa) = 0.01797824
#
# Stress axis : x y z
#
# Youngs Moduli (GPa) = 180.99891 78.16538 132.28738
#
# Poissons Ratio (x) = 0.11907 0.39838
# Poissons Ratio (y) = 0.27572 -0.07740
# Poissons Ratio (z) = 0.54507 -0.04573
#
# Static dielectric constant tensor:
#      x y z
#    x 1.640980 0.000000 0.000000 
#    y 0.000000 1.938120 0.000000 
#    z 0.000000 0.000000 1.811940 
# 
# From -- ./inp_files/26848.got.cif
#   From: 2010.05.17/outbox.cif.g08.bks.cpg/sg54_14_cif.got.tgz:26848.got - 2010.06.03 13:09:01.
