data_PCOD9422258
_publ_section_title
;
Structure prediction by ZEFSAII (Michael W. Deem and Ramdas Pophale) SiO2 
 PCOD9422258
Probable space group: P C C A
;
_chemical_formula_sum "Si O2"
_cell_formula_units_Z 32
_cell_length_a 8.801952
_cell_length_b 5.532634
_cell_length_c 25.318960
_cell_angle_alpha 90.000000
_cell_angle_beta 90.000000
_cell_angle_gamma 90.000000
_cell_volume 1232.982180
_symmetry_space_group_name_H-M "P C C A"
_symmetry_group_IT_number 54
_symmetry_cell_setting 'orthorhombic'
loop_
_space_group_symop_operation_xyz
x,y,z
1/2-x,-y,z
1/2+x,-y,1/2-z
-x,y,1/2-z
-x,-y,-z
1/2+x,y,-z
1/2-x,y,1/2+z
x,-y,1/2+z
loop_
_atom_site_type_symbol
_atom_site_label
_atom_site_fract_x
_atom_site_fract_y
_atom_site_fract_z
Si Si1 0.716773 0.745717 0.567669
Si Si2 0.064872 0.510424 0.691862
Si Si3 0.373495 0.710232 0.542750
Si Si4 0.582941 0.008768 0.353305
O O1 0.750000 0.500000 0.598740
O O2 0.554037 0.669213 0.542630
O O3 0.821816 0.777398 0.515596
O O4 0.750000 0.000000 0.596326
O O5 0.250000 0.500000 0.691744
O O6 0.008059 0.251872 0.669548
O O7 0.000000 0.545990 0.750000
O O8 0.019633 0.744122 0.657157
O O9 0.250000 0.500000 0.560427
O O10 0.387144 0.925075 0.585854
O O11 0.750000 0.000000 0.327073
#
# Coordination Sequence:
#
# PCOD9422258 Si02
#       4
#     8   8   8   8
#     4  11  24  40  61  89 125 172 220 270 319 371
#     4  10  21  40  65  91 120 157 201 254 320 386
#     4  11  22  41  65  93 129 174 223 267 314 377
#     4  10  21  37  62  91 122 163 207 251 308 388
#
# _framework density 25.953334000000002
#
# number of rings (size 3 to 8) (size 9 to 14) (size 15 to 20)
#    0.000    1.500    0.000    7.500    0.000    6.000 
#    0.000    3.750    0.000    0.000    0.000    0.000 
#    0.000    0.000    0.000    0.000    0.000    0.000 
#
# Total GULP energy -178422.820109 kJ/mol
# GULP energy per Si atom -5575.713128 kJ/mol
# Density = 2.589426 g / cm^3
# Si number density = 25.953334 Si / 1000 Ang^3
#
#
#
# Elastic Constant Matrix: (Units=GPa)
#
#
# Indices 1 2 3 4 5 6 
#
# 1 99.9150 49.0543 -8.6999 0.0000 0.0000 0.0000
# 2 49.0543 281.0788 59.1035 0.0000 0.0000 0.0000
# 3 -8.6999 59.1035 67.1079 0.0000 0.0000 0.0000
# 4 0.0000 0.0000 0.0000 95.7199 0.0000 0.0000
# 5 0.0000 0.0000 0.0000 0.0000 32.7428 0.0000
# 6 0.0000 0.0000 0.0000 0.0000 0.0000 41.7285
#
#
#
# Elastic Compliance Matrix: (Units=1/GPa)
#
#
# Indices 1 2 3 4 5 6 
#
# 1 0.011801 -0.002922 0.004104 0.000000 0.000000 0.000000
# 2 -0.002922 0.005090 -0.004862 0.000000 0.000000 0.000000
# 3 0.004104 -0.004862 0.019715 0.000000 0.000000 0.000000
# 4 0.000000 0.000000 0.000000 0.010447 0.000000 0.000000
# 5 0.000000 0.000000 0.000000 0.000000 0.030541 0.000000
# 6 0.000000 0.000000 0.000000 0.000000 0.000000 0.023964
#
#
# Mechanical properties :
#
#
# Convention : Reuss Voigt Hill
#
# Bulk Modulus (GPa) = 34.19404 71.89084 53.04244
# Shear Modulus (GPa) = 42.13443 57.28116 49.70780
#
# Velocity S-wave (km/s) = 4.03360 4.70306 4.38113
# Velocity P-wave (km/s) = 5.90737 7.56649 6.78782
#
# Compressibility (1/GPa) = 0.02924486
#
# Stress axis : x y z
#
# Youngs Moduli (GPa) = 84.74162 196.46234 50.72218
#
# Poissons Ratio (x) = 0.57413 -0.20814
# Poissons Ratio (y) = 0.24764 0.24660
# Poissons Ratio (z) = -0.34775 0.95515
#
# Static dielectric constant tensor:
#      x y z
#    x 2.136400 0.000000 0.000000 
#    y 0.000000 2.393030 0.000000 
#    z 0.000000 0.000000 1.996400 
# 
# From -- ./inp_files/27507.got.cif
#   From: 2010.05.17/outbox.cif.g08.bks.cpg/sg54_14_cif.got.tgz:27507.got - 2010.06.03 13:09:01.
