data_PCOD9422067
_publ_section_title
;
Structure prediction by ZEFSAII (Michael W. Deem and Ramdas Pophale) SiO2 
 PCOD9422067
Probable space group: P C C A
;
_chemical_formula_sum "Si O2"
_cell_formula_units_Z 32
_cell_length_a 15.103640
_cell_length_b 9.021441
_cell_length_c 11.349770
_cell_angle_alpha 90.000000
_cell_angle_beta 90.000000
_cell_angle_gamma 90.000000
_cell_volume 1546.481039
_symmetry_space_group_name_H-M "P C C A"
_symmetry_group_IT_number 54
_symmetry_cell_setting 'orthorhombic'
loop_
_space_group_symop_operation_xyz
x,y,z
1/2-x,-y,z
1/2+x,-y,1/2-z
-x,y,1/2-z
-x,-y,-z
1/2+x,y,-z
1/2-x,y,1/2+z
x,-y,1/2+z
loop_
_atom_site_type_symbol
_atom_site_label
_atom_site_fract_x
_atom_site_fract_y
_atom_site_fract_z
Si Si1 0.624987 0.237882 0.947624
Si Si2 0.349957 0.495915 0.716347
Si Si3 0.500000 0.713135 0.250000
Si Si4 0.597119 0.814721 0.720326
Si Si5 0.750000 0.000000 0.835520
O O1 0.650936 0.404112 0.906238
O O2 0.541354 0.203216 0.861343
O O3 0.703517 0.126946 0.912672
O O4 0.602993 0.224179 0.082996
O O5 0.250000 0.500000 0.763399
O O6 0.419096 0.394527 0.789578
O O7 0.386499 0.660921 0.709867
O O8 0.500000 0.871742 0.750000
O O9 0.674020 0.926743 0.756356
#
# Coordination Sequence:
#
# PCOD9422067 Si02
#       5
#     8   8   4   8   4
#     4  10  24  46  66  99 139 176 222 292 331 406
#     4  10  20  43  68 102 128 174 226 279 342 395
#     4   8  20  42  68  96 134 168 224 286 344 382
#     4  12  25  45  74 103 133 184 233 275 350 411
#     4  12  26  48  62 104 140 186 232 276 346 406
#
# _framework density 20.692138
#
# number of rings (size 3 to 8) (size 9 to 14) (size 15 to 20)
#    1.500    0.000    3.750    0.750    1.750    6.000 
#    9.000    0.000    0.000    0.000    0.000    0.000 
#    0.000    0.000    0.000    0.000    0.000    0.000 
#
# Total GULP energy -178443.345047 kJ/mol
# GULP energy per Si atom -5576.354533 kJ/mol
# Density = 2.064504 g / cm^3
# Si number density = 20.692138 Si / 1000 Ang^3
#
#
#
# Elastic Constant Matrix: (Units=GPa)
#
#
# Indices 1 2 3 4 5 6 
#
# 1 166.8866 46.7439 54.9231 0.0000 0.0000 0.0000
# 2 46.7439 98.2804 60.5065 0.0000 0.0000 0.0000
# 3 54.9231 60.5065 99.5531 0.0000 0.0000 0.0000
# 4 0.0000 0.0000 0.0000 14.0557 0.0000 0.0000
# 5 0.0000 0.0000 0.0000 0.0000 15.8140 0.0000
# 6 0.0000 0.0000 0.0000 0.0000 0.0000-1601.8531
#
#
#
# Elastic Compliance Matrix: (Units=1/GPa)
#
#
# Indices 1 2 3 4 5 6 
#
# 1 0.007480 -0.001625 -0.003139 0.000000 0.000000 0.000000
# 2 -0.001625 0.016612 -0.009200 0.000000 0.000000 0.000000
# 3 -0.003139 -0.009200 0.017368 0.000000 0.000000 0.000000
# 4 0.000000 0.000000 0.000000 0.071146 0.000000 0.000000
# 5 0.000000 0.000000 0.000000 0.000000 0.063235 0.000000
# 6 0.000000 0.000000 0.000000 0.000000 0.000000 -0.000624
#
#
# Mechanical properties :
#
#
# Convention : Reuss Voigt Hill
#
# Bulk Modulus (GPa) = 73.89769 76.56303 75.23036
# Shear Modulus (GPa) = 24.07831 -300.89359 -138.40764
#
# Velocity S-wave (km/s) = 3.41493 -12.07187 -8.18744
# Velocity P-wave (km/s) = 7.16515 12.53896 7.27620
#
# Compressibility (1/GPa) = 0.01353222
#
# Stress axis : x y z
#
# Youngs Moduli (GPa) = 133.68251 60.19837 57.57666
#
# Poissons Ratio (x) = 0.09783 0.18074
# Poissons Ratio (y) = 0.21726 0.52969
# Poissons Ratio (z) = 0.41965 0.55381
#
# Static dielectric constant tensor:
#      x y z
#    x 1.772650 0.000000 0.000000 
#    y 0.000000 1.762710 0.000000 
#    z 0.000000 0.000000 1.694250 
# 
# From -- ./inp_files/8098.got.cif
#   From: 2010.05.17/outbox.cif.g08.bks.cpg/sg54_5_cif.got.tgz:8098.got - 2010.06.03 13:09:01.
