data_PCOD9422424
_publ_section_title
;
Structure prediction by ZEFSAII (Michael W. Deem and Ramdas Pophale) SiO2 
 PCOD9422424
Probable space group: P C C A
;
_chemical_formula_sum "Si O2"
_cell_formula_units_Z 60
_cell_length_a 25.591186
_cell_length_b 7.549966
_cell_length_c 16.025511
_cell_angle_alpha 90.000000
_cell_angle_beta 90.000000
_cell_angle_gamma 90.000000
_cell_volume 3096.330393
_symmetry_space_group_name_H-M "P C C A"
_symmetry_group_IT_number 54
_symmetry_cell_setting 'orthorhombic'
loop_
_space_group_symop_operation_xyz
x,y,z
1/2-x,-y,z
1/2+x,-y,1/2-z
-x,y,1/2-z
-x,-y,-z
1/2+x,y,-z
1/2-x,y,1/2+z
x,-y,1/2+z
loop_
_atom_site_type_symbol
_atom_site_label
_atom_site_fract_x
_atom_site_fract_y
_atom_site_fract_z
Si Si1 0.442619 0.010074 0.958913
Si Si2 0.250000 0.500000 0.110125
Si Si3 0.566014 0.373839 0.829984
Si Si4 0.715078 0.832185 0.490973
Si Si5 0.872882 0.978986 0.882468
Si Si6 0.450638 0.628065 0.369098
Si Si7 0.621255 0.685318 0.606465
Si Si8 0.351078 0.348297 0.199793
O O1 0.422387 0.837150 0.909571
O O2 0.440067 0.173957 0.897251
O O3 0.403053 0.041061 0.034907
O O4 0.500000 0.000000 0.000000
O O5 0.245656 0.332696 0.047644
O O6 0.297635 0.440753 0.170048
O O7 0.592439 0.183701 0.847857
O O8 0.556254 0.384603 0.730705
O O9 0.512650 0.402473 0.880872
O O10 0.605686 0.532106 0.846532
O O11 0.682212 0.904707 0.412802
O O12 0.671558 0.750709 0.553853
O O13 0.750000 0.000000 0.522311
O O14 0.860983 0.145687 0.825398
O O15 0.410736 0.494348 0.414155
O O16 0.640567 0.653549 0.700723
#
# Coordination Sequence:
#
# PCOD9422424 Si02
#       8
#     8   4   8   8   8   8   8   8
#     4  11  23  38  61  95 130 173 211 252 318 392
#     4  12  24  42  72  92 120 166 226 268 330 384
#     4  10  21  39  62  93 133 166 211 262 316 384
#     4  11  24  45  64  93 126 165 210 275 330 383
#     4  11  22  39  63  91 127 165 209 262 316 385
#     4  10  22  39  62  93 131 174 207 258 320 384
#     4  10  26  44  63  95 134 165 217 269 328 393
#     4  11  24  43  66  95 123 172 218 271 323 391
#
# _framework density 19.377777999999999
#
# number of rings (size 3 to 8) (size 9 to 14) (size 15 to 20)
#    0.000    1.333    4.000    0.800    3.733    1.067 
#    2.400    1.333    0.000    0.000    0.000    0.000 
#    0.000    0.000    0.000    0.000    0.000    0.000 
#
# Total GULP energy -334496.222036 kJ/mol
# GULP energy per Si atom -5574.937034 kJ/mol
# Density = 1.933367 g / cm^3
# Si number density = 19.377778 Si / 1000 Ang^3
#
#
#
# Elastic Constant Matrix: (Units=GPa)
#
#
# Indices 1 2 3 4 5 6 
#
# 1 55.2491 11.4679 9.2906 0.0000 0.0000 0.0000
# 2 11.4679 63.7324 16.4641 0.0000 0.0000 0.0000
# 3 9.2906 16.4641 32.3665 0.0000 0.0000 0.0000
# 4 0.0000 0.0000 0.0000 -3.8328 0.0000 0.0000
# 5 0.0000 0.0000 0.0000 0.0000 17.6244 0.0000
# 6 0.0000 0.0000 0.0000 0.0000 0.0000 37.9165
#
#
#
# Elastic Compliance Matrix: (Units=1/GPa)
#
#
# Indices 1 2 3 4 5 6 
#
# 1 0.019319 -0.002353 -0.004349 0.000000 0.000000 0.000000
# 2 -0.002353 0.018351 -0.008659 0.000000 0.000000 0.000000
# 3 -0.004349 -0.008659 0.036549 0.000000 0.000000 0.000000
# 4 0.000000 0.000000 0.000000 -0.260909 0.000000 0.000000
# 5 0.000000 0.000000 0.000000 0.000000 0.056740 0.000000
# 6 0.000000 0.000000 0.000000 0.000000 0.000000 0.026374
#
#
# Mechanical properties :
#
#
# Convention : Reuss Voigt Hill
#
# Bulk Modulus (GPa) = 22.98964 25.08813 24.03889
# Shear Modulus (GPa) = -85.68243 17.94999 -33.86622
#
# Velocity S-wave (km/s) = -6.65679 3.04685 -4.18507
# Velocity P-wave (km/s) = 6.86980 5.03515 3.30465
#
# Compressibility (1/GPa) = 0.04349785
#
# Stress axis : x y z
#
# Youngs Moduli (GPa) = 51.76118 54.49311 27.36043
#
# Poissons Ratio (x) = 0.12822 0.11898
# Poissons Ratio (y) = 0.12179 0.23692
# Poissons Ratio (z) = 0.22509 0.47187
#
# Static dielectric constant tensor:
#      x y z
#    x 1.761870 0.000000 0.000000 
#    y 0.000000 1.690650 0.000000 
#    z 0.000000 0.000000 1.670840 
# 
# From -- ./inp_files/19266.got.cif
#   From: 2010.05.17/outbox.cif.g08.bks.cpg/sg54_10_cif.got.tgz:19266.got - 2010.06.03 13:09:01.
