data_PCOD9422997
_publ_section_title
;
Structure prediction by ZEFSAII (Michael W. Deem and Ramdas Pophale) SiO2 
 PCOD9422997
Probable space group: P C C A
;
_chemical_formula_sum "Si O2"
_cell_formula_units_Z 60
_cell_length_a 19.014780
_cell_length_b 6.531755
_cell_length_c 23.512063
_cell_angle_alpha 90.000000
_cell_angle_beta 90.000000
_cell_angle_gamma 90.000000
_cell_volume 2920.195505
_symmetry_space_group_name_H-M "P C C A"
_symmetry_group_IT_number 54
_symmetry_cell_setting 'orthorhombic'
loop_
_space_group_symop_operation_xyz
x,y,z
1/2-x,-y,z
1/2+x,-y,1/2-z
-x,y,1/2-z
-x,-y,-z
1/2+x,y,-z
1/2-x,y,1/2+z
x,-y,1/2+z
loop_
_atom_site_type_symbol
_atom_site_label
_atom_site_fract_x
_atom_site_fract_y
_atom_site_fract_z
Si Si1 0.445121 0.756434 0.698925
Si Si2 0.554617 0.484084 0.419296
Si Si3 0.141186 0.328224 0.368275
Si Si4 0.250000 0.000000 0.837297
Si Si5 0.334760 0.538596 0.988437
Si Si6 0.496559 0.121032 0.866845
Si Si7 0.188091 0.632508 0.268778
Si Si8 0.450506 0.156871 0.464059
O O1 0.500000 0.719341 0.750000
O O2 0.450314 0.620650 0.642248
O O3 0.371758 0.692209 0.725521
O O4 0.457369 0.990112 0.676965
O O5 0.626658 0.457361 0.454577
O O6 0.540028 0.724030 0.407205
O O7 0.495714 0.362702 0.455013
O O8 0.139320 0.422576 0.431239
O O9 0.066114 0.259692 0.343424
O O10 0.167092 0.494204 0.323011
O O11 0.195448 0.139968 0.371125
O O12 0.288902 0.843371 0.796501
O O13 0.250000 0.500000 0.990795
O O14 0.372273 0.765690 0.981666
O O15 0.452090 0.957077 0.903648
O O16 0.250000 0.500000 0.240395
O O17 0.500000 0.000000 0.500000
#
# Coordination Sequence:
#
# PCOD9422997 Si02
#       8
#     8   8   8   4   8   8   8   8
#     4  11  25  42  69 101 134 178 250 301 350 434
#     4  11  24  46  65  99 140 186 226 297 366 426
#     4  11  23  40  67 102 140 181 233 304 356 427
#     4  10  22  40  66  96 138 186 232 286 372 432
#     4  12  25  42  68 104 146 185 237 292 367 439
#     4  11  23  39  69  97 130 178 239 295 348 419
#     4  10  23  44  65  96 139 184 232 301 370 429
#     4  11  22  42  70  95 136 186 235 280 350 431
#
# _framework density 20.546571
#
# number of rings (size 3 to 8) (size 9 to 14) (size 15 to 20)
#    0.000    1.067    2.667    4.000    5.600    4.267 
#    0.000    0.000    0.000    0.000    0.000    0.000 
#    0.000    0.000    0.000    0.000    0.000    0.000 
#
# Total GULP energy -334456.969458 kJ/mol
# GULP energy per Si atom -5574.282824 kJ/mol
# Density = 2.049981 g / cm^3
# Si number density = 20.546571 Si / 1000 Ang^3
#
#
#
# Elastic Constant Matrix: (Units=GPa)
#
#
# Indices 1 2 3 4 5 6 
#
# 1 143.8296 72.2549 57.3311 0.0000 0.0000 0.0000
# 2 72.2549 126.3886 57.1815 0.0000 0.0000 0.0000
# 3 57.3311 57.1815 86.6144 0.0000 0.0000 0.0000
# 4 0.0000 0.0000 0.0000 -11.2216 0.0000 0.0000
# 5 0.0000 0.0000 0.0000 0.0000 36.7691 0.0000
# 6 0.0000 0.0000 0.0000 0.0000 0.0000 35.8622
#
#
#
# Elastic Compliance Matrix: (Units=1/GPa)
#
#
# Indices 1 2 3 4 5 6 
#
# 1 0.010808 -0.004195 -0.004384 0.000000 0.000000 0.000000
# 2 -0.004195 0.012910 -0.005746 0.000000 0.000000 0.000000
# 3 -0.004384 -0.005746 0.018241 0.000000 0.000000 0.000000
# 4 0.000000 0.000000 0.000000 -0.089114 0.000000 0.000000
# 5 0.000000 0.000000 0.000000 0.000000 0.027197 0.000000
# 6 0.000000 0.000000 0.000000 0.000000 0.000000 0.027884
#
#
# Mechanical properties :
#
#
# Convention : Reuss Voigt Hill
#
# Bulk Modulus (GPa) = 75.14476 81.15196 78.14836
# Shear Modulus (GPa) = 121.91150 23.61962 72.76556
#
# Velocity S-wave (km/s) = 7.71123 3.39420 5.95750
# Velocity P-wave (km/s) = 10.76737 7.41236 9.24336
#
# Compressibility (1/GPa) = 0.01330765
#
# Stress axis : x y z
#
# Youngs Moduli (GPa) = 92.52658 77.45826 54.82151
#
# Poissons Ratio (x) = 0.32495 0.24035
# Poissons Ratio (y) = 0.38816 0.31502
# Poissons Ratio (z) = 0.40566 0.44510
#
# Static dielectric constant tensor:
#      x y z
#    x 1.826780 0.000000 0.000000 
#    y 0.000000 1.768030 0.000000 
#    z 0.000000 0.000000 1.767710 
# 
# From -- ./inp_files/26652.got.cif
#   From: 2010.05.17/outbox.cif.g08.bks.cpg/sg54_14_cif.got.tgz:26652.got - 2010.06.03 13:09:01.
