data_PCOD9422356
_publ_section_title
;
Structure prediction by ZEFSAII (Michael W. Deem and Ramdas Pophale) SiO2 
 PCOD9422356
Probable space group: P C C A
;
_chemical_formula_sum "Si O2"
_cell_formula_units_Z 56
_cell_length_a 20.299024
_cell_length_b 10.399219
_cell_length_c 13.503604
_cell_angle_alpha 90.000000
_cell_angle_beta 90.000000
_cell_angle_gamma 90.000000
_cell_volume 2850.529730
_symmetry_space_group_name_H-M "P C C A"
_symmetry_group_IT_number 54
_symmetry_cell_setting 'orthorhombic'
loop_
_space_group_symop_operation_xyz
x,y,z
1/2-x,-y,z
1/2+x,-y,1/2-z
-x,y,1/2-z
-x,-y,-z
1/2+x,y,-z
1/2-x,y,1/2+z
x,-y,1/2+z
loop_
_atom_site_type_symbol
_atom_site_label
_atom_site_fract_x
_atom_site_fract_y
_atom_site_fract_z
Si Si1 0.249146 0.220762 0.482796
Si Si2 0.157984 0.401959 0.612562
Si Si3 0.687588 0.585664 0.658799
Si Si4 0.587601 0.157091 0.326158
Si Si5 0.055678 0.851438 0.399770
Si Si6 0.929433 0.570088 0.018374
Si Si7 0.156703 0.999716 0.023071
O O1 0.214539 0.334482 0.545666
O O2 0.290229 0.280300 0.392151
O O3 0.300715 0.128249 0.538514
O O4 0.193204 0.113626 0.461289
O O5 0.183581 0.416984 0.723386
O O6 0.101241 0.294499 0.623946
O O7 0.122272 0.526753 0.567150
O O8 0.750000 0.500000 0.630210
O O9 0.617427 0.538112 0.614065
O O10 0.517596 0.112006 0.367178
O O11 0.588580 0.171139 0.208373
O O12 0.641066 0.061783 0.371085
O O13 0.056672 0.720619 0.464169
O O14 0.093220 0.958564 0.461416
O O15 0.000000 0.500000 0.000000
#
# Coordination Sequence:
#
# PCOD9422356 Si02
#       7
#     8   8   8   8   8   8   8
#     4  10  22  40  61  94 127 168 216 265 332 383
#     4  11  23  40  64  93 129 170 219 268 326 397
#     4  12  25  41  65  98 131 171 221 279 333 395
#     4  10  21  38  63  91 122 171 219 257 328 387
#     4  11  21  39  63  91 125 168 218 268 321 392
#     4  12  24  41  68  94 131 174 219 269 331 401
#     4  10  21  38  63  90 128 167 213 269 320 386
#
# _framework density 19.645472000000002
#
# number of rings (size 3 to 8) (size 9 to 14) (size 15 to 20)
#    0.000    1.143    5.714    0.429    2.000    1.714 
#    0.000    2.857    0.000    0.000    0.000    0.000 
#    0.000    0.000    0.000    0.000    0.000    0.000 
#
# Total GULP energy -311914.511657 kJ/mol
# GULP energy per Si atom -5569.901994 kJ/mol
# Density = 1.960076 g / cm^3
# Si number density = 19.645472 Si / 1000 Ang^3
#
#
#
# Elastic Constant Matrix: (Units=GPa)
#
#
# Indices 1 2 3 4 5 6 
#
# 1 101.7013 37.5168 38.9882 0.0000 0.0000 0.0000
# 2 37.5168 81.6698 49.2197 0.0000 0.0000 0.0000
# 3 38.9882 49.2197 108.5611 0.0000 0.0000 0.0000
# 4 0.0000 0.0000 0.0000 26.8421 0.0000 0.0000
# 5 0.0000 0.0000 0.0000 0.0000 25.3151 0.0000
# 6 0.0000 0.0000 0.0000 0.0000 0.0000 24.9360
#
#
#
# Elastic Compliance Matrix: (Units=1/GPa)
#
#
# Indices 1 2 3 4 5 6 
#
# 1 0.012335 -0.004123 -0.002561 0.000000 0.000000 0.000000
# 2 -0.004123 0.018226 -0.006783 0.000000 0.000000 0.000000
# 3 -0.002561 -0.006783 0.013206 0.000000 0.000000 0.000000
# 4 0.000000 0.000000 0.000000 0.037255 0.000000 0.000000
# 5 0.000000 0.000000 0.000000 0.000000 0.039502 0.000000
# 6 0.000000 0.000000 0.000000 0.000000 0.000000 0.040103
#
#
# Mechanical properties :
#
#
# Convention : Reuss Voigt Hill
#
# Bulk Modulus (GPa) = 59.40144 60.37574 59.88859
# Shear Modulus (GPa) = 25.88366 26.49916 26.19141
#
# Velocity S-wave (km/s) = 3.63373 3.67668 3.65527
# Velocity P-wave (km/s) = 6.92154 6.98737 6.95453
#
# Compressibility (1/GPa) = 0.01683461
#
# Stress axis : x y z
#
# Youngs Moduli (GPa) = 81.06733 54.86602 75.72235
#
# Poissons Ratio (x) = 0.22623 0.19390
# Poissons Ratio (y) = 0.33427 0.51360
# Poissons Ratio (z) = 0.20759 0.37214
#
# Static dielectric constant tensor:
#      x y z
#    x 1.767360 0.000000 0.000000 
#    y 0.000000 1.719500 0.000000 
#    z 0.000000 0.000000 1.672140 
# 
# From -- ./inp_files/14680.got.cif
#   From: 2010.05.17/outbox.cif.g08.bks.cpg/sg54_8_cif.got.tgz:14680.got - 2010.06.03 13:09:01.
