data_PCOD9422165
_publ_section_title
;
Structure prediction by ZEFSAII (Michael W. Deem and Ramdas Pophale) SiO2 
 PCOD9422165
Probable space group: P C C A
;
_chemical_formula_sum "Si O2"
_cell_formula_units_Z 40
_cell_length_a 10.942632
_cell_length_b 8.295862
_cell_length_c 21.459816
_cell_angle_alpha 90.000000
_cell_angle_beta 90.000000
_cell_angle_gamma 90.000000
_cell_volume 1948.091301
_symmetry_space_group_name_H-M "P C C A"
_symmetry_group_IT_number 54
_symmetry_cell_setting 'orthorhombic'
loop_
_space_group_symop_operation_xyz
x,y,z
1/2-x,-y,z
1/2+x,-y,1/2-z
-x,y,1/2-z
-x,-y,-z
1/2+x,y,-z
1/2-x,y,1/2+z
x,-y,1/2+z
loop_
_atom_site_type_symbol
_atom_site_label
_atom_site_fract_x
_atom_site_fract_y
_atom_site_fract_z
Si Si1 0.362578 0.620943 0.634064
Si Si2 0.869439 0.072304 0.930591
Si Si3 0.130560 0.072301 0.930590
Si Si4 0.862577 0.620943 0.134064
Si Si5 0.359437 0.868998 0.750000
O O1 0.250000 0.500000 0.635412
O O2 0.500000 0.548514 0.638002
O O3 0.350522 0.748781 0.690606
O O4 0.358542 0.735427 0.572977
O O5 0.750000 0.000000 0.899371
O O6 0.872379 0.000004 0.000001
O O7 0.999999 0.029066 0.901217
O O8 0.141457 0.264571 0.927024
O O9 0.250000 0.000000 0.899370
O O10 0.750000 0.500000 0.135410
O O11 0.850522 0.748781 0.190606
O O12 0.500000 0.935527 0.750000
O O13 0.250000 0.000000 0.750000
#
# Coordination Sequence:
#
# PCOD9422165 Si02
#       5
#     8   8   8   8   8
#     4  10  21  36  55  82 114 146 182 225 274 327
#     4   9  18  34  55  77 103 139 183 226 269 321
#     4   9  18  34  55  77 103 139 183 226 269 321
#     4  10  21  36  55  82 114 146 182 225 274 327
#     4  10  21  36  56  84 114 146 185 224 268 326
#
# _framework density 20.532920000000001
#
# number of rings (size 3 to 8) (size 9 to 14) (size 15 to 20)
#    0.000    2.400    0.000    1.800    0.000    3.200 
#    0.000    4.000    0.000   21.600    0.000    0.000 
#    0.000    0.000    0.000    0.000    0.000    0.000 
#
# Total GULP energy -222687.749164 kJ/mol
# GULP energy per Si atom -5567.193729 kJ/mol
# Density = 2.048619 g / cm^3
# Si number density = 20.532920 Si / 1000 Ang^3
#
#
#
# Elastic Constant Matrix: (Units=GPa)
#
#
# Indices 1 2 3 4 5 6 
#
# 1 295.6359 107.8659 15.9906 0.0000 0.0000 0.0000
# 2 107.8659 83.4707 36.3979 0.0000 0.0000 0.0000
# 3 15.9906 36.3979 85.5058 0.0000 0.0000 0.0000
# 4 0.0000 0.0000 0.0000 26.9797 0.0000 0.0000
# 5 0.0000 0.0000 0.0000 0.0000 3.5430 0.0000
# 6 0.0000 0.0000 0.0000 0.0000 0.0000 54.1344
#
#
#
# Elastic Compliance Matrix: (Units=1/GPa)
#
#
# Indices 1 2 3 4 5 6 
#
# 1 0.007022 -0.010440 0.003131 0.000000 0.000000 0.000000
# 2 -0.010440 0.030231 -0.010916 0.000000 0.000000 0.000000
# 3 0.003131 -0.010916 0.015757 0.000000 0.000000 0.000000
# 4 0.000000 0.000000 0.000000 0.037065 0.000000 0.000000
# 5 0.000000 0.000000 0.000000 0.000000 0.282249 0.000000
# 6 0.000000 0.000000 0.000000 0.000000 0.000000 0.018473
#
#
# Mechanical properties :
#
#
# Convention : Reuss Voigt Hill
#
# Bulk Modulus (GPa) = 60.38957 87.23570 73.81263
# Shear Modulus (GPa) = 11.55355 37.22194 24.38775
#
# Velocity S-wave (km/s) = 2.37467 4.26231 3.45010
# Velocity P-wave (km/s) = 6.08224 8.17319 7.20398
#
# Compressibility (1/GPa) = 0.01655915
#
# Stress axis : x y z
#
# Youngs Moduli (GPa) = 142.40409 33.07821 63.46580
#
# Poissons Ratio (x) = 0.34533 -0.19869
# Poissons Ratio (y) = 1.48667 0.69282
# Poissons Ratio (z) = -0.44583 0.36110
#
# Static dielectric constant tensor:
#      x y z
#    x 1.829670 0.000000 0.000000 
#    y 0.000000 1.715040 0.000000 
#    z 0.000000 0.000000 1.908610 
# 
# From -- ./inp_files/26031.got.cif
#   From: 2010.05.17/outbox.cif.g08.bks.cpg/sg54_14_cif.got.tgz:26031.got - 2010.06.03 13:09:01.
