data_PCOD9422686
_publ_section_title
;
Structure prediction by ZEFSAII (Michael W. Deem and Ramdas Pophale) SiO2 
 PCOD9422686
Probable space group: P C C A
;
_chemical_formula_sum "Si O2"
_cell_formula_units_Z 40
_cell_length_a 20.110772
_cell_length_b 5.217111
_cell_length_c 18.242069
_cell_angle_alpha 90.000000
_cell_angle_beta 90.000000
_cell_angle_gamma 90.000000
_cell_volume 1913.960248
_symmetry_space_group_name_H-M "P C C A"
_symmetry_group_IT_number 54
_symmetry_cell_setting 'orthorhombic'
loop_
_space_group_symop_operation_xyz
x,y,z
1/2-x,-y,z
1/2+x,-y,1/2-z
-x,y,1/2-z
-x,-y,-z
1/2+x,y,-z
1/2-x,y,1/2+z
x,-y,1/2+z
loop_
_atom_site_type_symbol
_atom_site_label
_atom_site_fract_x
_atom_site_fract_y
_atom_site_fract_z
Si Si1 0.174671 0.483930 0.047980
Si Si2 0.578345 0.728980 0.739191
Si Si3 0.072804 0.254745 0.931041
Si Si4 0.932985 0.128544 0.946527
Si Si5 0.611636 0.790631 0.326694
O O1 0.250000 0.500000 0.023364
O O2 0.137765 0.744991 0.070607
O O3 0.170251 0.302795 0.119437
O O4 0.125940 0.392413 0.982866
O O5 0.500000 0.790079 0.750000
O O6 0.592579 0.722610 0.652867
O O7 0.590702 0.457394 0.779475
O O8 0.619121 0.964467 0.774430
O O9 0.994119 0.321610 0.934931
O O10 0.069308 0.976195 0.970864
O O11 0.940717 0.898034 0.887808
#
# Coordination Sequence:
#
# PCOD9422686 Si02
#       5
#     8   8   8   8   8
#     4  11  24  45  72  95 137 190 240 284 341 422
#     4  12  23  39  68 105 143 177 219 291 355 413
#     4  10  23  38  71 103 139 172 231 291 348 405
#     4  10  21  43  67 105 130 181 230 292 338 416
#     4  11  23  41  66  99 135 181 227 277 352 415
#
# _framework density 20.899073999999999
#
# number of rings (size 3 to 8) (size 9 to 14) (size 15 to 20)
#    0.000    1.200    4.000    1.200    2.800    4.800 
#    0.000    1.000    4.400    0.000    0.000    0.000 
#    0.000    0.000    0.000    0.000    0.000    0.000 
#
# Total GULP energy -222946.258201 kJ/mol
# GULP energy per Si atom -5573.656455 kJ/mol
# Density = 2.085151 g / cm^3
# Si number density = 20.899074 Si / 1000 Ang^3
#
#
#
# Elastic Constant Matrix: (Units=GPa)
#
#
# Indices 1 2 3 4 5 6 
#
# 1 99.1177 31.0002 29.5327 0.0000 0.0000 0.0000
# 2 31.0002 116.8515 63.7049 0.0000 0.0000 0.0000
# 3 29.5327 63.7049 177.8242 0.0000 0.0000 0.0000
# 4 0.0000 0.0000 0.0000 37.6349 0.0000 0.0000
# 5 0.0000 0.0000 0.0000 0.0000 14.2954 0.0000
# 6 0.0000 0.0000 0.0000 0.0000 0.0000 8.2547
#
#
#
# Elastic Compliance Matrix: (Units=1/GPa)
#
#
# Indices 1 2 3 4 5 6 
#
# 1 0.011139 -0.002419 -0.000983 0.000000 0.000000 0.000000
# 2 -0.002419 0.011160 -0.003596 0.000000 0.000000 0.000000
# 3 -0.000983 -0.003596 0.007075 0.000000 0.000000 0.000000
# 4 0.000000 0.000000 0.000000 0.026571 0.000000 0.000000
# 5 0.000000 0.000000 0.000000 0.000000 0.069953 0.000000
# 6 0.000000 0.000000 0.000000 0.000000 0.000000 0.121143
#
#
# Mechanical properties :
#
#
# Convention : Reuss Voigt Hill
#
# Bulk Modulus (GPa) = 65.03301 71.36321 68.19811
# Shear Modulus (GPa) = 18.78546 30.00738 24.39642
#
# Velocity S-wave (km/s) = 3.00136 3.79334 3.42035
# Velocity P-wave (km/s) = 6.57237 7.30798 6.94992
#
# Compressibility (1/GPa) = 0.01537681
#
# Stress axis : x y z
#
# Youngs Moduli (GPa) = 89.77833 89.60345 141.33814
#
# Poissons Ratio (x) = 0.21674 0.13898
# Poissons Ratio (y) = 0.21717 0.50831
# Poissons Ratio (z) = 0.08828 0.32225
#
# Static dielectric constant tensor:
#      x y z
#    x 1.766750 0.000000 0.000000 
#    y 0.000000 1.859140 0.000000 
#    z 0.000000 0.000000 1.779620 
# 
# From -- ./inp_files/18785.got.cif
#   From: 2010.05.17/outbox.cif.g08.bks.cpg/sg54_10_cif.got.tgz:18785.got - 2010.06.03 13:09:01.
