data_PCOD9422951
_publ_section_title
;
Structure prediction by ZEFSAII (Michael W. Deem and Ramdas Pophale) SiO2 
 PCOD9422951
Probable space group: P C C A
;
_chemical_formula_sum "Si O2"
_cell_formula_units_Z 40
_cell_length_a 20.589068
_cell_length_b 8.215464
_cell_length_c 10.888573
_cell_angle_alpha 90.000000
_cell_angle_beta 90.000000
_cell_angle_gamma 90.000000
_cell_volume 1841.788479
_symmetry_space_group_name_H-M "P C C A"
_symmetry_group_IT_number 54
_symmetry_cell_setting 'orthorhombic'
loop_
_space_group_symop_operation_xyz
x,y,z
1/2-x,-y,z
1/2+x,-y,1/2-z
-x,y,1/2-z
-x,-y,-z
1/2+x,y,-z
1/2-x,y,1/2+z
x,-y,1/2+z
loop_
_atom_site_type_symbol
_atom_site_label
_atom_site_fract_x
_atom_site_fract_y
_atom_site_fract_z
Si Si1 0.428373 0.641885 0.275772
Si Si2 0.055726 0.987530 0.850715
Si Si3 0.815854 0.083657 0.797576
Si Si4 0.185083 0.603834 0.335440
Si Si5 0.875104 0.831195 0.962743
O O1 0.500000 0.571468 0.250000
O O2 0.439821 0.793635 0.367928
O O3 0.377053 0.511606 0.320782
O O4 0.398271 0.726903 0.154105
O O5 0.000000 0.019897 0.750000
O O6 0.123256 0.038086 0.786602
O O7 0.060219 0.099182 0.970614
O O8 0.808220 0.276713 0.783037
O O9 0.750000 0.000000 0.752513
O O10 0.834582 0.991581 0.922875
O O11 0.250000 0.500000 0.350392
O O12 0.169297 0.718861 0.451377
#
# Coordination Sequence:
#
# PCOD9422951 Si02
#       5
#     8   8   8   8   8
#     4  10  23  41  63  96 130 162 210 269 321 375
#     4   9  20  40  64  92 127 167 215 259 305 378
#     4  10  22  40  63  90 124 164 214 258 302 377
#     4  11  24  42  64  95 132 164 209 268 320 372
#     4  10  23  41  65  91 124 175 215 254 320 380
#
# _framework density 21.718021
#
# number of rings (size 3 to 8) (size 9 to 14) (size 15 to 20)
#    0.000    2.000    0.000    2.400    0.000   20.000 
#    0.000    0.000    0.000    0.000    0.000    0.000 
#    0.000    0.000    0.000    0.000    0.000    0.000 
#
# Total GULP energy -223284.284951 kJ/mol
# GULP energy per Si atom -5582.107124 kJ/mol
# Density = 2.166859 g / cm^3
# Si number density = 21.718021 Si / 1000 Ang^3
#
#
#
# Elastic Constant Matrix: (Units=GPa)
#
#
# Indices 1 2 3 4 5 6 
#
# 1 146.2215 58.8948 15.0076 0.0000 0.0000 0.0000
# 2 58.8948 117.7778 58.1130 0.0000 0.0000 0.0000
# 3 15.0076 58.1130 74.0359 0.0000 0.0000 0.0000
# 4 0.0000 0.0000 0.0000 20.7449 0.0000 0.0000
# 5 0.0000 0.0000 0.0000 0.0000 23.3673 0.0000
# 6 0.0000 0.0000 0.0000 0.0000 0.0000 41.8035
#
#
#
# Elastic Compliance Matrix: (Units=1/GPa)
#
#
# Indices 1 2 3 4 5 6 
#
# 1 0.008895 -0.005808 0.002756 0.000000 0.000000 0.000000
# 2 -0.005808 0.017649 -0.012676 0.000000 0.000000 0.000000
# 3 0.002756 -0.012676 0.022898 0.000000 0.000000 0.000000
# 4 0.000000 0.000000 0.000000 0.048205 0.000000 0.000000
# 5 0.000000 0.000000 0.000000 0.000000 0.042795 0.000000
# 6 0.000000 0.000000 0.000000 0.000000 0.000000 0.023921
#
#
# Mechanical properties :
#
#
# Convention : Reuss Voigt Hill
#
# Bulk Modulus (GPa) = 55.59834 66.89622 61.24728
# Shear Modulus (GPa) = 24.77502 30.91780 27.84641
#
# Velocity S-wave (km/s) = 3.38118 3.77716 3.58464
# Velocity P-wave (km/s) = 6.39522 7.06340 6.73760
#
# Compressibility (1/GPa) = 0.01798615
#
# Stress axis : x y z
#
# Youngs Moduli (GPa) = 112.41840 56.65945 43.67129
#
# Poissons Ratio (x) = 0.32906 -0.12034
# Poissons Ratio (y) = 0.65289 0.55359
# Poissons Ratio (z) = -0.30977 0.71823
#
# Static dielectric constant tensor:
#      x y z
#    x 1.779200 0.000000 0.000000 
#    y 0.000000 1.787200 0.000000 
#    z 0.000000 0.000000 1.943890 
# 
# From -- ./inp_files/9401.got.cif
#   From: 2010.05.17/outbox.cif.g08.bks.cpg/sg54_5_cif.got.tgz:9401.got - 2010.06.03 13:09:01.
