data_PCOD9422255
_publ_section_title
;
Structure prediction by ZEFSAII (Michael W. Deem and Ramdas Pophale) SiO2 
 PCOD9422255
Probable space group: P C C A
;
_chemical_formula_sum "Si O2"
_cell_formula_units_Z 44
_cell_length_a 26.600700
_cell_length_b 5.233105
_cell_length_c 12.229504
_cell_angle_alpha 90.000000
_cell_angle_beta 90.000000
_cell_angle_gamma 90.000000
_cell_volume 1702.399008
_symmetry_space_group_name_H-M "P C C A"
_symmetry_group_IT_number 54
_symmetry_cell_setting 'orthorhombic'
loop_
_space_group_symop_operation_xyz
x,y,z
1/2-x,-y,z
1/2+x,-y,1/2-z
-x,y,1/2-z
-x,-y,-z
1/2+x,y,-z
1/2-x,y,1/2+z
x,-y,1/2+z
loop_
_atom_site_type_symbol
_atom_site_label
_atom_site_fract_x
_atom_site_fract_y
_atom_site_fract_z
Si Si1 0.200636 0.108509 0.094302
Si Si2 0.466520 0.743574 0.478562
Si Si3 0.652547 0.724341 0.731198
Si Si4 0.106670 0.384733 0.100101
Si Si5 0.444893 0.967809 0.259254
Si Si6 0.250000 0.500000 0.766388
O O1 0.153910 0.256146 0.038105
O O2 0.225439 0.293882 0.184798
O O3 0.250000 0.000000 0.031804
O O4 0.173947 0.888400 0.165882
O O5 0.500000 0.500000 0.500000
O O6 0.417356 0.636336 0.544797
O O7 0.453647 0.757934 0.351440
O O8 0.500000 0.000000 0.500000
O O9 0.629464 0.473372 0.784783
O O10 0.703794 0.635343 0.671166
O O11 0.602409 0.872203 0.694070
O O12 0.069589 0.163727 0.144278
O O13 0.500000 0.104703 0.250000
#
# Coordination Sequence:
#
# PCOD9422255 Si02
#       6
#     8   8   8   8   8   4
#     4   8  15  30  56  91 124 156 214 278 348 419
#     4  12  27  44  63  95 139 190 239 296 346 427
#     4   9  18  32  58  92 124 171 215 285 338 428
#     4  10  21  37  61  93 131 179 233 287 357 422
#     4  11  22  38  61  90 135 186 239 290 358 421
#     4   8  14  30  54  92 124 154 218 272 344 412
#
# _framework density 25.845877999999999
#
# number of rings (size 3 to 8) (size 9 to 14) (size 15 to 20)
#    0.000    2.182    1.818    1.091    5.091    0.727 
#    0.000    0.000    0.000    0.000    0.000  188.364 
#    0.000    0.000    0.000    0.000    0.000    0.182 
#
# Total GULP energy -244983.540363 kJ/mol
# GULP energy per Si atom -5567.807736 kJ/mol
# Density = 2.578705 g / cm^3
# Si number density = 25.845878 Si / 1000 Ang^3
#
#
#
# Elastic Constant Matrix: (Units=GPa)
#
#
# Indices 1 2 3 4 5 6 
#
# 1 252.1435 91.4472 56.8173 0.0000 0.0000 0.0000
# 2 91.4472 123.1491 16.2746 0.0000 0.0000 0.0000
# 3 56.8173 16.2746 61.4848 0.0000 0.0000 0.0000
# 4 0.0000 0.0000 0.0000 17.0754 0.0000 0.0000
# 5 0.0000 0.0000 0.0000 0.0000 30.1960 0.0000
# 6 0.0000 0.0000 0.0000 0.0000 0.0000 84.1747
#
#
#
# Elastic Compliance Matrix: (Units=1/GPa)
#
#
# Indices 1 2 3 4 5 6 
#
# 1 0.006644 -0.004272 -0.005009 0.000000 0.000000 0.000000
# 2 -0.004272 0.011161 0.000993 0.000000 0.000000 0.000000
# 3 -0.005009 0.000993 0.020630 0.000000 0.000000 0.000000
# 4 0.000000 0.000000 0.000000 0.058564 0.000000 0.000000
# 5 0.000000 0.000000 0.000000 0.000000 0.033117 0.000000
# 6 0.000000 0.000000 0.000000 0.000000 0.000000 0.011880
#
#
# Mechanical properties :
#
#
# Convention : Reuss Voigt Hill
#
# Bulk Modulus (GPa) = 45.74552 85.09509 65.42030
# Shear Modulus (GPa) = 30.14641 44.43844 37.29243
#
# Velocity S-wave (km/s) = 3.41895 4.15102 3.80264
# Velocity P-wave (km/s) = 5.77264 7.48132 6.68182
#
# Compressibility (1/GPa) = 0.02186007
#
# Stress axis : x y z
#
# Youngs Moduli (GPa) = 150.51341 89.59757 48.47325
#
# Poissons Ratio (x) = 0.38273 0.24280
# Poissons Ratio (y) = 0.64294 -0.04814
# Poissons Ratio (z) = 0.75390 -0.08898
#
# Static dielectric constant tensor:
#      x y z
#    x 2.499720 0.000000 0.000000 
#    y 0.000000 2.205040 0.000000 
#    z 0.000000 0.000000 2.051880 
# 
# From -- ./inp_files/15097.got.cif
#   From: 2010.05.17/outbox.cif.g08.bks.cpg/sg54_8_cif.got.tgz:15097.got - 2010.06.03 13:09:01.
