data_PCOD9422630
_publ_section_title
;
Structure prediction by ZEFSAII (Michael W. Deem and Ramdas Pophale) SiO2 
 PCOD9422630
Probable space group: P C C A
;
_chemical_formula_sum "Si O2"
_cell_formula_units_Z 36
_cell_length_a 11.295772
_cell_length_b 10.965760
_cell_length_c 13.768840
_cell_angle_alpha 90.000000
_cell_angle_beta 90.000000
_cell_angle_gamma 90.000000
_cell_volume 1705.501115
_symmetry_space_group_name_H-M "P C C A"
_symmetry_group_IT_number 54
_symmetry_cell_setting 'orthorhombic'
loop_
_space_group_symop_operation_xyz
x,y,z
1/2-x,-y,z
1/2+x,-y,1/2-z
-x,y,1/2-z
-x,-y,-z
1/2+x,y,-z
1/2-x,y,1/2+z
x,-y,1/2+z
loop_
_atom_site_type_symbol
_atom_site_label
_atom_site_fract_x
_atom_site_fract_y
_atom_site_fract_z
Si Si1 0.172133 0.802909 0.385928
Si Si2 0.928354 0.902771 0.936709
Si Si3 0.622829 0.527997 0.555150
Si Si4 0.417978 0.285997 0.842386
Si Si5 0.000000 0.960090 0.250000
O O1 0.179877 0.865050 0.493349
O O2 0.127717 0.664633 0.404109
O O3 0.300065 0.793985 0.337399
O O4 0.085615 0.877541 0.316008
O O5 0.004420 0.778766 0.925596
O O6 0.925209 0.959702 0.828553
O O7 0.000000 0.000000 0.000000
O O8 0.750000 0.500000 0.501615
O O9 0.500000 0.500000 0.500000
O O10 0.621003 0.423290 0.636604
O O11 0.500000 0.285887 0.750000
#
# Coordination Sequence:
#
# PCOD9422630 Si02
#       5
#     8   8   8   8   4
#     4  10  23  44  66  96 136 173 224 286 344 410
#     4  10  21  42  64  95 131 177 222 273 341 405
#     4  10  21  42  69  97 131 173 222 280 349 416
#     4  11  23  44  65  97 136 175 225 281 345 411
#     4  10  22  42  64 100 130 178 232 274 342 410
#
# _framework density 21.108166000000001
#
# number of rings (size 3 to 8) (size 9 to 14) (size 15 to 20)
#    0.000    1.778    3.333    0.000    1.556    3.556 
#   16.000    0.000    0.000    0.000    0.000    0.000 
#    0.000    0.000    0.000    0.000    0.000    0.000 
#
# Total GULP energy -200623.036225 kJ/mol
# GULP energy per Si atom -5572.862117 kJ/mol
# Density = 2.106012 g / cm^3
# Si number density = 21.108166 Si / 1000 Ang^3
#
#
#
# Elastic Constant Matrix: (Units=GPa)
#
#
# Indices 1 2 3 4 5 6 
#
# 1 139.2836 25.0275 60.6839 0.0000 0.0000 0.0000
# 2 25.0275 119.3177 57.9434 0.0000 0.0000 0.0000
# 3 60.6839 57.9434 118.6581 0.0000 0.0000 0.0000
# 4 0.0000 0.0000 0.0000 23.8224 0.0000 0.0000
# 5 0.0000 0.0000 0.0000 0.0000 41.1385 0.0000
# 6 0.0000 0.0000 0.0000 0.0000 0.0000 27.6899
#
#
#
# Elastic Compliance Matrix: (Units=1/GPa)
#
#
# Indices 1 2 3 4 5 6 
#
# 1 0.009258 0.000468 -0.004963 0.000000 0.000000 0.000000
# 2 0.000468 0.011010 -0.005616 0.000000 0.000000 0.000000
# 3 -0.004963 -0.005616 0.013708 0.000000 0.000000 0.000000
# 4 0.000000 0.000000 0.000000 0.041977 0.000000 0.000000
# 5 0.000000 0.000000 0.000000 0.000000 0.024308 0.000000
# 6 0.000000 0.000000 0.000000 0.000000 0.000000 0.036114
#
#
# Mechanical properties :
#
#
# Convention : Reuss Voigt Hill
#
# Bulk Modulus (GPa) = 72.70431 73.84101 73.27266
# Shear Modulus (GPa) = 31.02072 34.10381 32.56227
#
# Velocity S-wave (km/s) = 3.83771 4.02390 3.93190
# Velocity P-wave (km/s) = 7.35906 7.52643 7.44322
#
# Compressibility (1/GPa) = 0.01375434
#
# Stress axis : x y z
#
# Youngs Moduli (GPa) = 108.01576 90.82660 72.94810
#
# Poissons Ratio (x) = -0.04255 0.36207
# Poissons Ratio (y) = -0.05060 0.40968
# Poissons Ratio (z) = 0.53613 0.51008
#
# Static dielectric constant tensor:
#      x y z
#    x 1.415430 0.000000 0.000000 
#    y 0.000000 1.792370 0.000000 
#    z 0.000000 0.000000 1.772840 
# 
# From -- ./inp_files/7386.got.cif
#   From: 2010.05.17/outbox.cif.g08.bks.cpg/sg54_4_cif.got.tgz:7386.got - 2010.06.03 13:09:01.
