data_PCOD9422552
_publ_section_title
;
Structure prediction by ZEFSAII (Michael W. Deem and Ramdas Pophale) SiO2 
 PCOD9422552
Probable space group: P C C A
;
_chemical_formula_sum "Si O2"
_cell_formula_units_Z 32
_cell_length_a 10.266754
_cell_length_b 10.038041
_cell_length_c 12.633912
_cell_angle_alpha 90.000000
_cell_angle_beta 90.000000
_cell_angle_gamma 90.000000
_cell_volume 1302.026936
_symmetry_space_group_name_H-M "P C C A"
_symmetry_group_IT_number 54
_symmetry_cell_setting 'orthorhombic'
loop_
_space_group_symop_operation_xyz
x,y,z
1/2-x,-y,z
1/2+x,-y,1/2-z
-x,y,1/2-z
-x,-y,-z
1/2+x,y,-z
1/2-x,y,1/2+z
x,-y,1/2+z
loop_
_atom_site_type_symbol
_atom_site_label
_atom_site_fract_x
_atom_site_fract_y
_atom_site_fract_z
Si Si1 0.011088 0.339060 0.589170
Si Si2 0.630258 0.407388 0.798664
Si Si3 0.500000 0.900447 0.750000
Si Si4 0.748758 0.729919 0.499267
Si Si5 0.250000 0.000000 0.370196
O O1 0.057644 0.472350 0.641887
O O2 0.105543 0.322436 0.489512
O O3 0.035992 0.204270 0.656670
O O4 0.860759 0.345006 0.564824
O O5 0.750000 0.500000 0.749750
O O6 0.500000 0.338526 0.750000
O O7 0.701191 0.303515 0.878939
O O8 0.622338 0.983348 0.704571
O O9 0.749894 0.875362 0.549819
#
# Coordination Sequence:
#
# PCOD9422552 Si02
#       5
#     8   8   4   8   4
#     4  10  21  41  66  99 134 177 229 289 357 412
#     4  10  21  40  68 100 138 178 234 292 350 416
#     4  10  22  42  70  96 140 186 236 294 336 422
#     4  10  23  40  66  98 136 182 224 289 354 417
#     4  10  24  44  68 100 138 184 240 280 356 422
#
# _framework density 24.577065000000001
#
# number of rings (size 3 to 8) (size 9 to 14) (size 15 to 20)
#    0.000    2.000    1.250    0.750    0.000    9.000 
#    4.500    0.000    2.750    0.000    0.000    0.000 
#    0.000    0.000    0.000    0.000    0.000    0.000 
#
# Total GULP energy -178311.408231 kJ/mol
# GULP energy per Si atom -5572.231507 kJ/mol
# Density = 2.452113 g / cm^3
# Si number density = 24.577065 Si / 1000 Ang^3
#
#
#
# Elastic Constant Matrix: (Units=GPa)
#
#
# Indices 1 2 3 4 5 6 
#
# 1 170.8585 84.3060 88.1941 0.0000 0.0000 0.0000
# 2 84.3060 86.7517 42.2457 0.0000 0.0000 0.0000
# 3 88.1941 42.2457 72.6501 0.0000 0.0000 0.0000
# 4 0.0000 0.0000 0.0000 -23.9193 0.0000 0.0000
# 5 0.0000 0.0000 0.0000 0.0000 46.9104 0.0000
# 6 0.0000 0.0000 0.0000 0.0000 0.0000 -0.8151
#
#
#
# Elastic Compliance Matrix: (Units=1/GPa)
#
#
# Indices 1 2 3 4 5 6 
#
# 1 0.021617 -0.011479 -0.019567 0.000000 0.000000 0.000000
# 2 -0.011479 0.022176 0.001040 0.000000 0.000000 0.000000
# 3 -0.019567 0.001040 0.036914 0.000000 0.000000 0.000000
# 4 0.000000 0.000000 0.000000 -0.041807 0.000000 0.000000
# 5 0.000000 0.000000 0.000000 0.000000 0.021317 0.000000
# 6 0.000000 0.000000 0.000000 0.000000 0.000000 -1.226841
#
#
# Mechanical properties :
#
#
# Convention : Reuss Voigt Hill
#
# Bulk Modulus (GPa) = 48.32332 84.41686 66.37009
# Shear Modulus (GPa) = -4.54664 12.13617 3.79477
#
# Velocity S-wave (km/s) = -1.36161 2.22457 1.24394
# Velocity P-wave (km/s) = 4.15123 6.40474 5.39691
#
# Compressibility (1/GPa) = 0.02069394
#
# Stress axis : x y z
#
# Youngs Moduli (GPa) = 46.25987 45.09337 27.09011
#
# Poissons Ratio (x) = 0.51762 0.53008
# Poissons Ratio (y) = 0.53101 -0.02816
# Poissons Ratio (z) = 0.90518 -0.04688
#
# Static dielectric constant tensor:
#      x y z
#    x 2.087990 0.000000 0.000000 
#    y 0.000000 1.894990 0.000000 
#    z 0.000000 0.000000 2.169970 
# 
# From -- ./inp_files/11354.got.cif
#   From: 2010.05.17/outbox.cif.g08.bks.cpg/sg54_6_cif.got.tgz:11354.got - 2010.06.03 13:09:01.
