data_PCOD9422713
_publ_section_title
;
Structure prediction by ZEFSAII (Michael W. Deem and Ramdas Pophale) SiO2 
 PCOD9422713
Probable space group: P C C A
;
_chemical_formula_sum "Si O2"
_cell_formula_units_Z 40
_cell_length_a 16.526957
_cell_length_b 11.932033
_cell_length_c 9.021307
_cell_angle_alpha 90.000000
_cell_angle_beta 90.000000
_cell_angle_gamma 90.000000
_cell_volume 1779.003511
_symmetry_space_group_name_H-M "P C C A"
_symmetry_group_IT_number 54
_symmetry_cell_setting 'orthorhombic'
loop_
_space_group_symop_operation_xyz
x,y,z
1/2-x,-y,z
1/2+x,-y,1/2-z
-x,y,1/2-z
-x,-y,-z
1/2+x,y,-z
1/2-x,y,1/2+z
x,-y,1/2+z
loop_
_atom_site_type_symbol
_atom_site_label
_atom_site_fract_x
_atom_site_fract_y
_atom_site_fract_z
Si Si1 0.071150 0.241204 0.048131
Si Si2 0.860720 0.402916 0.648226
Si Si3 0.250000 0.500000 0.605375
Si Si4 0.840935 0.956616 0.763858
Si Si5 0.569278 0.907975 0.973066
Si Si6 0.500000 0.432594 0.750000
O O1 0.125086 0.147440 0.134370
O O2 0.980174 0.202484 0.008429
O O3 0.054562 0.349110 0.151345
O O4 0.110467 0.279573 0.894143
O O5 0.803391 0.419789 0.789768
O O6 0.808317 0.435835 0.505605
O O7 0.937267 0.485926 0.665584
O O8 0.861006 0.924258 0.595453
O O9 0.750000 0.000000 0.783453
O O10 0.895719 0.061867 0.814331
O O11 0.500000 0.000000 0.000000
#
# Coordination Sequence:
#
# PCOD9422713 Si02
#       6
#     8   8   4   8   8   4
#     4  11  22  44  71  98 140 189 233 291 353 416
#     4  11  24  46  69 103 140 191 232 291 351 421
#     4  10  24  46  66  96 152 170 230 300 342 408
#     4  11  23  45  68 102 139 176 231 301 359 421
#     4  10  21  44  68  94 134 176 234 293 345 421
#     4  12  22  46  72 102 140 194 246 288 336 436
#
# _framework density 22.484497999999999
#
# number of rings (size 3 to 8) (size 9 to 14) (size 15 to 20)
#    0.000    1.200    4.000    3.000    0.000    0.000 
#   25.200    0.000    0.000    0.000    0.000    0.000 
#    0.000    0.000    0.000    0.000    0.000    0.000 
#
# Total GULP energy -223345.048808 kJ/mol
# GULP energy per Si atom -5583.626220 kJ/mol
# Density = 2.243332 g / cm^3
# Si number density = 22.484498 Si / 1000 Ang^3
#
#
#
# Elastic Constant Matrix: (Units=GPa)
#
#
# Indices 1 2 3 4 5 6 
#
# 1 133.2684 34.8577 36.4991 0.0000 0.0000 0.0000
# 2 34.8577 84.3891 42.8861 0.0000 0.0000 0.0000
# 3 36.4991 42.8861 85.2273 0.0000 0.0000 0.0000
# 4 0.0000 0.0000 0.0000 -20.9682 0.0000 0.0000
# 5 0.0000 0.0000 0.0000 0.0000 48.4449 0.0000
# 6 0.0000 0.0000 0.0000 0.0000 0.0000 62.6177
#
#
#
# Elastic Compliance Matrix: (Units=1/GPa)
#
#
# Indices 1 2 3 4 5 6 
#
# 1 0.008826 -0.002317 -0.002614 0.000000 0.000000 0.000000
# 2 -0.002317 0.016530 -0.007325 0.000000 0.000000 0.000000
# 3 -0.002614 -0.007325 0.016539 0.000000 0.000000 0.000000
# 4 0.000000 0.000000 0.000000 -0.047691 0.000000 0.000000
# 5 0.000000 0.000000 0.000000 0.000000 0.020642 0.000000
# 6 0.000000 0.000000 0.000000 0.000000 0.000000 0.015970
#
#
# Mechanical properties :
#
#
# Convention : Reuss Voigt Hill
#
# Bulk Modulus (GPa) = 57.53190 59.04119 58.28655
# Shear Modulus (GPa) = 81.80527 30.59502 56.20014
#
# Velocity S-wave (km/s) = 6.03837 3.69279 5.00493
# Velocity P-wave (km/s) = 8.61736 6.67067 7.70574
#
# Compressibility (1/GPa) = 0.01738166
#
# Stress axis : x y z
#
# Youngs Moduli (GPa) = 113.30735 60.49702 60.46436
#
# Poissons Ratio (x) = 0.14019 0.15803
# Poissons Ratio (y) = 0.26257 0.44292
# Poissons Ratio (z) = 0.29613 0.44316
#
# Static dielectric constant tensor:
#      x y z
#    x 2.030530 0.000000 0.000000 
#    y 0.000000 1.891330 0.000000 
#    z 0.000000 0.000000 1.870940 
# 
# From -- ./inp_files/4023.got.cif
#   From: 2010.05.17/outbox.cif.g08.bks.cpg/sg54_3_cif.got.tgz:4023.got - 2010.06.03 13:09:01.
