data_PCOD9422916
_publ_section_title
;
Structure prediction by ZEFSAII (Michael W. Deem and Ramdas Pophale) SiO2 
 PCOD9422916
Probable space group: P C C A
;
_chemical_formula_sum "Si O2"
_cell_formula_units_Z 40
_cell_length_a 7.518661
_cell_length_b 15.826585
_cell_length_c 14.317889
_cell_angle_alpha 90.000000
_cell_angle_beta 90.000000
_cell_angle_gamma 90.000000
_cell_volume 1703.753299
_symmetry_space_group_name_H-M "P C C A"
_symmetry_group_IT_number 54
_symmetry_cell_setting 'orthorhombic'
loop_
_space_group_symop_operation_xyz
x,y,z
1/2-x,-y,z
1/2+x,-y,1/2-z
-x,y,1/2-z
-x,-y,-z
1/2+x,y,-z
1/2-x,y,1/2+z
x,-y,1/2+z
loop_
_atom_site_type_symbol
_atom_site_label
_atom_site_fract_x
_atom_site_fract_y
_atom_site_fract_z
Si Si1 0.778873 0.271070 0.357804
Si Si2 0.701946 0.402828 0.211636
Si Si3 0.253911 0.911520 0.645843
Si Si4 0.874012 0.729155 0.065252
Si Si5 0.648907 0.914429 0.563357
O O1 0.807134 0.348422 0.288911
O O2 0.799103 0.178123 0.311446
O O3 0.572321 0.269632 0.391957
O O4 0.884552 0.279658 0.454038
O O5 0.750000 0.500000 0.201284
O O6 0.500000 0.401092 0.250000
O O7 0.715909 0.349496 0.116462
O O8 0.456574 0.909497 0.609794
O O9 0.139304 0.918925 0.550003
O O10 0.250000 0.000000 0.700289
O O11 0.777991 0.819870 0.082635
O O12 0.750000 0.000000 0.590395
#
# Coordination Sequence:
#
# PCOD9422916 Si02
#       5
#     8   8   8   8   8
#     4   9  19  35  55  77 105 138 172 209 255 306
#     4  10  22  40  57  76 102 134 171 216 265 312
#     4   9  15  25  44  71 101 134 167 202 243 293
#     4   9  19  35  55  77 105 138 172 209 255 306
#     4   9  15  25  44  71 101 134 167 202 243 293
#
# _framework density 23.477577
#
# number of rings (size 3 to 8) (size 9 to 14) (size 15 to 20)
#    0.000    2.800    0.000    2.400    0.000    4.000 
#    0.000    5.000    0.000    0.000    0.000    0.000 
#    0.000    0.000    0.000    0.000    0.000    0.000 
#
# Total GULP energy -223285.219828 kJ/mol
# GULP energy per Si atom -5582.130496 kJ/mol
# Density = 2.342414 g / cm^3
# Si number density = 23.477577 Si / 1000 Ang^3
#
#
#
# Elastic Constant Matrix: (Units=GPa)
#
#
# Indices 1 2 3 4 5 6 
#
# 1 59.9203 30.0843 13.8846 0.0000 0.0000 0.0000
# 2 30.0843 257.5405 53.3204 0.0000 0.0000 0.0000
# 3 13.8846 53.3204 53.7547 0.0000 0.0000 0.0000
# 4 0.0000 0.0000 0.0000 52.8368 0.0000 0.0000
# 5 0.0000 0.0000 0.0000 0.0000 14.0783 0.0000
# 6 0.0000 0.0000 0.0000 0.0000 0.0000 32.4150
#
#
#
# Elastic Compliance Matrix: (Units=1/GPa)
#
#
# Indices 1 2 3 4 5 6 
#
# 1 0.018171 -0.001448 -0.003257 0.000000 0.000000 0.000000
# 2 -0.001448 0.005002 -0.004587 0.000000 0.000000 0.000000
# 3 -0.003257 -0.004587 0.023994 0.000000 0.000000 0.000000
# 4 0.000000 0.000000 0.000000 0.018926 0.000000 0.000000
# 5 0.000000 0.000000 0.000000 0.000000 0.071031 0.000000
# 6 0.000000 0.000000 0.000000 0.000000 0.000000 0.030850
#
#
# Mechanical properties :
#
#
# Convention : Reuss Voigt Hill
#
# Bulk Modulus (GPa) = 34.98688 62.86599 48.92644
# Shear Modulus (GPa) = 25.49895 38.12776 31.81336
#
# Velocity S-wave (km/s) = 3.29918 4.03427 3.68510
# Velocity P-wave (km/s) = 5.42654 6.96675 6.24432
#
# Compressibility (1/GPa) = 0.02858214
#
# Stress axis : x y z
#
# Youngs Moduli (GPa) = 55.03386 199.92775 41.67624
#
# Poissons Ratio (x) = 0.28956 0.13573
# Poissons Ratio (y) = 0.07971 0.19118
# Poissons Ratio (z) = 0.17923 0.91713
#
# Static dielectric constant tensor:
#      x y z
#    x 1.960050 0.000000 0.000000 
#    y 0.000000 1.924660 0.000000 
#    z 0.000000 0.000000 1.910050 
# 
# From -- ./inp_files/3429.got.cif
#   From: 2010.05.17/outbox.cif.g08.bks.cpg/sg54_2_cif.got.tgz:3429.got - 2010.06.03 13:09:01.
