data_PCOD9422677
_publ_section_title
;
Structure prediction by ZEFSAII (Michael W. Deem and Ramdas Pophale) SiO2 
 PCOD9422677
Probable space group: P C C A
;
_chemical_formula_sum "Si O2"
_cell_formula_units_Z 32
_cell_length_a 5.133541
_cell_length_b 17.232860
_cell_length_c 13.546639
_cell_angle_alpha 90.000000
_cell_angle_beta 90.000000
_cell_angle_gamma 90.000000
_cell_volume 1198.411457
_symmetry_space_group_name_H-M "P C C A"
_symmetry_group_IT_number 54
_symmetry_cell_setting 'orthorhombic'
loop_
_space_group_symop_operation_xyz
x,y,z
1/2-x,-y,z
1/2+x,-y,1/2-z
-x,y,1/2-z
-x,-y,-z
1/2+x,y,-z
1/2-x,y,1/2+z
x,-y,1/2+z
loop_
_atom_site_type_symbol
_atom_site_label
_atom_site_fract_x
_atom_site_fract_y
_atom_site_fract_z
Si Si1 0.078797 0.768311 0.033576
Si Si2 0.250000 0.500000 0.698071
Si Si3 0.000000 0.892716 0.750000
Si Si4 0.250000 0.000000 0.575392
Si Si5 0.000000 0.789255 0.250000
Si Si6 0.429886 0.598580 0.450309
O O1 0.072587 0.746442 0.148216
O O2 0.831833 0.814076 0.996447
O O3 0.082395 0.691057 0.964458
O O4 0.500000 0.539219 0.750000
O O5 0.409823 0.432594 0.641148
O O6 0.246389 0.839007 0.779569
O O7 0.872563 0.940373 0.840570
O O8 0.500000 0.000000 0.500000
O O9 0.131922 0.572394 0.462927
#
# Coordination Sequence:
#
# PCOD9422677 Si02
#       6
#     8   4   4   4   4   8
#     4  10  23  44  66 100 140 185 245 303 372 450
#     4  12  24  40  66 106 132 180 248 306 390 464
#     4  12  27  46  74 118 155 192 272 314 346 484
#     4  12  26  48  76 112 158 212 246 316 404 428
#     4  12  25  44  74 106 147 202 248 314 376 438
#     4  10  21  43  65  91 138 178 228 314 367 452
#
# _framework density 26.702013999999998
#
# number of rings (size 3 to 8) (size 9 to 14) (size 15 to 20)
#    0.000    1.000    0.000    6.750    0.000    6.000 
#   27.000    0.000    0.000    0.000    0.000    0.000 
#    0.000    0.000    0.000    0.000    0.000    0.000 
#
# Total GULP energy -178363.880171 kJ/mol
# GULP energy per Si atom -5573.871255 kJ/mol
# Density = 2.664124 g / cm^3
# Si number density = 26.702014 Si / 1000 Ang^3
#
#
#
# Elastic Constant Matrix: (Units=GPa)
#
#
# Indices 1 2 3 4 5 6 
#
# 1 247.8315 22.2072 40.9943 0.0000 0.0000 0.0000
# 2 22.2072 81.9226 37.7089 0.0000 0.0000 0.0000
# 3 40.9943 37.7089 173.1674 0.0000 0.0000 0.0000
# 4 0.0000 0.0000 0.0000 -14.2328 0.0000 0.0000
# 5 0.0000 0.0000 0.0000 0.0000 64.7681 0.0000
# 6 0.0000 0.0000 0.0000 0.0000 0.0000 30.6209
#
#
#
# Elastic Compliance Matrix: (Units=1/GPa)
#
#
# Indices 1 2 3 4 5 6 
#
# 1 0.004242 -0.000764 -0.000838 0.000000 0.000000 0.000000
# 2 -0.000764 0.013704 -0.002803 0.000000 0.000000 0.000000
# 3 -0.000838 -0.002803 0.006584 0.000000 0.000000 0.000000
# 4 0.000000 0.000000 0.000000 -0.070260 0.000000 0.000000
# 5 0.000000 0.000000 0.000000 0.000000 0.015440 0.000000
# 6 0.000000 0.000000 0.000000 0.000000 0.000000 0.032657
#
#
# Mechanical properties :
#
#
# Convention : Reuss Voigt Hill
#
# Bulk Modulus (GPa) = 63.61716 78.30470 70.96093
# Shear Modulus (GPa) = 304.56573 43.03200 173.79886
#
# Velocity S-wave (km/s) = 10.69152 4.01878 8.07648
# Velocity P-wave (km/s) = 13.27735 7.13605 10.65859
#
# Compressibility (1/GPa) = 0.01571903
#
# Stress axis : x y z
#
# Youngs Moduli (GPa) = 235.73411 72.97051 151.89400
#
# Poissons Ratio (x) = 0.05577 0.12726
# Poissons Ratio (y) = 0.18017 0.42580
# Poissons Ratio (z) = 0.19750 0.20456
#
# Static dielectric constant tensor:
#      x y z
#    x -0.454140 0.000000 0.000000 
#    y 0.000000 2.169940 0.000000 
#    z 0.000000 0.000000 2.257150 
# 
# From -- ./inp_files/6314.got.cif
#   From: 2010.05.17/outbox.cif.g08.bks.cpg/sg54_4_cif.got.tgz:6314.got - 2010.06.03 13:09:01.
