data_PCOD9422321
_publ_section_title
;
Structure prediction by ZEFSAII (Michael W. Deem and Ramdas Pophale) SiO2 
 PCOD9422321
Probable space group: P C C A
;
_chemical_formula_sum "Si O2"
_cell_formula_units_Z 32
_cell_length_a 5.104794
_cell_length_b 7.684024
_cell_length_c 34.375121
_cell_angle_alpha 90.000000
_cell_angle_beta 90.000000
_cell_angle_gamma 90.000000
_cell_volume 1348.376483
_symmetry_space_group_name_H-M "P C C A"
_symmetry_group_IT_number 54
_symmetry_cell_setting 'orthorhombic'
loop_
_space_group_symop_operation_xyz
x,y,z
1/2-x,-y,z
1/2+x,-y,1/2-z
-x,y,1/2-z
-x,-y,-z
1/2+x,y,-z
1/2-x,y,1/2+z
x,-y,1/2+z
loop_
_atom_site_type_symbol
_atom_site_label
_atom_site_fract_x
_atom_site_fract_y
_atom_site_fract_z
Si Si1 0.749376 0.708947 0.495038
Si Si2 0.499157 0.874931 0.793339
Si Si3 0.615939 0.188755 0.913865
Si Si4 0.384316 0.313303 0.371768
O O1 0.750000 0.500000 0.499878
O O2 0.519114 0.785248 0.521977
O O3 0.548280 0.739642 0.457159
O O4 0.500000 0.794417 0.750000
O O5 0.466758 0.742743 0.828533
O O6 0.750000 0.000000 0.798769
O O7 0.250000 0.000000 0.794269
O O8 0.350009 0.193389 0.888982
O O9 0.847105 0.306323 0.895961
O O10 0.750000 0.000000 0.914547
O O11 0.250000 0.500000 0.372804
#
# Coordination Sequence:
#
# PCOD9422321 Si02
#       4
#     8   8   8   8
#     4  10  21  38  60  87 121 159 199 248 307 365
#     4  10  21  40  65  91 123 162 202 248 305 366
#     4  12  25  41  64  92 125 163 207 256 306 364
#     4  12  24  41  64  92 126 163 207 255 305 363
#
# _framework density 23.732241999999999
#
# number of rings (size 3 to 8) (size 9 to 14) (size 15 to 20)
#    0.000    1.000    0.000    8.250    0.000    3.000 
#    0.000    6.250    0.000    0.000    0.000    0.000 
#    0.000    0.000    0.000    0.000    0.000    0.000 
#
# Total GULP energy -178519.757461 kJ/mol
# GULP energy per Si atom -5578.742421 kJ/mol
# Density = 2.367823 g / cm^3
# Si number density = 23.732242 Si / 1000 Ang^3
#
#
#
# Elastic Constant Matrix: (Units=GPa)
#
#
# Indices 1 2 3 4 5 6 
#
# 1 299.9582 49.9708 110.3418 0.0000 0.0000 0.0000
# 2 49.9708 119.4106 72.1696 0.0000 0.0000 0.0000
# 3 110.3418 72.1696 265.1176 0.0000 0.0000 0.0000
# 4 0.0000 0.0000 0.0000 -744.2297 0.0000 0.0000
# 5 0.0000 0.0000 0.0000 0.0000 -12.5091 0.0000
# 6 0.0000 0.0000 0.0000 0.0000 0.0000 38.0180
#
#
#
# Elastic Compliance Matrix: (Units=1/GPa)
#
#
# Indices 1 2 3 4 5 6 
#
# 1 0.003999 -0.000799 -0.001447 0.000000 0.000000 0.000000
# 2 -0.000799 0.010183 -0.002439 0.000000 0.000000 0.000000
# 3 -0.001447 -0.002439 0.005038 0.000000 0.000000 0.000000
# 4 0.000000 0.000000 0.000000 -0.001344 0.000000 0.000000
# 5 0.000000 0.000000 0.000000 0.000000 -0.079942 0.000000
# 6 0.000000 0.000000 0.000000 0.000000 0.000000 0.026303
#
#
# Mechanical properties :
#
#
# Convention : Reuss Voigt Hill
#
# Bulk Modulus (GPa) = 101.52653 127.71672 114.62162
# Shear Modulus (GPa) = -216.38319 -113.61055 -164.99687
#
# Velocity S-wave (km/s) = -9.55902 -6.92645 -8.34717
# Velocity P-wave (km/s) = 8.88596 3.16783 6.67066
#
# Compressibility (1/GPa) = 0.00984964
#
# Stress axis : x y z
#
# Youngs Moduli (GPa) = 250.05104 98.20056 198.48380
#
# Poissons Ratio (x) = 0.07847 0.28719
# Poissons Ratio (y) = 0.19981 0.48420
# Poissons Ratio (z) = 0.36181 0.23956
#
# Static dielectric constant tensor:
#      x y z
#    x 1.703100 0.000000 0.000000 
#    y 0.000000 1.845610 0.000000 
#    z 0.000000 0.000000 2.202580 
# 
# From -- ./inp_files/26941.got.cif
#   From: 2010.05.17/outbox.cif.g08.bks.cpg/sg54_14_cif.got.tgz:26941.got - 2010.06.03 13:09:01.
