data_PCOD9422143
_publ_section_title
;
Structure prediction by ZEFSAII (Michael W. Deem and Ramdas Pophale) SiO2 
 PCOD9422143
Probable space group: P C C A
;
_chemical_formula_sum "Si O2"
_cell_formula_units_Z 32
_cell_length_a 5.149451
_cell_length_b 8.534211
_cell_length_c 39.037169
_cell_angle_alpha 90.000000
_cell_angle_beta 90.000000
_cell_angle_gamma 90.000000
_cell_volume 1715.547001
_symmetry_space_group_name_H-M "P C C A"
_symmetry_group_IT_number 54
_symmetry_cell_setting 'orthorhombic'
loop_
_space_group_symop_operation_xyz
x,y,z
1/2-x,-y,z
1/2+x,-y,1/2-z
-x,y,1/2-z
-x,-y,-z
1/2+x,y,-z
1/2-x,y,1/2+z
x,-y,1/2+z
loop_
_atom_site_type_symbol
_atom_site_label
_atom_site_fract_x
_atom_site_fract_y
_atom_site_fract_z
Si Si1 0.496936 0.891004 0.920820
Si Si2 0.005251 0.891852 0.342292
Si Si3 0.288009 0.312008 0.019248
Si Si4 0.000615 0.390603 0.710632
O O1 0.457205 0.835955 0.881667
O O2 0.576774 0.753025 0.946633
O O3 0.750000 0.000000 0.920892
O O4 0.250000 0.000000 0.930301
O O5 0.990691 0.749218 0.316229
O O6 0.250000 0.000000 0.333652
O O7 0.750000 0.000000 0.340733
O O8 0.250000 0.500000 0.020504
O O9 0.496064 0.259040 0.990120
O O10 0.750000 0.500000 0.705747
O O11 0.250000 0.500000 0.706397
O O12 0.000000 0.331568 0.750000
#
# Coordination Sequence:
#
# PCOD9422143 Si02
#       4
#     8   8   8   8
#     4  10  21  36  54  78 106 137 177 221 264 317
#     4  10  21  37  56  81 112 144 182 225 269 322
#     4  10  21  36  53  76 105 136 174 219 266 319
#     4  10  21  37  57  83 113 144 182 225 268 320
#
# _framework density 18.652944999999999
#
# number of rings (size 3 to 8) (size 9 to 14) (size 15 to 20)
#    0.000    2.000    0.000    3.000    0.000    5.000 
#    0.000    3.750    0.000    0.000    0.000    0.000 
#    0.000    0.000    0.000    0.000    0.000    0.000 
#
# Total GULP energy -178484.765503 kJ/mol
# GULP energy per Si atom -5577.648922 kJ/mol
# Density = 1.861049 g / cm^3
# Si number density = 18.652945 Si / 1000 Ang^3
#
#
#
# Elastic Constant Matrix: (Units=GPa)
#
#
# Indices 1 2 3 4 5 6 
#
# 1 152.9641 47.7802 47.0930 0.0000 0.0000 0.0000
# 2 47.7802 66.1986 83.3296 0.0000 0.0000 0.0000
# 3 47.0930 83.3296 124.8666 0.0000 0.0000 0.0000
# 4 0.0000 0.0000 0.0000 51.9361 0.0000 0.0000
# 5 0.0000 0.0000 0.0000 0.0000 32.7982 0.0000
# 6 0.0000 0.0000 0.0000 0.0000 0.0000 15.7871
#
#
#
# Elastic Compliance Matrix: (Units=1/GPa)
#
#
# Indices 1 2 3 4 5 6 
#
# 1 0.009095 -0.014046 0.005943 0.000000 0.000000 0.000000
# 2 -0.014046 0.116132 -0.072203 0.000000 0.000000 0.000000
# 3 0.005943 -0.072203 0.053952 0.000000 0.000000 0.000000
# 4 0.000000 0.000000 0.000000 0.019254 0.000000 0.000000
# 5 0.000000 0.000000 0.000000 0.000000 0.030489 0.000000
# 6 0.000000 0.000000 0.000000 0.000000 0.000000 0.063343
#
#
# Mechanical properties :
#
#
# Convention : Reuss Voigt Hill
#
# Bulk Modulus (GPa) = 53.85822 77.82609 65.84216
# Shear Modulus (GPa) = 10.89165 31.15937 21.02551
#
# Velocity S-wave (km/s) = 2.41905 4.09158 3.36102
# Velocity P-wave (km/s) = 6.06126 8.00845 7.10191
#
# Compressibility (1/GPa) = 0.01856727
#
# Stress axis : x y z
#
# Youngs Moduli (GPa) = 109.94872 8.61087 18.53507
#
# Poissons Ratio (x) = 0.12095 -0.11016
# Poissons Ratio (y) = 1.54435 1.33829
# Poissons Ratio (z) = -0.65348 0.62173
#
# Static dielectric constant tensor:
#      x y z
#    x 1.635160 0.000000 0.000000 
#    y 0.000000 1.594260 0.000000 
#    z 0.000000 0.000000 1.669940 
# 
# From -- ./inp_files/26838.got.cif
#   From: 2010.05.17/outbox.cif.g08.bks.cpg/sg54_14_cif.got.tgz:26838.got - 2010.06.03 13:09:01.
