data_PCOD9422482
_publ_section_title
;
Structure prediction by ZEFSAII (Michael W. Deem and Ramdas Pophale) SiO2 
 PCOD9422482
Probable space group: P C C A
;
_chemical_formula_sum "Si O2"
_cell_formula_units_Z 56
_cell_length_a 28.461442
_cell_length_b 5.411250
_cell_length_c 14.719181
_cell_angle_alpha 90.000000
_cell_angle_beta 90.000000
_cell_angle_gamma 90.000000
_cell_volume 2266.930181
_symmetry_space_group_name_H-M "P C C A"
_symmetry_group_IT_number 54
_symmetry_cell_setting 'orthorhombic'
loop_
_space_group_symop_operation_xyz
x,y,z
1/2-x,-y,z
1/2+x,-y,1/2-z
-x,y,1/2-z
-x,-y,-z
1/2+x,y,-z
1/2-x,y,1/2+z
x,-y,1/2+z
loop_
_atom_site_type_symbol
_atom_site_label
_atom_site_fract_x
_atom_site_fract_y
_atom_site_fract_z
Si Si1 0.292998 0.838079 0.723419
Si Si2 0.111278 0.966825 0.989741
Si Si3 0.657148 0.441290 0.414830
Si Si4 0.866248 0.146629 0.190227
Si Si5 0.802365 0.428801 0.591410
Si Si6 0.484419 0.746808 0.448975
Si Si7 0.928626 0.708550 0.844693
O O1 0.305257 0.599999 0.663735
O O2 0.288024 0.759806 0.828401
O O3 0.250000 0.000000 0.690514
O O4 0.337226 0.020901 0.728657
O O5 0.123822 0.057416 0.888239
O O6 0.071702 0.765023 0.955333
O O7 0.154192 0.817516 0.032171
O O8 0.088365 0.118735 0.070885
O O9 0.670645 0.627541 0.495953
O O10 0.605970 0.478733 0.368844
O O11 0.834432 0.363589 0.144873
O O12 0.912922 0.224978 0.243530
O O13 0.750000 0.500000 0.557865
O O14 0.500000 0.500000 0.500000
O O15 0.515492 0.715546 0.358123
O O16 0.500000 0.000000 0.500000
#
# Coordination Sequence:
#
# PCOD9422482 Si02
#       7
#     8   8   8   8   8   8   8
#     4  12  24  43  67  93 132 174 228 284 342 410
#     4  10  22  41  62  95 131 170 223 272 338 409
#     4  11  23  40  66  93 125 174 219 271 342 409
#     4  11  23  40  64  93 127 173 221 272 337 404
#     4  11  24  42  61  91 128 167 218 281 331 401
#     4  10  21  39  68  98 135 179 223 283 347 416
#     4  11  21  40  68  91 131 172 217 277 339 413
#
# _framework density 24.703011
#
# number of rings (size 3 to 8) (size 9 to 14) (size 15 to 20)
#    0.000    1.143    5.714    0.857    0.000    2.286 
#    5.143    0.000    0.000    1.714    0.000    0.000 
#    0.000    0.000    0.000    0.000    0.000    0.000 
#
# Total GULP energy -311959.878431 kJ/mol
# GULP energy per Si atom -5570.712115 kJ/mol
# Density = 2.464679 g / cm^3
# Si number density = 24.703011 Si / 1000 Ang^3
#
#
#
# Elastic Constant Matrix: (Units=GPa)
#
#
# Indices 1 2 3 4 5 6 
#
# 1 66.7004 -12.0038 15.1060 0.0000 0.0000 0.0000
# 2 -12.0038 62.0870 15.2119 0.0000 0.0000 0.0000
# 3 15.1060 15.2119 138.5422 0.0000 0.0000 0.0000
# 4 0.0000 0.0000 0.0000 37.5629 0.0000 0.0000
# 5 0.0000 0.0000 0.0000 0.0000 31.4531 0.0000
# 6 0.0000 0.0000 0.0000 0.0000 0.0000 25.4160
#
#
#
# Elastic Compliance Matrix: (Units=1/GPa)
#
#
# Indices 1 2 3 4 5 6 
#
# 1 0.016138 0.003649 -0.002160 0.000000 0.000000 0.000000
# 2 0.003649 0.017377 -0.002306 0.000000 0.000000 0.000000
# 3 -0.002160 -0.002306 0.007707 0.000000 0.000000 0.000000
# 4 0.000000 0.000000 0.000000 0.026622 0.000000 0.000000
# 5 0.000000 0.000000 0.000000 0.000000 0.031793 0.000000
# 6 0.000000 0.000000 0.000000 0.000000 0.000000 0.039345
#
#
# Mechanical properties :
#
#
# Convention : Reuss Voigt Hill
#
# Bulk Modulus (GPa) = 25.25979 33.77309 29.51644
# Shear Modulus (GPa) = 32.50707 35.48743 33.99725
#
# Velocity S-wave (km/s) = 3.63149 3.79431 3.71379
# Velocity P-wave (km/s) = 5.27553 5.73560 5.51037
#
# Compressibility (1/GPa) = 0.03958861
#
# Stress axis : x y z
#
# Youngs Moduli (GPa) = 61.96378 57.54740 129.75615
#
# Poissons Ratio (x) = -0.21002 0.28032
# Poissons Ratio (y) = -0.22614 0.29921
# Poissons Ratio (z) = 0.13386 0.13270
#
# Static dielectric constant tensor:
#      x y z
#    x 2.087510 0.000000 0.000000 
#    y 0.000000 2.073210 0.000000 
#    z 0.000000 0.000000 2.002640 
# 
# From -- ./inp_files/15335.got.cif
#   From: 2010.05.17/outbox.cif.g08.bks.cpg/sg54_8_cif.got.tgz:15335.got - 2010.06.03 13:09:01.
