data_PCOD9422617
_publ_section_title
;
Structure prediction by ZEFSAII (Michael W. Deem and Ramdas Pophale) SiO2 
 PCOD9422617
Probable space group: P C C A
;
_chemical_formula_sum "Si O2"
_cell_formula_units_Z 60
_cell_length_a 17.177680
_cell_length_b 18.771396
_cell_length_c 9.885346
_cell_angle_alpha 90.000000
_cell_angle_beta 90.000000
_cell_angle_gamma 90.000000
_cell_volume 3187.520265
_symmetry_space_group_name_H-M "P C C A"
_symmetry_group_IT_number 54
_symmetry_cell_setting 'orthorhombic'
loop_
_space_group_symop_operation_xyz
x,y,z
1/2-x,-y,z
1/2+x,-y,1/2-z
-x,y,1/2-z
-x,-y,-z
1/2+x,y,-z
1/2-x,y,1/2+z
x,-y,1/2+z
loop_
_atom_site_type_symbol
_atom_site_label
_atom_site_fract_x
_atom_site_fract_y
_atom_site_fract_z
Si Si1 0.836732 0.700779 0.002070
Si Si2 0.278072 0.363660 0.221859
Si Si3 0.250000 0.500000 0.380025
Si Si4 0.198677 0.928259 0.791817
Si Si5 0.821831 0.132996 0.508642
Si Si6 0.471296 0.602829 0.111329
Si Si7 0.555593 0.020215 0.123191
Si Si8 0.108716 0.463840 0.564941
O O1 0.773936 0.675950 0.888854
O O2 0.914016 0.655349 0.968798
O O3 0.805280 0.682729 0.151536
O O4 0.846568 0.785247 0.997350
O O5 0.235375 0.431077 0.289517
O O6 0.349972 0.402814 0.150401
O O7 0.174155 0.503226 0.473870
O O8 0.244343 0.878822 0.899469
O O9 0.193487 0.895185 0.642908
O O10 0.250000 0.000000 0.781733
O O11 0.114068 0.955041 0.840798
O O12 0.889024 0.085319 0.578068
O O13 0.500000 0.637643 0.250000
O O14 0.427908 0.528667 0.148556
O O15 0.542921 0.575383 0.021738
O O16 0.500000 0.036738 0.250000
O O17 0.500000 0.000000 0.000000
#
# Coordination Sequence:
#
# PCOD9422617 Si02
#       8
#     8   8   4   8   8   8   8   8
#     4  12  26  44  63  93 138 171 216 260 335 415
#     4  12  23  41  66  93 123 171 222 274 325 384
#     4  12  20  42  68  96 116 166 232 290 316 388
#     4  10  21  41  73  97 129 166 222 269 308 374
#     4  11  24  43  64 101 131 177 214 260 329 397
#     4  11  24  41  62  90 127 165 212 275 334 381
#     4  11  22  42  71 101 132 166 217 275 321 377
#     4  11  22  39  66  91 120 162 225 280 325 376
#
# _framework density 18.823409999999999
#
# number of rings (size 3 to 8) (size 9 to 14) (size 15 to 20)
#    0.000    0.800    4.000    4.800    3.733    0.000 
#    4.800    0.000    0.000    0.000    0.000    0.000 
#    0.000    0.000    0.000    0.000    0.000    0.000 
#
# Total GULP energy -335236.523631 kJ/mol
# GULP energy per Si atom -5587.275394 kJ/mol
# Density = 1.878057 g / cm^3
# Si number density = 18.823410 Si / 1000 Ang^3
#
#
#
# Elastic Constant Matrix: (Units=GPa)
#
#
# Indices 1 2 3 4 5 6 
#
# 1 115.8350 33.5919 63.3685 0.0000 0.0000 0.0000
# 2 33.5919 87.7716 38.7627 0.0000 0.0000 0.0000
# 3 63.3685 38.7627 134.0744 0.0000 0.0000 0.0000
# 4 0.0000 0.0000 0.0000 24.1161 0.0000 0.0000
# 5 0.0000 0.0000 0.0000 0.0000 32.7518 0.0000
# 6 0.0000 0.0000 0.0000 0.0000 0.0000 14.2547
#
#
#
# Elastic Compliance Matrix: (Units=1/GPa)
#
#
# Indices 1 2 3 4 5 6 
#
# 1 0.012072 -0.002408 -0.005009 0.000000 0.000000 0.000000
# 2 -0.002408 0.013541 -0.002777 0.000000 0.000000 0.000000
# 3 -0.005009 -0.002777 0.010629 0.000000 0.000000 0.000000
# 4 0.000000 0.000000 0.000000 0.041466 0.000000 0.000000
# 5 0.000000 0.000000 0.000000 0.000000 0.030533 0.000000
# 6 0.000000 0.000000 0.000000 0.000000 0.000000 0.070152
#
#
# Mechanical properties :
#
#
# Convention : Reuss Voigt Hill
#
# Bulk Modulus (GPa) = 63.07711 67.68083 65.37897
# Shear Modulus (GPa) = 24.50194 27.68837 26.09516
#
# Velocity S-wave (km/s) = 3.61179 3.83946 3.72736
# Velocity P-wave (km/s) = 7.13975 7.46251 7.30291
#
# Compressibility (1/GPa) = 0.01585361
#
# Stress axis : x y z
#
# Youngs Moduli (GPa) = 82.83876 73.84938 94.08215
#
# Poissons Ratio (x) = 0.17781 0.47129
# Poissons Ratio (y) = 0.19946 0.26126
# Poissons Ratio (z) = 0.41497 0.20507
#
# Static dielectric constant tensor:
#      x y z
#    x 1.126870 0.000000 0.000000 
#    y 0.000000 1.629600 0.000000 
#    z 0.000000 0.000000 1.682440 
# 
# From -- ./inp_files/4343.got.cif
#   From: 2010.05.17/outbox.cif.g08.bks.cpg/sg54_3_cif.got.tgz:4343.got - 2010.06.03 13:09:01.
