data_PCOD9422166
_publ_section_title
;
Structure prediction by ZEFSAII (Michael W. Deem and Ramdas Pophale) SiO2 
 PCOD9422166
Probable space group: P C C A
;
_chemical_formula_sum "Si O2"
_cell_formula_units_Z 28
_cell_length_a 5.196131
_cell_length_b 7.561303
_cell_length_c 31.596017
_cell_angle_alpha 90.000000
_cell_angle_beta 90.000000
_cell_angle_gamma 90.000000
_cell_volume 1241.392371
_symmetry_space_group_name_H-M "P C C A"
_symmetry_group_IT_number 54
_symmetry_cell_setting 'orthorhombic'
loop_
_space_group_symop_operation_xyz
x,y,z
1/2-x,-y,z
1/2+x,-y,1/2-z
-x,y,1/2-z
-x,-y,-z
1/2+x,y,-z
1/2-x,y,1/2+z
x,-y,1/2+z
loop_
_atom_site_type_symbol
_atom_site_label
_atom_site_fract_x
_atom_site_fract_y
_atom_site_fract_z
Si Si1 0.231750 0.711512 0.120198
Si Si2 0.732572 0.212270 0.477081
Si Si3 0.271649 0.286765 0.833336
Si Si4 0.500000 0.888129 0.250000
O O1 0.250000 0.500000 0.125221
O O2 0.172094 0.748733 0.071546
O O3 0.513922 0.776300 0.133154
O O4 0.007274 0.778169 0.151326
O O5 0.508247 0.280984 0.507617
O O6 0.750000 0.000000 0.481095
O O7 0.250000 0.500000 0.832723
O O8 0.378220 0.223982 0.788297
O O9 0.750000 0.000000 0.264824
#
# Coordination Sequence:
#
# PCOD9422166 Si02
#       4
#     8   8   8   4
#     4  10  21  38  61  88 115 154 206 249 293 356
#     4  10  21  36  55  82 117 156 194 238 299 360
#     4  10  23  42  63  87 122 164 201 245 308 371
#     4  12  26  42  64  98 128 156 208 262 308 366
#
# _framework density 22.555319000000001
#
# number of rings (size 3 to 8) (size 9 to 14) (size 15 to 20)
#    0.000    1.714    0.000    3.429    0.000    9.143 
#    0.000    0.000    0.000    0.000    0.000    0.000 
#    0.000    0.000    0.000    0.000    0.000    0.000 
#
# Total GULP energy -156494.377987 kJ/mol
# GULP energy per Si atom -5589.084928 kJ/mol
# Density = 2.250398 g / cm^3
# Si number density = 22.555319 Si / 1000 Ang^3
#
#
#
# Elastic Constant Matrix: (Units=GPa)
#
#
# Indices 1 2 3 4 5 6 
#
# 1 173.4213 30.0226 52.0887 0.0000 0.0000 0.0000
# 2 30.0226 40.1581 -0.4033 0.0000 0.0000 0.0000
# 3 52.0887 -0.4033 124.2289 0.0000 0.0000 0.0000
# 4 0.0000 0.0000 0.0000 32.9536 0.0000 0.0000
# 5 0.0000 0.0000 0.0000 0.0000 45.0108 0.0000
# 6 0.0000 0.0000 0.0000 0.0000 0.0000 7.9889
#
#
#
# Elastic Compliance Matrix: (Units=1/GPa)
#
#
# Indices 1 2 3 4 5 6 
#
# 1 0.007759 -0.005834 -0.003272 0.000000 0.000000 0.000000
# 2 -0.005834 0.029288 0.002541 0.000000 0.000000 0.000000
# 3 -0.003272 0.002541 0.009430 0.000000 0.000000 0.000000
# 4 0.000000 0.000000 0.000000 0.030346 0.000000 0.000000
# 5 0.000000 0.000000 0.000000 0.000000 0.022217 0.000000
# 6 0.000000 0.000000 0.000000 0.000000 0.000000 0.125174
#
#
# Mechanical properties :
#
#
# Convention : Reuss Voigt Hill
#
# Bulk Modulus (GPa) = 29.98700 55.69159 42.83929
# Shear Modulus (GPa) = 20.12402 34.26401 27.19402
#
# Velocity S-wave (km/s) = 2.99022 3.90180 3.47603
# Velocity P-wave (km/s) = 5.02451 6.71144 5.92829
#
# Compressibility (1/GPa) = 0.03334779
#
# Stress axis : x y z
#
# Youngs Moduli (GPa) = 128.88111 34.14323 106.04486
#
# Poissons Ratio (x) = 0.19918 0.34701
# Poissons Ratio (y) = 0.75185 -0.26947
# Poissons Ratio (z) = 0.42174 -0.08676
#
# Static dielectric constant tensor:
#      x y z
#    x 1.832360 0.000000 0.000000 
#    y 0.000000 1.860930 0.000000 
#    z 0.000000 0.000000 1.776470 
# 
# From -- ./inp_files/25022.got.cif
#   From: 2010.05.17/outbox.cif.g08.bks.cpg/sg54_13_cif.got.tgz:25022.got - 2010.06.03 13:09:01.
