data_PCOD9422063
_publ_section_title
;
Structure prediction by ZEFSAII (Michael W. Deem and Ramdas Pophale) SiO2 
 PCOD9422063
Probable space group: P C C A
;
_chemical_formula_sum "Si O2"
_cell_formula_units_Z 56
_cell_length_a 14.068441
_cell_length_b 14.006962
_cell_length_c 11.416104
_cell_angle_alpha 90.000000
_cell_angle_beta 90.000000
_cell_angle_gamma 90.000000
_cell_volume 2249.613142
_symmetry_space_group_name_H-M "P C C A"
_symmetry_group_IT_number 54
_symmetry_cell_setting 'orthorhombic'
loop_
_space_group_symop_operation_xyz
x,y,z
1/2-x,-y,z
1/2+x,-y,1/2-z
-x,y,1/2-z
-x,-y,-z
1/2+x,y,-z
1/2-x,y,1/2+z
x,-y,1/2+z
loop_
_atom_site_type_symbol
_atom_site_label
_atom_site_fract_x
_atom_site_fract_y
_atom_site_fract_z
Si Si1 0.000000 0.612036 0.250000
Si Si2 0.668049 0.173822 0.874590
Si Si3 0.402939 0.979733 0.703357
Si Si4 0.141790 0.538085 0.658569
Si Si5 0.638860 0.683913 0.559680
Si Si6 0.353659 0.698188 0.343124
Si Si7 0.364024 0.833064 0.532659
Si Si8 0.750000 0.000000 0.109548
O O1 0.932136 0.547505 0.332188
O O2 0.932903 0.670176 0.164481
O O3 0.651218 0.062055 0.868109
O O4 0.633210 0.222123 0.756534
O O5 0.622226 0.219438 0.988242
O O6 0.778402 0.203340 0.885189
O O7 0.500000 0.022849 0.750000
O O8 0.330355 0.953427 0.806459
O O9 0.429694 0.893560 0.617730
O O10 0.250000 0.500000 0.664967
O O11 0.132814 0.601303 0.540689
O O12 0.120451 0.601960 0.774990
O O13 0.745154 0.685652 0.613457
O O14 0.402812 0.746274 0.455925
O O15 0.306726 0.913069 0.453959
#
# Coordination Sequence:
#
# PCOD9422063 Si02
#       8
#     4   8   8   8   8   8   8   4
#     4  12  24  48  72 112 144 188 244 308 370 450
#     4  10  20  43  66  99 142 190 238 300 364 433
#     4  12  24  40  69 109 145 190 255 304 366 434
#     4  11  24  44  73 106 144 189 242 301 375 448
#     4  10  24  42  72 105 143 188 242 301 367 444
#     4  10  21  43  72 101 136 192 243 293 369 441
#     4  11  20  41  73  95 137 195 244 299 370 427
#     4  12  20  42  70  90 142 190 244 302 364 438
#
# _framework density 24.893169
#
# number of rings (size 3 to 8) (size 9 to 14) (size 15 to 20)
#    0.000    1.143    5.714    0.429    2.000    0.571 
#    5.143    1.429   17.286    0.000    0.000    0.000 
#    0.000    0.000    0.000    0.000    0.000    0.000 
#
# Total GULP energy -313425.040980 kJ/mol
# GULP energy per Si atom -5596.875732 kJ/mol
# Density = 2.483651 g / cm^3
# Si number density = 24.893169 Si / 1000 Ang^3
#
#
#
# Elastic Constant Matrix: (Units=GPa)
#
#
# Indices 1 2 3 4 5 6 
#
# 1 65.4362 7.9663 22.8406 0.0000 0.0000 0.0000
# 2 7.9663 37.2957 16.8089 0.0000 0.0000 0.0000
# 3 22.8406 16.8089 69.0006 0.0000 0.0000 0.0000
# 4 0.0000 0.0000 0.0000 23.5670 0.0000 0.0000
# 5 0.0000 0.0000 0.0000 0.0000 20.2460 0.0000
# 6 0.0000 0.0000 0.0000 0.0000 0.0000 17.9073
#
#
#
# Elastic Compliance Matrix: (Units=1/GPa)
#
#
# Indices 1 2 3 4 5 6 
#
# 1 0.017331 -0.001254 -0.005431 0.000000 0.000000 0.000000
# 2 -0.001254 0.030210 -0.006944 0.000000 0.000000 0.000000
# 3 -0.005431 -0.006944 0.017982 0.000000 0.000000 0.000000
# 4 0.000000 0.000000 0.000000 0.042432 0.000000 0.000000
# 5 0.000000 0.000000 0.000000 0.000000 0.049393 0.000000
# 6 0.000000 0.000000 0.000000 0.000000 0.000000 0.055843
#
#
# Mechanical properties :
#
#
# Convention : Reuss Voigt Hill
#
# Bulk Modulus (GPa) = 26.13427 29.66268 27.89847
# Shear Modulus (GPa) = 19.74688 20.61850 20.18269
#
# Velocity S-wave (km/s) = 2.81955 2.88111 2.85050
# Velocity P-wave (km/s) = 4.59578 4.79683 4.69738
#
# Compressibility (1/GPa) = 0.03826394
#
# Stress axis : x y z
#
# Youngs Moduli (GPa) = 57.70171 33.10127 55.61068
#
# Poissons Ratio (x) = 0.04151 0.30204
# Poissons Ratio (y) = 0.07235 0.38618
# Poissons Ratio (z) = 0.31339 0.22987
#
# Static dielectric constant tensor:
#      x y z
#    x 1.935230 0.000000 0.000000 
#    y 0.000000 1.980400 0.000000 
#    z 0.000000 0.000000 1.969820 
# 
# From -- ./inp_files/8487.got.cif
#   From: 2010.05.17/outbox.cif.g08.bks.cpg/sg54_5_cif.got.tgz:8487.got - 2010.06.03 13:09:01.
