data_PCOD9422224
_publ_section_title
;
Structure prediction by ZEFSAII (Michael W. Deem and Ramdas Pophale) SiO2 
 PCOD9422224
Probable space group: P C C A
;
_chemical_formula_sum "Si O2"
_cell_formula_units_Z 24
_cell_length_a 8.802962
_cell_length_b 8.907613
_cell_length_c 13.997157
_cell_angle_alpha 90.000000
_cell_angle_beta 90.000000
_cell_angle_gamma 90.000000
_cell_volume 1097.564373
_symmetry_space_group_name_H-M "P C C A"
_symmetry_group_IT_number 54
_symmetry_cell_setting 'orthorhombic'
loop_
_space_group_symop_operation_xyz
x,y,z
1/2-x,-y,z
1/2+x,-y,1/2-z
-x,y,1/2-z
-x,-y,-z
1/2+x,y,-z
1/2-x,y,1/2+z
x,-y,1/2+z
loop_
_atom_site_type_symbol
_atom_site_label
_atom_site_fract_x
_atom_site_fract_y
_atom_site_fract_z
Si Si1 0.269760 0.176861 0.273288
Si Si2 0.400785 0.392339 0.897110
Si Si3 0.054128 0.312017 0.612320
O O1 0.132974 0.264691 0.321728
O O2 0.412391 0.221012 0.342467
O O3 0.304891 0.244887 0.169302
O O4 0.250000 0.000000 0.269207
O O5 0.250000 0.500000 0.908597
O O6 0.527958 0.511641 0.866358
O O7 0.435317 0.314196 0.998342
#
# Coordination Sequence:
#
# PCOD9422224 Si02
#       3
#     8   8   8
#     4  10  21  37  58  87 118 150 189 240 300 352
#     4   9  19  38  63  84 110 150 195 243 289 345
#     4   9  20  39  57  82 114 149 198 240 285 350
#
# _framework density 21.866600999999999
#
# number of rings (size 3 to 8) (size 9 to 14) (size 15 to 20)
#    0.000    2.667    0.000    0.000    0.000    9.333 
#    0.000   36.667    0.000    0.000    0.000    0.000 
#    0.000    0.000    0.000    0.000    0.000    0.000 
#
# Total GULP energy -134105.836034 kJ/mol
# GULP energy per Si atom -5587.743168 kJ/mol
# Density = 2.181683 g / cm^3
# Si number density = 21.866601 Si / 1000 Ang^3
#
#
#
# Elastic Constant Matrix: (Units=GPa)
#
#
# Indices 1 2 3 4 5 6 
#
# 1 29.1064 53.4350 36.5489 0.0000 0.0000 0.0000
# 2 53.4350 201.2234 112.0471 0.0000 0.0000 0.0000
# 3 36.5489 112.0471 127.5880 0.0000 0.0000 0.0000
# 4 0.0000 0.0000 0.0000 -203.3326 0.0000 0.0000
# 5 0.0000 0.0000 0.0000 0.0000 35.4979 0.0000
# 6 0.0000 0.0000 0.0000 0.0000 0.0000 21.5005
#
#
#
# Elastic Compliance Matrix: (Units=1/GPa)
#
#
# Indices 1 2 3 4 5 6 
#
# 1 0.070380 -0.014605 -0.007335 0.000000 0.000000 0.000000
# 2 -0.014605 0.012756 -0.007019 0.000000 0.000000 0.000000
# 3 -0.007335 -0.007019 0.016103 0.000000 0.000000 0.000000
# 4 0.000000 0.000000 0.000000 -0.004918 0.000000 0.000000
# 5 0.000000 0.000000 0.000000 0.000000 0.028171 0.000000
# 6 0.000000 0.000000 0.000000 0.000000 0.000000 0.046511
#
#
# Mechanical properties :
#
#
# Convention : Reuss Voigt Hill
#
# Bulk Modulus (GPa) = 24.20056 84.66443 54.43249
# Shear Modulus (GPa) = 20.77336 -18.87438 0.94949
#
# Velocity S-wave (km/s) = 3.08556 -2.94115 0.65967
# Velocity P-wave (km/s) = 4.87705 5.22196 5.05245
#
# Compressibility (1/GPa) = 0.04132136
#
# Stress axis : x y z
#
# Youngs Moduli (GPa) = 14.20861 78.39347 62.10175
#
# Poissons Ratio (x) = 1.14494 0.45551
# Poissons Ratio (y) = 0.20752 0.43587
# Poissons Ratio (z) = 0.10422 0.55021
#
# Static dielectric constant tensor:
#      x y z
#    x 1.962120 0.000000 0.000000 
#    y 0.000000 1.720120 0.000000 
#    z 0.000000 0.000000 1.795020 
# 
# From -- ./inp_files/7105.got.cif
#   From: 2010.05.17/outbox.cif.g08.bks.cpg/sg54_4_cif.got.tgz:7105.got - 2010.06.03 13:09:01.
