data_PCOD9422512
_publ_section_title
;
Structure prediction by ZEFSAII (Michael W. Deem and Ramdas Pophale) SiO2 
 PCOD9422512
Probable space group: P C C A
;
_chemical_formula_sum "Si O2"
_cell_formula_units_Z 32
_cell_length_a 13.894346
_cell_length_b 5.422451
_cell_length_c 15.761441
_cell_angle_alpha 90.000000
_cell_angle_beta 90.000000
_cell_angle_gamma 90.000000
_cell_volume 1187.489194
_symmetry_space_group_name_H-M "P C C A"
_symmetry_group_IT_number 54
_symmetry_cell_setting 'orthorhombic'
loop_
_space_group_symop_operation_xyz
x,y,z
1/2-x,-y,z
1/2+x,-y,1/2-z
-x,y,1/2-z
-x,-y,-z
1/2+x,y,-z
1/2-x,y,1/2+z
x,-y,1/2+z
loop_
_atom_site_type_symbol
_atom_site_label
_atom_site_fract_x
_atom_site_fract_y
_atom_site_fract_z
Si Si1 0.639412 0.313088 0.776765
Si Si2 0.890653 0.502179 0.964192
Si Si3 0.609347 0.002179 0.035808
Si Si4 0.139412 0.186912 0.776765
O O1 0.600170 0.530582 0.713951
O O2 0.750000 0.250000 0.750000
O O3 0.600170 0.030582 0.786049
O O4 0.622929 0.460158 0.864252
O O5 0.850157 0.250000 1.000000
O O6 0.846579 0.750000 1.000000
O O7 0.000000 0.500000 0.000000
O O8 0.622929 0.039842 0.135748
O O9 0.500000 0.000000 0.000000
#
# Coordination Sequence:
#
# PCOD9422512 Si02
#       4
#     8   8   8   8
#     4  10  21  40  64  93 128 173 223 277 339 413
#     4  10  21  40  63  94 132 174 222 282 349 420
#     4  10  21  40  63  94 132 174 222 282 349 420
#     4  10  21  40  64  93 128 173 223 277 339 413
#
# _framework density 26.947614999999999
#
# number of rings (size 3 to 8) (size 9 to 14) (size 15 to 20)
#    0.000    2.000    0.000    3.000    0.000    0.000 
#    0.000   50.000    0.000    0.000    0.000    0.000 
#    0.000    0.000    0.000    0.000    0.000    0.000 
#
# Total GULP energy -178417.828135 kJ/mol
# GULP energy per Si atom -5575.557129 kJ/mol
# Density = 2.688628 g / cm^3
# Si number density = 26.947615 Si / 1000 Ang^3
#
#
#
# Elastic Constant Matrix: (Units=GPa)
#
#
# Indices 1 2 3 4 5 6 
#
# 1 204.0207 20.4812 32.0237 0.0000 0.0000 0.0000
# 2 20.4812 369.6460 50.7415 0.0000 0.0000 0.0000
# 3 32.0237 50.7415 143.1807 0.0000 0.0000 0.0000
# 4 0.0000 0.0000 0.0000 68.0106 0.0000 0.0000
# 5 0.0000 0.0000 0.0000 0.0000 73.2988 0.0000
# 6 0.0000 0.0000 0.0000 0.0000 0.0000 -176.4247
#
#
#
# Elastic Compliance Matrix: (Units=1/GPa)
#
#
# Indices 1 2 3 4 5 6 
#
# 1 0.005086 -0.000132 -0.001091 0.000000 0.000000 0.000000
# 2 -0.000132 0.002847 -0.000979 0.000000 0.000000 0.000000
# 3 -0.001091 -0.000979 0.007575 0.000000 0.000000 0.000000
# 4 0.000000 0.000000 0.000000 0.014704 0.000000 0.000000
# 5 0.000000 0.000000 0.000000 0.000000 0.013643 0.000000
# 6 0.000000 0.000000 0.000000 0.000000 0.000000 -0.005668
#
#
# Mechanical properties :
#
#
# Convention : Reuss Voigt Hill
#
# Bulk Modulus (GPa) = 90.05932 102.59333 96.32632
# Shear Modulus (GPa) = 108.00976 33.88368 70.94672
#
# Velocity S-wave (km/s) = 6.33785 3.54982 5.13661
# Velocity P-wave (km/s) = 9.33009 7.41321 8.42633
#
# Compressibility (1/GPa) = 0.01110379
#
# Stress axis : x y z
#
# Youngs Moduli (GPa) = 196.62116 351.24019 132.00932
#
# Poissons Ratio (x) = 0.04639 0.14398
# Poissons Ratio (y) = 0.02597 0.12929
# Poissons Ratio (z) = 0.21446 0.34401
#
# Static dielectric constant tensor:
#      x y z
#    x 2.165250 0.000000 0.000000 
#    y 0.000000 2.432290 0.000000 
#    z 0.000000 0.000000 2.288990 
# 
# From -- ./inp_files/13728.got.cif
#   From: 2010.05.17/outbox.cif.g08.bks.cpg/sg54_7_cif.got.tgz:13728.got - 2010.06.03 13:09:01.
