data_PCOD9422864
_publ_section_title
;
Structure prediction by ZEFSAII (Michael W. Deem and Ramdas Pophale) SiO2 
 PCOD9422864
Probable space group: P C C A
;
_chemical_formula_sum "Si O2"
_cell_formula_units_Z 48
_cell_length_a 16.947218
_cell_length_b 15.831059
_cell_length_c 8.265571
_cell_angle_alpha 90.000000
_cell_angle_beta 90.000000
_cell_angle_gamma 90.000000
_cell_volume 2217.589947
_symmetry_space_group_name_H-M "P C C A"
_symmetry_group_IT_number 54
_symmetry_cell_setting 'orthorhombic'
loop_
_space_group_symop_operation_xyz
x,y,z
1/2-x,-y,z
1/2+x,-y,1/2-z
-x,y,1/2-z
-x,-y,-z
1/2+x,y,-z
1/2-x,y,1/2+z
x,-y,1/2+z
loop_
_atom_site_type_symbol
_atom_site_label
_atom_site_fract_x
_atom_site_fract_y
_atom_site_fract_z
Si Si1 0.660723 0.482968 0.417113
Si Si2 0.500000 0.746795 0.750000
Si Si3 0.408963 0.374488 0.789344
Si Si4 0.083373 0.112817 0.538967
Si Si5 0.342011 0.671295 0.799692
Si Si6 0.696849 0.755433 0.042121
Si Si7 0.500000 0.981986 0.250000
O O1 0.750000 0.500000 0.471910
O O2 0.608815 0.431612 0.548686
O O3 0.624826 0.571498 0.360341
O O4 0.667154 0.425726 0.253078
O O5 0.461655 0.806710 0.614787
O O6 0.432974 0.690555 0.831636
O O7 0.500000 0.359349 0.750000
O O8 0.359920 0.289622 0.825857
O O9 0.168881 0.147629 0.481889
O O10 0.036719 0.075425 0.388218
O O11 0.069641 0.041528 0.676548
O O12 0.321046 0.715138 0.630006
O O13 0.283837 0.721219 0.917863
#
# Coordination Sequence:
#
# PCOD9422864 Si02
#       7
#     8   4   8   8   8   8   4
#     4  11  22  40  60  82 122 171 214 274 326 374
#     4   9  20  40  62  89 126 164 216 261 316 386
#     4  11  24  39  57  88 121 163 220 269 318 381
#     4   9  19  37  64  92 124 157 199 252 311 387
#     4  10  22  39  60  89 123 169 216 263 325 375
#     4  10  22  40  59  88 125 164 211 262 322 381
#     4   9  18  36  66  97 122 158 198 247 324 384
#
# _framework density 21.645118
#
# number of rings (size 3 to 8) (size 9 to 14) (size 15 to 20)
#    0.000    2.000    1.667    1.000    4.667    1.333 
#    9.000    0.000    0.000   34.000    0.000    0.000 
#    0.000    0.000    0.000    0.000    0.000    0.000 
#
# Total GULP energy -267809.101449 kJ/mol
# GULP energy per Si atom -5579.356280 kJ/mol
# Density = 2.159585 g / cm^3
# Si number density = 21.645118 Si / 1000 Ang^3
#
#
#
# Elastic Constant Matrix: (Units=GPa)
#
#
# Indices 1 2 3 4 5 6 
#
# 1 109.8206 25.2608 11.9612 0.0000 0.0000 0.0000
# 2 25.2608 79.6397 19.0618 0.0000 0.0000 0.0000
# 3 11.9612 19.0618 61.1668 0.0000 0.0000 0.0000
# 4 0.0000 0.0000 0.0000 12.9727 0.0000 0.0000
# 5 0.0000 0.0000 0.0000 0.0000 26.3041 0.0000
# 6 0.0000 0.0000 0.0000 0.0000 0.0000 24.4186
#
#
#
# Elastic Compliance Matrix: (Units=1/GPa)
#
#
# Indices 1 2 3 4 5 6 
#
# 1 0.009882 -0.002887 -0.001033 0.000000 0.000000 0.000000
# 2 -0.002887 0.014412 -0.003927 0.000000 0.000000 0.000000
# 3 -0.001033 -0.003927 0.017774 0.000000 0.000000 0.000000
# 4 0.000000 0.000000 0.000000 0.077085 0.000000 0.000000
# 5 0.000000 0.000000 0.000000 0.000000 0.038017 0.000000
# 6 0.000000 0.000000 0.000000 0.000000 0.000000 0.040952
#
#
# Mechanical properties :
#
#
# Convention : Reuss Voigt Hill
#
# Bulk Modulus (GPa) = 37.91414 40.35494 39.13454
# Shear Modulus (GPa) = 22.46090 25.69530 24.07810
#
# Velocity S-wave (km/s) = 3.22481 3.44919 3.33889
# Velocity P-wave (km/s) = 5.60537 5.87767 5.74313
#
# Compressibility (1/GPa) = 0.02637538
#
# Stress axis : x y z
#
# Youngs Moduli (GPa) = 101.19005 69.38532 56.26070
#
# Poissons Ratio (x) = 0.20034 0.05810
# Poissons Ratio (y) = 0.29218 0.22092
# Poissons Ratio (z) = 0.10450 0.27246
#
# Static dielectric constant tensor:
#      x y z
#    x 1.825790 0.000000 0.000000 
#    y 0.000000 1.852070 0.000000 
#    z 0.000000 0.000000 1.841670 
# 
# From -- ./inp_files/3619.got.cif
#   From: 2010.05.17/outbox.cif.g08.bks.cpg/sg54_2_cif.got.tgz:3619.got - 2010.06.03 13:09:01.
