data_PCOD9422831
_publ_section_title
;
Structure prediction by ZEFSAII (Michael W. Deem and Ramdas Pophale) SiO2 
 PCOD9422831
Probable space group: P C C A
;
_chemical_formula_sum "Si O2"
_cell_formula_units_Z 24
_cell_length_a 7.820197
_cell_length_b 7.632013
_cell_length_c 17.097362
_cell_angle_alpha 90.000000
_cell_angle_beta 90.000000
_cell_angle_gamma 90.000000
_cell_volume 1020.436306
_symmetry_space_group_name_H-M "P C C A"
_symmetry_group_IT_number 54
_symmetry_cell_setting 'orthorhombic'
loop_
_space_group_symop_operation_xyz
x,y,z
1/2-x,-y,z
1/2+x,-y,1/2-z
-x,y,1/2-z
-x,-y,-z
1/2+x,y,-z
1/2-x,y,1/2+z
x,-y,1/2+z
loop_
_atom_site_type_symbol
_atom_site_label
_atom_site_fract_x
_atom_site_fract_y
_atom_site_fract_z
Si Si1 0.846180 0.822334 0.531549
Si Si2 0.750000 0.500000 0.125835
Si Si3 0.201145 0.292553 0.112119
Si Si4 0.500000 0.639406 0.250000
O O1 0.738225 0.664886 0.569604
O O2 0.846843 0.804653 0.437399
O O3 0.032202 0.780359 0.566828
O O4 0.750000 0.000000 0.553590
O O5 0.590126 0.525946 0.183230
O O6 0.250000 0.500000 0.105758
O O7 0.149760 0.260369 0.202697
#
# Coordination Sequence:
#
# PCOD9422831 Si02
#       4
#     8   4   8   4
#     4  11  24  41  66  99 132 176 237 291 350 423
#     4  10  22  40  66  94 134 176 232 278 360 416
#     4  11  22  42  67  96 130 181 231 287 351 418
#     4  10  22  38  66  92 132 178 220 286 354 422
#
# _framework density 23.519348999999998
#
# number of rings (size 3 to 8) (size 9 to 14) (size 15 to 20)
#    0.000    1.333    3.333    2.000    4.667    0.000 
#    0.000   13.333    0.000    0.000    0.000    0.000 
#    0.000    0.000    0.000    0.000    0.000    0.000 
#
# Total GULP energy -133785.254480 kJ/mol
# GULP energy per Si atom -5574.385603 kJ/mol
# Density = 2.346582 g / cm^3
# Si number density = 23.519349 Si / 1000 Ang^3
#
#
#
# Elastic Constant Matrix: (Units=GPa)
#
#
# Indices 1 2 3 4 5 6 
#
# 1 95.9598 35.9376 26.5454 0.0000 0.0000 0.0000
# 2 35.9376 149.7956 43.1562 0.0000 0.0000 0.0000
# 3 26.5454 43.1562 114.6045 0.0000 0.0000 0.0000
# 4 0.0000 0.0000 0.0000 -0.8135 0.0000 0.0000
# 5 0.0000 0.0000 0.0000 0.0000 60.7077 0.0000
# 6 0.0000 0.0000 0.0000 0.0000 0.0000 30.3775
#
#
#
# Elastic Compliance Matrix: (Units=1/GPa)
#
#
# Indices 1 2 3 4 5 6 
#
# 1 0.011796 -0.002291 -0.001869 0.000000 0.000000 0.000000
# 2 -0.002291 0.007933 -0.002457 0.000000 0.000000 0.000000
# 3 -0.001869 -0.002457 0.010084 0.000000 0.000000 0.000000
# 4 0.000000 0.000000 0.000000 -1.229257 0.000000 0.000000
# 5 0.000000 0.000000 0.000000 0.000000 0.016472 0.000000
# 6 0.000000 0.000000 0.000000 0.000000 0.000000 0.032919
#
#
# Mechanical properties :
#
#
# Convention : Reuss Voigt Hill
#
# Bulk Modulus (GPa) = 60.32002 63.51539 61.91770
# Shear Modulus (GPa) = -4.41973 35.03570 15.30799
#
# Velocity S-wave (km/s) = -1.37232 3.86379 2.55398
# Velocity P-wave (km/s) = 4.81577 6.85342 5.92288
#
# Compressibility (1/GPa) = 0.01657824
#
# Stress axis : x y z
#
# Youngs Moduli (GPa) = 84.77195 126.05137 99.16931
#
# Poissons Ratio (x) = 0.28884 0.18539
# Poissons Ratio (y) = 0.19425 0.24362
# Poissons Ratio (z) = 0.15848 0.30966
#
# Static dielectric constant tensor:
#      x y z
#    x 2.073360 0.000000 0.000000 
#    y 0.000000 1.901140 0.000000 
#    z 0.000000 0.000000 1.923150 
# 
# From -- ./inp_files/16112.got.cif
#   From: 2010.05.17/outbox.cif.g08.bks.cpg/sg54_9_cif.got.tgz:16112.got - 2010.06.03 13:09:01.
