data_PCOD9422055
_publ_section_title
;
Structure prediction by ZEFSAII (Michael W. Deem and Ramdas Pophale) SiO2 
 PCOD9422055
Probable space group: P C C A
;
_chemical_formula_sum "Si O2"
_cell_formula_units_Z 48
_cell_length_a 13.550016
_cell_length_b 9.309226
_cell_length_c 16.033179
_cell_angle_alpha 90.000000
_cell_angle_beta 90.000000
_cell_angle_gamma 90.000000
_cell_volume 2022.427784
_symmetry_space_group_name_H-M "P C C A"
_symmetry_group_IT_number 54
_symmetry_cell_setting 'orthorhombic'
loop_
_space_group_symop_operation_xyz
x,y,z
1/2-x,-y,z
1/2+x,-y,1/2-z
-x,y,1/2-z
-x,-y,-z
1/2+x,y,-z
1/2-x,y,1/2+z
x,-y,1/2+z
loop_
_atom_site_type_symbol
_atom_site_label
_atom_site_fract_x
_atom_site_fract_y
_atom_site_fract_z
Si Si1 0.575878 0.508941 0.358972
Si Si2 0.250000 0.500000 0.267779
Si Si3 0.756581 0.738733 0.099414
Si Si4 0.000000 0.719732 0.250000
Si Si5 0.524573 0.791878 0.069773
Si Si6 0.931119 0.904020 0.395527
Si Si7 0.750000 0.000000 0.503850
Si Si8 0.250000 0.500000 0.528115
O O1 0.653524 0.541235 0.284967
O O2 0.494246 0.399171 0.325141
O O3 0.530809 0.651497 0.397301
O O4 0.655333 0.442184 0.422691
O O5 0.275719 0.354320 0.318368
O O6 0.638950 0.769152 0.094868
O O7 0.786660 0.628073 0.028131
O O8 0.800977 0.888689 0.068253
O O9 0.932008 0.829271 0.304648
O O10 0.481008 0.938410 0.108870
O O11 0.515613 0.814534 0.969936
O O12 0.825729 0.926554 0.440189
#
# Coordination Sequence:
#
# PCOD9422055 Si02
#       8
#     8   4   8   4   8   8   4   4
#     4  11  23  40  63  93 136 174 214 269 334 398
#     4  10  24  40  60  98 136 176 224 278 334 392
#     4  10  21  39  65  92 124 169 227 275 324 388
#     4  12  26  40  62 102 138 170 218 276 332 392
#     4  10  22  43  68  94 130 179 225 272 331 401
#     4  10  24  43  68 100 134 175 226 276 335 398
#     4  10  20  42  72  98 132 180 226 276 332 398
#     4  10  22  40  62  90 122 168 216 268 326 390
#
# _framework density 23.733851999999999
#
# number of rings (size 3 to 8) (size 9 to 14) (size 15 to 20)
#    0.000    1.667    0.000    4.000    0.000   12.667 
#    0.000    0.000    0.000    3.000    0.000    0.000 
#    0.000    0.000    0.000    0.000    0.000    0.000 
#
# Total GULP energy -267470.280676 kJ/mol
# GULP energy per Si atom -5572.297514 kJ/mol
# Density = 2.367983 g / cm^3
# Si number density = 23.733852 Si / 1000 Ang^3
#
#
#
# Elastic Constant Matrix: (Units=GPa)
#
#
# Indices 1 2 3 4 5 6 
#
# 1 103.6306 16.6277 28.3723 0.0000 0.0000 0.0000
# 2 16.6277 130.7531 54.5801 0.0000 0.0000 0.0000
# 3 28.3723 54.5801 88.5313 0.0000 0.0000 0.0000
# 4 0.0000 0.0000 0.0000 50.6110 0.0000 0.0000
# 5 0.0000 0.0000 0.0000 0.0000 17.8168 0.0000
# 6 0.0000 0.0000 0.0000 0.0000 0.0000 34.1093
#
#
#
# Elastic Compliance Matrix: (Units=1/GPa)
#
#
# Indices 1 2 3 4 5 6 
#
# 1 0.010579 0.000094 -0.003448 0.000000 0.000000 0.000000
# 2 0.000094 0.010299 -0.006380 0.000000 0.000000 0.000000
# 3 -0.003448 -0.006380 0.016334 0.000000 0.000000 0.000000
# 4 0.000000 0.000000 0.000000 0.019759 0.000000 0.000000
# 5 0.000000 0.000000 0.000000 0.000000 0.056127 0.000000
# 6 0.000000 0.000000 0.000000 0.000000 0.000000 0.029318
#
#
# Mechanical properties :
#
#
# Convention : Reuss Voigt Hill
#
# Bulk Modulus (GPa) = 56.35757 58.00834 57.18296
# Shear Modulus (GPa) = 29.79805 35.39642 32.59723
#
# Velocity S-wave (km/s) = 3.54716 3.86604 3.71003
# Velocity P-wave (km/s) = 6.36975 6.66503 6.51906
#
# Compressibility (1/GPa) = 0.01774384
#
# Stress axis : x y z
#
# Youngs Moduli (GPa) = 94.53026 97.09623 61.22356
#
# Poissons Ratio (x) = -0.00914 0.21111
# Poissons Ratio (y) = -0.00890 0.39058
# Poissons Ratio (z) = 0.32596 0.61943
#
# Static dielectric constant tensor:
#      x y z
#    x 1.997230 0.000000 0.000000 
#    y 0.000000 1.354170 0.000000 
#    z 0.000000 0.000000 1.951050 
# 
# From -- ./inp_files/18112.got.cif
#   From: 2010.05.17/outbox.cif.g08.bks.cpg/sg54_10_cif.got.tgz:18112.got - 2010.06.03 13:09:01.
