data_PCOD9422836
_publ_section_title
;
Structure prediction by ZEFSAII (Michael W. Deem and Ramdas Pophale) SiO2 
 PCOD9422836
Probable space group: P C C A
;
_chemical_formula_sum "Si O2"
_cell_formula_units_Z 48
_cell_length_a 29.309277
_cell_length_b 8.915661
_cell_length_c 8.442835
_cell_angle_alpha 90.000000
_cell_angle_beta 90.000000
_cell_angle_gamma 90.000000
_cell_volume 2206.210536
_symmetry_space_group_name_H-M "P C C A"
_symmetry_group_IT_number 54
_symmetry_cell_setting 'orthorhombic'
loop_
_space_group_symop_operation_xyz
x,y,z
1/2-x,-y,z
1/2+x,-y,1/2-z
-x,y,1/2-z
-x,-y,-z
1/2+x,y,-z
1/2-x,y,1/2+z
x,-y,1/2+z
loop_
_atom_site_type_symbol
_atom_site_label
_atom_site_fract_x
_atom_site_fract_y
_atom_site_fract_z
Si Si1 0.603662 0.954474 0.284505
Si Si2 0.081006 0.461456 0.712908
Si Si3 0.053875 0.175240 0.512552
Si Si4 0.000000 0.699802 0.750000
Si Si5 0.690081 0.146823 0.174672
Si Si6 0.750000 0.000000 0.914464
Si Si7 0.371530 0.331950 0.506753
O O1 0.590306 0.873833 0.121249
O O2 0.616583 0.825568 0.409557
O O3 0.561448 0.051895 0.351635
O O4 0.645650 0.066480 0.250127
O O5 0.064773 0.332951 0.594178
O O6 0.125939 0.541915 0.641534
O O7 0.090759 0.384729 0.880302
O O8 0.043217 0.590953 0.728198
O O9 0.008788 0.202178 0.407588
O O10 0.673256 0.301758 0.098374
O O11 0.730140 0.132423 0.303882
O O12 0.709647 0.053267 0.027314
#
# Coordination Sequence:
#
# PCOD9422836 Si02
#       7
#     8   8   8   4   8   4   8
#     4  12  22  42  68 102 129 173 228 282 326 401
#     4  12  25  44  67  92 130 189 230 271 334 398
#     4  12  24  42  65  95 134 173 233 279 344 384
#     4  12  26  42  66  90 136 176 242 282 338 396
#     4  11  21  40  69 104 134 161 215 264 331 403
#     4  10  22  38  68 110 136 166 190 280 346 388
#     4  12  23  43  69  98 131 180 230 265 328 409
#
# _framework density 21.756764
#
# number of rings (size 3 to 8) (size 9 to 14) (size 15 to 20)
#    0.000    0.333    8.333    0.500    0.000    0.667 
#    0.000    1.667    0.000    3.000    0.000    0.000 
#    0.000    0.000    0.000    0.000    0.000    0.000 
#
# Total GULP energy -268073.399383 kJ/mol
# GULP energy per Si atom -5584.862487 kJ/mol
# Density = 2.170724 g / cm^3
# Si number density = 21.756764 Si / 1000 Ang^3
#
#
#
# Elastic Constant Matrix: (Units=GPa)
#
#
# Indices 1 2 3 4 5 6 
#
# 1 51.8371 17.8031 14.6468 0.0000 0.0000 0.0000
# 2 17.8031 38.9623 12.4831 0.0000 0.0000 0.0000
# 3 14.6468 12.4831 91.2521 0.0000 0.0000 0.0000
# 4 0.0000 0.0000 0.0000 29.3938 0.0000 0.0000
# 5 0.0000 0.0000 0.0000 0.0000 26.0257 0.0000
# 6 0.0000 0.0000 0.0000 0.0000 0.0000 32.3495
#
#
#
# Elastic Compliance Matrix: (Units=1/GPa)
#
#
# Indices 1 2 3 4 5 6 
#
# 1 0.023372 -0.009912 -0.002396 0.000000 0.000000 0.000000
# 2 -0.009912 0.031046 -0.002656 0.000000 0.000000 0.000000
# 3 -0.002396 -0.002656 0.011706 0.000000 0.000000 0.000000
# 4 0.000000 0.000000 0.000000 0.034021 0.000000 0.000000
# 5 0.000000 0.000000 0.000000 0.000000 0.038424 0.000000
# 6 0.000000 0.000000 0.000000 0.000000 0.000000 0.030912
#
#
# Mechanical properties :
#
#
# Convention : Reuss Voigt Hill
#
# Bulk Modulus (GPa) = 27.62622 30.21306 28.91964
# Shear Modulus (GPa) = 23.64351 26.69502 25.16927
#
# Velocity S-wave (km/s) = 3.30012 3.50662 3.40494
# Velocity P-wave (km/s) = 5.21981 5.50564 5.36463
#
# Compressibility (1/GPa) = 0.03619749
#
# Stress axis : x y z
#
# Youngs Moduli (GPa) = 42.78570 32.21037 85.42268
#
# Poissons Ratio (x) = 0.31927 0.20463
# Poissons Ratio (y) = 0.42409 0.22689
# Poissons Ratio (z) = 0.10249 0.08555
#
# Static dielectric constant tensor:
#      x y z
#    x 1.833750 0.000000 0.000000 
#    y 0.000000 1.782250 0.000000 
#    z 0.000000 0.000000 1.831770 
# 
# From -- ./inp_files/5883.got.cif
#   From: 2010.05.17/outbox.cif.g08.bks.cpg/sg54_3_cif.got.tgz:5883.got - 2010.06.03 13:09:01.
