data_PCOD9422848
_publ_section_title
;
Structure prediction by ZEFSAII (Michael W. Deem and Ramdas Pophale) SiO2 
 PCOD9422848
Probable space group: P C C A
;
_chemical_formula_sum "Si O2"
_cell_formula_units_Z 40
_cell_length_a 27.763020
_cell_length_b 7.125039
_cell_length_c 8.685675
_cell_angle_alpha 90.000000
_cell_angle_beta 90.000000
_cell_angle_gamma 90.000000
_cell_volume 1718.135957
_symmetry_space_group_name_H-M "P C C A"
_symmetry_group_IT_number 54
_symmetry_cell_setting 'orthorhombic'
loop_
_space_group_symop_operation_xyz
x,y,z
1/2-x,-y,z
1/2+x,-y,1/2-z
-x,y,1/2-z
-x,-y,-z
1/2+x,y,-z
1/2-x,y,1/2+z
x,-y,1/2+z
loop_
_atom_site_type_symbol
_atom_site_label
_atom_site_fract_x
_atom_site_fract_y
_atom_site_fract_z
Si Si1 0.655093 0.259214 0.534552
Si Si2 0.965912 0.096566 0.373374
Si Si3 0.097710 0.069228 0.875198
Si Si4 0.703865 0.909248 0.591601
Si Si5 0.301033 0.586540 0.150447
O O1 0.689154 0.085981 0.484112
O O2 0.663574 0.431964 0.423380
O O3 0.673739 0.319660 0.703778
O O4 0.605597 0.147123 0.565271
O O5 0.924242 0.184588 0.481390
O O6 0.000000 0.202750 0.250000
O O7 0.938201 0.945856 0.266269
O O8 0.000000 0.000000 0.500000
O O9 0.151732 0.128811 0.830718
O O10 0.712382 0.730338 0.486068
O O11 0.750000 0.000000 0.676060
O O12 0.250000 0.500000 0.202017
#
# Coordination Sequence:
#
# PCOD9422848 Si02
#       5
#     8   8   8   8   8
#     4  10  25  37  60  88 130 164 214 259 303 369
#     4   9  17  33  62  92 119 152 204 265 317 379
#     4   9  19  37  55  94 126 157 207 253 317 372
#     4  10  22  39  58  91 130 172 203 258 298 371
#     4  12  22  40  58  87 123 177 221 249 303 362
#
# _framework density 23.281044000000001
#
# number of rings (size 3 to 8) (size 9 to 14) (size 15 to 20)
#    1.200    0.800    2.000    1.800    0.000    4.000 
#    0.000    0.000    0.000    0.000    0.000   88.200 
#    0.000    0.000    0.000    0.000    0.000    0.000 
#
# Total GULP energy -222671.842315 kJ/mol
# GULP energy per Si atom -5566.796058 kJ/mol
# Density = 2.322806 g / cm^3
# Si number density = 23.281044 Si / 1000 Ang^3
#
#
#
# Elastic Constant Matrix: (Units=GPa)
#
#
# Indices 1 2 3 4 5 6 
#
# 1 125.9745 7.1029 56.0761 0.0000 0.0000 0.0000
# 2 7.1029 79.0436 26.3389 0.0000 0.0000 0.0000
# 3 56.0761 26.3389 111.8485 0.0000 0.0000 0.0000
# 4 0.0000 0.0000 0.0000 22.6272 0.0000 0.0000
# 5 0.0000 0.0000 0.0000 0.0000 51.2603 0.0000
# 6 0.0000 0.0000 0.0000 0.0000 0.0000 9.6060
#
#
#
# Elastic Compliance Matrix: (Units=1/GPa)
#
#
# Indices 1 2 3 4 5 6 
#
# 1 0.010272 0.000861 -0.005353 0.000000 0.000000 0.000000
# 2 0.000861 0.013801 -0.003681 0.000000 0.000000 0.000000
# 3 -0.005353 -0.003681 0.012491 0.000000 0.000000 0.000000
# 4 0.000000 0.000000 0.000000 0.044195 0.000000 0.000000
# 5 0.000000 0.000000 0.000000 0.000000 0.019508 0.000000
# 6 0.000000 0.000000 0.000000 0.000000 0.000000 0.104101
#
#
# Mechanical properties :
#
#
# Convention : Reuss Voigt Hill
#
# Bulk Modulus (GPa) = 49.46301 55.10024 52.28163
# Shear Modulus (GPa) = 21.98243 31.85528 26.91886
#
# Velocity S-wave (km/s) = 3.07615 3.70306 3.40407
# Velocity P-wave (km/s) = 5.82315 6.48092 6.16082
#
# Compressibility (1/GPa) = 0.02021713
#
# Stress axis : x y z
#
# Youngs Moduli (GPa) = 97.34915 72.46060 80.05633
#
# Poissons Ratio (x) = -0.06236 0.42852
# Poissons Ratio (y) = -0.08378 0.29471
# Poissons Ratio (z) = 0.52109 0.26675
#
# Static dielectric constant tensor:
#      x y z
#    x 2.012470 0.000000 0.000000 
#    y 0.000000 1.860170 0.000000 
#    z 0.000000 0.000000 1.915250 
# 
# From -- ./inp_files/5008.got.cif
#   From: 2010.05.17/outbox.cif.g08.bks.cpg/sg54_3_cif.got.tgz:5008.got - 2010.06.03 13:09:01.
