data_PCOD9422545
_publ_section_title
;
Structure prediction by ZEFSAII (Michael W. Deem and Ramdas Pophale) SiO2 
 PCOD9422545
Probable space group: P C C A
;
_chemical_formula_sum "Si O2"
_cell_formula_units_Z 40
_cell_length_a 12.800891
_cell_length_b 7.377184
_cell_length_c 21.445398
_cell_angle_alpha 90.000000
_cell_angle_beta 90.000000
_cell_angle_gamma 90.000000
_cell_volume 2025.186044
_symmetry_space_group_name_H-M "P C C A"
_symmetry_group_IT_number 54
_symmetry_cell_setting 'orthorhombic'
loop_
_space_group_symop_operation_xyz
x,y,z
1/2-x,-y,z
1/2+x,-y,1/2-z
-x,y,1/2-z
-x,-y,-z
1/2+x,y,-z
1/2-x,y,1/2+z
x,-y,1/2+z
loop_
_atom_site_type_symbol
_atom_site_label
_atom_site_fract_x
_atom_site_fract_y
_atom_site_fract_z
Si Si1 0.402691 0.635499 0.846686
Si Si2 0.558807 0.684534 0.314754
Si Si3 0.750000 0.500000 0.545379
Si Si4 0.750000 0.500000 0.758879
Si Si5 0.491117 0.988417 0.897230
Si Si6 0.155993 0.861505 0.003065
O O1 0.495772 0.490028 0.840504
O O2 0.336030 0.588970 0.908601
O O3 0.327694 0.607734 0.787292
O O4 0.444230 0.838222 0.851566
O O5 0.500000 0.732041 0.250000
O O6 0.676688 0.628787 0.299499
O O7 0.548325 0.850662 0.361405
O O8 0.698750 0.340847 0.505102
O O9 0.399416 0.077687 0.938598
O O10 0.569361 0.885405 0.943869
O O11 0.250000 0.000000 0.015397
#
# Coordination Sequence:
#
# PCOD9422545 Si02
#       6
#     8   8   4   4   8   8
#     4  10  21  40  67  95 127 167 220 269 318 386
#     4  10  22  42  65  97 129 170 217 270 326 386
#     4  11  20  40  67  92 128 175 209 266 326 384
#     4   9  22  42  69  94 130 175 221 260 332 392
#     4  11  24  41  66  96 132 167 218 277 321 383
#     4  11  24  40  64  98 128 171 223 264 328 391
#
# _framework density 19.751272
#
# number of rings (size 3 to 8) (size 9 to 14) (size 15 to 20)
#    0.000    1.600    4.000    0.000    0.000    6.400 
#    0.000    4.000    0.000    0.000    0.000    0.000 
#    0.000    0.000    0.000    0.000    0.000    0.000 
#
# Total GULP energy -223667.617245 kJ/mol
# GULP energy per Si atom -5591.690431 kJ/mol
# Density = 1.970632 g / cm^3
# Si number density = 19.751272 Si / 1000 Ang^3
#
#
#
# Elastic Constant Matrix: (Units=GPa)
#
#
# Indices 1 2 3 4 5 6 
#
# 1 84.2265 67.6390 16.7634 0.0000 0.0000 0.0000
# 2 67.6390 136.7939 35.6015 0.0000 0.0000 0.0000
# 3 16.7634 35.6015 33.3798 0.0000 0.0000 0.0000
# 4 0.0000 0.0000 0.0000 27.1064 0.0000 0.0000
# 5 0.0000 0.0000 0.0000 0.0000 0.2294 0.0000
# 6 0.0000 0.0000 0.0000 0.0000 0.0000 25.8682
#
#
#
# Elastic Compliance Matrix: (Units=1/GPa)
#
#
# Indices 1 2 3 4 5 6 
#
# 1 0.019703 -0.009921 0.000686 0.000000 0.000000 0.000000
# 2 -0.009921 0.015115 -0.011138 0.000000 0.000000 0.000000
# 3 0.000686 -0.011138 0.041493 0.000000 0.000000 0.000000
# 4 0.000000 0.000000 0.000000 0.036892 0.000000 0.000000
# 5 0.000000 0.000000 0.000000 0.000000 4.359500 0.000000
# 6 0.000000 0.000000 0.000000 0.000000 0.000000 0.038658
#
#
# Mechanical properties :
#
#
# Convention : Reuss Voigt Hill
#
# Bulk Modulus (GPa) = 28.11735 54.93424 41.52579
# Shear Modulus (GPa) = 1.09554 19.60055 10.34805
#
# Velocity S-wave (km/s) = 0.74557 3.15361 2.29141
# Velocity P-wave (km/s) = 3.87399 6.41356 5.29818
#
# Compressibility (1/GPa) = 0.03556523
#
# Stress axis : x y z
#
# Youngs Moduli (GPa) = 50.75254 66.16068 24.10035
#
# Poissons Ratio (x) = 0.65639 -0.01654
# Poissons Ratio (y) = 0.50353 0.26844
# Poissons Ratio (z) = -0.03484 0.73692
#
# Static dielectric constant tensor:
#      x y z
#    x 1.484430 0.000000 0.000000 
#    y 0.000000 1.650180 0.000000 
#    z 0.000000 0.000000 1.687520 
# 
# From -- ./inp_files/26089.got.cif
#   From: 2010.05.17/outbox.cif.g08.bks.cpg/sg54_14_cif.got.tgz:26089.got - 2010.06.03 13:09:01.
