data_PCOD9422449
_publ_section_title
;
Structure prediction by ZEFSAII (Michael W. Deem and Ramdas Pophale) SiO2 
 PCOD9422449
Probable space group: P C C A
;
_chemical_formula_sum "Si O2"
_cell_formula_units_Z 64
_cell_length_a 24.134887
_cell_length_b 15.457373
_cell_length_c 9.026570
_cell_angle_alpha 90.000000
_cell_angle_beta 90.000000
_cell_angle_gamma 90.000000
_cell_volume 3367.469812
_symmetry_space_group_name_H-M "P C C A"
_symmetry_group_IT_number 54
_symmetry_cell_setting 'orthorhombic'
loop_
_space_group_symop_operation_xyz
x,y,z
1/2-x,-y,z
1/2+x,-y,1/2-z
-x,y,1/2-z
-x,-y,-z
1/2+x,y,-z
1/2-x,y,1/2+z
x,-y,1/2+z
loop_
_atom_site_type_symbol
_atom_site_label
_atom_site_fract_x
_atom_site_fract_y
_atom_site_fract_z
Si Si1 0.592260 0.927613 0.853599
Si Si2 0.560024 0.592742 0.678498
Si Si3 0.369642 0.756727 0.182725
Si Si4 0.940206 0.586135 0.824223
Si Si5 0.743901 0.803910 0.206724
Si Si6 0.057153 0.097367 0.324854
Si Si7 0.215782 0.078758 0.550427
Si Si8 0.129499 0.236090 0.835336
O O1 0.601780 0.840919 0.758497
O O2 0.572163 0.005686 0.750746
O O3 0.554181 0.912724 0.997795
O O4 0.653116 0.948548 0.919737
O O5 0.500000 0.611722 0.750000
O O6 0.580124 0.504399 0.755529
O O7 0.553959 0.578982 0.501855
O O8 0.600533 0.673414 0.701752
O O9 0.400533 0.666548 0.209524
O O10 0.304500 0.750144 0.216375
O O11 0.396379 0.832370 0.281829
O O12 0.377836 0.781018 0.010404
O O13 0.000000 0.602147 0.750000
O O14 0.720624 0.836509 0.050490
O O15 0.754011 0.891144 0.300517
O O16 0.804532 0.762437 0.194467
O O17 0.000000 0.127133 0.250000
O O18 0.250000 0.000000 0.485021
#
# Coordination Sequence:
#
# PCOD9422449 Si02
#       8
#     8   8   8   8   8   8   8   8
#     4  11  25  39  58  87 118 164 204 249 308 352
#     4  10  21  40  65  93 123 153 198 250 299 362
#     4  11  22  41  60  87 123 158 200 253 306 359
#     4  10  21  39  64  94 120 157 198 249 299 362
#     4  11  21  39  57  86 121 154 201 251 304 359
#     4  12  25  40  58  84 122 163 209 252 301 363
#     4  11  22  35  60  84 113 156 204 257 300 355
#     4  10  24  41  62  88 123 159 200 251 305 363
#
# _framework density 19.005367
#
# number of rings (size 3 to 8) (size 9 to 14) (size 15 to 20)
#    0.000    1.250    2.500    4.125    3.500    4.500 
#    0.000    0.625    0.000    3.000    0.000    0.000 
#    0.000    0.000    0.000    0.000    0.000    0.000 
#
# Total GULP energy -357614.095345 kJ/mol
# GULP energy per Si atom -5587.720240 kJ/mol
# Density = 1.896211 g / cm^3
# Si number density = 19.005367 Si / 1000 Ang^3
#
#
#
# Elastic Constant Matrix: (Units=GPa)
#
#
# Indices 1 2 3 4 5 6 
#
# 1 68.2382 47.9276 20.1727 0.0000 0.0000 0.0000
# 2 47.9276 103.3481 48.2896 0.0000 0.0000 0.0000
# 3 20.1727 48.2896 86.7822 0.0000 0.0000 0.0000
# 4 0.0000 0.0000 0.0000 25.8311 0.0000 0.0000
# 5 0.0000 0.0000 0.0000 0.0000 26.0506 0.0000
# 6 0.0000 0.0000 0.0000 0.0000 0.0000 21.5277
#
#
#
# Elastic Compliance Matrix: (Units=1/GPa)
#
#
# Indices 1 2 3 4 5 6 
#
# 1 0.021770 -0.010448 0.000753 0.000000 0.000000 0.000000
# 2 -0.010448 0.018090 -0.007637 0.000000 0.000000 0.000000
# 3 0.000753 -0.007637 0.015598 0.000000 0.000000 0.000000
# 4 0.000000 0.000000 0.000000 0.038713 0.000000 0.000000
# 5 0.000000 0.000000 0.000000 0.000000 0.038387 0.000000
# 6 0.000000 0.000000 0.000000 0.000000 0.000000 0.046452
#
#
# Mechanical properties :
#
#
# Convention : Reuss Voigt Hill
#
# Bulk Modulus (GPa) = 48.09176 54.57203 51.33189
# Shear Modulus (GPa) = 22.66503 24.14712 23.40607
#
# Velocity S-wave (km/s) = 3.45709 3.56833 3.51315
# Velocity P-wave (km/s) = 6.42608 6.76415 6.59728
#
# Compressibility (1/GPa) = 0.02079358
#
# Stress axis : x y z
#
# Youngs Moduli (GPa) = 45.93493 55.28004 64.11155
#
# Poissons Ratio (x) = 0.57755 -0.04828
# Poissons Ratio (y) = 0.47991 0.48964
# Poissons Ratio (z) = -0.03459 0.42219
#
# Static dielectric constant tensor:
#      x y z
#    x 1.665870 0.000000 0.000000 
#    y 0.000000 1.622660 0.000000 
#    z 0.000000 0.000000 1.700690 
# 
# From -- ./inp_files/5313.got.cif
#   From: 2010.05.17/outbox.cif.g08.bks.cpg/sg54_3_cif.got.tgz:5313.got - 2010.06.03 13:09:01.
