data_PCOD9422646
_publ_section_title
;
Structure prediction by ZEFSAII (Michael W. Deem and Ramdas Pophale) SiO2 
 PCOD9422646
Probable space group: P C C A
;
_chemical_formula_sum "Si O2"
_cell_formula_units_Z 40
_cell_length_a 18.456252
_cell_length_b 9.068243
_cell_length_c 9.057020
_cell_angle_alpha 90.000000
_cell_angle_beta 90.000000
_cell_angle_gamma 90.000000
_cell_volume 1515.835199
_symmetry_space_group_name_H-M "P C C A"
_symmetry_group_IT_number 54
_symmetry_cell_setting 'orthorhombic'
loop_
_space_group_symop_operation_xyz
x,y,z
1/2-x,-y,z
1/2+x,-y,1/2-z
-x,y,1/2-z
-x,-y,-z
1/2+x,y,-z
1/2-x,y,1/2+z
x,-y,1/2+z
loop_
_atom_site_type_symbol
_atom_site_label
_atom_site_fract_x
_atom_site_fract_y
_atom_site_fract_z
Si Si1 0.500000 0.541921 0.750000
Si Si2 0.713923 0.855334 0.097833
Si Si3 0.740638 0.326612 0.837584
Si Si4 0.000000 0.048294 0.250000
Si Si5 0.115201 0.827706 0.154609
Si Si6 0.016944 0.299010 0.012332
O O1 0.551556 0.641680 0.642452
O O2 0.532309 0.425896 0.868736
O O3 0.765050 0.753712 0.994070
O O4 0.655028 0.913913 0.980808
O O5 0.750000 0.000000 0.165574
O O6 0.684412 0.743971 0.222350
O O7 0.750000 0.500000 0.847332
O O8 0.817295 0.260738 0.781779
O O9 0.018451 0.149576 0.108262
O O10 0.931474 0.937254 0.245098
O O11 0.062886 0.718747 0.061918
#
# Coordination Sequence:
#
# PCOD9422646 Si02
#       6
#     4   8   8   4   8   8
#     4   9  21  42  64 100 145 195 234 300 353 469
#     4  10  23  43  69 104 138 186 245 308 367 447
#     4  10  23  44  71 102 140 190 247 305 379 448
#     4  11  23  44  72 108 149 203 246 316 379 471
#     4  10  25  39  73 102 142 190 247 305 386 446
#     4  10  21  42  68 100 149 186 249 291 381 447
#
# _framework density 26.388095
#
# number of rings (size 3 to 8) (size 9 to 14) (size 15 to 20)
#    1.200    0.800    0.000    2.400    2.800    1.600 
#    0.000    2.000    0.000    0.000    0.000    0.000 
#    0.000    0.000    0.000    0.000    0.000    0.000 
#
# Total GULP energy -222687.395379 kJ/mol
# GULP energy per Si atom -5567.184884 kJ/mol
# Density = 2.632803 g / cm^3
# Si number density = 26.388095 Si / 1000 Ang^3
#
#
#
# Elastic Constant Matrix: (Units=GPa)
#
#
# Indices 1 2 3 4 5 6 
#
# 1 43.6545 22.5877 20.4130 0.0000 0.0000 0.0000
# 2 22.5877 228.4155 67.7853 0.0000 0.0000 0.0000
# 3 20.4130 67.7853 173.5204 0.0000 0.0000 0.0000
# 4 0.0000 0.0000 0.0000 28.6073 0.0000 0.0000
# 5 0.0000 0.0000 0.0000 0.0000 31.3565 0.0000
# 6 0.0000 0.0000 0.0000 0.0000 0.0000 5.9159
#
#
#
# Elastic Compliance Matrix: (Units=1/GPa)
#
#
# Indices 1 2 3 4 5 6 
#
# 1 0.024878 -0.001800 -0.002223 0.000000 0.000000 0.000000
# 2 -0.001800 0.005082 -0.001774 0.000000 0.000000 0.000000
# 3 -0.002223 -0.001774 0.006717 0.000000 0.000000 0.000000
# 4 0.000000 0.000000 0.000000 0.034956 0.000000 0.000000
# 5 0.000000 0.000000 0.000000 0.000000 0.031891 0.000000
# 6 0.000000 0.000000 0.000000 0.000000 0.000000 0.169035
#
#
# Mechanical properties :
#
#
# Convention : Reuss Voigt Hill
#
# Bulk Modulus (GPa) = 39.86702 74.12917 56.99810
# Shear Modulus (GPa) = 17.09304 35.49624 26.29464
#
# Velocity S-wave (km/s) = 2.54787 3.67162 3.16010
# Velocity P-wave (km/s) = 4.87814 6.79171 5.91285
#
# Compressibility (1/GPa) = 0.02508339
#
# Stress axis : x y z
#
# Youngs Moduli (GPa) = 40.19562 196.75868 148.86643
#
# Poissons Ratio (x) = 0.35424 0.33099
# Poissons Ratio (y) = 0.07237 0.26403
# Poissons Ratio (z) = 0.08937 0.34898
#
# Static dielectric constant tensor:
#      x y z
#    x 2.247480 0.000000 0.000000 
#    y 0.000000 2.119620 0.000000 
#    z 0.000000 0.000000 2.280440 
# 
# From -- ./inp_files/5464.got.cif
#   From: 2010.05.17/outbox.cif.g08.bks.cpg/sg54_3_cif.got.tgz:5464.got - 2010.06.03 13:09:01.
