data_PCOD9422954
_publ_section_title
;
Structure prediction by ZEFSAII (Michael W. Deem and Ramdas Pophale) SiO2 
 PCOD9422954
Probable space group: P C C A
;
_chemical_formula_sum "Si O2"
_cell_formula_units_Z 32
_cell_length_a 13.147627
_cell_length_b 11.411967
_cell_length_c 9.418706
_cell_angle_alpha 90.000000
_cell_angle_beta 90.000000
_cell_angle_gamma 90.000000
_cell_volume 1413.185337
_symmetry_space_group_name_H-M "P C C A"
_symmetry_group_IT_number 54
_symmetry_cell_setting 'orthorhombic'
loop_
_space_group_symop_operation_xyz
x,y,z
1/2-x,-y,z
1/2+x,-y,1/2-z
-x,y,1/2-z
-x,-y,-z
1/2+x,y,-z
1/2-x,y,1/2+z
x,-y,1/2+z
loop_
_atom_site_type_symbol
_atom_site_label
_atom_site_fract_x
_atom_site_fract_y
_atom_site_fract_z
Si Si1 0.870363 0.753829 0.559315
Si Si2 0.735006 0.133454 0.282325
Si Si3 0.420169 0.501823 0.376484
Si Si4 0.929319 0.755162 0.112270
O O1 0.805417 0.793959 0.419572
O O2 0.835078 0.820280 0.701335
O O3 0.855027 0.616720 0.595983
O O4 0.989905 0.771503 0.515131
O O5 0.650712 0.145982 0.155785
O O6 0.750000 0.000000 0.325960
O O7 0.500000 0.518013 0.250000
O O8 0.500000 0.500000 0.500000
O O9 0.373653 0.371597 0.384320
O O10 0.000000 0.746961 0.250000
#
# Coordination Sequence:
#
# PCOD9422954 Si02
#       4
#     8   8   8   8
#     4  10  22  40  63  91 125 165 213 270 325 387
#     4  11  23  40  61  90 127 170 219 262 316 391
#     4   9  18  37  64  92 124 162 208 261 326 393
#     4   8  18  39  62  88 126 164 201 262 327 381
#
# _framework density 22.643879999999999
#
# number of rings (size 3 to 8) (size 9 to 14) (size 15 to 20)
#    0.000    2.500    0.000    2.250    0.000    6.000 
#    0.000   13.750    0.000    0.000    0.000    0.000 
#    0.000    0.000    0.000    0.000    0.000    0.000 
#
# Total GULP energy -178169.850189 kJ/mol
# GULP energy per Si atom -5567.807818 kJ/mol
# Density = 2.259234 g / cm^3
# Si number density = 22.643880 Si / 1000 Ang^3
#
#
#
# Elastic Constant Matrix: (Units=GPa)
#
#
# Indices 1 2 3 4 5 6 
#
# 1 92.3892 40.2531 39.7662 0.0000 0.0000 0.0000
# 2 40.2531 116.9334 29.4009 0.0000 0.0000 0.0000
# 3 39.7662 29.4009 116.4924 0.0000 0.0000 0.0000
# 4 0.0000 0.0000 0.0000 -3.6638 0.0000 0.0000
# 5 0.0000 0.0000 0.0000 0.0000 30.4108 0.0000
# 6 0.0000 0.0000 0.0000 0.0000 0.0000 32.8125
#
#
#
# Elastic Compliance Matrix: (Units=1/GPa)
#
#
# Indices 1 2 3 4 5 6 
#
# 1 0.014189 -0.003915 -0.003856 0.000000 0.000000 0.000000
# 2 -0.003915 0.010212 -0.001241 0.000000 0.000000 0.000000
# 3 -0.003856 -0.001241 0.010214 0.000000 0.000000 0.000000
# 4 0.000000 0.000000 0.000000 -0.272942 0.000000 0.000000
# 5 0.000000 0.000000 0.000000 0.000000 0.032883 0.000000
# 6 0.000000 0.000000 0.000000 0.000000 0.000000 0.030476
#
#
# Mechanical properties :
#
#
# Convention : Reuss Voigt Hill
#
# Bulk Modulus (GPa) = 60.27201 60.51727 60.39464
# Shear Modulus (GPa) = -33.02170 26.33820 -3.34175
#
# Velocity S-wave (km/s) = -3.82292 3.41420 -1.21614
# Velocity P-wave (km/s) = 2.68120 6.50584 4.97568
#
# Compressibility (1/GPa) = 0.01659145
#
# Stress axis : x y z
#
# Youngs Moduli (GPa) = 70.47708 97.92819 97.90921
#
# Poissons Ratio (x) = 0.38339 0.37749
# Poissons Ratio (y) = 0.27592 0.12149
# Poissons Ratio (z) = 0.27173 0.12151
#
# Static dielectric constant tensor:
#      x y z
#    x 1.894880 0.000000 0.000000 
#    y 0.000000 2.002930 0.000000 
#    z 0.000000 0.000000 1.807880 
# 
# From -- ./inp_files/3264.got.cif
#   From: 2010.05.17/outbox.cif.g08.bks.cpg/sg54_2_cif.got.tgz:3264.got - 2010.06.03 13:09:01.
