data_PCOD9422820
_publ_section_title
;
Structure prediction by ZEFSAII (Michael W. Deem and Ramdas Pophale) SiO2 
 PCOD9422820
Probable space group: P C C A
;
_chemical_formula_sum "Si O2"
_cell_formula_units_Z 20
_cell_length_a 5.027548
_cell_length_b 8.480461
_cell_length_c 18.572416
_cell_angle_alpha 90.000000
_cell_angle_beta 90.000000
_cell_angle_gamma 90.000000
_cell_volume 791.852131
_symmetry_space_group_name_H-M "P C C A"
_symmetry_group_IT_number 54
_symmetry_cell_setting 'orthorhombic'
loop_
_space_group_symop_operation_xyz
x,y,z
1/2-x,-y,z
1/2+x,-y,1/2-z
-x,y,1/2-z
-x,-y,-z
1/2+x,y,-z
1/2-x,y,1/2+z
x,-y,1/2+z
loop_
_atom_site_type_symbol
_atom_site_label
_atom_site_fract_x
_atom_site_fract_y
_atom_site_fract_z
Si Si1 0.230606 0.308914 0.541298
Si Si2 0.866387 0.333719 0.671991
Si Si3 0.500000 0.894410 0.250000
O O1 0.250000 0.500000 0.540066
O O2 0.524101 0.253777 0.520593
O O3 0.083736 0.272716 0.615973
O O4 0.750000 0.500000 0.645553
O O5 0.628188 0.214732 0.688710
O O6 0.000000 0.363367 0.750000
O O7 0.750000 0.000000 0.273895
#
# Coordination Sequence:
#
# PCOD9422820 Si02
#       3
#     8   8   4
#     4  10  22  38  62 102 147 179 215 283 359 411
#     4  12  24  41  74 106 137 176 239 293 339 404
#     4  12  28  46  66 100 142 184 228 290 358 410
#
# _framework density 25.257242000000002
#
# number of rings (size 3 to 8) (size 9 to 14) (size 15 to 20)
#    0.000    0.800    4.000    4.800    5.600    0.000 
#    0.000    0.000    0.000    7.200    0.000    0.000 
#    0.000    0.000    0.000    0.000    0.000    0.000 
#
# Total GULP energy -112054.211432 kJ/mol
# GULP energy per Si atom -5602.710572 kJ/mol
# Density = 2.519975 g / cm^3
# Si number density = 25.257242 Si / 1000 Ang^3
#
#
#
# Elastic Constant Matrix: (Units=GPa)
#
#
# Indices 1 2 3 4 5 6 
#
# 1 209.9720 55.2545 55.8449 0.0000 0.0000 0.0000
# 2 55.2545 88.2525 16.7657 0.0000 0.0000 0.0000
# 3 55.8449 16.7657 151.5851 0.0000 0.0000 0.0000
# 4 0.0000 0.0000 0.0000 -7.6809 0.0000 0.0000
# 5 0.0000 0.0000 0.0000 0.0000 55.8697 0.0000
# 6 0.0000 0.0000 0.0000 0.0000 0.0000 48.2297
#
#
#
# Elastic Compliance Matrix: (Units=1/GPa)
#
#
# Indices 1 2 3 4 5 6 
#
# 1 0.006191 -0.003517 -0.001892 0.000000 0.000000 0.000000
# 2 -0.003517 0.013572 -0.000205 0.000000 0.000000 0.000000
# 3 -0.001892 -0.000205 0.007317 0.000000 0.000000 0.000000
# 4 0.000000 0.000000 0.000000 -0.130193 0.000000 0.000000
# 5 0.000000 0.000000 0.000000 0.000000 0.017899 0.000000
# 6 0.000000 0.000000 0.000000 0.000000 0.000000 0.020734
#
#
# Mechanical properties :
#
#
# Convention : Reuss Voigt Hill
#
# Bulk Modulus (GPa) = 63.08577 78.39333 70.73955
# Shear Modulus (GPa) = -104.23607 40.74665 -31.74471
#
# Velocity S-wave (km/s) = -6.43113 4.02091 -3.54906
# Velocity P-wave (km/s) = 5.48765 7.25688 3.35767
#
# Compressibility (1/GPa) = 0.01585143
#
# Stress axis : x y z
#
# Youngs Moduli (GPa) = 161.52001 73.68087 136.67426
#
# Poissons Ratio (x) = 0.25913 0.25857
# Poissons Ratio (y) = 0.56804 0.02808
# Poissons Ratio (z) = 0.30558 0.01514
#
# Static dielectric constant tensor:
#      x y z
#    x 1.996640 0.000000 0.000000 
#    y 0.000000 2.011210 0.000000 
#    z 0.000000 0.000000 2.077270 
# 
# From -- ./inp_files/15525.got.cif
#   From: 2010.05.17/outbox.cif.g08.bks.cpg/sg54_8_cif.got.tgz:15525.got - 2010.06.03 13:09:01.
