data_PCOD9422992
_publ_section_title
;
Structure prediction by ZEFSAII (Michael W. Deem and Ramdas Pophale) SiO2 
 PCOD9422992
Probable space group: P C C A
;
_chemical_formula_sum "Si O2"
_cell_formula_units_Z 40
_cell_length_a 5.140905
_cell_length_b 17.267599
_cell_length_c 20.481692
_cell_angle_alpha 90.000000
_cell_angle_beta 90.000000
_cell_angle_gamma 90.000000
_cell_volume 1818.182043
_symmetry_space_group_name_H-M "P C C A"
_symmetry_group_IT_number 54
_symmetry_cell_setting 'orthorhombic'
loop_
_space_group_symop_operation_xyz
x,y,z
1/2-x,-y,z
1/2+x,-y,1/2-z
-x,y,1/2-z
-x,-y,-z
1/2+x,y,-z
1/2-x,y,1/2+z
x,-y,1/2+z
loop_
_atom_site_type_symbol
_atom_site_label
_atom_site_fract_x
_atom_site_fract_y
_atom_site_fract_z
Si Si1 0.500000 0.707774 0.250000
Si Si2 0.382614 0.790803 0.537824
Si Si3 0.250000 0.500000 0.144240
Si Si4 0.500000 0.597974 0.750000
Si Si5 0.250000 0.000000 0.704646
Si Si6 0.668811 0.827943 0.818232
Si Si7 0.305004 0.606363 0.532835
O O1 0.251291 0.652532 0.261167
O O2 0.403856 0.767211 0.193716
O O3 0.605581 0.820373 0.488852
O O4 0.459790 0.805944 0.612988
O O5 0.333995 0.698329 0.534409
O O6 0.458982 0.459646 0.189997
O O7 0.323056 0.570553 0.097030
O O8 0.256624 0.083436 0.670743
O O9 0.500000 0.998551 0.750000
O O10 0.500000 0.824128 0.750000
O O11 0.601658 0.580807 0.522658
#
# Coordination Sequence:
#
# PCOD9422992 Si02
#       7
#     4   8   4   4   4   8   8
#     4  12  25  44  67 100 134 178 240 278 357 408
#     4  10  24  42  65  98 139 179 228 283 346 413
#     4  12  26  46  62  92 132 170 222 278 346 396
#     4  12  29  42  63  98 138 178 216 300 349 410
#     4  10  22  40  66 110 142 176 226 288 348 406
#     4  11  24  44  75 105 140 184 231 290 343 419
#     4  10  23  42  66  89 119 172 223 273 326 398
#
# _framework density 21.999998000000001
#
# number of rings (size 3 to 8) (size 9 to 14) (size 15 to 20)
#    0.000    1.200    2.000    2.400    2.800    8.000 
#    0.000    1.000    0.000    0.000    0.000    0.000 
#    0.000    0.000    0.000    0.000    0.000    0.000 
#
# Total GULP energy -223013.698340 kJ/mol
# GULP energy per Si atom -5575.342459 kJ/mol
# Density = 2.194992 g / cm^3
# Si number density = 21.999998 Si / 1000 Ang^3
#
#
#
# Elastic Constant Matrix: (Units=GPa)
#
#
# Indices 1 2 3 4 5 6 
#
# 1 134.9755 53.6840 36.6653 0.0000 0.0000 0.0000
# 2 53.6840 92.6527 14.0345 0.0000 0.0000 0.0000
# 3 36.6653 14.0345 105.7935 0.0000 0.0000 0.0000
# 4 0.0000 0.0000 0.0000 3.5054 0.0000 0.0000
# 5 0.0000 0.0000 0.0000 0.0000 16.8311 0.0000
# 6 0.0000 0.0000 0.0000 0.0000 0.0000 15.4119
#
#
#
# Elastic Compliance Matrix: (Units=1/GPa)
#
#
# Indices 1 2 3 4 5 6 
#
# 1 0.010415 -0.005600 -0.002867 0.000000 0.000000 0.000000
# 2 -0.005600 0.014026 0.000080 0.000000 0.000000 0.000000
# 3 -0.002867 0.000080 0.010435 0.000000 0.000000 0.000000
# 4 0.000000 0.000000 0.000000 0.285277 0.000000 0.000000
# 5 0.000000 0.000000 0.000000 0.000000 0.059414 0.000000
# 6 0.000000 0.000000 0.000000 0.000000 0.000000 0.064885
#
#
# Mechanical properties :
#
#
# Convention : Reuss Voigt Hill
#
# Bulk Modulus (GPa) = 55.24072 60.24324 57.74198
# Shear Modulus (GPa) = 10.70071 22.41888 16.55979
#
# Velocity S-wave (km/s) = 2.20783 3.19570 2.74655
# Velocity P-wave (km/s) = 5.62701 6.40776 6.03004
#
# Compressibility (1/GPa) = 0.01810259
#
# Stress axis : x y z
#
# Youngs Moduli (GPa) = 96.01686 71.29774 95.82937
#
# Poissons Ratio (x) = 0.39929 0.27470
# Poissons Ratio (y) = 0.53772 -0.00769
# Poissons Ratio (z) = 0.27524 -0.00572
#
# Static dielectric constant tensor:
#      x y z
#    x 1.877920 0.000000 0.000000 
#    y 0.000000 1.837720 0.000000 
#    z 0.000000 0.000000 1.847280 
# 
# From -- ./inp_files/15826.got.cif
#   From: 2010.05.17/outbox.cif.g08.bks.cpg/sg54_8_cif.got.tgz:15826.got - 2010.06.03 13:09:01.
