data_PCOD9422233
_publ_section_title
;
Structure prediction by ZEFSAII (Michael W. Deem and Ramdas Pophale) SiO2 
 PCOD9422233
Probable space group: P C C A
;
_chemical_formula_sum "Si O2"
_cell_formula_units_Z 64
_cell_length_a 23.133446
_cell_length_b 9.039267
_cell_length_c 14.905596
_cell_angle_alpha 90.000000
_cell_angle_beta 90.000000
_cell_angle_gamma 90.000000
_cell_volume 3116.900162
_symmetry_space_group_name_H-M "P C C A"
_symmetry_group_IT_number 54
_symmetry_cell_setting 'orthorhombic'
loop_
_space_group_symop_operation_xyz
x,y,z
1/2-x,-y,z
1/2+x,-y,1/2-z
-x,y,1/2-z
-x,-y,-z
1/2+x,y,-z
1/2-x,y,1/2+z
x,-y,1/2+z
loop_
_atom_site_type_symbol
_atom_site_label
_atom_site_fract_x
_atom_site_fract_y
_atom_site_fract_z
Si Si1 0.801148 0.126202 0.106063
Si Si2 0.864687 0.340397 0.976364
Si Si3 0.483236 0.224359 0.969816
Si Si4 0.014388 0.064511 0.853632
Si Si5 0.310422 0.321757 0.716258
Si Si6 0.383277 0.318296 0.549725
Si Si7 0.636207 0.843147 0.626142
Si Si8 0.818785 0.335511 0.790622
O O1 0.800916 0.223128 0.196161
O O2 0.750000 0.000000 0.095253
O O3 0.854557 0.016705 0.118863
O O4 0.816268 0.242388 0.027407
O O5 0.858874 0.517256 0.968172
O O6 0.861619 0.294591 0.871395
O O7 0.925531 0.321671 0.028179
O O8 0.546622 0.301553 0.958371
O O9 0.479165 0.099982 0.893592
O O10 0.478072 0.141354 0.066491
O O11 0.069487 0.172914 0.852026
O O12 0.000000 0.051418 0.750000
O O13 0.359182 0.269384 0.646686
O O14 0.325284 0.492851 0.738566
O O15 0.246557 0.321636 0.672514
O O16 0.354548 0.221499 0.471969
O O17 0.671980 0.766317 0.704240
#
# Coordination Sequence:
#
# PCOD9422233 Si02
#       8
#     8   8   8   8   8   8   8   8
#     4  12  25  41  61  94 129 162 209 261 317 377
#     4  11  23  43  64  95 125 167 214 264 318 382
#     4  10  21  39  62  93 124 163 213 263 313 385
#     4  10  21  37  59  89 126 162 202 255 324 376
#     4  10  23  42  60  93 121 167 212 260 318 379
#     4  10  24  41  67  91 128 168 213 261 321 383
#     4  11  22  41  60  92 122 166 204 258 320 376
#     4  10  22  41  66  85 126 166 211 262 318 379
#
# _framework density 20.53322
#
# number of rings (size 3 to 8) (size 9 to 14) (size 15 to 20)
#    0.000    1.500    2.500    1.875    3.500    1.000 
#    0.000    0.000    0.000    6.000    0.000    0.000 
#    0.000    0.000    0.000    0.000    0.000    0.000 
#
# Total GULP energy -356270.326489 kJ/mol
# GULP energy per Si atom -5566.723851 kJ/mol
# Density = 2.048649 g / cm^3
# Si number density = 20.533220 Si / 1000 Ang^3
#
#
#
# Elastic Constant Matrix: (Units=GPa)
#
#
# Indices 1 2 3 4 5 6 
#
# 1 57.0515 21.5695 20.4565 0.0000 0.0000 0.0000
# 2 21.5695 75.8464 43.9433 0.0000 0.0000 0.0000
# 3 20.4565 43.9433 105.6882 0.0000 0.0000 0.0000
# 4 0.0000 0.0000 0.0000 -15.9894 0.0000 0.0000
# 5 0.0000 0.0000 0.0000 0.0000 21.9395 0.0000
# 6 0.0000 0.0000 0.0000 0.0000 0.0000 33.2428
#
#
#
# Elastic Compliance Matrix: (Units=1/GPa)
#
#
# Indices 1 2 3 4 5 6 
#
# 1 0.019949 -0.004526 -0.001979 0.000000 0.000000 0.000000
# 2 -0.004526 0.018396 -0.006772 0.000000 0.000000 0.000000
# 3 -0.001979 -0.006772 0.012661 0.000000 0.000000 0.000000
# 4 0.000000 0.000000 0.000000 -0.062542 0.000000 0.000000
# 5 0.000000 0.000000 0.000000 0.000000 0.045580 0.000000
# 6 0.000000 0.000000 0.000000 0.000000 0.000000 0.030082
#
#
# Mechanical properties :
#
#
# Convention : Reuss Voigt Hill
#
# Bulk Modulus (GPa) = 40.90131 45.61385 43.25758
# Shear Modulus (GPa) = 50.59130 18.01304 34.30217
#
# Velocity S-wave (km/s) = 4.96913 2.96508 4.09169
# Velocity P-wave (km/s) = 7.27226 5.82968 6.59056
#
# Compressibility (1/GPa) = 0.02444909
#
# Stress axis : x y z
#
# Youngs Moduli (GPa) = 50.12775 54.36099 78.98435
#
# Poissons Ratio (x) = 0.24606 0.15633
# Poissons Ratio (y) = 0.22690 0.53492
# Poissons Ratio (z) = 0.09921 0.36816
#
# Static dielectric constant tensor:
#      x y z
#    x 1.851030 0.000000 0.000000 
#    y 0.000000 1.735820 0.000000 
#    z 0.000000 0.000000 1.769770 
# 
# From -- ./inp_files/14992.got.cif
#   From: 2010.05.17/outbox.cif.g08.bks.cpg/sg54_8_cif.got.tgz:14992.got - 2010.06.03 13:09:01.
