data_PCOD9422672
_publ_section_title
;
Structure prediction by ZEFSAII (Michael W. Deem and Ramdas Pophale) SiO2 
 PCOD9422672
Probable space group: P C C A
;
_chemical_formula_sum "Si O2"
_cell_formula_units_Z 48
_cell_length_a 21.642656
_cell_length_b 8.708186
_cell_length_c 10.859146
_cell_angle_alpha 90.000000
_cell_angle_beta 90.000000
_cell_angle_gamma 90.000000
_cell_volume 2046.604504
_symmetry_space_group_name_H-M "P C C A"
_symmetry_group_IT_number 54
_symmetry_cell_setting 'orthorhombic'
loop_
_space_group_symop_operation_xyz
x,y,z
1/2-x,-y,z
1/2+x,-y,1/2-z
-x,y,1/2-z
-x,-y,-z
1/2+x,y,-z
1/2-x,y,1/2+z
x,-y,1/2+z
loop_
_atom_site_type_symbol
_atom_site_label
_atom_site_fract_x
_atom_site_fract_y
_atom_site_fract_z
Si Si1 0.582333 0.693921 0.462135
Si Si2 0.520617 0.112704 0.611661
Si Si3 0.236481 0.168224 0.432824
Si Si4 0.640418 0.753924 0.692274
Si Si5 0.639214 0.906462 0.252097
Si Si6 0.680146 0.434161 0.410805
O O1 0.512618 0.722710 0.413577
O O2 0.581671 0.741822 0.604924
O O3 0.617653 0.813287 0.370522
O O4 0.624308 0.541402 0.459084
O O5 0.500000 0.059505 0.750000
O O6 0.593300 0.123407 0.635686
O O7 0.500000 0.000000 0.500000
O O8 0.303200 0.235880 0.403901
O O9 0.205136 0.143892 0.299258
O O10 0.194550 0.283281 0.509043
O O11 0.250000 0.000000 0.489008
O O12 0.654823 0.613295 0.778183
O O13 0.638492 0.911085 0.768801
O O14 0.750000 0.500000 0.398706
#
# Coordination Sequence:
#
# PCOD9422672 Si02
#       6
#     8   8   8   8   8   8
#     4  11  24  42  68 102 136 177 229 283 351 420
#     4  10  21  42  72  99 132 178 236 299 344 408
#     4  10  24  41  66  97 133 181 235 284 342 422
#     4  11  24  40  66  97 131 178 231 277 348 417
#     4  10  23  43  71  94 133 174 238 288 337 407
#     4  12  26  39  66  96 147 183 221 282 366 418
#
# _framework density 23.453481
#
# number of rings (size 3 to 8) (size 9 to 14) (size 15 to 20)
#    0.000    1.333    3.333    1.000    9.333    0.667 
#    0.000    0.833    3.667    0.000    0.000    0.000 
#    0.000    0.000    0.000    0.000    0.000    0.000 
#
# Total GULP energy -267879.271199 kJ/mol
# GULP energy per Si atom -5580.818150 kJ/mol
# Density = 2.340010 g / cm^3
# Si number density = 23.453481 Si / 1000 Ang^3
#
#
#
# Elastic Constant Matrix: (Units=GPa)
#
#
# Indices 1 2 3 4 5 6 
#
# 1 48.5177 13.1908 -22.4216 0.0000 0.0000 0.0000
# 2 13.1908 84.7866 27.4260 0.0000 0.0000 0.0000
# 3 -22.4216 27.4260 55.2631 0.0000 0.0000 0.0000
# 4 0.0000 0.0000 0.0000 12.3248 0.0000 0.0000
# 5 0.0000 0.0000 0.0000 0.0000 24.5302 0.0000
# 6 0.0000 0.0000 0.0000 0.0000 0.0000 32.5397
#
#
#
# Elastic Compliance Matrix: (Units=1/GPa)
#
#
# Indices 1 2 3 4 5 6 
#
# 1 0.032142 -0.010982 0.018491 0.000000 0.000000 0.000000
# 2 -0.010982 0.017802 -0.013290 0.000000 0.000000 0.000000
# 3 0.018491 -0.013290 0.032193 0.000000 0.000000 0.000000
# 4 0.000000 0.000000 0.000000 0.081137 0.000000 0.000000
# 5 0.000000 0.000000 0.000000 0.000000 0.040766 0.000000
# 6 0.000000 0.000000 0.000000 0.000000 0.000000 0.030732
#
#
# Mechanical properties :
#
#
# Convention : Reuss Voigt Hill
#
# Bulk Modulus (GPa) = 14.16944 24.99531 19.58238
# Shear Modulus (GPa) = 18.52819 25.23709 21.88264
#
# Velocity S-wave (km/s) = 2.81374 3.28388 3.05786
# Velocity P-wave (km/s) = 4.07563 5.00590 4.56453
#
# Compressibility (1/GPa) = 0.07057440
#
# Stress axis : x y z
#
# Youngs Moduli (GPa) = 31.11202 56.17399 31.06253
#
# Poissons Ratio (x) = 0.61689 -0.57437
# Poissons Ratio (y) = 0.34167 0.41283
# Poissons Ratio (z) = -0.57529 0.74657
#
# Static dielectric constant tensor:
#      x y z
#    x 1.935660 0.000000 0.000000 
#    y 0.000000 1.956400 0.000000 
#    z 0.000000 0.000000 1.892770 
# 
# From -- ./inp_files/9920.got.cif
#   From: 2010.05.17/outbox.cif.g08.bks.cpg/sg54_5_cif.got.tgz:9920.got - 2010.06.03 13:09:01.
