data_PCOD9422074
_publ_section_title
;
Structure prediction by ZEFSAII (Michael W. Deem and Ramdas Pophale) SiO2 
 PCOD9422074
Probable space group: P C C A
;
_chemical_formula_sum "Si O2"
_cell_formula_units_Z 36
_cell_length_a 14.001529
_cell_length_b 12.035622
_cell_length_c 10.940339
_cell_angle_alpha 90.000000
_cell_angle_beta 90.000000
_cell_angle_gamma 90.000000
_cell_volume 1843.634316
_symmetry_space_group_name_H-M "P C C A"
_symmetry_group_IT_number 54
_symmetry_cell_setting 'orthorhombic'
loop_
_space_group_symop_operation_xyz
x,y,z
1/2-x,-y,z
1/2+x,-y,1/2-z
-x,y,1/2-z
-x,-y,-z
1/2+x,y,-z
1/2-x,y,1/2+z
x,-y,1/2+z
loop_
_atom_site_type_symbol
_atom_site_label
_atom_site_fract_x
_atom_site_fract_y
_atom_site_fract_z
Si Si1 0.500000 0.704305 0.250000
Si Si2 0.220959 0.251555 0.558360
Si Si3 0.538716 0.125327 0.372213
Si Si4 0.398837 0.890464 0.086765
Si Si5 0.791403 0.623381 0.696570
O O1 0.454769 0.789502 0.151704
O O2 0.407520 0.633478 0.292474
O O3 0.113956 0.205684 0.564374
O O4 0.291164 0.146705 0.568767
O O5 0.246809 0.323558 0.679196
O O6 0.236107 0.312510 0.428815
O O7 0.500000 0.179432 0.250000
O O8 0.449226 0.097170 0.456636
O O9 0.588557 0.006785 0.343983
O O10 0.750000 0.500000 0.687186
#
# Coordination Sequence:
#
# PCOD9422074 Si02
#       5
#     4   8   8   8   8
#     4  10  20  44  64  86 132 170 200 272 324 380
#     4  11  23  41  66  94 131 166 218 268 323 384
#     4  11  21  37  62  97 132 165 209 252 319 398
#     4  10  21  37  61  93 129 169 199 256 321 390
#     4  11  24  45  65  94 124 173 224 274 325 375
#
# _framework density 19.526648000000002
#
# number of rings (size 3 to 8) (size 9 to 14) (size 15 to 20)
#    0.000    1.333    3.333    2.667    0.000    0.000 
#    6.000    7.778    0.000    0.000    0.000    0.000 
#    0.000    0.000    0.000    0.000    0.000    0.000 
#
# Total GULP energy -200813.575289 kJ/mol
# GULP energy per Si atom -5578.154869 kJ/mol
# Density = 1.948220 g / cm^3
# Si number density = 19.526648 Si / 1000 Ang^3
#
#
#
# Elastic Constant Matrix: (Units=GPa)
#
#
# Indices 1 2 3 4 5 6 
#
# 1 50.3358 12.1417 12.0369 0.0000 0.0000 0.0000
# 2 12.1417 76.3247 13.7348 0.0000 0.0000 0.0000
# 3 12.0369 13.7348 92.3214 0.0000 0.0000 0.0000
# 4 0.0000 0.0000 0.0000 -12.2017 0.0000 0.0000
# 5 0.0000 0.0000 0.0000 0.0000 29.2332 0.0000
# 6 0.0000 0.0000 0.0000 0.0000 0.0000 10.2628
#
#
#
# Elastic Compliance Matrix: (Units=1/GPa)
#
#
# Indices 1 2 3 4 5 6 
#
# 1 0.021131 -0.002945 -0.002317 0.000000 0.000000 0.000000
# 2 -0.002945 0.013873 -0.001680 0.000000 0.000000 0.000000
# 3 -0.002317 -0.001680 0.011384 0.000000 0.000000 0.000000
# 4 0.000000 0.000000 0.000000 -0.081956 0.000000 0.000000
# 5 0.000000 0.000000 0.000000 0.000000 0.034208 0.000000
# 6 0.000000 0.000000 0.000000 0.000000 0.000000 0.097439
#
#
# Mechanical properties :
#
#
# Convention : Reuss Voigt Hill
#
# Bulk Modulus (GPa) = 30.76511 32.75651 31.76081
# Shear Modulus (GPa) = 41.39206 17.53011 29.46108
#
# Velocity S-wave (km/s) = 4.60909 2.99950 3.88849
# Velocity P-wave (km/s) = 6.64189 5.36728 6.03831
#
# Compressibility (1/GPa) = 0.03250435
#
# Stress axis : x y z
#
# Youngs Moduli (GPa) = 47.32404 72.08429 87.84463
#
# Poissons Ratio (x) = 0.21226 0.20353
# Poissons Ratio (y) = 0.13935 0.14757
# Poissons Ratio (z) = 0.10965 0.12110
#
# Static dielectric constant tensor:
#      x y z
#    x 1.678830 0.000000 0.000000 
#    y 0.000000 1.672530 0.000000 
#    z 0.000000 0.000000 1.717100 
# 
# From -- ./inp_files/7391.got.cif
#   From: 2010.05.17/outbox.cif.g08.bks.cpg/sg54_4_cif.got.tgz:7391.got - 2010.06.03 13:09:01.
