data_PCOD9422249
_publ_section_title
;
Structure prediction by ZEFSAII (Michael W. Deem and Ramdas Pophale) SiO2 
 PCOD9422249
Probable space group: P C C A
;
_chemical_formula_sum "Si O2"
_cell_formula_units_Z 44
_cell_length_a 7.421220
_cell_length_b 17.187170
_cell_length_c 13.697758
_cell_angle_alpha 90.000000
_cell_angle_beta 90.000000
_cell_angle_gamma 90.000000
_cell_volume 1747.145879
_symmetry_space_group_name_H-M "P C C A"
_symmetry_group_IT_number 54
_symmetry_cell_setting 'orthorhombic'
loop_
_space_group_symop_operation_xyz
x,y,z
1/2-x,-y,z
1/2+x,-y,1/2-z
-x,y,1/2-z
-x,-y,-z
1/2+x,y,-z
1/2-x,y,1/2+z
x,-y,1/2+z
loop_
_atom_site_type_symbol
_atom_site_label
_atom_site_fract_x
_atom_site_fract_y
_atom_site_fract_z
Si Si1 0.693604 0.377920 0.679079
Si Si2 0.125715 0.744363 0.445923
Si Si3 0.000000 0.504874 0.250000
Si Si4 0.260446 0.080938 0.154970
Si Si5 0.266273 0.750658 0.158370
Si Si6 0.651766 0.918692 0.558848
O O1 0.765846 0.332328 0.585676
O O2 0.527267 0.438464 0.664975
O O3 0.685966 0.309755 0.759135
O O4 0.840956 0.435179 0.727966
O O5 0.108702 0.742648 0.563115
O O6 0.219823 0.829295 0.427318
O O7 0.937414 0.742021 0.385713
O O8 0.221496 0.162678 0.202880
O O9 0.461478 0.084194 0.112329
O O10 0.250000 0.000000 0.210990
O O11 0.134217 0.076066 0.059142
O O12 0.750000 0.000000 0.582591
#
# Coordination Sequence:
#
# PCOD9422249 Si02
#       6
#     8   8   4   8   8   8
#     4  11  22  46  63  86 115 152 188 237 300 350
#     4  10  21  37  61  88 120 155 195 236 285 341
#     4  10  24  42  70  82 114 150 188 238 300 362
#     4   9  16  28  48  78 114 154 189 230 274 325
#     4  10  21  37  61  88 120 155 195 236 285 341
#     4   9  16  28  48  78 114 154 189 230 274 325
#
# _framework density 25.18393
#
# number of rings (size 3 to 8) (size 9 to 14) (size 15 to 20)
#    0.000    2.182    1.818    2.182    2.545    1.455 
#    0.000    6.364    0.000    0.000    0.000    0.000 
#    0.000    0.000    0.000    0.000    0.000    0.000 
#
# Total GULP energy -245342.916239 kJ/mol
# GULP energy per Si atom -5575.975369 kJ/mol
# Density = 2.512661 g / cm^3
# Si number density = 25.183930 Si / 1000 Ang^3
#
#
#
# Elastic Constant Matrix: (Units=GPa)
#
#
# Indices 1 2 3 4 5 6 
#
# 1 57.9891 25.4755 -20.9296 0.0000 0.0000 0.0000
# 2 25.4755 221.7070 11.8507 0.0000 0.0000 0.0000
# 3 -20.9296 11.8507 74.8632 0.0000 0.0000 0.0000
# 4 0.0000 0.0000 0.0000 12.3191 0.0000 0.0000
# 5 0.0000 0.0000 0.0000 0.0000 15.6895 0.0000
# 6 0.0000 0.0000 0.0000 0.0000 0.0000 52.3177
#
#
#
# Elastic Compliance Matrix: (Units=1/GPa)
#
#
# Indices 1 2 3 4 5 6 
#
# 1 0.020675 -0.002708 0.006209 0.000000 0.000000 0.000000
# 2 -0.002708 0.004904 -0.001533 0.000000 0.000000 0.000000
# 3 0.006209 -0.001533 0.015336 0.000000 0.000000 0.000000
# 4 0.000000 0.000000 0.000000 0.081175 0.000000 0.000000
# 5 0.000000 0.000000 0.000000 0.000000 0.063737 0.000000
# 6 0.000000 0.000000 0.000000 0.000000 0.000000 0.019114
#
#
# Mechanical properties :
#
#
# Convention : Reuss Voigt Hill
#
# Bulk Modulus (GPa) = 22.29623 43.03916 32.66769
# Shear Modulus (GPa) = 23.15303 38.60944 30.88123
#
# Velocity S-wave (km/s) = 3.03538 3.91973 3.50555
# Velocity P-wave (km/s) = 4.59970 6.13292 5.42079
#
# Compressibility (1/GPa) = 0.04485064
#
# Stress axis : x y z
#
# Youngs Moduli (GPa) = 48.36773 203.93509 65.20530
#
# Poissons Ratio (x) = 0.55216 -0.40484
# Poissons Ratio (y) = 0.13096 0.09997
# Poissons Ratio (z) = -0.30030 0.31267
#
# Static dielectric constant tensor:
#      x y z
#    x 2.195320 0.000000 0.000000 
#    y 0.000000 1.985500 0.000000 
#    z 0.000000 0.000000 1.983700 
# 
# From -- ./inp_files/11637.got.cif
#   From: 2010.05.17/outbox.cif.g08.bks.cpg/sg54_6_cif.got.tgz:11637.got - 2010.06.03 13:09:01.
