data_PCOD9422093
_publ_section_title
;
Structure prediction by ZEFSAII (Michael W. Deem and Ramdas Pophale) SiO2 
 PCOD9422093
Probable space group: P C C A
;
_chemical_formula_sum "Si O2"
_cell_formula_units_Z 52
_cell_length_a 20.385853
_cell_length_b 5.767755
_cell_length_c 23.736608
_cell_angle_alpha 90.000000
_cell_angle_beta 90.000000
_cell_angle_gamma 90.000000
_cell_volume 2790.964743
_symmetry_space_group_name_H-M "P C C A"
_symmetry_group_IT_number 54
_symmetry_cell_setting 'orthorhombic'
loop_
_space_group_symop_operation_xyz
x,y,z
1/2-x,-y,z
1/2+x,-y,1/2-z
-x,y,1/2-z
-x,-y,-z
1/2+x,y,-z
1/2-x,y,1/2+z
x,-y,1/2+z
loop_
_atom_site_type_symbol
_atom_site_label
_atom_site_fract_x
_atom_site_fract_y
_atom_site_fract_z
Si Si1 0.250000 0.000000 0.604644
Si Si2 0.052285 0.171107 0.801451
Si Si3 0.945862 0.306402 0.012155
Si Si4 0.138217 0.695750 0.645599
Si Si5 0.820190 0.381078 0.955949
Si Si6 0.520377 0.007147 0.905907
Si Si7 0.577719 0.663370 0.234128
O O1 0.207948 0.825643 0.642114
O O2 0.301182 0.874939 0.563597
O O3 0.087814 0.421679 0.799535
O O4 0.000000 0.177278 0.750000
O O5 0.012817 0.155267 0.859763
O O6 0.089222 0.921325 0.792591
O O7 0.872083 0.398132 0.006078
O O8 0.952989 0.126282 0.960389
O O9 0.965894 0.183305 0.069798
O O10 0.000000 0.500000 0.000000
O O11 0.146375 0.494810 0.599331
O O12 0.118871 0.632259 0.708580
O O13 0.079157 0.856921 0.623789
O O14 0.750000 0.500000 0.967300
O O15 0.500000 0.669877 0.250000
#
# Coordination Sequence:
#
# PCOD9422093 Si02
#       7
#     4   8   8   8   8   8   8
#     4  10  22  36  58  80 126 166 196 260 310 392
#     4  10  21  34  54  87 120 160 190 242 309 370
#     4  11  23  35  58  86 127 160 199 269 316 375
#     4  11  20  36  56  88 126 156 207 253 318 388
#     4  10  22  36  57  84 121 163 208 253 317 384
#     4  11  22  35  55  87 129 157 199 255 323 373
#     4  10  21  32  56  86 119 159 192 246 306 358
#
# _framework density 18.631549
#
# number of rings (size 3 to 8) (size 9 to 14) (size 15 to 20)
#    0.000    1.538    6.154    0.000    8.615    0.000 
#    0.000    0.000    0.000    0.000    0.000    6.462 
#    0.000    0.000    0.000    0.000    0.000    0.000 
#
# Total GULP energy -289856.838883 kJ/mol
# GULP energy per Si atom -5574.169979 kJ/mol
# Density = 1.858914 g / cm^3
# Si number density = 18.631549 Si / 1000 Ang^3
#
#
#
# Elastic Constant Matrix: (Units=GPa)
#
#
# Indices 1 2 3 4 5 6 
#
# 1 79.2577 9.2192 14.1621 0.0000 0.0000 0.0000
# 2 9.2192 88.6944 -2.5121 0.0000 0.0000 0.0000
# 3 14.1621 -2.5121 38.1073 0.0000 0.0000 0.0000
# 4 0.0000 0.0000 0.0000 10.6952 0.0000 0.0000
# 5 0.0000 0.0000 0.0000 0.0000 32.8089 0.0000
# 6 0.0000 0.0000 0.0000 0.0000 0.0000 17.0800
#
#
#
# Elastic Compliance Matrix: (Units=1/GPa)
#
#
# Indices 1 2 3 4 5 6 
#
# 1 0.013731 -0.001575 -0.005207 0.000000 0.000000 0.000000
# 2 -0.001575 0.011476 0.001342 0.000000 0.000000 0.000000
# 3 -0.005207 0.001342 0.028265 0.000000 0.000000 0.000000
# 4 0.000000 0.000000 0.000000 0.093500 0.000000 0.000000
# 5 0.000000 0.000000 0.000000 0.000000 0.030480 0.000000
# 6 0.000000 0.000000 0.000000 0.000000 0.000000 0.058548
#
#
# Mechanical properties :
#
#
# Convention : Reuss Voigt Hill
#
# Bulk Modulus (GPa) = 23.47804 27.53308 25.50556
# Shear Modulus (GPa) = 19.15147 24.46282 21.80715
#
# Velocity S-wave (km/s) = 3.20957 3.62744 3.42488
# Velocity P-wave (km/s) = 5.13456 5.68807 5.41839
#
# Compressibility (1/GPa) = 0.04259300
#
# Stress axis : x y z
#
# Youngs Moduli (GPa) = 72.83020 87.13579 35.37933
#
# Poissons Ratio (x) = 0.13721 0.18421
# Poissons Ratio (y) = 0.11468 -0.04747
# Poissons Ratio (z) = 0.37920 -0.11691
#
# Static dielectric constant tensor:
#      x y z
#    x 1.744130 0.000000 0.000000 
#    y 0.000000 1.747530 0.000000 
#    z 0.000000 0.000000 1.634560 
# 
# From -- ./inp_files/22135.got.cif
#   From: 2010.05.17/outbox.cif.g08.bks.cpg/sg54_12_cif.got.tgz:22135.got - 2010.06.03 13:09:01.
