data_PCOD9422744
_publ_section_title
;
Structure prediction by ZEFSAII (Michael W. Deem and Ramdas Pophale) SiO2 
 PCOD9422744
Probable space group: P C C A
;
_chemical_formula_sum "Si O2"
_cell_formula_units_Z 24
_cell_length_a 5.134579
_cell_length_b 10.863186
_cell_length_c 18.477623
_cell_angle_alpha 90.000000
_cell_angle_beta 90.000000
_cell_angle_gamma 90.000000
_cell_volume 1030.642762
_symmetry_space_group_name_H-M "P C C A"
_symmetry_group_IT_number 54
_symmetry_cell_setting 'orthorhombic'
loop_
_space_group_symop_operation_xyz
x,y,z
1/2-x,-y,z
1/2+x,-y,1/2-z
-x,y,1/2-z
-x,-y,-z
1/2+x,y,-z
1/2-x,y,1/2+z
x,-y,1/2+z
loop_
_atom_site_type_symbol
_atom_site_label
_atom_site_fract_x
_atom_site_fract_y
_atom_site_fract_z
Si Si1 0.226088 0.644856 0.950985
Si Si2 0.250000 0.000000 0.197962
Si Si3 0.053799 0.749540 0.163980
Si Si4 0.750000 0.500000 0.801179
O O1 0.250000 0.500000 0.930081
O O2 0.294286 0.728420 0.882103
O O3 0.459276 0.667929 0.007876
O O4 0.309625 0.120937 0.150997
O O5 0.500000 0.976268 0.250000
O O6 0.215556 0.623803 0.153011
O O7 0.000000 0.750927 0.250000
O O8 0.500000 0.484509 0.750000
#
# Coordination Sequence:
#
# PCOD9422744 Si02
#       4
#     8   4   8   4
#     4  10  24  42  61  92 133 171 209 268 335 386
#     4  10  22  42  62  96 136 172 210 274 338 386
#     4  10  23  40  68  95 129 168 222 267 326 387
#     4  10  22  34  56  96 124 152 208 272 310 370
#
# _framework density 23.286438
#
# number of rings (size 3 to 8) (size 9 to 14) (size 15 to 20)
#    0.000    2.000    0.000    1.000   16.333    5.333 
#    0.000    1.667    0.000    0.000    0.000    0.000 
#    0.000    0.000    0.000    0.000    0.000    0.000 
#
# Total GULP energy -134379.219168 kJ/mol
# GULP energy per Si atom -5599.134132 kJ/mol
# Density = 2.323344 g / cm^3
# Si number density = 23.286438 Si / 1000 Ang^3
#
#
#
# Elastic Constant Matrix: (Units=GPa)
#
#
# Indices 1 2 3 4 5 6 
#
# 1 142.6263 34.7131 40.3074 0.0000 0.0000 0.0000
# 2 34.7131 176.8488 26.1825 0.0000 0.0000 0.0000
# 3 40.3074 26.1825 113.5186 0.0000 0.0000 0.0000
# 4 0.0000 0.0000 0.0000 -5.2259 0.0000 0.0000
# 5 0.0000 0.0000 0.0000 0.0000 28.1203 0.0000
# 6 0.0000 0.0000 0.0000 0.0000 0.0000 36.7493
#
#
#
# Elastic Compliance Matrix: (Units=1/GPa)
#
#
# Indices 1 2 3 4 5 6 
#
# 1 0.008030 -0.001195 -0.002576 0.000000 0.000000 0.000000
# 2 -0.001195 0.006032 -0.000967 0.000000 0.000000 0.000000
# 3 -0.002576 -0.000967 0.009947 0.000000 0.000000 0.000000
# 4 0.000000 0.000000 0.000000 -0.191354 0.000000 0.000000
# 5 0.000000 0.000000 0.000000 0.000000 0.035562 0.000000
# 6 0.000000 0.000000 0.000000 0.000000 0.000000 0.027211
#
#
# Mechanical properties :
#
#
# Convention : Reuss Voigt Hill
#
# Bulk Modulus (GPa) = 68.80479 70.59999 69.70239
# Shear Modulus (GPa) = -55.40049 34.04810 -10.67619
#
# Velocity S-wave (km/s) = -4.88288 3.82795 -2.14352
# Velocity P-wave (km/s) = 1.47606 7.06551 4.88583
#
# Compressibility (1/GPa) = 0.01453387
#
# Stress axis : x y z
#
# Youngs Moduli (GPa) = 124.53229 165.77547 100.53560
#
# Poissons Ratio (x) = 0.19808 0.25895
# Poissons Ratio (y) = 0.14880 0.09722
# Poissons Ratio (z) = 0.32075 0.16031
#
# Static dielectric constant tensor:
#      x y z
#    x 1.949350 0.000000 0.000000 
#    y 0.000000 1.900840 0.000000 
#    z 0.000000 0.000000 1.905210 
# 
# From -- ./inp_files/15600.got.cif
#   From: 2010.05.17/outbox.cif.g08.bks.cpg/sg54_8_cif.got.tgz:15600.got - 2010.06.03 13:09:01.
