data_PCOD9422242
_publ_section_title
;
Structure prediction by ZEFSAII (Michael W. Deem and Ramdas Pophale) SiO2 
 PCOD9422242
Probable space group: P C C A
;
_chemical_formula_sum "Si O2"
_cell_formula_units_Z 32
_cell_length_a 15.863726
_cell_length_b 14.775688
_cell_length_c 5.539659
_cell_angle_alpha 90.000000
_cell_angle_beta 90.000000
_cell_angle_gamma 90.000000
_cell_volume 1298.482032
_symmetry_space_group_name_H-M "P C C A"
_symmetry_group_IT_number 54
_symmetry_cell_setting 'orthorhombic'
loop_
_space_group_symop_operation_xyz
x,y,z
1/2-x,-y,z
1/2+x,-y,1/2-z
-x,y,1/2-z
-x,-y,-z
1/2+x,y,-z
1/2-x,y,1/2+z
x,-y,1/2+z
loop_
_atom_site_type_symbol
_atom_site_label
_atom_site_fract_x
_atom_site_fract_y
_atom_site_fract_z
Si Si1 0.595994 0.535818 0.984827
Si Si2 0.273408 0.119989 0.612328
Si Si3 0.032541 0.895051 0.500351
Si Si4 0.710531 0.324531 0.346607
O O1 0.631707 0.484408 0.750054
O O2 0.500000 0.500000 0.000000
O O3 0.617532 0.639665 0.916836
O O4 0.219209 0.082609 0.386738
O O5 0.367557 0.114252 0.511800
O O6 0.231214 0.218071 0.657399
O O7 0.000000 0.854422 0.250000
O O8 0.000000 0.000000 0.500000
O O9 0.000000 0.852831 0.750000
O O10 0.734458 0.356577 0.077707
#
# Coordination Sequence:
#
# PCOD9422242 Si02
#       4
#     8   8   8   8
#     4  10  21  37  60  89 124 158 207 261 317 370
#     4  10  21  40  67  92 130 171 220 262 315 383
#     4  10  21  40  65  97 136 168 207 266 323 379
#     4  10  21  37  63  88 120 166 208 258 310 370
#
# _framework density 24.644161
#
# number of rings (size 3 to 8) (size 9 to 14) (size 15 to 20)
#    0.000    2.000    0.000    3.000    0.000    3.000 
#    0.000   15.000  132.000    0.000    0.000    0.000 
#    0.000    0.000    0.000    0.000    0.000    0.000 
#
# Total GULP energy -178159.933720 kJ/mol
# GULP energy per Si atom -5567.497929 kJ/mol
# Density = 2.458807 g / cm^3
# Si number density = 24.644161 Si / 1000 Ang^3
#
#
#
# Elastic Constant Matrix: (Units=GPa)
#
#
# Indices 1 2 3 4 5 6 
#
# 1 94.7787 42.0747 14.5188 0.0000 0.0000 0.0000
# 2 42.0747 94.0587 0.5981 0.0000 0.0000 0.0000
# 3 14.5188 0.5981 272.0100 0.0000 0.0000 0.0000
# 4 0.0000 0.0000 0.0000 65.9937 0.0000 0.0000
# 5 0.0000 0.0000 0.0000 0.0000 49.2101 0.0000
# 6 0.0000 0.0000 0.0000 0.0000 0.0000 39.5491
#
#
#
# Elastic Compliance Matrix: (Units=1/GPa)
#
#
# Indices 1 2 3 4 5 6 
#
# 1 0.013296 -0.005943 -0.000697 0.000000 0.000000 0.000000
# 2 -0.005943 0.013288 0.000288 0.000000 0.000000 0.000000
# 3 -0.000697 0.000288 0.003713 0.000000 0.000000 0.000000
# 4 0.000000 0.000000 0.000000 0.015153 0.000000 0.000000
# 5 0.000000 0.000000 0.000000 0.000000 0.020321 0.000000
# 6 0.000000 0.000000 0.000000 0.000000 0.000000 0.025285
#
#
# Mechanical properties :
#
#
# Convention : Reuss Voigt Hill
#
# Bulk Modulus (GPa) = 56.83878 63.91450 60.37664
# Shear Modulus (GPa) = 45.61036 57.86097 51.73566
#
# Velocity S-wave (km/s) = 4.30671 4.85073 4.58679
# Velocity P-wave (km/s) = 6.91695 7.57390 7.25287
#
# Compressibility (1/GPa) = 0.01759362
#
# Stress axis : x y z
#
# Youngs Moduli (GPa) = 75.21106 75.25393 269.33238
#
# Poissons Ratio (x) = 0.44725 0.18762
# Poissons Ratio (y) = 0.44699 -0.07757
# Poissons Ratio (z) = 0.05239 -0.02167
#
# Static dielectric constant tensor:
#      x y z
#    x 2.171440 0.000000 0.000000 
#    y 0.000000 2.020690 0.000000 
#    z 0.000000 0.000000 2.073780 
# 
# From -- ./inp_files/413.got.cif
#   From: 2010.05.17/outbox.cif.g08.bks.cpg/sg54_1_cif.got.tgz:413.got - 2010.06.03 13:09:01.
