data_PCOD9422214
_publ_section_title
;
Structure prediction by ZEFSAII (Michael W. Deem and Ramdas Pophale) SiO2 
 PCOD9422214
Probable space group: P C C A
;
_chemical_formula_sum "Si O2"
_cell_formula_units_Z 60
_cell_length_a 5.131768
_cell_length_b 15.515535
_cell_length_c 32.184515
_cell_angle_alpha 90.000000
_cell_angle_beta 90.000000
_cell_angle_gamma 90.000000
_cell_volume 2562.599509
_symmetry_space_group_name_H-M "P C C A"
_symmetry_group_IT_number 54
_symmetry_cell_setting 'orthorhombic'
loop_
_space_group_symop_operation_xyz
x,y,z
1/2-x,-y,z
1/2+x,-y,1/2-z
-x,y,1/2-z
-x,-y,-z
1/2+x,y,-z
1/2-x,y,1/2+z
x,-y,1/2+z
loop_
_atom_site_type_symbol
_atom_site_label
_atom_site_fract_x
_atom_site_fract_y
_atom_site_fract_z
Si Si1 0.310451 0.094857 0.404336
Si Si2 0.104299 0.160261 0.484286
Si Si3 0.000000 0.365621 0.250000
Si Si4 0.580260 0.647319 0.980399
Si Si5 0.087272 0.234064 0.708474
Si Si6 0.312694 0.095245 0.648779
Si Si7 0.792779 0.637178 0.666434
Si Si8 0.704806 0.400300 0.388460
O O1 0.218199 0.162640 0.438312
O O2 0.605284 0.103756 0.389258
O O3 0.108962 0.099710 0.366212
O O4 0.250000 0.000000 0.422663
O O5 0.324185 0.116417 0.512493
O O6 0.050142 0.254942 0.502685
O O7 0.225171 0.308731 0.227322
O O8 0.126901 0.409932 0.290342
O O9 0.653958 0.646752 0.932149
O O10 0.304941 0.605986 0.991445
O O11 0.246485 0.171789 0.679320
O O12 0.000000 0.185272 0.750000
O O13 0.841371 0.274603 0.683829
O O14 0.250000 0.000000 0.666097
O O15 0.553397 0.600302 0.640005
O O16 0.048460 0.638448 0.637022
O O17 0.750000 0.500000 0.398622
#
# Coordination Sequence:
#
# PCOD9422214 Si02
#       8
#     8   8   4   8   8   8   8   8
#     4  10  22  39  59  84 128 174 219 278 339 394
#     4  10  21  37  56  88 121 160 220 269 320 386
#     4  10  22  48  68 104 136 178 222 282 344 400
#     4  10  23  42  63  94 134 174 222 279 329 397
#     4  10  23  41  70  97 133 179 226 276 341 407
#     4  10  23  42  62  96 133 174 222 280 342 395
#     4  11  24  45  73  99 139 178 227 280 337 413
#     4  12  26  45  71 104 139 178 226 278 347 416
#
# _framework density 23.413726
#
# number of rings (size 3 to 8) (size 9 to 14) (size 15 to 20)
#    0.000    1.600    1.333    2.000    3.733    7.467 
#    1.200    1.333    1.467    0.000    0.000    0.000 
#    0.000    0.000    0.000    0.000    0.000    0.000 
#
# Total GULP energy -335064.367920 kJ/mol
# GULP energy per Si atom -5584.406132 kJ/mol
# Density = 2.336044 g / cm^3
# Si number density = 23.413726 Si / 1000 Ang^3
#
#
#
# Elastic Constant Matrix: (Units=GPa)
#
#
# Indices 1 2 3 4 5 6 
#
# 1 99.8913 0.8806 -20.4601 0.0000 0.0000 0.0000
# 2 0.8806 63.6231 40.7938 0.0000 0.0000 0.0000
# 3 -20.4601 40.7938 54.0271 0.0000 0.0000 0.0000
# 4 0.0000 0.0000 0.0000 -67.6652 0.0000 0.0000
# 5 0.0000 0.0000 0.0000 0.0000 38.4116 0.0000
# 6 0.0000 0.0000 0.0000 0.0000 0.0000 16.3655
#
#
#
# Elastic Compliance Matrix: (Units=1/GPa)
#
#
# Indices 1 2 3 4 5 6 
#
# 1 0.011902 -0.005922 0.008978 0.000000 0.000000 0.000000
# 2 -0.005922 0.033414 -0.027472 0.000000 0.000000 0.000000
# 3 0.008978 -0.027472 0.042653 0.000000 0.000000 0.000000
# 4 0.000000 0.000000 0.000000 -0.014779 0.000000 0.000000
# 5 0.000000 0.000000 0.000000 0.000000 0.026034 0.000000
# 6 0.000000 0.000000 0.000000 0.000000 0.000000 0.061104
#
#
# Mechanical properties :
#
#
# Convention : Reuss Voigt Hill
#
# Bulk Modulus (GPa) = 25.55046 28.88556 27.21801
# Shear Modulus (GPa) = 22.50172 10.51085 16.50628
#
# Velocity S-wave (km/s) = 3.10344 2.12107 2.65803
# Velocity P-wave (km/s) = 4.87628 4.28513 4.59023
#
# Compressibility (1/GPa) = 0.03913824
#
# Stress axis : x y z
#
# Youngs Moduli (GPa) = 84.01879 29.92738 23.44517
#
# Poissons Ratio (x) = 0.17722 -0.21050
# Poissons Ratio (y) = 0.49752 0.64409
# Poissons Ratio (z) = -0.75436 0.82217
#
# Static dielectric constant tensor:
#      x y z
#    x 1.962120 0.000000 0.000000 
#    y 0.000000 2.401540 0.000000 
#    z 0.000000 0.000000 1.906150 
# 
# From -- ./inp_files/25488.got.cif
#   From: 2010.05.17/outbox.cif.g08.bks.cpg/sg54_13_cif.got.tgz:25488.got - 2010.06.03 13:09:01.
