data_PCOD9422974
_publ_section_title
;
Structure prediction by ZEFSAII (Michael W. Deem and Ramdas Pophale) SiO2 
 PCOD9422974
Probable space group: P C C A
;
_chemical_formula_sum "Si O2"
_cell_formula_units_Z 36
_cell_length_a 25.526793
_cell_length_b 5.595406
_cell_length_c 10.855128
_cell_angle_alpha 90.000000
_cell_angle_beta 90.000000
_cell_angle_gamma 90.000000
_cell_volume 1550.468009
_symmetry_space_group_name_H-M "P C C A"
_symmetry_group_IT_number 54
_symmetry_cell_setting 'orthorhombic'
loop_
_space_group_symop_operation_xyz
x,y,z
1/2-x,-y,z
1/2+x,-y,1/2-z
-x,y,1/2-z
-x,-y,-z
1/2+x,y,-z
1/2-x,y,1/2+z
x,-y,1/2+z
loop_
_atom_site_type_symbol
_atom_site_label
_atom_site_fract_x
_atom_site_fract_y
_atom_site_fract_z
Si Si1 0.750000 0.500000 0.694442
Si Si2 0.163412 0.170766 0.919082
Si Si3 0.807644 0.108008 0.310751
Si Si4 0.937782 0.275724 0.454242
Si Si5 0.035524 0.231224 0.630030
O O1 0.714688 0.669588 0.608481
O O2 0.705498 0.382981 0.781548
O O3 0.159552 0.995220 0.803053
O O4 0.174314 0.054367 0.052100
O O5 0.107830 0.296658 0.943414
O O6 0.750000 0.000000 0.297938
O O7 0.934061 0.515348 0.372290
O O8 0.994892 0.257158 0.516146
O O9 0.933933 0.018383 0.386590
O O10 0.000000 0.213942 0.750000
#
# Coordination Sequence:
#
# PCOD9422974 Si02
#       5
#     4   8   8   8   8
#     4  10  22  40  64  94 134 168 222 278 334 398
#     4  11  24  40  66  97 129 177 223 276 337 405
#     4  10  22  41  62  90 133 171 220 271 333 395
#     4  10  24  40  66  99 126 173 225 273 338 404
#     4  10  22  44  66  92 135 170 220 281 341 398
#
# _framework density 23.218795
#
# number of rings (size 3 to 8) (size 9 to 14) (size 15 to 20)
#    0.000    1.778    0.000    3.333    6.222    3.556 
#    0.000    0.000    0.000    0.000    0.000    0.000 
#    0.000    0.000    0.000    0.000    0.000    0.000 
#
# Total GULP energy -200731.380312 kJ/mol
# GULP energy per Si atom -5575.871675 kJ/mol
# Density = 2.316595 g / cm^3
# Si number density = 23.218795 Si / 1000 Ang^3
#
#
#
# Elastic Constant Matrix: (Units=GPa)
#
#
# Indices 1 2 3 4 5 6 
#
# 1 63.4558 16.5612 5.3057 0.0000 0.0000 0.0000
# 2 16.5612 123.4383 40.0839 0.0000 0.0000 0.0000
# 3 5.3057 40.0839 123.1508 0.0000 0.0000 0.0000
# 4 0.0000 0.0000 0.0000 21.6741 0.0000 0.0000
# 5 0.0000 0.0000 0.0000 0.0000 2.8252 0.0000
# 6 0.0000 0.0000 0.0000 0.0000 0.0000 4.1926
#
#
#
# Elastic Compliance Matrix: (Units=1/GPa)
#
#
# Indices 1 2 3 4 5 6 
#
# 1 0.016331 -0.002195 0.000011 0.000000 0.000000 0.000000
# 2 -0.002195 0.009354 -0.002950 0.000000 0.000000 0.000000
# 3 0.000011 -0.002950 0.009080 0.000000 0.000000 0.000000
# 4 0.000000 0.000000 0.000000 0.046138 0.000000 0.000000
# 5 0.000000 0.000000 0.000000 0.000000 0.353960 0.000000
# 6 0.000000 0.000000 0.000000 0.000000 0.000000 0.238518
#
#
# Mechanical properties :
#
#
# Convention : Reuss Voigt Hill
#
# Bulk Modulus (GPa) = 40.82167 48.21627 44.51897
# Shear Modulus (GPa) = 7.22739 22.27797 14.75268
#
# Velocity S-wave (km/s) = 1.76621 3.10091 2.52340
# Velocity P-wave (km/s) = 4.66678 5.79931 5.26359
#
# Compressibility (1/GPa) = 0.02449679
#
# Stress axis : x y z
#
# Youngs Moduli (GPa) = 61.23377 106.91113 110.13438
#
# Poissons Ratio (x) = 0.23462 -0.00118
# Poissons Ratio (y) = 0.13438 0.32489
# Poissons Ratio (z) = -0.00066 0.31538
#
# Static dielectric constant tensor:
#      x y z
#    x 1.872070 0.000000 0.000000 
#    y 0.000000 2.088610 0.000000 
#    z 0.000000 0.000000 1.822870 
# 
# From -- ./inp_files/9722.got.cif
#   From: 2010.05.17/outbox.cif.g08.bks.cpg/sg54_5_cif.got.tgz:9722.got - 2010.06.03 13:09:01.
