data_PCOD9422933
_publ_section_title
;
Structure prediction by ZEFSAII (Michael W. Deem and Ramdas Pophale) SiO2 
 PCOD9422933
Probable space group: P C C A
;
_chemical_formula_sum "Si O2"
_cell_formula_units_Z 40
_cell_length_a 28.464112
_cell_length_b 5.116721
_cell_length_c 9.618513
_cell_angle_alpha 90.000000
_cell_angle_beta 90.000000
_cell_angle_gamma 90.000000
_cell_volume 1400.868316
_symmetry_space_group_name_H-M "P C C A"
_symmetry_group_IT_number 54
_symmetry_cell_setting 'orthorhombic'
loop_
_space_group_symop_operation_xyz
x,y,z
1/2-x,-y,z
1/2+x,-y,1/2-z
-x,y,1/2-z
-x,-y,-z
1/2+x,y,-z
1/2-x,y,1/2+z
x,-y,1/2+z
loop_
_atom_site_type_symbol
_atom_site_label
_atom_site_fract_x
_atom_site_fract_y
_atom_site_fract_z
Si Si1 0.108573 0.184203 0.461379
Si Si2 0.000000 0.403404 0.750000
Si Si3 0.250000 0.000000 0.382557
Si Si4 0.169979 0.149074 0.699448
Si Si5 0.600647 0.561555 0.305421
Si Si6 0.250000 0.500000 0.074225
Si Si7 0.000000 0.000000 0.000000
O O1 0.149042 0.046425 0.552151
O O2 0.117551 0.211619 0.297420
O O3 0.107722 0.474898 0.535274
O O4 0.057391 0.072529 0.495420
O O5 0.955389 0.581354 0.782932
O O6 0.991883 0.223295 0.618314
O O7 0.205504 0.031580 0.282193
O O8 0.240332 0.747694 0.475768
O O9 0.125446 0.305361 0.761475
O O10 0.205520 0.394485 0.660744
#
# Coordination Sequence:
#
# PCOD9422933 Si02
#       7
#     8   4   4   8   8   4   4
#     4   9  21  42  70 106 145 204 256 332 405 497
#     4  10  22  40  62 102 144 206 254 322 398 490
#     4  12  26  48  84 116 168 218 276 352 426 504
#     4  10  24  47  73 120 152 207 280 344 419 503
#     4   9  21  42  71 105 149 202 265 328 413 493
#     4  12  26  48  82 118 168 216 280 348 428 506
#     4  10  22  40  62 104 148 190 260 314 398 486
#
# _framework density 28.553722
#
# number of rings (size 3 to 8) (size 9 to 14) (size 15 to 20)
#    1.200    0.800    0.000    2.400    0.000    7.200 
#    0.000    6.000    0.000    0.000    0.000    0.000 
#    0.000    0.000    0.000    0.000    0.000    0.000 
#
# Total GULP energy -222787.070113 kJ/mol
# GULP energy per Si atom -5569.676753 kJ/mol
# Density = 2.848873 g / cm^3
# Si number density = 28.553722 Si / 1000 Ang^3
#
#
#
# Elastic Constant Matrix: (Units=GPa)
#
#
# Indices 1 2 3 4 5 6 
#
# 1 120.2736 -5.5792 6.6408 0.0000 0.0000 0.0000
# 2 -5.5792 77.8086 17.1279 0.0000 0.0000 0.0000
# 3 6.6408 17.1279 121.1322 0.0000 0.0000 0.0000
# 4 0.0000 0.0000 0.0000 40.0600 0.0000 0.0000
# 5 0.0000 0.0000 0.0000 0.0000 27.8801 0.0000
# 6 0.0000 0.0000 0.0000 0.0000 0.0000 35.3476
#
#
#
# Elastic Compliance Matrix: (Units=1/GPa)
#
#
# Indices 1 2 3 4 5 6 
#
# 1 0.008379 0.000724 -0.000562 0.000000 0.000000 0.000000
# 2 0.000724 0.013328 -0.001924 0.000000 0.000000 0.000000
# 3 -0.000562 -0.001924 0.008558 0.000000 0.000000 0.000000
# 4 0.000000 0.000000 0.000000 0.024963 0.000000 0.000000
# 5 0.000000 0.000000 0.000000 0.000000 0.035868 0.000000
# 6 0.000000 0.000000 0.000000 0.000000 0.000000 0.028290
#
#
# Mechanical properties :
#
#
# Convention : Reuss Voigt Hill
#
# Bulk Modulus (GPa) = 37.39460 39.51037 38.45248
# Shear Modulus (GPa) = 37.92969 40.72586 39.32777
#
# Velocity S-wave (km/s) = 3.64862 3.78072 3.71526
# Velocity P-wave (km/s) = 5.55649 5.73809 5.64802
#
# Compressibility (1/GPa) = 0.02674183
#
# Stress axis : x y z
#
# Youngs Moduli (GPa) = 119.34596 75.03237 116.84532
#
# Poissons Ratio (x) = -0.05436 0.06564
# Poissons Ratio (y) = -0.08646 0.22484
# Poissons Ratio (z) = 0.06705 0.14438
#
# Static dielectric constant tensor:
#      x y z
#    x 2.239940 0.000000 0.000000 
#    y 0.000000 2.126010 0.000000 
#    z 0.000000 0.000000 2.322130 
# 
# From -- ./inp_files/10468.got.cif
#   From: 2010.05.17/outbox.cif.g08.bks.cpg/sg54_6_cif.got.tgz:10468.got - 2010.06.03 13:09:01.
