data_PCOD9422701
_publ_section_title
;
Structure prediction by ZEFSAII (Michael W. Deem and Ramdas Pophale) SiO2 
 PCOD9422701
Probable space group: P C C A
;
_chemical_formula_sum "Si O2"
_cell_formula_units_Z 40
_cell_length_a 14.966379
_cell_length_b 8.029400
_cell_length_c 13.688811
_cell_angle_alpha 90.000000
_cell_angle_beta 90.000000
_cell_angle_gamma 90.000000
_cell_volume 1644.998703
_symmetry_space_group_name_H-M "P C C A"
_symmetry_group_IT_number 54
_symmetry_cell_setting 'orthorhombic'
loop_
_space_group_symop_operation_xyz
x,y,z
1/2-x,-y,z
1/2+x,-y,1/2-z
-x,y,1/2-z
-x,-y,-z
1/2+x,y,-z
1/2-x,y,1/2+z
x,-y,1/2+z
loop_
_atom_site_type_symbol
_atom_site_label
_atom_site_fract_x
_atom_site_fract_y
_atom_site_fract_z
Si Si1 0.094334 0.843041 0.598827
Si Si2 0.427139 0.208830 0.160871
Si Si3 0.807202 0.365900 0.553047
Si Si4 0.514045 0.531203 0.133927
Si Si5 0.738593 0.188596 0.733821
O O1 0.157897 0.788285 0.510089
O O2 0.013449 0.712215 0.596584
O O3 0.151871 0.805892 0.697549
O O4 0.067803 0.036076 0.601650
O O5 0.500000 0.193551 0.250000
O O6 0.447097 0.380368 0.105108
O O7 0.327701 0.222116 0.203412
O O8 0.750000 0.500000 0.492712
O O9 0.743909 0.304622 0.640481
O O10 0.892403 0.456132 0.600832
O O11 0.500000 0.541711 0.250000
O O12 0.750000 0.000000 0.698454
#
# Coordination Sequence:
#
# PCOD9422701 Si02
#       5
#     8   8   8   8   8
#     4  11  26  43  70 101 138 184 232 283 350 415
#     4  10  21  43  72  97 133 178 229 279 349 405
#     4  12  26  43  66 107 139 181 237 284 349 419
#     4  11  22  44  72  96 138 186 226 286 346 412
#     4  10  23  45  68  98 135 182 226 289 350 408
#
# _framework density 24.316129
#
# number of rings (size 3 to 8) (size 9 to 14) (size 15 to 20)
#    0.000    1.200    4.000    2.400    2.800    4.800 
#    0.000    0.000    0.000    0.000    0.000    0.000 
#    0.000    0.000    0.000    0.000    0.000    0.000 
#
# Total GULP energy -223840.007642 kJ/mol
# GULP energy per Si atom -5596.000191 kJ/mol
# Density = 2.426078 g / cm^3
# Si number density = 24.316129 Si / 1000 Ang^3
#
#
#
# Elastic Constant Matrix: (Units=GPa)
#
#
# Indices 1 2 3 4 5 6 
#
# 1 36.3805 11.8882 -12.3575 0.0000 0.0000 0.0000
# 2 11.8882 117.3744 0.6603 0.0000 0.0000 0.0000
# 3 -12.3575 0.6603 66.0545 0.0000 0.0000 0.0000
# 4 0.0000 0.0000 0.0000 -14.2217 0.0000 0.0000
# 5 0.0000 0.0000 0.0000 0.0000 18.7997 0.0000
# 6 0.0000 0.0000 0.0000 0.0000 0.0000 36.6909
#
#
#
# Elastic Compliance Matrix: (Units=1/GPa)
#
#
# Indices 1 2 3 4 5 6 
#
# 1 0.030451 -0.003116 0.005728 0.000000 0.000000 0.000000
# 2 -0.003116 0.008839 -0.000671 0.000000 0.000000 0.000000
# 3 0.005728 -0.000671 0.016217 0.000000 0.000000 0.000000
# 4 0.000000 0.000000 0.000000 -0.070315 0.000000 0.000000
# 5 0.000000 0.000000 0.000000 0.000000 0.053192 0.000000
# 6 0.000000 0.000000 0.000000 0.000000 0.000000 0.027255
#
#
# Mechanical properties :
#
#
# Convention : Reuss Voigt Hill
#
# Bulk Modulus (GPa) = 16.83840 24.46571 20.65205
# Shear Modulus (GPa) = 61.30787 22.89499 42.10143
#
# Velocity S-wave (km/s) = 5.02669 3.07181 4.16555
# Velocity P-wave (km/s) = 6.37416 4.76074 5.62559
#
# Compressibility (1/GPa) = 0.05938807
#
# Stress axis : x y z
#
# Youngs Moduli (GPa) = 32.83934 113.13273 61.66246
#
# Poissons Ratio (x) = 0.35257 -0.35320
# Poissons Ratio (y) = 0.10234 0.04140
# Poissons Ratio (z) = -0.18810 0.07596
#
# Static dielectric constant tensor:
#      x y z
#    x 1.929110 0.000000 0.000000 
#    y 0.000000 1.912270 0.000000 
#    z 0.000000 0.000000 1.972180 
# 
# From -- ./inp_files/13204.got.cif
#   From: 2010.05.17/outbox.cif.g08.bks.cpg/sg54_7_cif.got.tgz:13204.got - 2010.06.03 13:09:01.
