data_PCOD9422889
_publ_section_title
;
Structure prediction by ZEFSAII (Michael W. Deem and Ramdas Pophale) SiO2 
 PCOD9422889
Probable space group: P C C A
;
_chemical_formula_sum "Si O2"
_cell_formula_units_Z 60
_cell_length_a 11.443181
_cell_length_b 11.991713
_cell_length_c 20.811448
_cell_angle_alpha 90.000000
_cell_angle_beta 90.000000
_cell_angle_gamma 90.000000
_cell_volume 2855.816454
_symmetry_space_group_name_H-M "P C C A"
_symmetry_group_IT_number 54
_symmetry_cell_setting 'orthorhombic'
loop_
_space_group_symop_operation_xyz
x,y,z
1/2-x,-y,z
1/2+x,-y,1/2-z
-x,y,1/2-z
-x,-y,-z
1/2+x,y,-z
1/2-x,y,1/2+z
x,-y,1/2+z
loop_
_atom_site_type_symbol
_atom_site_label
_atom_site_fract_x
_atom_site_fract_y
_atom_site_fract_z
Si Si1 0.358607 0.655118 0.384935
Si Si2 0.869283 0.384489 0.253471
Si Si3 0.595699 0.322692 0.955000
Si Si4 0.220736 0.122927 0.886312
Si Si5 0.388954 0.367821 0.203811
Si Si6 0.766201 0.123033 0.960753
Si Si7 0.250000 0.500000 0.993794
Si Si8 0.509569 0.762375 0.913589
O O1 0.350082 0.582370 0.321132
O O2 0.489991 0.675329 0.406370
O O3 0.300829 0.773174 0.366352
O O4 0.299356 0.595492 0.446208
O O5 0.884899 0.497804 0.293710
O O6 0.744502 0.331876 0.276112
O O7 0.000000 0.327792 0.250000
O O8 0.681628 0.221439 0.937213
O O9 0.657773 0.440958 0.960380
O O10 0.550697 0.302661 0.027883
O O11 0.088144 0.163844 0.877915
O O12 0.250000 0.000000 0.859997
O O13 0.241664 0.117000 0.963242
O O14 0.500000 0.336646 0.250000
O O15 0.424338 0.317884 0.135406
O O16 0.897502 0.158618 0.947799
O O17 0.750000 0.000000 0.932746
#
# Coordination Sequence:
#
# PCOD9422889 Si02
#       8
#     8   8   8   8   8   8   4   8
#     4  12  23  41  67  91 142 171 222 275 340 412
#     4  10  24  42  62  96 124 184 224 281 327 396
#     4  11  24  39  62 103 138 177 210 279 342 410
#     4  10  22  39  67 102 135 178 221 271 345 415
#     4  10  22  42  66  91 128 174 240 270 325 403
#     4  10  22  39  63  98 138 172 218 267 338 409
#     4  12  22  40  56  98 142 176 208 256 348 406
#     4  11  21  40  67  97 134 173 225 278 337 405
#
# _framework density 21.009754000000001
#
# number of rings (size 3 to 8) (size 9 to 14) (size 15 to 20)
#    0.000    1.333    4.000    2.000    7.467    1.600 
#    0.000    0.000    0.000    5.600    0.000    0.000 
#    0.000    0.000    0.000    0.000    0.000    0.000 
#
# Total GULP energy -334931.141486 kJ/mol
# GULP energy per Si atom -5582.185691 kJ/mol
# Density = 2.096193 g / cm^3
# Si number density = 21.009754 Si / 1000 Ang^3
#
#
#
# Elastic Constant Matrix: (Units=GPa)
#
#
# Indices 1 2 3 4 5 6 
#
# 1 165.8575 46.4127 27.3363 0.0000 0.0000 0.0000
# 2 46.4127 92.6313 18.1942 0.0000 0.0000 0.0000
# 3 27.3363 18.1942 33.4448 0.0000 0.0000 0.0000
# 4 0.0000 0.0000 0.0000 7.7355 0.0000 0.0000
# 5 0.0000 0.0000 0.0000 0.0000 -48.3921 0.0000
# 6 0.0000 0.0000 0.0000 0.0000 0.0000 -24.0962
#
#
#
# Elastic Compliance Matrix: (Units=1/GPa)
#
#
# Indices 1 2 3 4 5 6 
#
# 1 0.007605 -0.002899 -0.004639 0.000000 0.000000 0.000000
# 2 -0.002899 0.013192 -0.004807 0.000000 0.000000 0.000000
# 3 -0.004639 -0.004807 0.036307 0.000000 0.000000 0.000000
# 4 0.000000 0.000000 0.000000 0.129274 0.000000 0.000000
# 5 0.000000 0.000000 0.000000 0.000000 -0.020665 0.000000
# 6 0.000000 0.000000 0.000000 0.000000 0.000000 -0.041500
#
#
# Mechanical properties :
#
#
# Convention : Reuss Voigt Hill
#
# Bulk Modulus (GPa) = 30.85100 52.86889 41.85995
# Shear Modulus (GPa) = 31.30716 0.38214 15.84465
#
# Velocity S-wave (km/s) = 3.86440 0.42694 2.74917
# Velocity P-wave (km/s) = 5.88451 5.04595 5.48129
#
# Compressibility (1/GPa) = 0.03241386
#
# Stress axis : x y z
#
# Youngs Moduli (GPa) = 131.48898 75.80130 27.54322
#
# Poissons Ratio (x) = 0.21978 0.12777
# Poissons Ratio (y) = 0.38124 0.13240
# Poissons Ratio (z) = 0.60996 0.36437
#
# Static dielectric constant tensor:
#      x y z
#    x 2.215200 0.000000 0.000000 
#    y 0.000000 1.800870 0.000000 
#    z 0.000000 0.000000 1.738360 
# 
# From -- ./inp_files/21217.got.cif
#   From: 2010.05.17/outbox.cif.g08.bks.cpg/sg54_11_cif.got.tgz:21217.got - 2010.06.03 13:09:01.
