data_PCOD9422593
_publ_section_title
;
Structure prediction by ZEFSAII (Michael W. Deem and Ramdas Pophale) SiO2 
 PCOD9422593
Probable space group: P C C A
;
_chemical_formula_sum "Si O2"
_cell_formula_units_Z 40
_cell_length_a 13.178209
_cell_length_b 11.499784
_cell_length_c 14.370369
_cell_angle_alpha 90.000000
_cell_angle_beta 90.000000
_cell_angle_gamma 90.000000
_cell_volume 2177.779945
_symmetry_space_group_name_H-M "P C C A"
_symmetry_group_IT_number 54
_symmetry_cell_setting 'orthorhombic'
loop_
_space_group_symop_operation_xyz
x,y,z
1/2-x,-y,z
1/2+x,-y,1/2-z
-x,y,1/2-z
-x,-y,-z
1/2+x,y,-z
1/2-x,y,1/2+z
x,-y,1/2+z
loop_
_atom_site_type_symbol
_atom_site_label
_atom_site_fract_x
_atom_site_fract_y
_atom_site_fract_z
Si Si1 0.000000 0.004687 0.250000
Si Si2 0.301544 0.884371 0.684799
Si Si3 0.904768 0.469923 0.437436
Si Si4 0.643933 0.808402 0.160709
Si Si5 0.500000 0.615829 0.250000
Si Si6 0.230234 0.696699 0.028127
O O1 0.059834 0.088307 0.324145
O O2 0.084274 0.922479 0.204784
O O3 0.238805 0.850975 0.777352
O O4 0.286204 0.780776 0.614418
O O5 0.250000 0.000000 0.644060
O O6 0.943991 0.453759 0.332041
O O7 0.845461 0.353544 0.471921
O O8 0.833414 0.580761 0.451537
O O9 0.000000 0.500000 0.500000
O O10 0.585777 0.697703 0.204010
O O11 0.688063 0.765483 0.061996
#
# Coordination Sequence:
#
# PCOD9422593 Si02
#       6
#     4   8   8   8   4   8
#     4   9  22  39  64  96 124 173 215 254 332 382
#     4  10  22  41  62  92 128 165 217 262 316 384
#     4  11  24  41  63  96 125 170 218 260 325 394
#     4  10  21  41  65  89 132 170 204 268 325 378
#     4  11  20  43  66  84 130 175 201 262 330 376
#     4  11  24  40  64  97 128 163 221 268 319 385
#
# _framework density 18.367328000000001
#
# number of rings (size 3 to 8) (size 9 to 14) (size 15 to 20)
#    0.000    1.600    4.000    0.000    0.000    7.200 
#    0.000    0.000    0.000    0.000    0.000    0.000 
#    0.000    0.000    0.000    0.000    0.000    0.000 
#
# Total GULP energy -222941.155126 kJ/mol
# GULP energy per Si atom -5573.528878 kJ/mol
# Density = 1.832552 g / cm^3
# Si number density = 18.367328 Si / 1000 Ang^3
#
#
#
# Elastic Constant Matrix: (Units=GPa)
#
#
# Indices 1 2 3 4 5 6 
#
# 1 144.1908 58.7458 59.3451 0.0000 0.0000 0.0000
# 2 58.7458 103.3663 42.3242 0.0000 0.0000 0.0000
# 3 59.3451 42.3242 72.7886 0.0000 0.0000 0.0000
# 4 0.0000 0.0000 0.0000 28.0852 0.0000 0.0000
# 5 0.0000 0.0000 0.0000 0.0000 25.3503 0.0000
# 6 0.0000 0.0000 0.0000 0.0000 0.0000 16.5715
#
#
#
# Elastic Compliance Matrix: (Units=1/GPa)
#
#
# Indices 1 2 3 4 5 6 
#
# 1 0.011319 -0.003484 -0.007203 0.000000 0.000000 0.000000
# 2 -0.003484 0.013770 -0.005166 0.000000 0.000000 0.000000
# 3 -0.007203 -0.005166 0.022615 0.000000 0.000000 0.000000
# 4 0.000000 0.000000 0.000000 0.035606 0.000000 0.000000
# 5 0.000000 0.000000 0.000000 0.000000 0.039447 0.000000
# 6 0.000000 0.000000 0.000000 0.000000 0.000000 0.060345
#
#
# Mechanical properties :
#
#
# Convention : Reuss Voigt Hill
#
# Bulk Modulus (GPa) = 62.50795 71.24177 66.87486
# Shear Modulus (GPa) = 22.71284 24.66345 23.68814
#
# Velocity S-wave (km/s) = 3.52033 3.66838 3.59512
# Velocity P-wave (km/s) = 7.11545 7.53752 7.32952
#
# Compressibility (1/GPa) = 0.01599796
#
# Stress axis : x y z
#
# Youngs Moduli (GPa) = 88.34646 72.62393 44.21835
#
# Poissons Ratio (x) = 0.25300 0.31850
# Poissons Ratio (y) = 0.30777 0.22845
# Poissons Ratio (z) = 0.63635 0.37520
#
# Static dielectric constant tensor:
#      x y z
#    x 1.387540 0.000000 0.000000 
#    y 0.000000 1.612210 0.000000 
#    z 0.000000 0.000000 1.563940 
# 
# From -- ./inp_files/8279.got.cif
#   From: 2010.05.17/outbox.cif.g08.bks.cpg/sg54_5_cif.got.tgz:8279.got - 2010.06.03 13:09:01.
