data_PCOD9422844
_publ_section_title
;
Structure prediction by ZEFSAII (Michael W. Deem and Ramdas Pophale) SiO2 
 PCOD9422844
Probable space group: P C C A
;
_chemical_formula_sum "Si O2"
_cell_formula_units_Z 24
_cell_length_a 4.986953
_cell_length_b 7.295632
_cell_length_c 27.719381
_cell_angle_alpha 90.000000
_cell_angle_beta 90.000000
_cell_angle_gamma 90.000000
_cell_volume 1008.513515
_symmetry_space_group_name_H-M "P C C A"
_symmetry_group_IT_number 54
_symmetry_cell_setting 'orthorhombic'
loop_
_space_group_symop_operation_xyz
x,y,z
1/2-x,-y,z
1/2+x,-y,1/2-z
-x,y,1/2-z
-x,-y,-z
1/2+x,y,-z
1/2-x,y,1/2+z
x,-y,1/2+z
loop_
_atom_site_type_symbol
_atom_site_label
_atom_site_fract_x
_atom_site_fract_y
_atom_site_fract_z
Si Si1 0.497123 0.877932 0.373746
Si Si2 0.243430 0.223609 0.218625
Si Si3 0.250214 0.279788 0.470636
O O1 0.643738 0.739321 0.336187
O O2 0.353155 0.790658 0.419595
O O3 0.250000 0.000000 0.350351
O O4 0.750000 0.000000 0.389504
O O5 0.500000 0.279422 0.250000
O O6 0.000000 0.290197 0.250000
O O7 0.250000 0.000000 0.217455
O O8 0.250000 0.500000 0.468468
O O9 0.543194 0.221602 0.487595
#
# Coordination Sequence:
#
# PCOD9422844 Si02
#       3
#     8   8   8
#     4  11  21  33  55  87 114 144 191 241 288 336
#     4   9  16  28  46  73 108 138 169 218 278 335
#     4  10  22  39  56  78 113 156 194 231 287 352
#
# _framework density 23.797398000000001
#
# number of rings (size 3 to 8) (size 9 to 14) (size 15 to 20)
#    0.000    2.000    0.000    7.000    0.000    4.000 
#    0.000    0.000    0.000    0.000    0.000   32.667 
#    0.000    0.000    0.000    0.000    0.000    0.000 
#
# Total GULP energy -133855.496510 kJ/mol
# GULP energy per Si atom -5577.312355 kJ/mol
# Density = 2.374323 g / cm^3
# Si number density = 23.797398 Si / 1000 Ang^3
#
#
#
# Elastic Constant Matrix: (Units=GPa)
#
#
# Indices 1 2 3 4 5 6 
#
# 1 191.9193 20.4143 52.7817 0.0000 0.0000 0.0000
# 2 20.4143 55.4077 22.7588 0.0000 0.0000 0.0000
# 3 52.7817 22.7588 170.5827 0.0000 0.0000 0.0000
# 4 0.0000 0.0000 0.0000 -266.7966 0.0000 0.0000
# 5 0.0000 0.0000 0.0000 0.0000 47.2991 0.0000
# 6 0.0000 0.0000 0.0000 0.0000 0.0000 3.0505
#
#
#
# Elastic Compliance Matrix: (Units=1/GPa)
#
#
# Indices 1 2 3 4 5 6 
#
# 1 0.005808 -0.001483 -0.001599 0.000000 0.000000 0.000000
# 2 -0.001483 0.019473 -0.002139 0.000000 0.000000 0.000000
# 3 -0.001599 -0.002139 0.006643 0.000000 0.000000 0.000000
# 4 0.000000 0.000000 0.000000 -0.003748 0.000000 0.000000
# 5 0.000000 0.000000 0.000000 0.000000 0.021142 0.000000
# 6 0.000000 0.000000 0.000000 0.000000 0.000000 0.327816
#
#
# Mechanical properties :
#
#
# Convention : Reuss Voigt Hill
#
# Bulk Modulus (GPa) = 46.55333 67.75772 57.15552
# Shear Modulus (GPa) = 12.66665 -21.82573 -4.57954
#
# Velocity S-wave (km/s) = 2.30960 -3.03173 -1.38873
# Velocity P-wave (km/s) = 5.16887 4.03477 4.63662
#
# Compressibility (1/GPa) = 0.02148074
#
# Stress axis : x y z
#
# Youngs Moduli (GPa) = 172.17320 51.35289 150.54533
#
# Poissons Ratio (x) = 0.07616 0.24076
# Poissons Ratio (y) = 0.25534 0.32205
# Poissons Ratio (z) = 0.27535 0.10985
#
# Static dielectric constant tensor:
#      x y z
#    x 1.962450 0.000000 0.000000 
#    y 0.000000 1.968660 0.000000 
#    z 0.000000 0.000000 2.410860 
# 
# From -- ./inp_files/22534.got.cif
#   From: 2010.05.17/outbox.cif.g08.bks.cpg/sg54_12_cif.got.tgz:22534.got - 2010.06.03 13:09:01.
