data_PCOD9422348
_publ_section_title
;
Structure prediction by ZEFSAII (Michael W. Deem and Ramdas Pophale) SiO2 
 PCOD9422348
Probable space group: P C C A
;
_chemical_formula_sum "Si O2"
_cell_formula_units_Z 32
_cell_length_a 7.810587
_cell_length_b 7.590880
_cell_length_c 19.144551
_cell_angle_alpha 90.000000
_cell_angle_beta 90.000000
_cell_angle_gamma 90.000000
_cell_volume 1135.065662
_symmetry_space_group_name_H-M "P C C A"
_symmetry_group_IT_number 54
_symmetry_cell_setting 'orthorhombic'
loop_
_space_group_symop_operation_xyz
x,y,z
1/2-x,-y,z
1/2+x,-y,1/2-z
-x,y,1/2-z
-x,-y,-z
1/2+x,y,-z
1/2-x,y,1/2+z
x,-y,1/2+z
loop_
_atom_site_type_symbol
_atom_site_label
_atom_site_fract_x
_atom_site_fract_y
_atom_site_fract_z
Si Si1 0.015775 0.829550 0.108325
Si Si2 0.234124 0.784860 0.233778
Si Si3 0.172650 0.308980 0.021945
Si Si4 0.557345 0.236900 0.639614
O O1 0.073104 0.748593 0.183263
O O2 0.192077 0.816090 0.062619
O O3 0.958070 0.027732 0.125108
O O4 0.876600 0.752254 0.055222
O O5 0.278606 0.724552 0.312331
O O6 0.394960 0.717364 0.188695
O O7 0.250000 0.000000 0.235688
O O8 0.250000 0.500000 0.025880
O O9 0.995277 0.319045 0.066216
#
# Coordination Sequence:
#
# PCOD9422348 Si02
#       4
#     8   8   8   8
#     4  10  21  38  62  93 131 178 230 290 353 417
#     4   8  16  33  58  89 123 167 227 291 340 393
#     4  11  22  37  59  96 142 182 222 284 359 432
#     4   9  18  34  60  90 126 173 227 287 345 408
#
# _framework density 28.192202000000002
#
# number of rings (size 3 to 8) (size 9 to 14) (size 15 to 20)
#    0.000    2.500    0.000    3.750    0.000    2.000 
#    0.000    0.000    0.000   48.000    0.000    7.000 
#    0.000    8.000    0.000    2.250    0.000    0.000 
#
# Total GULP energy -179241.300492 kJ/mol
# GULP energy per Si atom -5601.290640 kJ/mol
# Density = 2.812803 g / cm^3
# Si number density = 28.192202 Si / 1000 Ang^3
#
#
#
# Elastic Constant Matrix: (Units=GPa)
#
#
# Indices 1 2 3 4 5 6 
#
# 1 205.5381 40.1965 88.8801 0.0000 0.0000 0.0000
# 2 40.1965 90.7646 44.5258 0.0000 0.0000 0.0000
# 3 88.8801 44.5258 303.3634 0.0000 0.0000 0.0000
# 4 0.0000 0.0000 0.0000 -103.5883 0.0000 0.0000
# 5 0.0000 0.0000 0.0000 0.0000 76.6968 0.0000
# 6 0.0000 0.0000 0.0000 0.0000 0.0000 27.8657
#
#
#
# Elastic Compliance Matrix: (Units=1/GPa)
#
#
# Indices 1 2 3 4 5 6 
#
# 1 0.005857 -0.001888 -0.001439 0.000000 0.000000 0.000000
# 2 -0.001888 0.012481 -0.001279 0.000000 0.000000 0.000000
# 3 -0.001439 -0.001279 0.003906 0.000000 0.000000 0.000000
# 4 0.000000 0.000000 0.000000 -0.009654 0.000000 0.000000
# 5 0.000000 0.000000 0.000000 0.000000 0.013038 0.000000
# 6 0.000000 0.000000 0.000000 0.000000 0.000000 0.035886
#
#
# Mechanical properties :
#
#
# Convention : Reuss Voigt Hill
#
# Bulk Modulus (GPa) = 76.73250 105.20785 90.97018
# Shear Modulus (GPa) = 66.60505 28.59908 47.60207
#
# Velocity S-wave (km/s) = 4.86586 3.18847 4.11357
# Velocity P-wave (km/s) = 7.67109 7.13822 7.40945
#
# Compressibility (1/GPa) = 0.01303229
#
# Stress axis : x y z
#
# Youngs Moduli (GPa) = 170.74564 80.12240 256.04200
#
# Poissons Ratio (x) = 0.15126 0.36840
# Poissons Ratio (y) = 0.32235 0.32741
# Poissons Ratio (z) = 0.24567 0.10246
#
# Static dielectric constant tensor:
#      x y z
#    x 2.340980 0.000000 0.000000 
#    y 0.000000 2.127720 0.000000 
#    z 0.000000 0.000000 2.179550 
# 
# From -- ./inp_files/20019.got.cif
#   From: 2010.05.17/outbox.cif.g08.bks.cpg/sg54_11_cif.got.tgz:20019.got - 2010.06.03 13:09:01.
