data_PCOD9422851
_publ_section_title
;
Structure prediction by ZEFSAII (Michael W. Deem and Ramdas Pophale) SiO2 
 PCOD9422851
Probable space group: P C C A
;
_chemical_formula_sum "Si O2"
_cell_formula_units_Z 40
_cell_length_a 4.962424
_cell_length_b 28.942399
_cell_length_c 11.378459
_cell_angle_alpha 90.000000
_cell_angle_beta 90.000000
_cell_angle_gamma 90.000000
_cell_volume 1634.224977
_symmetry_space_group_name_H-M "P C C A"
_symmetry_group_IT_number 54
_symmetry_cell_setting 'orthorhombic'
loop_
_space_group_symop_operation_xyz
x,y,z
1/2-x,-y,z
1/2+x,-y,1/2-z
-x,y,1/2-z
-x,-y,-z
1/2+x,y,-z
1/2-x,y,1/2+z
x,-y,1/2+z
loop_
_atom_site_type_symbol
_atom_site_label
_atom_site_fract_x
_atom_site_fract_y
_atom_site_fract_z
Si Si1 0.750000 0.000000 0.913107
Si Si2 0.702149 0.101076 0.412152
Si Si3 0.075000 0.753633 0.573031
Si Si4 0.000000 0.424627 0.250000
Si Si5 0.500000 0.169602 0.750000
Si Si6 0.305165 0.652175 0.075933
Si Si7 0.250000 0.500000 0.911058
O O1 0.763209 0.049979 0.853977
O O2 0.500000 0.000000 0.000000
O O3 0.418752 0.105571 0.480049
O O4 0.777984 0.137227 0.311360
O O5 0.889919 0.758044 0.457244
O O6 0.940647 0.793570 0.648901
O O7 0.082620 0.701501 0.622773
O O8 0.859751 0.390710 0.341885
O O9 0.797925 0.456945 0.175962
O O10 0.491951 0.649944 0.958965
O O11 0.500000 0.500000 0.000000
#
# Coordination Sequence:
#
# PCOD9422851 Si02
#       7
#     4   8   8   4   4   8   4
#     4   8  16  36  58  76 110 152 192 250 308 354
#     4  10  22  39  59  86 119 158 206 257 310 374
#     4  10  23  42  63  94 133 168 210 266 325 389
#     4  12  25  46  72  98 134 184 227 278 342 400
#     4  12  23  38  64  94 126 168 209 258 324 394
#     4  10  23  43  68  97 129 170 223 274 324 394
#     4  12  28  46  66 100 140 178 226 282 342 410
#
# _framework density 24.476434000000001
#
# number of rings (size 3 to 8) (size 9 to 14) (size 15 to 20)
#    0.000    1.600    0.000    3.600    0.000    7.200 
#    0.000   12.000    0.000    0.000    0.000    0.000 
#    0.000    0.000    0.000    0.000    0.000    0.000 
#
# Total GULP energy -223346.293048 kJ/mol
# GULP energy per Si atom -5583.657326 kJ/mol
# Density = 2.442072 g / cm^3
# Si number density = 24.476434 Si / 1000 Ang^3
#
#
#
# Elastic Constant Matrix: (Units=GPa)
#
#
# Indices 1 2 3 4 5 6 
#
# 1 122.4007 15.4074 19.1482 0.0000 0.0000 0.0000
# 2 15.4074 198.6840 69.3538 0.0000 0.0000 0.0000
# 3 19.1482 69.3538 63.7880 0.0000 0.0000 0.0000
# 4 0.0000 0.0000 0.0000 57.6237 0.0000 0.0000
# 5 0.0000 0.0000 0.0000 0.0000 13.8101 0.0000
# 6 0.0000 0.0000 0.0000 0.0000 0.0000 22.3242
#
#
#
# Elastic Compliance Matrix: (Units=1/GPa)
#
#
# Indices 1 2 3 4 5 6 
#
# 1 0.008590 0.000377 -0.002989 0.000000 0.000000 0.000000
# 2 0.000377 0.008128 -0.008951 0.000000 0.000000 0.000000
# 3 -0.002989 -0.008951 0.026306 0.000000 0.000000 0.000000
# 4 0.000000 0.000000 0.000000 0.017354 0.000000 0.000000
# 5 0.000000 0.000000 0.000000 0.000000 0.072411 0.000000
# 6 0.000000 0.000000 0.000000 0.000000 0.000000 0.044794
#
#
# Mechanical properties :
#
#
# Convention : Reuss Voigt Hill
#
# Bulk Modulus (GPa) = 50.25228 65.85462 58.05345
# Shear Modulus (GPa) = 24.11492 37.48249 30.79870
#
# Velocity S-wave (km/s) = 3.14224 3.91752 3.55110
# Velocity P-wave (km/s) = 5.80865 6.88668 6.37051
#
# Compressibility (1/GPa) = 0.01989959
#
# Stress axis : x y z
#
# Youngs Moduli (GPa) = 116.41515 123.02780 38.01463
#
# Poissons Ratio (x) = -0.04639 0.11361
# Poissons Ratio (y) = -0.04390 0.34026
# Poissons Ratio (z) = 0.34791 1.10118
#
# Static dielectric constant tensor:
#      x y z
#    x 1.922180 0.000000 0.000000 
#    y 0.000000 1.998700 0.000000 
#    z 0.000000 0.000000 1.955540 
# 
# From -- ./inp_files/6477.got.cif
#   From: 2010.05.17/outbox.cif.g08.bks.cpg/sg54_4_cif.got.tgz:6477.got - 2010.06.03 13:09:01.
