data_PCOD9422813
_publ_section_title
;
Structure prediction by ZEFSAII (Michael W. Deem and Ramdas Pophale) SiO2 
 PCOD9422813
Probable space group: P C C A
;
_chemical_formula_sum "Si O2"
_cell_formula_units_Z 52
_cell_length_a 24.973589
_cell_length_b 12.413894
_cell_length_c 8.991823
_cell_angle_alpha 90.000000
_cell_angle_beta 90.000000
_cell_angle_gamma 90.000000
_cell_volume 2787.640350
_symmetry_space_group_name_H-M "P C C A"
_symmetry_group_IT_number 54
_symmetry_cell_setting 'orthorhombic'
loop_
_space_group_symop_operation_xyz
x,y,z
1/2-x,-y,z
1/2+x,-y,1/2-z
-x,y,1/2-z
-x,-y,-z
1/2+x,y,-z
1/2-x,y,1/2+z
x,-y,1/2+z
loop_
_atom_site_type_symbol
_atom_site_label
_atom_site_fract_x
_atom_site_fract_y
_atom_site_fract_z
Si Si1 0.959555 0.462939 0.867238
Si Si2 0.916639 0.358090 0.134537
Si Si3 0.942280 0.043002 0.450266
Si Si4 0.629547 0.052664 0.222823
Si Si5 0.000000 0.206702 0.250000
Si Si6 0.824666 0.812658 0.679080
Si Si7 0.267937 0.875467 0.619760
O O1 0.931617 0.554800 0.764000
O O2 0.000000 0.404692 0.750000
O O3 0.914918 0.404124 0.966934
O O4 0.000000 0.500000 0.000000
O O5 0.968072 0.279454 0.135003
O O6 0.865392 0.286397 0.174760
O O7 0.905916 0.087221 0.583237
O O8 0.956950 0.134075 0.332610
O O9 0.908403 0.950910 0.367285
O O10 0.000000 0.000000 0.500000
O O11 0.683891 0.114705 0.260060
O O12 0.645884 0.928359 0.193675
O O13 0.782328 0.813051 0.813274
O O14 0.791467 0.822223 0.526806
O O15 0.250000 0.000000 0.588091
#
# Coordination Sequence:
#
# PCOD9422813 Si02
#       7
#     8   8   8   8   4   8   8
#     4   9  18  38  65  86 119 147 181 238 313 385
#     4  11  21  40  63  91 116 154 190 249 314 367
#     4  12  21  35  52  84 131 174 196 237 289 348
#     4  11  21  36  56  81 124 172 204 237 292 337
#     4  12  22  34  58  84 130 160 198 234 288 362
#     4  11  22  38  60  85 114 154 215 253 284 350
#     4  10  22  38  60  85 117 165 210 251 286 327
#
# _framework density 18.653767999999999
#
# number of rings (size 3 to 8) (size 9 to 14) (size 15 to 20)
#    0.000    1.231    6.923    1.385    2.154    0.000 
#    2.769    3.077    0.000    2.769    0.000    0.000 
#    0.000    0.000    0.000    0.000    0.000    0.000 
#
# Total GULP energy -289906.781475 kJ/mol
# GULP energy per Si atom -5575.130413 kJ/mol
# Density = 1.861131 g / cm^3
# Si number density = 18.653768 Si / 1000 Ang^3
#
#
#
# Elastic Constant Matrix: (Units=GPa)
#
#
# Indices 1 2 3 4 5 6 
#
# 1 101.1629 29.6442 32.4724 0.0000 0.0000 0.0000
# 2 29.6442 38.8881 13.6280 0.0000 0.0000 0.0000
# 3 32.4724 13.6280 87.1415 0.0000 0.0000 0.0000
# 4 0.0000 0.0000 0.0000 3.4908 0.0000 0.0000
# 5 0.0000 0.0000 0.0000 0.0000 47.3878 0.0000
# 6 0.0000 0.0000 0.0000 0.0000 0.0000 33.9865
#
#
#
# Elastic Compliance Matrix: (Units=1/GPa)
#
#
# Indices 1 2 3 4 5 6 
#
# 1 0.013766 -0.009200 -0.003691 0.000000 0.000000 0.000000
# 2 -0.009200 0.033355 -0.001788 0.000000 0.000000 0.000000
# 3 -0.003691 -0.001788 0.013131 0.000000 0.000000 0.000000
# 4 0.000000 0.000000 0.000000 0.286466 0.000000 0.000000
# 5 0.000000 0.000000 0.000000 0.000000 0.021102 0.000000
# 6 0.000000 0.000000 0.000000 0.000000 0.000000 0.029423
#
#
# Mechanical properties :
#
#
# Convention : Reuss Voigt Hill
#
# Bulk Modulus (GPa) = 32.36979 42.07576 37.22278
# Shear Modulus (GPa) = 11.44430 27.06954 19.25692
#
# Velocity S-wave (km/s) = 2.47960 3.81354 3.21648
# Velocity P-wave (km/s) = 5.05851 6.48042 5.81311
#
# Compressibility (1/GPa) = 0.03089300
#
# Stress axis : x y z
#
# Youngs Moduli (GPa) = 72.64408 29.98081 76.15814
#
# Poissons Ratio (x) = 0.27583 0.28109
# Poissons Ratio (y) = 0.66834 0.13617
# Poissons Ratio (z) = 0.26812 0.05361
#
# Static dielectric constant tensor:
#      x y z
#    x 1.749180 0.000000 0.000000 
#    y 0.000000 1.700640 0.000000 
#    z 0.000000 0.000000 1.794450 
# 
# From -- ./inp_files/5547.got.cif
#   From: 2010.05.17/outbox.cif.g08.bks.cpg/sg54_3_cif.got.tgz:5547.got - 2010.06.03 13:09:01.
