data_PCOD9422867
_publ_section_title
;
Structure prediction by ZEFSAII (Michael W. Deem and Ramdas Pophale) SiO2 
 PCOD9422867
Probable space group: P C C A
;
_chemical_formula_sum "Si O2"
_cell_formula_units_Z 48
_cell_length_a 9.826354
_cell_length_b 11.457676
_cell_length_c 23.026539
_cell_angle_alpha 90.000000
_cell_angle_beta 90.000000
_cell_angle_gamma 90.000000
_cell_volume 2592.493100
_symmetry_space_group_name_H-M "P C C A"
_symmetry_group_IT_number 54
_symmetry_cell_setting 'orthorhombic'
loop_
_space_group_symop_operation_xyz
x,y,z
1/2-x,-y,z
1/2+x,-y,1/2-z
-x,y,1/2-z
-x,-y,-z
1/2+x,y,-z
1/2-x,y,1/2+z
x,-y,1/2+z
loop_
_atom_site_type_symbol
_atom_site_label
_atom_site_fract_x
_atom_site_fract_y
_atom_site_fract_z
Si Si1 0.526020 0.755956 0.580611
Si Si2 0.340588 0.383661 0.746164
Si Si3 0.210325 0.634676 0.872567
Si Si4 0.914801 0.991247 0.559864
Si Si5 0.516433 0.740754 0.442502
Si Si6 0.258704 0.358898 0.121606
O O1 0.672303 0.703282 0.594664
O O2 0.497825 0.740708 0.511734
O O3 0.412070 0.686183 0.615868
O O4 0.535550 0.894058 0.593992
O O5 0.250000 0.500000 0.745325
O O6 0.500000 0.413003 0.750000
O O7 0.306570 0.319958 0.806570
O O8 0.304580 0.326902 0.684487
O O9 0.250000 0.500000 0.868969
O O10 0.073384 0.645347 0.909485
O O11 0.960781 0.864433 0.581985
O O12 0.750000 0.000000 0.551895
O O13 0.000000 0.000000 0.500000
O O14 0.670680 0.710223 0.426299
O O15 0.250000 0.500000 0.113774
#
# Coordination Sequence:
#
# PCOD9422867 Si02
#       6
#     8   8   8   8   8   8
#     4  11  24  37  60  91 122 159 199 244 304 358
#     4  10  22  39  61  84 116 162 209 243 287 357
#     4  11  22  37  61  87 121 160 196 244 306 352
#     4  10  22  39  61  86 118 162 212 244 286 357
#     4  11  22  39  61  87 126 158 197 247 299 357
#     4  11  24  39  60  91 125 157 202 245 298 365
#
# _framework density 18.514996
#
# number of rings (size 3 to 8) (size 9 to 14) (size 15 to 20)
#    0.000    1.333    3.333    2.000   14.000    4.000 
#    0.000    0.000    0.000    6.000    0.000    0.000 
#    0.000    0.000    0.000    0.000    0.000    0.000 
#
# Total GULP energy -267640.767949 kJ/mol
# GULP energy per Si atom -5575.849332 kJ/mol
# Density = 1.847286 g / cm^3
# Si number density = 18.514996 Si / 1000 Ang^3
#
#
#
# Elastic Constant Matrix: (Units=GPa)
#
#
# Indices 1 2 3 4 5 6 
#
# 1 61.7733 0.0703 5.5137 0.0000 0.0000 0.0000
# 2 0.0703 69.5589 8.6007 0.0000 0.0000 0.0000
# 3 5.5137 8.6007 77.8573 0.0000 0.0000 0.0000
# 4 0.0000 0.0000 0.0000 -6.6589 0.0000 0.0000
# 5 0.0000 0.0000 0.0000 0.0000 29.1529 0.0000
# 6 0.0000 0.0000 0.0000 0.0000 0.0000 29.5386
#
#
#
# Elastic Compliance Matrix: (Units=1/GPa)
#
#
# Indices 1 2 3 4 5 6 
#
# 1 0.016292 0.000128 -0.001168 0.000000 0.000000 0.000000
# 2 0.000128 0.014576 -0.001619 0.000000 0.000000 0.000000
# 3 -0.001168 -0.001619 0.013106 0.000000 0.000000 0.000000
# 4 0.000000 0.000000 0.000000 -0.150176 0.000000 0.000000
# 5 0.000000 0.000000 0.000000 0.000000 0.034302 0.000000
# 6 0.000000 0.000000 0.000000 0.000000 0.000000 0.033854
#
#
# Mechanical properties :
#
#
# Convention : Reuss Voigt Hill
#
# Bulk Modulus (GPa) = 25.86935 26.39544 26.13239
# Shear Modulus (GPa) = -251.99660 23.40684 -114.29488
#
# Velocity S-wave (km/s) = -11.67902 3.55943 -7.86543
# Velocity P-wave (km/s) = 12.95622 5.58390 8.26691
#
# Compressibility (1/GPa) = 0.03865579
#
# Stress axis : x y z
#
# Youngs Moduli (GPa) = 61.37856 68.60410 76.30330
#
# Poissons Ratio (x) = -0.00878 0.08912
# Poissons Ratio (y) = -0.00785 0.12356
# Poissons Ratio (z) = 0.07169 0.11109
#
# Static dielectric constant tensor:
#      x y z
#    x 1.626420 0.000000 0.000000 
#    y 0.000000 1.672820 0.000000 
#    z 0.000000 0.000000 1.664930 
# 
# From -- ./inp_files/23454.got.cif
#   From: 2010.05.17/outbox.cif.g08.bks.cpg/sg54_12_cif.got.tgz:23454.got - 2010.06.03 13:09:01.
