data_PCOD9422303
_publ_section_title
;
Structure prediction by ZEFSAII (Michael W. Deem and Ramdas Pophale) SiO2 
 PCOD9422303
Probable space group: P C C A
;
_chemical_formula_sum "Si O2"
_cell_formula_units_Z 44
_cell_length_a 15.637505
_cell_length_b 8.654598
_cell_length_c 15.804989
_cell_angle_alpha 90.000000
_cell_angle_beta 90.000000
_cell_angle_gamma 90.000000
_cell_volume 2138.989041
_symmetry_space_group_name_H-M "P C C A"
_symmetry_group_IT_number 54
_symmetry_cell_setting 'orthorhombic'
loop_
_space_group_symop_operation_xyz
x,y,z
1/2-x,-y,z
1/2+x,-y,1/2-z
-x,y,1/2-z
-x,-y,-z
1/2+x,y,-z
1/2-x,y,1/2+z
x,-y,1/2+z
loop_
_atom_site_type_symbol
_atom_site_label
_atom_site_fract_x
_atom_site_fract_y
_atom_site_fract_z
Si Si1 0.093853 0.658862 0.772400
Si Si2 0.217577 0.330687 0.111687
Si Si3 0.500000 0.366104 0.250000
Si Si4 0.846840 0.929253 0.998375
Si Si5 0.887825 0.134465 0.846090
Si Si6 0.849948 0.964705 0.674627
O O1 0.154928 0.654292 0.691476
O O2 0.070131 0.481435 0.792156
O O3 0.134333 0.781597 0.836151
O O4 0.000000 0.724187 0.750000
O O5 0.250000 0.500000 0.087001
O O6 0.167227 0.241306 0.038001
O O7 0.297333 0.223811 0.141018
O O8 0.456376 0.263498 0.178304
O O9 0.750000 0.000000 0.001967
O O10 0.897509 0.030297 0.929265
O O11 0.883246 0.946378 0.092234
O O12 0.885629 0.023942 0.763859
O O13 0.750000 0.000000 0.681261
#
# Coordination Sequence:
#
# PCOD9422303 Si02
#       6
#     8   8   4   8   8   8
#     4  10  21  38  58  89 122 163 205 250 317 364
#     4  11  18  38  64  86 125 165 199 252 320 368
#     4  10  24  36  60  90 122 168 202 258 320 368
#     4   9  21  36  60  97 119 158 211 257 302 370
#     4  11  20  38  61  90 120 159 210 254 311 369
#     4  11  20  38  66  91 119 158 214 257 300 374
#
# _framework density 20.570466
#
# number of rings (size 3 to 8) (size 9 to 14) (size 15 to 20)
#    0.545    1.091    5.455    0.545    1.273    0.000 
#    0.000   10.909    0.000    0.000    0.000    0.000 
#    0.000    0.000    0.000    0.000    0.000    0.000 
#
# Total GULP energy -245380.317389 kJ/mol
# GULP energy per Si atom -5576.825395 kJ/mol
# Density = 2.052365 g / cm^3
# Si number density = 20.570466 Si / 1000 Ang^3
#
#
#
# Elastic Constant Matrix: (Units=GPa)
#
#
# Indices 1 2 3 4 5 6 
#
# 1 35.6080 7.2482 -18.5445 0.0000 0.0000 0.0000
# 2 7.2482 113.7494 18.5690 0.0000 0.0000 0.0000
# 3 -18.5445 18.5690 73.3879 0.0000 0.0000 0.0000
# 4 0.0000 0.0000 0.0000 -0.0585 0.0000 0.0000
# 5 0.0000 0.0000 0.0000 0.0000 -6.2994 0.0000
# 6 0.0000 0.0000 0.0000 0.0000 0.0000 27.1119
#
#
#
# Elastic Compliance Matrix: (Units=1/GPa)
#
#
# Indices 1 2 3 4 5 6 
#
# 1 0.033767 -0.003697 0.009468 0.000000 0.000000 0.000000
# 2 -0.003697 0.009575 -0.003357 0.000000 0.000000 0.000000
# 3 0.009468 -0.003357 0.016868 0.000000 0.000000 0.000000
# 4 0.000000 0.000000 0.000000-17.100652 0.000000 0.000000
# 5 0.000000 0.000000 0.000000 0.000000 -0.158745 0.000000
# 6 0.000000 0.000000 0.000000 0.000000 0.000000 0.036884
#
#
# Mechanical properties :
#
#
# Convention : Reuss Voigt Hill
#
# Bulk Modulus (GPa) = 15.37561 26.36563 20.87062
# Shear Modulus (GPa) = -0.29162 18.51565 9.11201
#
# Velocity S-wave (km/s) = -0.37693 3.00344 2.10696
# Velocity P-wave (km/s) = 2.70211 4.98724 4.01086
#
# Compressibility (1/GPa) = 0.06503806
#
# Stress axis : x y z
#
# Youngs Moduli (GPa) = 29.61454 104.44027 59.28333
#
# Poissons Ratio (x) = 0.38615 -0.56131
# Poissons Ratio (y) = 0.10949 0.19901
# Poissons Ratio (z) = -0.28040 0.35060
#
# Static dielectric constant tensor:
#      x y z
#    x 1.769690 0.000000 0.000000 
#    y 0.000000 1.762690 0.000000 
#    z 0.000000 0.000000 1.723160 
# 
# From -- ./inp_files/14024.got.cif
#   From: 2010.05.17/outbox.cif.g08.bks.cpg/sg54_8_cif.got.tgz:14024.got - 2010.06.03 13:09:01.
