data_PCOD9422994
_publ_section_title
;
Structure prediction by ZEFSAII (Michael W. Deem and Ramdas Pophale) SiO2 
 PCOD9422994
Probable space group: P C C A
;
_chemical_formula_sum "Si O2"
_cell_formula_units_Z 32
_cell_length_a 8.141772
_cell_length_b 11.830953
_cell_length_c 15.502400
_cell_angle_alpha 90.000000
_cell_angle_beta 90.000000
_cell_angle_gamma 90.000000
_cell_volume 1493.267469
_symmetry_space_group_name_H-M "P C C A"
_symmetry_group_IT_number 54
_symmetry_cell_setting 'orthorhombic'
loop_
_space_group_symop_operation_xyz
x,y,z
1/2-x,-y,z
1/2+x,-y,1/2-z
-x,y,1/2-z
-x,-y,-z
1/2+x,y,-z
1/2-x,y,1/2+z
x,-y,1/2+z
loop_
_atom_site_type_symbol
_atom_site_label
_atom_site_fract_x
_atom_site_fract_y
_atom_site_fract_z
Si Si1 0.523978 0.186274 0.601364
Si Si2 0.250000 0.500000 0.136802
Si Si3 0.845899 0.263920 0.917415
Si Si4 0.750000 0.000000 0.174888
Si Si5 0.000000 0.829344 0.250000
Si Si6 0.500000 0.644383 0.250000
O O1 0.326452 0.198835 0.599986
O O2 0.582155 0.223147 0.507278
O O3 0.577650 0.272950 0.677556
O O4 0.609435 0.066623 0.621668
O O5 0.180287 0.601500 0.079550
O O6 0.376371 0.564490 0.198854
O O7 0.962581 0.240769 0.835835
O O8 0.845570 0.909316 0.231533
#
# Coordination Sequence:
#
# PCOD9422994 Si02
#       6
#     8   4   8   4   4   4
#     4  11  25  42  64  96 130 167 217 261 311 383
#     4  10  22  40  66  92 128 172 204 260 322 364
#     4  11  25  43  65  97 129 166 216 262 314 383
#     4  12  24  42  68  92 130 174 206 264 322 366
#     4  12  24  42  68  96 128 168 214 260 318 382
#     4  10  22  42  64  94 128 164 214 260 312 382
#
# _framework density 21.429517000000001
#
# number of rings (size 3 to 8) (size 9 to 14) (size 15 to 20)
#    0.000    1.000    0.000    7.500    0.000   12.000 
#    0.000    0.000    0.000    0.000    0.000    0.000 
#    0.000    0.000    0.000    0.000    0.000    0.000 
#
# Total GULP energy -178951.677243 kJ/mol
# GULP energy per Si atom -5592.239914 kJ/mol
# Density = 2.138074 g / cm^3
# Si number density = 21.429517 Si / 1000 Ang^3
#
#
#
# Elastic Constant Matrix: (Units=GPa)
#
#
# Indices 1 2 3 4 5 6 
#
# 1 70.2899 28.0583 17.0220 0.0000 0.0000 0.0000
# 2 28.0583 105.3127 48.9267 0.0000 0.0000 0.0000
# 3 17.0220 48.9267 130.8868 0.0000 0.0000 0.0000
# 4 0.0000 0.0000 0.0000 19.2142 0.0000 0.0000
# 5 0.0000 0.0000 0.0000 0.0000 19.1529 0.0000
# 6 0.0000 0.0000 0.0000 0.0000 0.0000 31.5437
#
#
#
# Elastic Compliance Matrix: (Units=1/GPa)
#
#
# Indices 1 2 3 4 5 6 
#
# 1 0.015957 -0.003978 -0.000588 0.000000 0.000000 0.000000
# 2 -0.003978 0.012483 -0.004149 0.000000 0.000000 0.000000
# 3 -0.000588 -0.004149 0.009268 0.000000 0.000000 0.000000
# 4 0.000000 0.000000 0.000000 0.052045 0.000000 0.000000
# 5 0.000000 0.000000 0.000000 0.000000 0.052211 0.000000
# 6 0.000000 0.000000 0.000000 0.000000 0.000000 0.031702
#
#
# Mechanical properties :
#
#
# Convention : Reuss Voigt Hill
#
# Bulk Modulus (GPa) = 49.31631 54.94481 52.13056
# Shear Modulus (GPa) = 25.27097 28.14767 26.70932
#
# Velocity S-wave (km/s) = 3.43776 3.62816 3.53424
# Velocity P-wave (km/s) = 6.23064 6.57623 6.40576
#
# Compressibility (1/GPa) = 0.02027727
#
# Stress axis : x y z
#
# Youngs Moduli (GPa) = 62.66742 80.10935 107.90324
#
# Poissons Ratio (x) = 0.31869 0.06346
# Poissons Ratio (y) = 0.24930 0.44768
# Poissons Ratio (z) = 0.03686 0.33236
#
# Static dielectric constant tensor:
#      x y z
#    x 1.823950 0.000000 0.000000 
#    y 0.000000 1.776370 0.000000 
#    z 0.000000 0.000000 1.749460 
# 
# From -- ./inp_files/11292.got.cif
#   From: 2010.05.17/outbox.cif.g08.bks.cpg/sg54_6_cif.got.tgz:11292.got - 2010.06.03 13:09:01.
