data_PCOD9422455
_publ_section_title
;
Structure prediction by ZEFSAII (Michael W. Deem and Ramdas Pophale) SiO2 
 PCOD9422455
Probable space group: P C C A
;
_chemical_formula_sum "Si O2"
_cell_formula_units_Z 48
_cell_length_a 14.739402
_cell_length_b 15.913624
_cell_length_c 7.905025
_cell_angle_alpha 90.000000
_cell_angle_beta 90.000000
_cell_angle_gamma 90.000000
_cell_volume 1854.181332
_symmetry_space_group_name_H-M "P C C A"
_symmetry_group_IT_number 54
_symmetry_cell_setting 'orthorhombic'
loop_
_space_group_symop_operation_xyz
x,y,z
1/2-x,-y,z
1/2+x,-y,1/2-z
-x,y,1/2-z
-x,-y,-z
1/2+x,y,-z
1/2-x,y,1/2+z
x,-y,1/2+z
loop_
_atom_site_type_symbol
_atom_site_label
_atom_site_fract_x
_atom_site_fract_y
_atom_site_fract_z
Si Si1 0.602909 0.143093 0.771097
Si Si2 0.343621 0.306609 0.582434
Si Si3 0.349797 0.756484 0.704362
Si Si4 0.568937 0.606622 0.901258
Si Si5 0.156256 0.525844 0.794254
Si Si6 0.276711 0.096006 0.401978
O O1 0.500000 0.108374 0.750000
O O2 0.593914 0.240208 0.821108
O O3 0.675149 0.137393 0.615350
O O4 0.662426 0.102726 0.927212
O O5 0.243831 0.270964 0.620112
O O6 0.359214 0.291716 0.384880
O O7 0.349068 0.398265 0.658735
O O8 0.422661 0.707773 0.588474
O O9 0.338184 0.852984 0.764359
O O10 0.500000 0.589127 0.750000
O O11 0.651465 0.559632 0.811536
O O12 0.576285 0.558228 0.078537
O O13 0.250000 0.500000 0.887832
O O14 0.250000 0.000000 0.369005
#
# Coordination Sequence:
#
# PCOD9422455 Si02
#       6
#     8   8   8   8   8   8
#     4  10  23  43  70 105 143 188 241 292 361 433
#     4  10  21  39  65  91 128 173 227 282 338 409
#     4  10  21  40  63  93 128 175 226 277 346 416
#     4  12  26  41  60  94 135 177 232 286 342 409
#     4  12  24  40  65  91 128 180 229 277 338 412
#     4  10  22  44  71 102 145 185 235 298 364 437
#
# _framework density 25.887436999999998
#
# number of rings (size 3 to 8) (size 9 to 14) (size 15 to 20)
#    0.000    1.333    1.667    3.500    0.000    5.333 
#    0.000    1.667    0.000    0.000    0.000    0.000 
#    0.000    0.000    0.000    0.000    0.000    0.000 
#
# Total GULP energy -267227.466957 kJ/mol
# GULP energy per Si atom -5567.238895 kJ/mol
# Density = 2.582852 g / cm^3
# Si number density = 25.887437 Si / 1000 Ang^3
#
#
#
# Elastic Constant Matrix: (Units=GPa)
#
#
# Indices 1 2 3 4 5 6 
#
# 1 107.2094 19.3553 43.6848 0.0000 0.0000 0.0000
# 2 19.3553 181.7406 35.8934 0.0000 0.0000 0.0000
# 3 43.6848 35.8934 99.5070 0.0000 0.0000 0.0000
# 4 0.0000 0.0000 0.0000 20.8145 0.0000 0.0000
# 5 0.0000 0.0000 0.0000 0.0000 31.1171 0.0000
# 6 0.0000 0.0000 0.0000 0.0000 0.0000 10.4628
#
#
#
# Elastic Compliance Matrix: (Units=1/GPa)
#
#
# Indices 1 2 3 4 5 6 
#
# 1 0.011370 -0.000242 -0.004904 0.000000 0.000000 0.000000
# 2 -0.000242 0.005930 -0.002032 0.000000 0.000000 0.000000
# 3 -0.004904 -0.002032 0.012936 0.000000 0.000000 0.000000
# 4 0.000000 0.000000 0.000000 0.048043 0.000000 0.000000
# 5 0.000000 0.000000 0.000000 0.000000 0.032137 0.000000
# 6 0.000000 0.000000 0.000000 0.000000 0.000000 0.095576
#
#
# Mechanical properties :
#
#
# Convention : Reuss Voigt Hill
#
# Bulk Modulus (GPa) = 62.98362 65.14710 64.06536
# Shear Modulus (GPa) = 22.15910 31.78045 26.96977
#
# Velocity S-wave (km/s) = 2.92889 3.50757 3.23121
# Velocity P-wave (km/s) = 5.98502 6.45168 6.22273
#
# Compressibility (1/GPa) = 0.01587714
#
# Stress axis : x y z
#
# Youngs Moduli (GPa) = 87.95450 168.64635 77.30612
#
# Poissons Ratio (x) = 0.04087 0.37911
# Poissons Ratio (y) = 0.02131 0.15712
# Poissons Ratio (z) = 0.43132 0.34277
#
# Static dielectric constant tensor:
#      x y z
#    x 2.343520 0.000000 0.000000 
#    y 0.000000 2.058510 0.000000 
#    z 0.000000 0.000000 2.112900 
# 
# From -- ./inp_files/3594.got.cif
#   From: 2010.05.17/outbox.cif.g08.bks.cpg/sg54_2_cif.got.tgz:3594.got - 2010.06.03 13:09:01.
