data_PCOD9422734
_publ_section_title
;
Structure prediction by ZEFSAII (Michael W. Deem and Ramdas Pophale) SiO2 
 PCOD9422734
Probable space group: P C C A
;
_chemical_formula_sum "Si O2"
_cell_formula_units_Z 32
_cell_length_a 7.786351
_cell_length_b 5.314151
_cell_length_c 32.065888
_cell_angle_alpha 90.000000
_cell_angle_beta 90.000000
_cell_angle_gamma 90.000000
_cell_volume 1326.817342
_symmetry_space_group_name_H-M "P C C A"
_symmetry_group_IT_number 54
_symmetry_cell_setting 'orthorhombic'
loop_
_space_group_symop_operation_xyz
x,y,z
1/2-x,-y,z
1/2+x,-y,1/2-z
-x,y,1/2-z
-x,-y,-z
1/2+x,y,-z
1/2-x,y,1/2+z
x,-y,1/2+z
loop_
_atom_site_type_symbol
_atom_site_label
_atom_site_fract_x
_atom_site_fract_y
_atom_site_fract_z
Si Si1 0.086041 0.312829 0.081551
Si Si2 0.500000 0.871586 0.750000
Si Si3 0.937469 0.867523 0.664878
Si Si4 0.250000 0.000000 0.013503
Si Si5 0.750000 0.500000 0.213918
Si Si6 0.750000 0.500000 0.043015
O O1 0.250000 0.500000 0.082252
O O2 0.106007 0.097464 0.046065
O O3 0.050318 0.165578 0.124271
O O4 0.920783 0.484390 0.070745
O O5 0.328633 0.711294 0.757308
O O6 0.482739 0.007080 0.705750
O O7 0.896426 0.592186 0.682950
O O8 0.750000 0.000000 0.656318
O O9 0.264003 0.250408 0.985492
#
# Coordination Sequence:
#
# PCOD9422734 Si02
#       6
#     8   4   8   4   4   4
#     4  12  29  50  82 123 159 211 272 337 406 490
#     4  10  22  46  76 106 144 210 254 318 396 486
#     4  10  24  49  75 109 157 204 259 325 408 471
#     4  12  28  54  82 126 158 222 270 334 418 484
#     4  10  21  46  73 100 148 202 256 311 404 465
#     4  12  29  54  89 110 178 212 268 341 410 495
#
# _framework density 24.117861000000001
#
# number of rings (size 3 to 8) (size 9 to 14) (size 15 to 20)
#    0.000    1.000    1.250    3.000    5.250    4.000 
#   29.250    0.000    0.000    0.000    0.000    0.000 
#    0.000    0.000    0.000    0.000    0.000    0.000 
#
# Total GULP energy -178878.789619 kJ/mol
# GULP energy per Si atom -5589.962176 kJ/mol
# Density = 2.406297 g / cm^3
# Si number density = 24.117861 Si / 1000 Ang^3
#
#
#
# Elastic Constant Matrix: (Units=GPa)
#
#
# Indices 1 2 3 4 5 6 
#
# 1 130.9472 38.8228 73.1260 0.0000 0.0000 0.0000
# 2 38.8228 122.7078 66.2948 0.0000 0.0000 0.0000
# 3 73.1260 66.2948 175.1354 0.0000 0.0000 0.0000
# 4 0.0000 0.0000 0.0000 -70.2588 0.0000 0.0000
# 5 0.0000 0.0000 0.0000 0.0000 46.9244 0.0000
# 6 0.0000 0.0000 0.0000 0.0000 0.0000 31.1775
#
#
#
# Elastic Compliance Matrix: (Units=1/GPa)
#
#
# Indices 1 2 3 4 5 6 
#
# 1 0.010087 -0.001151 -0.003776 0.000000 0.000000 0.000000
# 2 -0.001151 0.010376 -0.003447 0.000000 0.000000 0.000000
# 3 -0.003776 -0.003447 0.008591 0.000000 0.000000 0.000000
# 4 0.000000 0.000000 0.000000 -0.014233 0.000000 0.000000
# 5 0.000000 0.000000 0.000000 0.000000 0.021311 0.000000
# 6 0.000000 0.000000 0.000000 0.000000 0.000000 0.032074
#
#
# Mechanical properties :
#
#
# Convention : Reuss Voigt Hill
#
# Bulk Modulus (GPa) = 81.26318 87.25307 84.25813
# Shear Modulus (GPa) = 56.14467 18.27175 37.20821
#
# Velocity S-wave (km/s) = 4.83010 2.75544 3.93207
# Velocity P-wave (km/s) = 8.05443 6.81026 7.45833
#
# Compressibility (1/GPa) = 0.01230570
#
# Stress axis : x y z
#
# Youngs Moduli (GPa) = 99.14237 96.37661 116.39871
#
# Poissons Ratio (x) = 0.11096 0.43949
# Poissons Ratio (y) = 0.11415 0.40122
# Poissons Ratio (z) = 0.37433 0.33220
#
# Static dielectric constant tensor:
#      x y z
#    x 2.019840 0.000000 0.000000 
#    y 0.000000 2.023440 0.000000 
#    z 0.000000 0.000000 1.930110 
# 
# From -- ./inp_files/27467.got.cif
#   From: 2010.05.17/outbox.cif.g08.bks.cpg/sg54_14_cif.got.tgz:27467.got - 2010.06.03 13:09:01.
