data_PCOD9422021
_publ_section_title
;
Structure prediction by ZEFSAII (Michael W. Deem and Ramdas Pophale) SiO2 
 PCOD9422021
Probable space group: P C C A
;
_chemical_formula_sum "Si O2"
_cell_formula_units_Z 40
_cell_length_a 10.015546
_cell_length_b 9.215826
_cell_length_c 23.131836
_cell_angle_alpha 90.000000
_cell_angle_beta 90.000000
_cell_angle_gamma 90.000000
_cell_volume 2135.103837
_symmetry_space_group_name_H-M "P C C A"
_symmetry_group_IT_number 54
_symmetry_cell_setting 'orthorhombic'
loop_
_space_group_symop_operation_xyz
x,y,z
1/2-x,-y,z
1/2+x,-y,1/2-z
-x,y,1/2-z
-x,-y,-z
1/2+x,y,-z
1/2-x,y,1/2+z
x,-y,1/2+z
loop_
_atom_site_type_symbol
_atom_site_label
_atom_site_fract_x
_atom_site_fract_y
_atom_site_fract_z
Si Si1 0.158543 0.857677 0.254868
Si Si2 0.246649 0.670492 0.863078
Si Si3 0.493382 0.320149 0.441615
Si Si4 0.220463 0.171481 0.626586
Si Si5 0.027602 0.659670 0.576924
O O1 0.194226 0.758414 0.309457
O O2 0.199001 0.787348 0.193600
O O3 0.000000 0.890221 0.250000
O O4 0.250000 0.000000 0.260934
O O5 0.250000 0.500000 0.848843
O O6 0.343152 0.693627 0.918079
O O7 0.096306 0.705041 0.882564
O O8 0.587803 0.208752 0.408761
O O9 0.500148 0.301094 0.510183
O O10 0.538425 0.484120 0.424602
O O11 0.340323 0.263052 0.599299
O O12 0.250000 0.000000 0.624344
#
# Coordination Sequence:
#
# PCOD9422021 Si02
#       5
#     8   8   8   8   8
#     4  11  25  44  64  86 123 166 203 251 308 366
#     4  10  22  39  63  93 120 156 205 255 302 354
#     4  10  20  42  63  90 126 158 201 248 304 365
#     4  11  24  39  60  91 122 161 207 248 302 360
#     4  10  22  38  66  92 121 163 197 248 310 363
#
# _framework density 18.734449999999999
#
# number of rings (size 3 to 8) (size 9 to 14) (size 15 to 20)
#    0.000    1.600    2.000    1.800    5.600    5.600 
#    0.000    2.000    0.000    0.000    0.000    0.000 
#    0.000    0.000    0.000    0.000    0.000    0.000 
#
# Total GULP energy -223409.781745 kJ/mol
# GULP energy per Si atom -5585.244544 kJ/mol
# Density = 1.869181 g / cm^3
# Si number density = 18.734450 Si / 1000 Ang^3
#
#
#
# Elastic Constant Matrix: (Units=GPa)
#
#
# Indices 1 2 3 4 5 6 
#
# 1 100.8132 32.2409 22.3595 0.0000 0.0000 0.0000
# 2 32.2409 23.8405 33.4272 0.0000 0.0000 0.0000
# 3 22.3595 33.4272 97.1819 0.0000 0.0000 0.0000
# 4 0.0000 0.0000 0.0000 21.4551 0.0000 0.0000
# 5 0.0000 0.0000 0.0000 0.0000 7.1622 0.0000
# 6 0.0000 0.0000 0.0000 0.0000 0.0000 28.8989
#
#
#
# Elastic Compliance Matrix: (Units=1/GPa)
#
#
# Indices 1 2 3 4 5 6 
#
# 1 0.021350 -0.042466 0.009695 0.000000 0.000000 0.000000
# 2 -0.042466 0.165485 -0.047151 0.000000 0.000000 0.000000
# 3 0.009695 -0.047151 0.024278 0.000000 0.000000 0.000000
# 4 0.000000 0.000000 0.000000 0.046609 0.000000 0.000000
# 5 0.000000 0.000000 0.000000 0.000000 0.139622 0.000000
# 6 0.000000 0.000000 0.000000 0.000000 0.000000 0.034603
#
#
# Mechanical properties :
#
#
# Convention : Reuss Voigt Hill
#
# Bulk Modulus (GPa) = 19.50499 44.21009 31.85754
# Shear Modulus (GPa) = 8.21179 20.42377 14.31778
#
# Velocity S-wave (km/s) = 2.09589 3.30536 2.76750
# Velocity P-wave (km/s) = 4.03620 6.18197 5.22052
#
# Compressibility (1/GPa) = 0.05126892
#
# Stress axis : x y z
#
# Youngs Moduli (GPa) = 46.83818 6.04284 41.19007
#
# Poissons Ratio (x) = 0.25661 -0.39932
# Poissons Ratio (y) = 1.98903 1.94214
# Poissons Ratio (z) = -0.45408 0.28492
#
# Static dielectric constant tensor:
#      x y z
#    x 1.628780 0.000000 0.000000 
#    y 0.000000 1.631800 0.000000 
#    z 0.000000 0.000000 1.624450 
# 
# From -- ./inp_files/23204.got.cif
#   From: 2010.05.17/outbox.cif.g08.bks.cpg/sg54_12_cif.got.tgz:23204.got - 2010.06.03 13:09:01.
