data_PCOD9422840
_publ_section_title
;
Structure prediction by ZEFSAII (Michael W. Deem and Ramdas Pophale) SiO2 
 PCOD9422840
Probable space group: P C C A
;
_chemical_formula_sum "Si O2"
_cell_formula_units_Z 32
_cell_length_a 10.585121
_cell_length_b 5.775982
_cell_length_c 24.622814
_cell_angle_alpha 90.000000
_cell_angle_beta 90.000000
_cell_angle_gamma 90.000000
_cell_volume 1505.425758
_symmetry_space_group_name_H-M "P C C A"
_symmetry_group_IT_number 54
_symmetry_cell_setting 'orthorhombic'
loop_
_space_group_symop_operation_xyz
x,y,z
1/2-x,-y,z
1/2+x,-y,1/2-z
-x,y,1/2-z
-x,-y,-z
1/2+x,y,-z
1/2-x,y,1/2+z
x,-y,1/2+z
loop_
_atom_site_type_symbol
_atom_site_label
_atom_site_fract_x
_atom_site_fract_y
_atom_site_fract_z
Si Si1 0.750000 0.500000 0.843429
Si Si2 0.250000 0.000000 0.006407
Si Si3 0.077731 0.133273 0.598688
Si Si4 0.208283 0.250189 0.903077
Si Si5 0.614371 0.877458 0.290859
O O1 0.682568 0.683092 0.882215
O O2 0.852072 0.612400 0.803172
O O3 0.370487 0.004461 0.045714
O O4 0.260570 0.213397 0.964410
O O5 0.942170 0.245854 0.591649
O O6 0.070783 0.967529 0.650440
O O7 0.250000 0.500000 0.880309
O O8 0.250000 0.000000 0.876313
O O9 0.500000 0.914556 0.250000
O O10 0.750000 0.000000 0.277057
#
# Coordination Sequence:
#
# PCOD9422840 Si02
#       5
#     4   4   8   8   8
#     4  10  22  38  72  92 126 170 224 268 350 396
#     4  10  22  40  68  94 128 186 220 276 330 398
#     4  11  22  43  65  93 132 175 219 278 334 404
#     4  10  26  40  63 101 137 179 223 276 331 391
#     4  10  23  44  67  95 129 171 221 282 342 414
#
# _framework density 21.256443999999998
#
# number of rings (size 3 to 8) (size 9 to 14) (size 15 to 20)
#    0.750    1.000    3.750    0.750    5.250    6.000 
#    0.000    0.000    0.000    0.000    0.000    0.000 
#    0.000    0.000    0.000    0.000    0.000    0.000 
#
# Total GULP energy -178289.456034 kJ/mol
# GULP energy per Si atom -5571.545501 kJ/mol
# Density = 2.120806 g / cm^3
# Si number density = 21.256444 Si / 1000 Ang^3
#
#
#
# Elastic Constant Matrix: (Units=GPa)
#
#
# Indices 1 2 3 4 5 6 
#
# 1 79.1084 -0.8080 11.9589 0.0000 0.0000 0.0000
# 2 -0.8080 82.6588 -0.6467 0.0000 0.0000 0.0000
# 3 11.9589 -0.6467 45.9189 0.0000 0.0000 0.0000
# 4 0.0000 0.0000 0.0000 -1.1754 0.0000 0.0000
# 5 0.0000 0.0000 0.0000 0.0000 3.1087 0.0000
# 6 0.0000 0.0000 0.0000 0.0000 0.0000 17.5873
#
#
#
# Elastic Compliance Matrix: (Units=1/GPa)
#
#
# Indices 1 2 3 4 5 6 
#
# 1 0.013160 0.000102 -0.003426 0.000000 0.000000 0.000000
# 2 0.000102 0.012100 0.000144 0.000000 0.000000 0.000000
# 3 -0.003426 0.000144 0.022672 0.000000 0.000000 0.000000
# 4 0.000000 0.000000 0.000000 -0.850759 0.000000 0.000000
# 5 0.000000 0.000000 0.000000 0.000000 0.321682 0.000000
# 6 0.000000 0.000000 0.000000 0.000000 0.000000 0.056859
#
#
# Mechanical properties :
#
#
# Convention : Reuss Voigt Hill
#
# Bulk Modulus (GPa) = 24.05502 25.41051 24.73276
# Shear Modulus (GPa) = -12.37411 17.04956 2.33773
#
# Velocity S-wave (km/s) = -2.41536 2.83519 1.04984
# Velocity P-wave (km/s) = 1.88746 4.76424 3.62357
#
# Compressibility (1/GPa) = 0.04157137
#
# Stress axis : x y z
#
# Youngs Moduli (GPa) = 75.98897 82.64432 44.10775
#
# Poissons Ratio (x) = -0.00842 0.15111
# Poissons Ratio (y) = -0.00774 -0.00635
# Poissons Ratio (z) = 0.26033 -0.01189
#
# Static dielectric constant tensor:
#      x y z
#    x 1.788480 0.000000 0.000000 
#    y 0.000000 1.847250 0.000000 
#    z 0.000000 0.000000 1.749050 
# 
# From -- ./inp_files/27521.got.cif
#   From: 2010.05.17/outbox.cif.g08.bks.cpg/sg54_14_cif.got.tgz:27521.got - 2010.06.03 13:09:01.
