data_PCOD9422053
_publ_section_title
;
Structure prediction by ZEFSAII (Michael W. Deem and Ramdas Pophale) SiO2 
 PCOD9422053
Probable space group: P C C A
;
_chemical_formula_sum "Si O2"
_cell_formula_units_Z 56
_cell_length_a 11.827334
_cell_length_b 13.021592
_cell_length_c 15.411541
_cell_angle_alpha 90.000000
_cell_angle_beta 90.000000
_cell_angle_gamma 90.000000
_cell_volume 2373.542492
_symmetry_space_group_name_H-M "P C C A"
_symmetry_group_IT_number 54
_symmetry_cell_setting 'orthorhombic'
loop_
_space_group_symop_operation_xyz
x,y,z
1/2-x,-y,z
1/2+x,-y,1/2-z
-x,y,1/2-z
-x,-y,-z
1/2+x,y,-z
1/2-x,y,1/2+z
x,-y,1/2+z
loop_
_atom_site_type_symbol
_atom_site_label
_atom_site_fract_x
_atom_site_fract_y
_atom_site_fract_z
Si Si1 0.250000 0.000000 0.045294
Si Si2 0.420618 0.884474 0.922158
Si Si3 0.081535 0.756172 0.983572
Si Si4 0.000000 0.872053 0.250000
Si Si5 0.277563 0.682482 0.881455
Si Si6 0.794843 0.206951 0.853394
Si Si7 0.132174 0.363470 0.219043
Si Si8 0.594168 0.420526 0.966322
O O1 0.223223 0.905387 0.108310
O O2 0.335626 0.947229 0.978614
O O3 0.524913 0.860484 0.985494
O O4 0.458501 0.935912 0.832743
O O5 0.374924 0.771391 0.889605
O O6 0.155094 0.724030 0.068226
O O7 0.170056 0.752272 0.907445
O O8 0.980494 0.682451 0.959068
O O9 0.896429 0.803931 0.285656
O O10 0.226400 0.623209 0.796925
O O11 0.315733 0.602672 0.956990
O O12 0.680764 0.254863 0.816875
O O13 0.136538 0.436299 0.132692
O O14 0.000000 0.364564 0.250000
O O15 0.500000 0.500000 0.000000
#
# Coordination Sequence:
#
# PCOD9422053 Si02
#       8
#     4   8   8   4   8   8   8   8
#     4  12  24  40  66  96 146 188 248 300 384 436
#     4  10  22  40  66  96 133 191 242 301 370 437
#     4  10  20  42  72  94 135 192 234 286 370 444
#     4  10  22  40  62  90 138 172 254 302 354 426
#     4  11  21  44  75 100 141 195 241 288 373 450
#     4  11  23  44  66 101 139 195 243 298 371 442
#     4  12  24  45  76 108 143 191 250 293 366 459
#     4  11  25  46  72 110 148 183 232 309 376 434
#
# _framework density 23.593427999999999
#
# number of rings (size 3 to 8) (size 9 to 14) (size 15 to 20)
#    0.000    1.143    5.714    0.857    0.000    3.429 
#    1.286    2.857    0.000    0.000    0.000    0.000 
#    0.000    0.000    0.000    0.000    0.000    0.000 
#
# Total GULP energy -311908.761553 kJ/mol
# GULP energy per Si atom -5569.799313 kJ/mol
# Density = 2.353973 g / cm^3
# Si number density = 23.593428 Si / 1000 Ang^3
#
#
#
# Elastic Constant Matrix: (Units=GPa)
#
#
# Indices 1 2 3 4 5 6 
#
# 1 95.2690 45.3168 48.5384 0.0000 0.0000 0.0000
# 2 45.3168 56.5788 49.8220 0.0000 0.0000 0.0000
# 3 48.5384 49.8220 151.4214 0.0000 0.0000 0.0000
# 4 0.0000 0.0000 0.0000 7.5681 0.0000 0.0000
# 5 0.0000 0.0000 0.0000 0.0000 57.1912 0.0000
# 6 0.0000 0.0000 0.0000 0.0000 0.0000 -28.8004
#
#
#
# Elastic Compliance Matrix: (Units=1/GPa)
#
#
# Indices 1 2 3 4 5 6 
#
# 1 0.017159 -0.012530 -0.001377 0.000000 0.000000 0.000000
# 2 -0.012530 0.034035 -0.007182 0.000000 0.000000 0.000000
# 3 -0.001377 -0.007182 0.009409 0.000000 0.000000 0.000000
# 4 0.000000 0.000000 0.000000 0.132134 0.000000 0.000000
# 5 0.000000 0.000000 0.000000 0.000000 0.017485 0.000000
# 6 0.000000 0.000000 0.000000 0.000000 0.000000 -0.034722
#
#
# Mechanical properties :
#
#
# Convention : Reuss Voigt Hill
#
# Bulk Modulus (GPa) = 54.27995 65.62484 59.95239
# Shear Modulus (GPa) = 22.33938 17.83123 20.08531
#
# Velocity S-wave (km/s) = 3.08043 2.75211 2.92089
# Velocity P-wave (km/s) = 5.97565 6.16231 6.06970
#
# Compressibility (1/GPa) = 0.01842301
#
# Stress axis : x y z
#
# Youngs Moduli (GPa) = 58.27937 29.38165 106.28539
#
# Poissons Ratio (x) = 0.36816 0.14640
# Poissons Ratio (y) = 0.73026 0.76332
# Poissons Ratio (z) = 0.08027 0.21101
#
# Static dielectric constant tensor:
#      x y z
#    x 1.962220 0.000000 0.000000 
#    y 0.000000 1.919410 0.000000 
#    z 0.000000 0.000000 2.003460 
# 
# From -- ./inp_files/12748.got.cif
#   From: 2010.05.17/outbox.cif.g08.bks.cpg/sg54_7_cif.got.tgz:12748.got - 2010.06.03 13:09:01.
