data_PCOD9422847
_publ_section_title
;
Structure prediction by ZEFSAII (Michael W. Deem and Ramdas Pophale) SiO2 
 PCOD9422847
Probable space group: P C C A
;
_chemical_formula_sum "Si O2"
_cell_formula_units_Z 40
_cell_length_a 8.582153
_cell_length_b 14.848749
_cell_length_c 13.776316
_cell_angle_alpha 90.000000
_cell_angle_beta 90.000000
_cell_angle_gamma 90.000000
_cell_volume 1755.574301
_symmetry_space_group_name_H-M "P C C A"
_symmetry_group_IT_number 54
_symmetry_cell_setting 'orthorhombic'
loop_
_space_group_symop_operation_xyz
x,y,z
1/2-x,-y,z
1/2+x,-y,1/2-z
-x,y,1/2-z
-x,-y,-z
1/2+x,y,-z
1/2-x,y,1/2+z
x,-y,1/2+z
loop_
_atom_site_type_symbol
_atom_site_label
_atom_site_fract_x
_atom_site_fract_y
_atom_site_fract_z
Si Si1 0.158542 0.342982 0.301600
Si Si2 0.250000 0.000000 0.983452
Si Si3 0.145707 0.314845 0.974307
Si Si4 0.509512 0.075614 0.357175
Si Si5 0.658825 0.267140 0.364562
Si Si6 0.750000 0.500000 0.576795
O O1 0.229672 0.286869 0.391280
O O2 0.295439 0.332606 0.222688
O O3 0.142335 0.441571 0.350034
O O4 0.000000 0.315350 0.250000
O O5 0.341705 0.931453 0.910910
O O6 0.123804 0.961611 0.059154
O O7 0.172932 0.422075 0.986993
O O8 0.974396 0.306652 0.933204
O O9 0.186472 0.260295 0.069698
O O10 0.500000 0.029816 0.250000
O O11 0.588753 0.171994 0.334933
#
# Coordination Sequence:
#
# PCOD9422847 Si02
#       6
#     8   4   8   8   8   4
#     4  10  22  39  58  87 122 169 218 274 323 388
#     4  10  24  44  70 100 138 166 216 260 338 392
#     4  10  23  38  56  90 118 169 214 268 321 382
#     4  11  23  43  70 102 132 176 211 271 322 410
#     4  12  23  40  66  89 132 163 220 265 333 383
#     4   8  24  38  58  84 128 160 230 262 332 378
#
# _framework density 22.784565000000001
#
# number of rings (size 3 to 8) (size 9 to 14) (size 15 to 20)
#    1.200    0.400    0.000    4.800    2.800    1.600 
#    0.000    3.000    0.000    0.000    0.000    0.000 
#    0.000    0.000    0.000    0.000    0.000    0.000 
#
# Total GULP energy -222709.644166 kJ/mol
# GULP energy per Si atom -5567.741104 kJ/mol
# Density = 2.273271 g / cm^3
# Si number density = 22.784565 Si / 1000 Ang^3
#
#
#
# Elastic Constant Matrix: (Units=GPa)
#
#
# Indices 1 2 3 4 5 6 
#
# 1 96.6771 18.3148 46.4194 0.0000 0.0000 0.0000
# 2 18.3148 32.8586 10.1447 0.0000 0.0000 0.0000
# 3 46.4194 10.1447 140.0999 0.0000 0.0000 0.0000
# 4 0.0000 0.0000 0.0000 21.4221 0.0000 0.0000
# 5 0.0000 0.0000 0.0000 0.0000 53.7775 0.0000
# 6 0.0000 0.0000 0.0000 0.0000 0.0000 5.7549
#
#
#
# Elastic Compliance Matrix: (Units=1/GPa)
#
#
# Indices 1 2 3 4 5 6 
#
# 1 0.013452 -0.006262 -0.004004 0.000000 0.000000 0.000000
# 2 -0.006262 0.034044 -0.000390 0.000000 0.000000 0.000000
# 3 -0.004004 -0.000390 0.008493 0.000000 0.000000 0.000000
# 4 0.000000 0.000000 0.000000 0.046681 0.000000 0.000000
# 5 0.000000 0.000000 0.000000 0.000000 0.018595 0.000000
# 6 0.000000 0.000000 0.000000 0.000000 0.000000 0.173765
#
#
# Mechanical properties :
#
#
# Convention : Reuss Voigt Hill
#
# Bulk Modulus (GPa) = 28.83753 46.59927 37.71840
# Shear Modulus (GPa) = 15.24848 29.17469 22.21159
#
# Velocity S-wave (km/s) = 2.58979 3.58223 3.12565
# Velocity P-wave (km/s) = 4.65046 6.13240 5.44211
#
# Compressibility (1/GPa) = 0.03467703
#
# Stress axis : x y z
#
# Youngs Moduli (GPa) = 74.33612 29.37348 117.74958
#
# Poissons Ratio (x) = 0.18394 0.47144
# Poissons Ratio (y) = 0.46549 0.04597
# Poissons Ratio (z) = 0.29762 0.01147
#
# Static dielectric constant tensor:
#      x y z
#    x 1.914310 0.000000 0.000000 
#    y 0.000000 1.886440 0.000000 
#    z 0.000000 0.000000 1.886530 
# 
# From -- ./inp_files/11527.got.cif
#   From: 2010.05.17/outbox.cif.g08.bks.cpg/sg54_6_cif.got.tgz:11527.got - 2010.06.03 13:09:01.
