data_PCOD9422546
_publ_section_title
;
Structure prediction by ZEFSAII (Michael W. Deem and Ramdas Pophale) SiO2 
 PCOD9422546
Probable space group: P C C A
;
_chemical_formula_sum "Si O2"
_cell_formula_units_Z 48
_cell_length_a 24.646569
_cell_length_b 5.636146
_cell_length_c 16.203663
_cell_angle_alpha 90.000000
_cell_angle_beta 90.000000
_cell_angle_gamma 90.000000
_cell_volume 2250.877746
_symmetry_space_group_name_H-M "P C C A"
_symmetry_group_IT_number 54
_symmetry_cell_setting 'orthorhombic'
loop_
_space_group_symop_operation_xyz
x,y,z
1/2-x,-y,z
1/2+x,-y,1/2-z
-x,y,1/2-z
-x,-y,-z
1/2+x,y,-z
1/2-x,y,1/2+z
x,-y,1/2+z
loop_
_atom_site_type_symbol
_atom_site_label
_atom_site_fract_x
_atom_site_fract_y
_atom_site_fract_z
Si Si1 0.374222 0.006768 0.986672
Si Si2 0.191048 0.603654 0.025195
Si Si3 0.431720 0.863885 0.141044
Si Si4 0.466346 0.339274 0.936662
Si Si5 0.116178 0.376909 0.687800
Si Si6 0.628582 0.626004 0.631248
O O1 0.315981 0.119388 0.001753
O O2 0.421490 0.202425 0.989655
O O3 0.378146 0.895480 0.897247
O O4 0.392867 0.839798 0.060347
O O5 0.250000 0.500000 0.038447
O O6 0.165940 0.478360 0.942656
O O7 0.156774 0.599799 0.110297
O O8 0.493413 0.841159 0.109259
O O9 0.420715 0.615279 0.187601
O O10 0.415277 0.120174 0.180148
O O11 0.430097 0.501479 0.877115
O O12 0.500000 0.500000 0.000000
O O13 0.147175 0.385464 0.775234
#
# Coordination Sequence:
#
# PCOD9422546 Si02
#       6
#     8   8   8   8   8   8
#     4  10  21  40  67  95 139 180 225 292 345 408
#     4  10  23  46  74  97 130 178 235 289 369 423
#     4  11  22  43  63  97 140 185 230 277 340 407
#     4  11  21  38  66  99 134 193 239 278 337 415
#     4  11  26  44  67 101 143 180 228 297 344 417
#     4  11  24  42  66  99 141 180 232 292 353 408
#
# _framework density 21.325013999999999
#
# number of rings (size 3 to 8) (size 9 to 14) (size 15 to 20)
#    0.000    1.333    3.333    2.500    7.000    2.000 
#    0.000    0.000    3.667    0.000    0.000    0.000 
#    0.000    0.000    0.000    0.000    0.000    0.000 
#
# Total GULP energy -267444.044114 kJ/mol
# GULP energy per Si atom -5571.750919 kJ/mol
# Density = 2.127648 g / cm^3
# Si number density = 21.325014 Si / 1000 Ang^3
#
#
#
# Elastic Constant Matrix: (Units=GPa)
#
#
# Indices 1 2 3 4 5 6 
#
# 1 94.8407 46.7213 33.1885 0.0000 0.0000 0.0000
# 2 46.7213 101.9381 36.8284 0.0000 0.0000 0.0000
# 3 33.1885 36.8284 141.7711 0.0000 0.0000 0.0000
# 4 0.0000 0.0000 0.0000 16.6550 0.0000 0.0000
# 5 0.0000 0.0000 0.0000 0.0000 12.6601 0.0000
# 6 0.0000 0.0000 0.0000 0.0000 0.0000 32.8418
#
#
#
# Elastic Compliance Matrix: (Units=1/GPa)
#
#
# Indices 1 2 3 4 5 6 
#
# 1 0.014014 -0.005780 -0.001779 0.000000 0.000000 0.000000
# 2 -0.005780 0.013210 -0.002078 0.000000 0.000000 0.000000
# 3 -0.001779 -0.002078 0.008010 0.000000 0.000000 0.000000
# 4 0.000000 0.000000 0.000000 0.060042 0.000000 0.000000
# 5 0.000000 0.000000 0.000000 0.000000 0.078988 0.000000
# 6 0.000000 0.000000 0.000000 0.000000 0.000000 0.030449
#
#
# Mechanical properties :
#
#
# Convention : Reuss Voigt Hill
#
# Bulk Modulus (GPa) = 62.66277 63.55847 63.11062
# Shear Modulus (GPa) = 21.80463 27.21882 24.51173
#
# Velocity S-wave (km/s) = 3.20111 3.57652 3.39401
# Velocity P-wave (km/s) = 6.56591 6.85016 6.70954
#
# Compressibility (1/GPa) = 0.01595844
#
# Stress axis : x y z
#
# Youngs Moduli (GPa) = 71.35656 75.69979 124.84331
#
# Poissons Ratio (x) = 0.43757 0.22211
# Poissons Ratio (y) = 0.41246 0.25948
# Poissons Ratio (z) = 0.12695 0.15734
#
# Static dielectric constant tensor:
#      x y z
#    x 1.751900 0.000000 0.000000 
#    y 0.000000 1.950960 0.000000 
#    z 0.000000 0.000000 1.786970 
# 
# From -- ./inp_files/19065.got.cif
#   From: 2010.05.17/outbox.cif.g08.bks.cpg/sg54_10_cif.got.tgz:19065.got - 2010.06.03 13:09:01.
