data_PCOD9422349
_publ_section_title
;
Structure prediction by ZEFSAII (Michael W. Deem and Ramdas Pophale) SiO2 
 PCOD9422349
Probable space group: P C C A
;
_chemical_formula_sum "Si O2"
_cell_formula_units_Z 64
_cell_length_a 18.070204
_cell_length_b 11.083357
_cell_length_c 15.171710
_cell_angle_alpha 90.000000
_cell_angle_beta 90.000000
_cell_angle_gamma 90.000000
_cell_volume 3038.567655
_symmetry_space_group_name_H-M "P C C A"
_symmetry_group_IT_number 54
_symmetry_cell_setting 'orthorhombic'
loop_
_space_group_symop_operation_xyz
x,y,z
1/2-x,-y,z
1/2+x,-y,1/2-z
-x,y,1/2-z
-x,-y,-z
1/2+x,y,-z
1/2-x,y,1/2+z
x,-y,1/2+z
loop_
_atom_site_type_symbol
_atom_site_label
_atom_site_fract_x
_atom_site_fract_y
_atom_site_fract_z
Si Si1 0.940680 0.353361 0.574315
Si Si2 0.170204 0.936016 0.637276
Si Si3 0.287554 0.375640 0.025851
Si Si4 0.188171 0.664441 0.696408
Si Si5 0.216474 0.684912 0.360015
Si Si6 0.569753 0.925599 0.534306
Si Si7 0.832626 0.055071 0.694187
Si Si8 0.924939 0.498775 0.899048
O O1 0.858881 0.381110 0.611148
O O2 0.951008 0.209617 0.566131
O O3 0.944611 0.404125 0.474569
O O4 0.002964 0.424896 0.628120
O O5 0.170446 0.806657 0.687619
O O6 0.126769 0.917411 0.547186
O O7 0.250000 0.000000 0.619418
O O8 0.134925 0.024407 0.710129
O O9 0.250000 0.500000 0.993145
O O10 0.263916 0.285837 0.948437
O O11 0.246144 0.349552 0.116551
O O12 0.371213 0.402923 0.051162
O O13 0.227379 0.633804 0.788031
O O14 0.121657 0.572813 0.673280
O O15 0.183017 0.804398 0.316354
O O16 0.613436 0.985025 0.616040
O O17 0.500000 0.000000 0.500000
O O18 0.750000 0.000000 0.687802
#
# Coordination Sequence:
#
# PCOD9422349 Si02
#       8
#     8   8   8   8   8   8   8   8
#     4  10  21  42  67  95 134 178 224 280 345 408
#     4  11  21  41  65  99 135 171 228 289 334 406
#     4  10  21  38  62  95 126 169 224 280 331 401
#     4  11  20  39  69 100 130 177 223 284 343 407
#     4  11  20  39  70  96 131 171 229 282 343 407
#     4  11  24  40  68  94 136 187 224 272 354 415
#     4  10  21  40  63 100 127 171 226 285 335 409
#     4  10  21  42  68  92 135 173 222 286 343 405
#
# _framework density 21.062557000000002
#
# number of rings (size 3 to 8) (size 9 to 14) (size 15 to 20)
#    0.000    1.500    6.250    1.125    0.000    4.000 
#    0.000    0.625    2.750    0.000    0.000    0.000 
#    0.000    0.000    0.000    0.000    0.000    0.000 
#
# Total GULP energy -357048.327925 kJ/mol
# GULP energy per Si atom -5578.880124 kJ/mol
# Density = 2.101462 g / cm^3
# Si number density = 21.062557 Si / 1000 Ang^3
#
#
#
# Elastic Constant Matrix: (Units=GPa)
#
#
# Indices 1 2 3 4 5 6 
#
# 1 94.9385 15.3773 23.8994 0.0000 0.0000 0.0000
# 2 15.3773 40.3622 -0.6430 0.0000 0.0000 0.0000
# 3 23.8994 -0.6430 62.3253 0.0000 0.0000 0.0000
# 4 0.0000 0.0000 0.0000 28.1732 0.0000 0.0000
# 5 0.0000 0.0000 0.0000 0.0000 27.1522 0.0000
# 6 0.0000 0.0000 0.0000 0.0000 0.0000 33.8523
#
#
#
# Elastic Compliance Matrix: (Units=1/GPa)
#
#
# Indices 1 2 3 4 5 6 
#
# 1 0.012543 -0.004856 -0.004860 0.000000 0.000000 0.000000
# 2 -0.004856 0.026660 0.002137 0.000000 0.000000 0.000000
# 3 -0.004860 0.002137 0.017931 0.000000 0.000000 0.000000
# 4 0.000000 0.000000 0.000000 0.035495 0.000000 0.000000
# 5 0.000000 0.000000 0.000000 0.000000 0.036829 0.000000
# 6 0.000000 0.000000 0.000000 0.000000 0.000000 0.029540
#
#
# Mechanical properties :
#
#
# Convention : Reuss Voigt Hill
#
# Bulk Modulus (GPa) = 23.82332 30.54372 27.18352
# Shear Modulus (GPa) = 26.57493 28.43503 27.50498
#
# Velocity S-wave (km/s) = 3.55592 3.67826 3.61760
# Velocity P-wave (km/s) = 5.30987 5.70722 5.51212
#
# Compressibility (1/GPa) = 0.04197568
#
# Stress axis : x y z
#
# Youngs Moduli (GPa) = 79.72510 37.50965 55.77089
#
# Poissons Ratio (x) = 0.18215 0.27104
# Poissons Ratio (y) = 0.38716 -0.11919
# Poissons Ratio (z) = 0.38746 -0.08016
#
# Static dielectric constant tensor:
#      x y z
#    x 1.766600 0.000000 0.000000 
#    y 0.000000 1.820580 0.000000 
#    z 0.000000 0.000000 1.784470 
# 
# From -- ./inp_files/14327.got.cif
#   From: 2010.05.17/outbox.cif.g08.bks.cpg/sg54_8_cif.got.tgz:14327.got - 2010.06.03 13:09:01.
