data_PCOD9422472
_publ_section_title
;
Structure prediction by ZEFSAII (Michael W. Deem and Ramdas Pophale) SiO2 
 PCOD9422472
Probable space group: P C C A
;
_chemical_formula_sum "Si O2"
_cell_formula_units_Z 60
_cell_length_a 25.556958
_cell_length_b 5.540155
_cell_length_c 17.890669
_cell_angle_alpha 90.000000
_cell_angle_beta 90.000000
_cell_angle_gamma 90.000000
_cell_volume 2533.131033
_symmetry_space_group_name_H-M "P C C A"
_symmetry_group_IT_number 54
_symmetry_cell_setting 'orthorhombic'
loop_
_space_group_symop_operation_xyz
x,y,z
1/2-x,-y,z
1/2+x,-y,1/2-z
-x,y,1/2-z
-x,-y,-z
1/2+x,y,-z
1/2-x,y,1/2+z
x,-y,1/2+z
loop_
_atom_site_type_symbol
_atom_site_label
_atom_site_fract_x
_atom_site_fract_y
_atom_site_fract_z
Si Si1 0.335165 0.224560 0.496415
Si Si2 0.519407 0.823709 0.933801
Si Si3 0.660511 0.849115 0.114216
Si Si4 0.543122 0.187039 0.805868
Si Si5 0.624973 0.174078 0.238702
Si Si6 0.883431 0.556638 0.385451
Si Si7 0.750000 0.500000 0.591186
Si Si8 0.422221 0.535960 0.891019
O O1 0.346345 0.362115 0.573639
O O2 0.282352 0.325352 0.461892
O O3 0.384236 0.319004 0.447420
O O4 0.331539 0.946337 0.470624
O O5 0.580228 0.735697 0.936418
O O6 0.479365 0.600529 0.921399
O O7 0.516928 0.991501 0.860462
O O8 0.500000 0.000000 0.000000
O O9 0.704874 0.651451 0.132901
O O10 0.602915 0.729086 0.113004
O O11 0.663906 0.057964 0.177146
O O12 0.500000 0.282736 0.750000
O O13 0.570963 0.395757 0.850227
O O14 0.588775 0.044047 0.764576
O O15 0.642898 0.300758 0.315900
O O16 0.589097 0.355065 0.190619
#
# Coordination Sequence:
#
# PCOD9422472 Si02
#       8
#     8   8   8   8   8   8   4   8
#     4  10  23  43  66 102 135 177 228 294 359 429
#     4  11  25  42  62  97 139 193 246 290 340 414
#     4  10  22  42  74 106 137 176 239 302 367 428
#     4  11  23  39  64  96 142 197 240 283 340 415
#     4  10  22  41  64 100 139 187 233 288 347 416
#     4  11  26  40  65  99 145 190 239 288 358 414
#     4  10  22  44  78 102 130 180 230 298 374 444
#     4  10  21  39  66  95 135 184 229 288 347 410
#
# _framework density 23.686102000000002
#
# number of rings (size 3 to 8) (size 9 to 14) (size 15 to 20)
#    0.000    1.600    1.333    2.000    3.733   10.667 
#    2.400    0.667    0.000   19.200    0.000    1.867 
#    0.000    0.000    0.000    0.000    0.000    0.267 
#
# Total GULP energy -335088.053232 kJ/mol
# GULP energy per Si atom -5584.800887 kJ/mol
# Density = 2.363219 g / cm^3
# Si number density = 23.686102 Si / 1000 Ang^3
#
#
#
# Elastic Constant Matrix: (Units=GPa)
#
#
# Indices 1 2 3 4 5 6 
#
# 1 74.9972 29.6076 28.4329 0.0000 0.0000 0.0000
# 2 29.6076 93.4973 35.9398 0.0000 0.0000 0.0000
# 3 28.4329 35.9398 99.7851 0.0000 0.0000 0.0000
# 4 0.0000 0.0000 0.0000 50.2703 0.0000 0.0000
# 5 0.0000 0.0000 0.0000 0.0000 12.7755 0.0000
# 6 0.0000 0.0000 0.0000 0.0000 0.0000 41.9152
#
#
#
# Elastic Compliance Matrix: (Units=1/GPa)
#
#
# Indices 1 2 3 4 5 6 
#
# 1 0.016067 -0.003863 -0.003187 0.000000 0.000000 0.000000
# 2 -0.003863 0.013343 -0.003705 0.000000 0.000000 0.000000
# 3 -0.003187 -0.003705 0.012264 0.000000 0.000000 0.000000
# 4 0.000000 0.000000 0.000000 0.019892 0.000000 0.000000
# 5 0.000000 0.000000 0.000000 0.000000 0.078275 0.000000
# 6 0.000000 0.000000 0.000000 0.000000 0.000000 0.023858
#
#
# Mechanical properties :
#
#
# Convention : Reuss Voigt Hill
#
# Bulk Modulus (GPa) = 49.59230 50.69335 50.14282
# Shear Modulus (GPa) = 26.05117 32.61216 29.33167
#
# Velocity S-wave (km/s) = 3.32000 3.71462 3.52284
# Velocity P-wave (km/s) = 5.97321 6.31240 6.14515
#
# Compressibility (1/GPa) = 0.02016442
#
# Stress axis : x y z
#
# Youngs Moduli (GPa) = 62.23928 74.94594 81.53904
#
# Poissons Ratio (x) = 0.28951 0.25985
# Poissons Ratio (y) = 0.24042 0.30211
# Poissons Ratio (z) = 0.19835 0.27768
#
# Static dielectric constant tensor:
#      x y z
#    x 1.888430 0.000000 0.000000 
#    y 0.000000 2.051340 0.000000 
#    z 0.000000 0.000000 1.967100 
# 
# From -- ./inp_files/19251.got.cif
#   From: 2010.05.17/outbox.cif.g08.bks.cpg/sg54_10_cif.got.tgz:19251.got - 2010.06.03 13:09:01.
