data_PCOD9422041
_publ_section_title
;
Structure prediction by ZEFSAII (Michael W. Deem and Ramdas Pophale) SiO2 
 PCOD9422041
Probable space group: P C C A
;
_chemical_formula_sum "Si O2"
_cell_formula_units_Z 40
_cell_length_a 17.634724
_cell_length_b 7.958246
_cell_length_c 14.479704
_cell_angle_alpha 90.000000
_cell_angle_beta 90.000000
_cell_angle_gamma 90.000000
_cell_volume 2032.102970
_symmetry_space_group_name_H-M "P C C A"
_symmetry_group_IT_number 54
_symmetry_cell_setting 'orthorhombic'
loop_
_space_group_symop_operation_xyz
x,y,z
1/2-x,-y,z
1/2+x,-y,1/2-z
-x,y,1/2-z
-x,-y,-z
1/2+x,y,-z
1/2-x,y,1/2+z
x,-y,1/2+z
loop_
_atom_site_type_symbol
_atom_site_label
_atom_site_fract_x
_atom_site_fract_y
_atom_site_fract_z
Si Si1 0.750000 0.500000 0.688850
Si Si2 0.192199 0.842666 0.223368
Si Si3 0.000000 0.516625 0.250000
Si Si4 0.103454 0.659851 0.899393
Si Si5 0.429441 0.744016 0.597009
Si Si6 0.555256 0.019399 0.161950
O O1 0.771921 0.337867 0.751287
O O2 0.682663 0.427716 0.624879
O O3 0.148791 0.835609 0.124818
O O4 0.250000 0.000000 0.226373
O O5 0.125680 0.876772 0.297803
O O6 0.952522 0.412590 0.177251
O O7 0.946857 0.628662 0.314582
O O8 0.093894 0.859435 0.884874
O O9 0.079402 0.636138 0.005095
O O10 0.500487 0.872247 0.595763
O O11 0.500000 0.976108 0.250000
#
# Coordination Sequence:
#
# PCOD9422041 Si02
#       6
#     4   8   4   8   8   8
#     4  12  24  42  66  96 142 180 218 278 346 412
#     4  11  22  42  68  92 134 185 216 276 347 402
#     4  12  22  42  68  96 132 172 224 288 338 398
#     4  12  24  40  69 101 129 182 231 274 349 415
#     4  11  23  43  67  97 132 175 231 284 337 406
#     4  10  20  42  68  92 129 170 225 281 334 394
#
# _framework density 19.684042999999999
#
# number of rings (size 3 to 8) (size 9 to 14) (size 15 to 20)
#    0.000    0.800    8.000    1.200    0.000    0.800 
#    3.600    0.000    0.000    0.000    0.000    0.000 
#    0.000    0.000    0.000    0.000    0.000    0.000 
#
# Total GULP energy -223120.620164 kJ/mol
# GULP energy per Si atom -5578.015504 kJ/mol
# Density = 1.963924 g / cm^3
# Si number density = 19.684043 Si / 1000 Ang^3
#
#
#
# Elastic Constant Matrix: (Units=GPa)
#
#
# Indices 1 2 3 4 5 6 
#
# 1 131.8674 61.1239 54.7575 0.0000 0.0000 0.0000
# 2 61.1239 119.9281 41.2327 0.0000 0.0000 0.0000
# 3 54.7575 41.2327 110.0702 0.0000 0.0000 0.0000
# 4 0.0000 0.0000 0.0000 33.0016 0.0000 0.0000
# 5 0.0000 0.0000 0.0000 0.0000 4.2336 0.0000
# 6 0.0000 0.0000 0.0000 0.0000 0.0000 12.1089
#
#
#
# Elastic Compliance Matrix: (Units=1/GPa)
#
#
# Indices 1 2 3 4 5 6 
#
# 1 0.011256 -0.004375 -0.003961 0.000000 0.000000 0.000000
# 2 -0.004375 0.011272 -0.002046 0.000000 0.000000 0.000000
# 3 -0.003961 -0.002046 0.011822 0.000000 0.000000 0.000000
# 4 0.000000 0.000000 0.000000 0.030302 0.000000 0.000000
# 5 0.000000 0.000000 0.000000 0.000000 0.236204 0.000000
# 6 0.000000 0.000000 0.000000 0.000000 0.000000 0.082584
#
#
# Mechanical properties :
#
#
# Convention : Reuss Voigt Hill
#
# Bulk Modulus (GPa) = 73.60446 75.12154 74.36300
# Shear Modulus (GPa) = 12.23299 23.51894 17.87597
#
# Velocity S-wave (km/s) = 2.49563 3.46037 3.01681
# Velocity P-wave (km/s) = 6.76597 7.36289 7.07073
#
# Compressibility (1/GPa) = 0.01358613
#
# Stress axis : x y z
#
# Youngs Moduli (GPa) = 88.84123 88.71850 84.58912
#
# Poissons Ratio (x) = 0.38816 0.33503
# Poissons Ratio (y) = 0.38869 0.17306
# Poissons Ratio (z) = 0.35187 0.18150
#
# Static dielectric constant tensor:
#      x y z
#    x 1.724640 0.000000 0.000000 
#    y 0.000000 1.745200 0.000000 
#    z 0.000000 0.000000 1.703490 
# 
# From -- ./inp_files/13939.got.cif
#   From: 2010.05.17/outbox.cif.g08.bks.cpg/sg54_7_cif.got.tgz:13939.got - 2010.06.03 13:09:01.
