data_PCOD9422432
_publ_section_title
;
Structure prediction by ZEFSAII (Michael W. Deem and Ramdas Pophale) SiO2 
 PCOD9422432
Probable space group: P C C A
;
_chemical_formula_sum "Si O2"
_cell_formula_units_Z 48
_cell_length_a 30.013403
_cell_length_b 8.316190
_cell_length_c 8.666296
_cell_angle_alpha 90.000000
_cell_angle_beta 90.000000
_cell_angle_gamma 90.000000
_cell_volume 2163.082886
_symmetry_space_group_name_H-M "P C C A"
_symmetry_group_IT_number 54
_symmetry_cell_setting 'orthorhombic'
loop_
_space_group_symop_operation_xyz
x,y,z
1/2-x,-y,z
1/2+x,-y,1/2-z
-x,y,1/2-z
-x,-y,-z
1/2+x,y,-z
1/2-x,y,1/2+z
x,-y,1/2+z
loop_
_atom_site_type_symbol
_atom_site_label
_atom_site_fract_x
_atom_site_fract_y
_atom_site_fract_z
Si Si1 0.959176 0.212284 0.461861
Si Si2 0.905223 0.583203 0.157363
Si Si3 0.646651 0.645194 0.961494
Si Si4 0.500000 0.463485 0.750000
Si Si5 0.000000 0.027164 0.750000
Si Si6 0.276674 0.168391 0.887952
Si Si7 0.715785 0.630026 0.402786
O O1 0.913519 0.296351 0.513753
O O2 0.991655 0.350268 0.397630
O O3 0.979884 0.127518 0.610720
O O4 0.960982 0.082756 0.324568
O O5 0.875653 0.657885 0.293649
O O6 0.954478 0.557834 0.226673
O O7 0.888014 0.410390 0.094308
O O8 0.675198 0.480194 0.951912
O O9 0.679654 0.791959 0.006101
O O10 0.291527 0.229005 0.719744
O O11 0.250000 0.000000 0.886589
O O12 0.239854 0.291191 0.952539
O O13 0.750000 0.500000 0.332488
#
# Coordination Sequence:
#
# PCOD9422432 Si02
#       7
#     8   8   8   4   4   8   8
#     4  10  21  39  63  90 131 186 241 289 359 425
#     4  12  23  41  67 105 140 179 251 305 349 416
#     4  11  24  41  69 102 139 185 238 302 353 427
#     4  11  23  38  68 104 135 191 248 306 354 404
#     4   9  21  40  62  86 127 183 248 284 368 434
#     4  11  23  42  70 102 136 178 224 288 367 444
#     4  10  21  41  69  95 129 179 222 277 356 437
#
# _framework density 22.190552
#
# number of rings (size 3 to 8) (size 9 to 14) (size 15 to 20)
#    0.000    1.333    3.333    3.000    4.667    0.000 
#    0.000    1.667    0.000    0.000    0.000    0.000 
#    0.000    0.000    0.000    0.000    0.000    0.000 
#
# Total GULP energy -267851.362623 kJ/mol
# GULP energy per Si atom -5580.236721 kJ/mol
# Density = 2.214005 g / cm^3
# Si number density = 22.190552 Si / 1000 Ang^3
#
#
#
# Elastic Constant Matrix: (Units=GPa)
#
#
# Indices 1 2 3 4 5 6 
#
# 1 76.7492 23.3737 5.9695 0.0000 0.0000 0.0000
# 2 23.3737 101.1020 23.8741 0.0000 0.0000 0.0000
# 3 5.9695 23.8741 75.9923 0.0000 0.0000 0.0000
# 4 0.0000 0.0000 0.0000 43.3644 0.0000 0.0000
# 5 0.0000 0.0000 0.0000 0.0000 28.8158 0.0000
# 6 0.0000 0.0000 0.0000 0.0000 0.0000 31.7877
#
#
#
# Elastic Compliance Matrix: (Units=1/GPa)
#
#
# Indices 1 2 3 4 5 6 
#
# 1 0.014017 -0.003219 -0.000090 0.000000 0.000000 0.000000
# 2 -0.003219 0.011423 -0.003336 0.000000 0.000000 0.000000
# 3 -0.000090 -0.003336 0.014214 0.000000 0.000000 0.000000
# 4 0.000000 0.000000 0.000000 0.023060 0.000000 0.000000
# 5 0.000000 0.000000 0.000000 0.000000 0.034703 0.000000
# 6 0.000000 0.000000 0.000000 0.000000 0.000000 0.031459
#
#
# Mechanical properties :
#
#
# Convention : Reuss Voigt Hill
#
# Bulk Modulus (GPa) = 37.92989 40.03089 38.98039
# Shear Modulus (GPa) = 33.12263 34.16868 33.64565
#
# Velocity S-wave (km/s) = 3.86767 3.92827 3.89809
# Velocity P-wave (km/s) = 6.08893 6.21722 6.15341
#
# Compressibility (1/GPa) = 0.02636444
#
# Stress axis : x y z
#
# Youngs Moduli (GPa) = 71.34256 87.54272 70.35192
#
# Poissons Ratio (x) = 0.28183 0.00631
# Poissons Ratio (y) = 0.22968 0.23468
# Poissons Ratio (z) = 0.00640 0.29202
#
# Static dielectric constant tensor:
#      x y z
#    x 1.951540 0.000000 0.000000 
#    y 0.000000 1.865500 0.000000 
#    z 0.000000 0.000000 1.889260 
# 
# From -- ./inp_files/5866.got.cif
#   From: 2010.05.17/outbox.cif.g08.bks.cpg/sg54_3_cif.got.tgz:5866.got - 2010.06.03 13:09:01.
