data_PCOD9422948
_publ_section_title
;
Structure prediction by ZEFSAII (Michael W. Deem and Ramdas Pophale) SiO2 
 PCOD9422948
Probable space group: P C C A
;
_chemical_formula_sum "Si O2"
_cell_formula_units_Z 24
_cell_length_a 4.913376
_cell_length_b 17.173413
_cell_length_c 10.817104
_cell_angle_alpha 90.000000
_cell_angle_beta 90.000000
_cell_angle_gamma 90.000000
_cell_volume 912.741127
_symmetry_space_group_name_H-M "P C C A"
_symmetry_group_IT_number 54
_symmetry_cell_setting 'orthorhombic'
loop_
_space_group_symop_operation_xyz
x,y,z
1/2-x,-y,z
1/2+x,-y,1/2-z
-x,y,1/2-z
-x,-y,-z
1/2+x,y,-z
1/2-x,y,1/2+z
x,-y,1/2+z
loop_
_atom_site_type_symbol
_atom_site_label
_atom_site_fract_x
_atom_site_fract_y
_atom_site_fract_z
Si Si1 0.800545 0.167485 0.913296
Si Si2 0.750000 0.000000 0.907179
Si Si3 0.000000 0.707739 0.750000
Si Si4 0.193168 0.413584 0.917934
O O1 0.695355 0.237187 0.830586
O O2 0.755875 0.084263 0.844668
O O3 0.606447 0.170597 0.035320
O O4 0.500000 0.000000 0.000000
O O5 0.806008 0.653103 0.668514
O O6 0.250000 0.500000 0.866390
O O7 0.380676 0.408037 0.041669
#
# Coordination Sequence:
#
# PCOD9422948 Si02
#       4
#     8   4   4   8
#     4  10  22  40  62  93 130 168 212 262 315 377
#     4   8  16  36  60  82 122 168 202 250 312 368
#     4  12  24  40  70 100 128 166 218 270 322 376
#     4  10  24  44  64  91 129 169 211 261 320 386
#
# _framework density 26.294423999999999
#
# number of rings (size 3 to 8) (size 9 to 14) (size 15 to 20)
#    0.000    2.000    0.000    2.000    0.000    9.333 
#    0.000   10.000    0.000    0.000    0.000    0.000 
#    0.000    0.000    0.000    0.000    0.000    0.000 
#
# Total GULP energy -134653.832331 kJ/mol
# GULP energy per Si atom -5610.576347 kJ/mol
# Density = 2.623458 g / cm^3
# Si number density = 26.294424 Si / 1000 Ang^3
#
#
#
# Elastic Constant Matrix: (Units=GPa)
#
#
# Indices 1 2 3 4 5 6 
#
# 1 128.1191 4.6065 6.7609 0.0000 0.0000 0.0000
# 2 4.6065 246.7090 61.0538 0.0000 0.0000 0.0000
# 3 6.7609 61.0538 56.1283 0.0000 0.0000 0.0000
# 4 0.0000 0.0000 0.0000 377.3705 0.0000 0.0000
# 5 0.0000 0.0000 0.0000 0.0000 34.6330 0.0000
# 6 0.0000 0.0000 0.0000 0.0000 0.0000 38.4409
#
#
#
# Elastic Compliance Matrix: (Units=1/GPa)
#
#
# Indices 1 2 3 4 5 6 
#
# 1 0.007858 0.000120 -0.001077 0.000000 0.000000 0.000000
# 2 0.000120 0.005548 -0.006050 0.000000 0.000000 0.000000
# 3 -0.001077 -0.006050 0.024526 0.000000 0.000000 0.000000
# 4 0.000000 0.000000 0.000000 0.002650 0.000000 0.000000
# 5 0.000000 0.000000 0.000000 0.000000 0.028874 0.000000
# 6 0.000000 0.000000 0.000000 0.000000 0.000000 0.026014
#
#
# Mechanical properties :
#
#
# Convention : Reuss Voigt Hill
#
# Bulk Modulus (GPa) = 41.80724 63.97766 52.89245
# Shear Modulus (GPa) = 42.56891 113.99123 78.28007
#
# Velocity S-wave (km/s) = 4.02796 6.59136 5.46216
# Velocity P-wave (km/s) = 6.12918 9.07260 7.74206
#
# Compressibility (1/GPa) = 0.02391930
#
# Stress axis : x y z
#
# Youngs Moduli (GPa) = 127.26285 180.23821 40.77240
#
# Poissons Ratio (x) = -0.02158 0.04390
# Poissons Ratio (y) = -0.01524 0.24665
# Poissons Ratio (z) = 0.13703 1.09035
#
# Static dielectric constant tensor:
#      x y z
#    x 1.960770 0.000000 0.000000 
#    y 0.000000 2.087020 0.000000 
#    z 0.000000 0.000000 2.023310 
# 
# From -- ./inp_files/6192.got.cif
#   From: 2010.05.17/outbox.cif.g08.bks.cpg/sg54_4_cif.got.tgz:6192.got - 2010.06.03 13:09:01.
