data_PCOD9422741
_publ_section_title
;
Structure prediction by ZEFSAII (Michael W. Deem and Ramdas Pophale) SiO2 
 PCOD9422741
Probable space group: P C C A
;
_chemical_formula_sum "Si O2"
_cell_formula_units_Z 60
_cell_length_a 22.033116
_cell_length_b 14.227757
_cell_length_c 8.933680
_cell_angle_alpha 90.000000
_cell_angle_beta 90.000000
_cell_angle_gamma 90.000000
_cell_volume 2800.546269
_symmetry_space_group_name_H-M "P C C A"
_symmetry_group_IT_number 54
_symmetry_cell_setting 'orthorhombic'
loop_
_space_group_symop_operation_xyz
x,y,z
1/2-x,-y,z
1/2+x,-y,1/2-z
-x,y,1/2-z
-x,-y,-z
1/2+x,y,-z
1/2-x,y,1/2+z
x,-y,1/2+z
loop_
_atom_site_type_symbol
_atom_site_label
_atom_site_fract_x
_atom_site_fract_y
_atom_site_fract_z
Si Si1 0.250000 0.500000 0.367180
Si Si2 0.032736 0.584813 0.405969
Si Si3 0.822773 0.097452 0.290093
Si Si4 0.101215 0.728540 0.599407
Si Si5 0.170317 0.706736 0.072369
Si Si6 0.213136 0.684796 0.402112
Si Si7 0.688057 0.098699 0.435573
Si Si8 0.873565 0.571422 0.658617
O O1 0.219650 0.579985 0.464468
O O2 0.194340 0.451195 0.288286
O O3 0.046761 0.680883 0.498290
O O4 0.092897 0.527120 0.357134
O O5 0.000000 0.606550 0.250000
O O6 0.000000 0.500000 0.500000
O O7 0.877980 0.172539 0.319604
O O8 0.755842 0.119364 0.365273
O O9 0.836557 0.995795 0.360448
O O10 0.810856 0.084344 0.113699
O O11 0.156504 0.728619 0.481930
O O12 0.101785 0.648923 0.728120
O O13 0.222105 0.726635 0.945950
O O14 0.130256 0.624898 0.001641
O O15 0.201323 0.677941 0.226661
O O16 0.145740 0.810972 0.098704
#
# Coordination Sequence:
#
# PCOD9422741 Si02
#       8
#     4   8   8   8   8   8   8   8
#     4  10  22  34  54  90 130 170 208 258 332 404
#     4  12  27  48  69  93 129 178 235 288 335 396
#     4  11  23  37  59  90 133 183 219 268 323 407
#     4  12  24  42  61  92 129 172 228 280 330 400
#     4  11  22  35  56  88 129 173 213 260 323 395
#     4  11  22  33  56  84 131 174 219 260 317 402
#     4  11  21  37  56  89 134 178 218 258 328 401
#     4  11  24  41  61  95 133 172 219 273 340 406
#
# _framework density 21.424392000000001
#
# number of rings (size 3 to 8) (size 9 to 14) (size 15 to 20)
#    0.000    0.800    5.333    4.000    5.600    2.667 
#    0.000    0.000    0.000    0.000    0.000    4.667 
#    0.000    0.000    0.000    0.000    0.000    0.000 
#
# Total GULP energy -334051.572833 kJ/mol
# GULP energy per Si atom -5567.526214 kJ/mol
# Density = 2.137563 g / cm^3
# Si number density = 21.424392 Si / 1000 Ang^3
#
#
#
# Elastic Constant Matrix: (Units=GPa)
#
#
# Indices 1 2 3 4 5 6 
#
# 1 35.7496 0.2729 8.3359 0.0000 0.0000 0.0000
# 2 0.2729 99.2529 13.3806 0.0000 0.0000 0.0000
# 3 8.3359 13.3806 115.1987 0.0000 0.0000 0.0000
# 4 0.0000 0.0000 0.0000 33.9730 0.0000 0.0000
# 5 0.0000 0.0000 0.0000 0.0000 21.7434 0.0000
# 6 0.0000 0.0000 0.0000 0.0000 0.0000 26.0972
#
#
#
# Elastic Compliance Matrix: (Units=1/GPa)
#
#
# Indices 1 2 3 4 5 6 
#
# 1 0.028456 0.000203 -0.002083 0.000000 0.000000 0.000000
# 2 0.000203 0.010237 -0.001204 0.000000 0.000000 0.000000
# 3 -0.002083 -0.001204 0.008971 0.000000 0.000000 0.000000
# 4 0.000000 0.000000 0.000000 0.029435 0.000000 0.000000
# 5 0.000000 0.000000 0.000000 0.000000 0.045991 0.000000
# 6 0.000000 0.000000 0.000000 0.000000 0.000000 0.038318
#
#
# Mechanical properties :
#
#
# Convention : Reuss Voigt Hill
#
# Bulk Modulus (GPa) = 24.09819 32.68668 28.39244
# Shear Modulus (GPa) = 27.56204 31.57684 29.56944
#
# Velocity S-wave (km/s) = 3.59064 3.84327 3.71910
# Velocity P-wave (km/s) = 5.33505 5.91474 5.63236
#
# Compressibility (1/GPa) = 0.04149688
#
# Stress axis : x y z
#
# Youngs Moduli (GPa) = 35.14146 97.68497 111.46811
#
# Poissons Ratio (x) = -0.01978 0.23215
# Poissons Ratio (y) = -0.00712 0.13418
# Poissons Ratio (z) = 0.07319 0.11758
#
# Static dielectric constant tensor:
#      x y z
#    x 1.888710 0.000000 0.000000 
#    y 0.000000 1.861300 0.000000 
#    z 0.000000 0.000000 1.824840 
# 
# From -- ./inp_files/5282.got.cif
#   From: 2010.05.17/outbox.cif.g08.bks.cpg/sg54_3_cif.got.tgz:5282.got - 2010.06.03 13:09:01.
