data_PCOD9422411
_publ_section_title
;
Structure prediction by ZEFSAII (Michael W. Deem and Ramdas Pophale) SiO2 
 PCOD9422411
Probable space group: P C C A
;
_chemical_formula_sum "Si O2"
_cell_formula_units_Z 48
_cell_length_a 5.632963
_cell_length_b 14.574570
_cell_length_c 31.011340
_cell_angle_alpha 90.000000
_cell_angle_beta 90.000000
_cell_angle_gamma 90.000000
_cell_volume 2545.969412
_symmetry_space_group_name_H-M "P C C A"
_symmetry_group_IT_number 54
_symmetry_cell_setting 'orthorhombic'
loop_
_space_group_symop_operation_xyz
x,y,z
1/2-x,-y,z
1/2+x,-y,1/2-z
-x,y,1/2-z
-x,-y,-z
1/2+x,y,-z
1/2-x,y,1/2+z
x,-y,1/2+z
loop_
_atom_site_type_symbol
_atom_site_label
_atom_site_fract_x
_atom_site_fract_y
_atom_site_fract_z
Si Si1 0.500000 0.189176 0.750000
Si Si2 0.864594 0.744357 0.311716
Si Si3 0.412190 0.332957 0.525520
Si Si4 0.748042 0.892090 0.168419
Si Si5 0.121941 0.406979 0.857083
Si Si6 0.481471 0.253327 0.887761
Si Si7 0.750000 0.500000 0.421100
O O1 0.283022 0.249171 0.732120
O O2 0.420672 0.129344 0.790682
O O3 0.683609 0.736381 0.351760
O O4 0.011278 0.838440 0.318590
O O5 0.026074 0.655059 0.318046
O O6 0.661637 0.324804 0.499949
O O7 0.419184 0.259408 0.564381
O O8 0.399403 0.432338 0.548639
O O9 0.653456 0.838753 0.126386
O O10 0.750000 0.000000 0.161922
O O11 0.250000 0.500000 0.842859
O O12 0.301405 0.338403 0.881430
O O13 0.919032 0.439589 0.890387
#
# Coordination Sequence:
#
# PCOD9422411 Si02
#       7
#     4   8   8   8   8   8   4
#     4  10  22  36  62 102 124 156 196 266 334 382
#     4  10  21  39  61  92 127 166 207 258 323 391
#     4  12  25  38  61  96 137 172 224 283 338 383
#     4  10  23  39  67  97 127 158 202 264 332 404
#     4  11  19  35  62  89 126 178 223 256 310 383
#     4  10  22  39  59  91 125 177 212 256 321 394
#     4  12  22  36  58  94 130 170 216 274 324 390
#
# _framework density 18.853328999999999
#
# number of rings (size 3 to 8) (size 9 to 14) (size 15 to 20)
#    0.000    1.333    3.333    2.000    4.667    2.000 
#    0.000    0.000    0.000    1.000  294.667    0.000 
#    0.000    0.000    0.000    0.000    0.000    0.000 
#
# Total GULP energy -267947.743631 kJ/mol
# GULP energy per Si atom -5582.244659 kJ/mol
# Density = 1.881042 g / cm^3
# Si number density = 18.853329 Si / 1000 Ang^3
#
#
#
# Elastic Constant Matrix: (Units=GPa)
#
#
# Indices 1 2 3 4 5 6 
#
# 1 103.6842 65.2497 41.2299 0.0000 0.0000 0.0000
# 2 65.2497 131.4677 71.5201 0.0000 0.0000 0.0000
# 3 41.2299 71.5201 92.7890 0.0000 0.0000 0.0000
# 4 0.0000 0.0000 0.0000 14.7405 0.0000 0.0000
# 5 0.0000 0.0000 0.0000 0.0000 32.1592 0.0000
# 6 0.0000 0.0000 0.0000 0.0000 0.0000 14.8183
#
#
#
# Elastic Compliance Matrix: (Units=1/GPa)
#
#
# Indices 1 2 3 4 5 6 
#
# 1 0.014146 -0.006202 -0.001505 0.000000 0.000000 0.000000
# 2 -0.006202 0.015818 -0.009437 0.000000 0.000000 0.000000
# 3 -0.001505 -0.009437 0.018720 0.000000 0.000000 0.000000
# 4 0.000000 0.000000 0.000000 0.067840 0.000000 0.000000
# 5 0.000000 0.000000 0.000000 0.000000 0.031095 0.000000
# 6 0.000000 0.000000 0.000000 0.000000 0.000000 0.067484
#
#
# Mechanical properties :
#
#
# Convention : Reuss Voigt Hill
#
# Bulk Modulus (GPa) = 69.46313 75.99336 72.72825
# Shear Modulus (GPa) = 19.67027 22.33967 21.00497
#
# Velocity S-wave (km/s) = 3.23357 3.44600 3.34147
# Velocity P-wave (km/s) = 7.13199 7.49856 7.31757
#
# Compressibility (1/GPa) = 0.01439613
#
# Stress axis : x y z
#
# Youngs Moduli (GPa) = 70.68957 63.21785 53.42016
#
# Poissons Ratio (x) = 0.39209 0.08041
# Poissons Ratio (y) = 0.43843 0.50410
# Poissons Ratio (z) = 0.10641 0.59656
#
# Static dielectric constant tensor:
#      x y z
#    x 1.745410 0.000000 0.000000 
#    y 0.000000 1.629000 0.000000 
#    z 0.000000 0.000000 1.660440 
# 
# From -- ./inp_files/25383.got.cif
#   From: 2010.05.17/outbox.cif.g08.bks.cpg/sg54_13_cif.got.tgz:25383.got - 2010.06.03 13:09:01.
