data_PCOD9422769
_publ_section_title
;
Structure prediction by ZEFSAII (Michael W. Deem and Ramdas Pophale) SiO2 
 PCOD9422769
Probable space group: P C C A
;
_chemical_formula_sum "Si O2"
_cell_formula_units_Z 48
_cell_length_a 20.796061
_cell_length_b 5.087542
_cell_length_c 18.476886
_cell_angle_alpha 90.000000
_cell_angle_beta 90.000000
_cell_angle_gamma 90.000000
_cell_volume 1954.869944
_symmetry_space_group_name_H-M "P C C A"
_symmetry_group_IT_number 54
_symmetry_cell_setting 'orthorhombic'
loop_
_space_group_symop_operation_xyz
x,y,z
1/2-x,-y,z
1/2+x,-y,1/2-z
-x,y,1/2-z
-x,-y,-z
1/2+x,y,-z
1/2-x,y,1/2+z
x,-y,1/2+z
loop_
_atom_site_type_symbol
_atom_site_label
_atom_site_fract_x
_atom_site_fract_y
_atom_site_fract_z
Si Si1 0.678249 0.603166 0.234312
Si Si2 0.291226 0.752012 0.108735
Si Si3 0.896490 0.900858 0.216088
Si Si4 0.103198 0.019002 0.003010
Si Si5 0.024995 0.859650 0.142437
Si Si6 0.449691 0.515884 0.434275
O O1 0.750000 0.500000 0.221076
O O2 0.672066 0.629964 0.321936
O O3 0.629635 0.390423 0.201754
O O4 0.659255 0.887947 0.205484
O O5 0.250000 0.500000 0.081180
O O6 0.250000 0.000000 0.138385
O O7 0.334401 0.890209 0.047709
O O8 0.961376 0.990027 0.175929
O O9 0.918577 0.884816 0.300077
O O10 0.049658 0.980651 0.067055
O O11 0.096706 0.755859 0.955273
O O12 0.090555 0.252115 0.947663
O O13 0.998712 0.560025 0.131123
O O14 0.500000 0.500000 0.500000
#
# Coordination Sequence:
#
# PCOD9422769 Si02
#       6
#     8   8   8   8   8   8
#     4  11  23  39  61  87 124 164 216 260 319 367
#     4  11  22  37  62  91 124 161 212 274 319 370
#     4  11  24  38  62  92 127 170 202 273 307 392
#     4  11  22  38  63  89 128 164 210 260 319 385
#     4  10  23  39  60  93 133 164 212 248 333 376
#     4  10  22  36  60  87 121 167 200 251 306 388
#
# _framework density 24.554065000000001
#
# number of rings (size 3 to 8) (size 9 to 14) (size 15 to 20)
#    0.000    1.333    1.667    5.500    4.667    8.000 
#    0.000    0.000    0.000    5.000    0.000    0.000 
#    0.000    0.000    0.000    0.000    0.000    0.000 
#
# Total GULP energy -267961.433889 kJ/mol
# GULP energy per Si atom -5582.529873 kJ/mol
# Density = 2.449818 g / cm^3
# Si number density = 24.554065 Si / 1000 Ang^3
#
#
#
# Elastic Constant Matrix: (Units=GPa)
#
#
# Indices 1 2 3 4 5 6 
#
# 1 79.9319 47.4091 15.3412 0.0000 0.0000 0.0000
# 2 47.4091 196.0183 20.8264 0.0000 0.0000 0.0000
# 3 15.3412 20.8264 77.3453 0.0000 0.0000 0.0000
# 4 0.0000 0.0000 0.0000 26.0663 0.0000 0.0000
# 5 0.0000 0.0000 0.0000 0.0000 32.6398 0.0000
# 6 0.0000 0.0000 0.0000 0.0000 0.0000 43.7326
#
#
#
# Elastic Compliance Matrix: (Units=1/GPa)
#
#
# Indices 1 2 3 4 5 6 
#
# 1 0.014914 -0.003390 -0.002045 0.000000 0.000000 0.000000
# 2 -0.003390 0.006022 -0.000949 0.000000 0.000000 0.000000
# 3 -0.002045 -0.000949 0.013590 0.000000 0.000000 0.000000
# 4 0.000000 0.000000 0.000000 0.038364 0.000000 0.000000
# 5 0.000000 0.000000 0.000000 0.000000 0.030637 0.000000
# 6 0.000000 0.000000 0.000000 0.000000 0.000000 0.022866
#
#
# Mechanical properties :
#
#
# Convention : Reuss Voigt Hill
#
# Bulk Modulus (GPa) = 45.96082 57.82764 51.89423
# Shear Modulus (GPa) = 34.14953 38.46900 36.30926
#
# Velocity S-wave (km/s) = 3.73337 3.96246 3.84962
# Velocity P-wave (km/s) = 6.11089 6.67361 6.39844
#
# Compressibility (1/GPa) = 0.02175766
#
# Stress axis : x y z
#
# Youngs Moduli (GPa) = 67.05234 166.05057 73.58173
#
# Poissons Ratio (x) = 0.56287 0.15050
# Poissons Ratio (y) = 0.22729 0.06985
# Poissons Ratio (z) = 0.13715 0.15762
#
# Static dielectric constant tensor:
#      x y z
#    x 2.014220 0.000000 0.000000 
#    y 0.000000 2.001180 0.000000 
#    z 0.000000 0.000000 2.045100 
# 
# From -- ./inp_files/22104.got.cif
#   From: 2010.05.17/outbox.cif.g08.bks.cpg/sg54_12_cif.got.tgz:22104.got - 2010.06.03 13:09:01.
