data_PCOD9422877
_publ_section_title
;
Structure prediction by ZEFSAII (Michael W. Deem and Ramdas Pophale) SiO2 
 PCOD9422877
Probable space group: P C C A
;
_chemical_formula_sum "Si O2"
_cell_formula_units_Z 32
_cell_length_a 5.451949
_cell_length_b 11.557887
_cell_length_c 19.380319
_cell_angle_alpha 90.000000
_cell_angle_beta 90.000000
_cell_angle_gamma 90.000000
_cell_volume 1221.212244
_symmetry_space_group_name_H-M "P C C A"
_symmetry_group_IT_number 54
_symmetry_cell_setting 'orthorhombic'
loop_
_space_group_symop_operation_xyz
x,y,z
1/2-x,-y,z
1/2+x,-y,1/2-z
-x,y,1/2-z
-x,-y,-z
1/2+x,y,-z
1/2-x,y,1/2+z
x,-y,1/2+z
loop_
_atom_site_type_symbol
_atom_site_label
_atom_site_fract_x
_atom_site_fract_y
_atom_site_fract_z
Si Si1 0.878356 0.617846 0.675998
Si Si2 0.574576 0.916010 0.439080
Si Si3 0.699979 0.135567 0.691854
Si Si4 0.170699 0.660266 0.537413
O O1 0.750000 0.500000 0.654411
O O2 0.696636 0.731021 0.684671
O O3 0.082888 0.639611 0.616156
O O4 0.000000 0.595440 0.750000
O O5 0.364656 0.880092 0.387842
O O6 0.696403 0.799993 0.465665
O O7 0.750000 0.000000 0.393853
O O8 0.500000 0.000000 0.500000
O O9 0.500000 0.162878 0.750000
O O10 0.750000 0.000000 0.711282
O O11 0.938778 0.621940 0.489342
#
# Coordination Sequence:
#
# PCOD9422877 Si02
#       4
#     8   8   8   8
#     4  10  25  47  72 106 147 202 258 312 382 463
#     4  11  20  34  63  98 141 191 240 287 368 443
#     4  10  22  39  62  99 141 183 242 308 371 439
#     4  11  25  44  72 110 150 196 255 316 374 447
#
# _framework density 26.203472999999999
#
# number of rings (size 3 to 8) (size 9 to 14) (size 15 to 20)
#    0.000    1.500    2.500    1.500    3.500    4.000 
#    0.000    0.000    0.000    0.000    0.000    0.000 
#    0.000    0.000    0.000    0.000    0.000    0.000 
#
# Total GULP energy -178152.678983 kJ/mol
# GULP energy per Si atom -5567.271218 kJ/mol
# Density = 2.614383 g / cm^3
# Si number density = 26.203473 Si / 1000 Ang^3
#
#
#
# Elastic Constant Matrix: (Units=GPa)
#
#
# Indices 1 2 3 4 5 6 
#
# 1 60.7185 49.7686 11.2118 0.0000 0.0000 0.0000
# 2 49.7686 236.4865 12.4332 0.0000 0.0000 0.0000
# 3 11.2118 12.4332 149.1990 0.0000 0.0000 0.0000
# 4 0.0000 0.0000 0.0000 -66.7354 0.0000 0.0000
# 5 0.0000 0.0000 0.0000 0.0000 27.3603 0.0000
# 6 0.0000 0.0000 0.0000 0.0000 0.0000 36.5969
#
#
#
# Elastic Compliance Matrix: (Units=1/GPa)
#
#
# Indices 1 2 3 4 5 6 
#
# 1 0.020102 -0.004169 -0.001163 0.000000 0.000000 0.000000
# 2 -0.004169 0.005112 -0.000113 0.000000 0.000000 0.000000
# 3 -0.001163 -0.000113 0.006799 0.000000 0.000000 0.000000
# 4 0.000000 0.000000 0.000000 -0.014985 0.000000 0.000000
# 5 0.000000 0.000000 0.000000 0.000000 0.036549 0.000000
# 6 0.000000 0.000000 0.000000 0.000000 0.000000 0.027325
#
#
# Mechanical properties :
#
#
# Convention : Reuss Voigt Hill
#
# Bulk Modulus (GPa) = 47.34255 65.91457 56.62856
# Shear Modulus (GPa) = 50.59031 24.31039 37.45035
#
# Velocity S-wave (km/s) = 4.39871 3.04921 3.78459
# Velocity P-wave (km/s) = 6.62606 6.13241 6.38401
#
# Compressibility (1/GPa) = 0.02112265
#
# Stress axis : x y z
#
# Youngs Moduli (GPa) = 49.74731 195.62160 147.07497
#
# Poissons Ratio (x) = 0.81559 0.17107
# Poissons Ratio (y) = 0.20741 0.01657
# Poissons Ratio (z) = 0.05786 0.02204
#
# Static dielectric constant tensor:
#      x y z
#    x 2.250590 0.000000 0.000000 
#    y 0.000000 2.174840 0.000000 
#    z 0.000000 0.000000 1.980710 
# 
# From -- ./inp_files/19509.got.cif
#   From: 2010.05.17/outbox.cif.g08.bks.cpg/sg54_10_cif.got.tgz:19509.got - 2010.06.03 13:09:01.
