data_PCOD9422115
_publ_section_title
;
Structure prediction by ZEFSAII (Michael W. Deem and Ramdas Pophale) SiO2 
 PCOD9422115
Probable space group: P C C A
;
_chemical_formula_sum "Si O2"
_cell_formula_units_Z 64
_cell_length_a 7.096375
_cell_length_b 21.989214
_cell_length_c 18.719962
_cell_angle_alpha 90.000000
_cell_angle_beta 90.000000
_cell_angle_gamma 90.000000
_cell_volume 2921.132293
_symmetry_space_group_name_H-M "P C C A"
_symmetry_group_IT_number 54
_symmetry_cell_setting 'orthorhombic'
loop_
_space_group_symop_operation_xyz
x,y,z
1/2-x,-y,z
1/2+x,-y,1/2-z
-x,y,1/2-z
-x,-y,-z
1/2+x,y,-z
1/2-x,y,1/2+z
x,-y,1/2+z
loop_
_atom_site_type_symbol
_atom_site_label
_atom_site_fract_x
_atom_site_fract_y
_atom_site_fract_z
Si Si1 0.934562 0.896875 0.398768
Si Si2 0.232844 0.384649 0.431918
Si Si3 0.872798 0.117698 0.064666
Si Si4 0.416101 0.638559 0.672866
Si Si5 0.612700 0.236015 0.389949
Si Si6 0.352063 0.564461 0.084446
Si Si7 0.529716 0.981672 0.168320
Si Si8 0.690841 0.749512 0.050809
O O1 0.870203 0.901434 0.481454
O O2 0.160195 0.887853 0.407086
O O3 0.856108 0.833629 0.367156
O O4 0.913949 0.957762 0.352900
O O5 0.418017 0.378570 0.383402
O O6 0.299467 0.399156 0.512044
O O7 0.130039 0.318464 0.429349
O O8 0.077947 0.434598 0.410582
O O9 0.998533 0.072661 0.111740
O O10 0.923661 0.189101 0.068795
O O11 0.500000 0.627498 0.750000
O O12 0.356346 0.709217 0.664157
O O13 0.238499 0.598327 0.651578
O O14 0.392885 0.241882 0.412340
O O15 0.713965 0.249039 0.465259
O O16 0.250000 0.500000 0.078194
O O17 0.500000 0.963357 0.250000
O O18 0.750000 0.000000 0.161853
#
# Coordination Sequence:
#
# PCOD9422115 Si02
#       8
#     8   8   8   8   8   8   8   8
#     4   9  18  32  54  81 107 144 190 241 294 350
#     4  11  21  40  71  93 129 163 215 267 308 375
#     4   9  18  32  53  80 109 137 190 243 293 342
#     4  11  25  42  61  95 134 172 209 263 325 372
#     4   9  17  32  57  82 114 147 194 251 299 363
#     4  12  24  41  69 101 124 167 221 262 310 382
#     4  10  21  35  50  71 110 151 187 234 292 357
#     4   9  16  31  57  85 106 146 191 246 299 348
#
# _framework density 21.909310999999999
#
# number of rings (size 3 to 8) (size 9 to 14) (size 15 to 20)
#    0.000    2.000    2.500    1.500    0.000    2.000 
#    2.250    0.000   11.000    0.000    0.000    0.000 
#    0.000    0.000    0.000    0.000    0.000    0.000 
#
# Total GULP energy -357549.879134 kJ/mol
# GULP energy per Si atom -5586.716861 kJ/mol
# Density = 2.185944 g / cm^3
# Si number density = 21.909311 Si / 1000 Ang^3
#
#
#
# Elastic Constant Matrix: (Units=GPa)
#
#
# Indices 1 2 3 4 5 6 
#
# 1 47.1186 9.2353 -19.2887 0.0000 0.0000 0.0000
# 2 9.2353 86.8433 23.6598 0.0000 0.0000 0.0000
# 3 -19.2887 23.6598 57.2427 0.0000 0.0000 0.0000
# 4 0.0000 0.0000 0.0000 94.8147 0.0000 0.0000
# 5 0.0000 0.0000 0.0000 0.0000 8.0489 0.0000
# 6 0.0000 0.0000 0.0000 0.0000 0.0000 27.4257
#
#
#
# Elastic Compliance Matrix: (Units=1/GPa)
#
#
# Indices 1 2 3 4 5 6 
#
# 1 0.027191 -0.006072 0.011672 0.000000 0.000000 0.000000
# 2 -0.006072 0.014332 -0.007970 0.000000 0.000000 0.000000
# 3 0.011672 -0.007970 0.024697 0.000000 0.000000 0.000000
# 4 0.000000 0.000000 0.000000 0.010547 0.000000 0.000000
# 5 0.000000 0.000000 0.000000 0.000000 0.124241 0.000000
# 6 0.000000 0.000000 0.000000 0.000000 0.000000 0.036462
#
#
# Mechanical properties :
#
#
# Convention : Reuss Voigt Hill
#
# Bulk Modulus (GPa) = 16.26515 24.26860 20.26687
# Shear Modulus (GPa) = 19.03295 37.89773 28.46534
#
# Velocity S-wave (km/s) = 2.95060 4.16354 3.60840
# Velocity P-wave (km/s) = 4.36440 5.84930 5.16054
#
# Compressibility (1/GPa) = 0.06148116
#
# Stress axis : x y z
#
# Youngs Moduli (GPa) = 36.77662 69.77422 40.49153
#
# Poissons Ratio (x) = 0.42364 -0.47262
# Poissons Ratio (y) = 0.22329 0.32270
# Poissons Ratio (z) = -0.42925 0.55607
#
# Static dielectric constant tensor:
#      x y z
#    x 1.854270 0.000000 0.000000 
#    y 0.000000 1.851440 0.000000 
#    z 0.000000 0.000000 1.802480 
# 
# From -- ./inp_files/16860.got.cif
#   From: 2010.05.17/outbox.cif.g08.bks.cpg/sg54_9_cif.got.tgz:16860.got - 2010.06.03 13:09:01.
