data_PCOD9422365
_publ_section_title
;
Structure prediction by ZEFSAII (Michael W. Deem and Ramdas Pophale) SiO2 
 PCOD9422365
Probable space group: P C C A
;
_chemical_formula_sum "Si O2"
_cell_formula_units_Z 52
_cell_length_a 26.433471
_cell_length_b 8.728530
_cell_length_c 11.571716
_cell_angle_alpha 90.000000
_cell_angle_beta 90.000000
_cell_angle_gamma 90.000000
_cell_volume 2669.888162
_symmetry_space_group_name_H-M "P C C A"
_symmetry_group_IT_number 54
_symmetry_cell_setting 'orthorhombic'
loop_
_space_group_symop_operation_xyz
x,y,z
1/2-x,-y,z
1/2+x,-y,1/2-z
-x,y,1/2-z
-x,-y,-z
1/2+x,y,-z
1/2-x,y,1/2+z
x,-y,1/2+z
loop_
_atom_site_type_symbol
_atom_site_label
_atom_site_fract_x
_atom_site_fract_y
_atom_site_fract_z
Si Si1 0.924458 0.235671 0.352131
Si Si2 0.250000 0.000000 0.148580
Si Si3 0.013835 0.743479 0.412407
Si Si4 0.577143 0.880144 0.799283
Si Si5 0.817716 0.254442 0.738130
Si Si6 0.500000 0.460359 0.750000
Si Si7 0.250000 0.500000 0.646564
Si Si8 0.317446 0.246356 0.533493
O O1 0.961240 0.242559 0.463568
O O2 0.868570 0.276706 0.395532
O O3 0.950823 0.353863 0.264902
O O4 0.920436 0.063200 0.304389
O O5 0.276837 0.125758 0.227961
O O6 0.207935 0.085778 0.071456
O O7 0.049509 0.828875 0.318883
O O8 0.007007 0.572995 0.359830
O O9 0.959211 0.822941 0.402145
O O10 0.630700 0.794420 0.801935
O O11 0.792506 0.413512 0.777675
O O12 0.828027 0.250866 0.602096
O O13 0.276966 0.374527 0.567551
#
# Coordination Sequence:
#
# PCOD9422365 Si02
#       8
#     8   4   8   8   8   4   4   8
#     4  12  22  40  66  91 127 164 211 252 315 372
#     4  10  22  42  60  94 120 158 208 262 306 368
#     4  10  23  42  61  88 130 163 202 259 305 377
#     4  10  21  38  64  90 122 161 207 255 308 364
#     4  11  21  43  64  90 126 161 204 260 312 365
#     4  10  24  40  60  94 126 164 204 258 308 380
#     4  10  26  40  64  92 128 164 206 260 304 380
#     4  11  23  39  67  90 124 163 208 252 317 369
#
# _framework density 19.476472000000001
#
# number of rings (size 3 to 8) (size 9 to 14) (size 15 to 20)
#    0.000    1.538    3.077    2.769    4.308    0.000 
#    0.000    0.000    3.385    0.000    0.000    0.000 
#    0.000    0.000    0.000    0.000    0.000    0.000 
#
# Total GULP energy -290467.039894 kJ/mol
# GULP energy per Si atom -5585.904613 kJ/mol
# Density = 1.943214 g / cm^3
# Si number density = 19.476472 Si / 1000 Ang^3
#
#
#
# Elastic Constant Matrix: (Units=GPa)
#
#
# Indices 1 2 3 4 5 6 
#
# 1 96.5186 23.7937 9.0463 0.0000 0.0000 0.0000
# 2 23.7937 101.8711 16.1003 0.0000 0.0000 0.0000
# 3 9.0463 16.1003 25.5509 0.0000 0.0000 0.0000
# 4 0.0000 0.0000 0.0000 9.9433 0.0000 0.0000
# 5 0.0000 0.0000 0.0000 0.0000 30.3428 0.0000
# 6 0.0000 0.0000 0.0000 0.0000 0.0000 7.8237
#
#
#
# Elastic Compliance Matrix: (Units=1/GPa)
#
#
# Indices 1 2 3 4 5 6 
#
# 1 0.011142 -0.002198 -0.002560 0.000000 0.000000 0.000000
# 2 -0.002198 0.011336 -0.006365 0.000000 0.000000 0.000000
# 3 -0.002560 -0.006365 0.044055 0.000000 0.000000 0.000000
# 4 0.000000 0.000000 0.000000 0.100570 0.000000 0.000000
# 5 0.000000 0.000000 0.000000 0.000000 0.032957 0.000000
# 6 0.000000 0.000000 0.000000 0.000000 0.000000 0.127816
#
#
# Mechanical properties :
#
#
# Convention : Reuss Voigt Hill
#
# Bulk Modulus (GPa) = 22.57983 35.75792 29.16888
# Shear Modulus (GPa) = 13.70300 21.28865 17.49582
#
# Velocity S-wave (km/s) = 2.65536 3.30971 3.00043
# Velocity P-wave (km/s) = 4.58474 5.74500 5.19734
#
# Compressibility (1/GPa) = 0.04428731
#
# Stress axis : x y z
#
# Youngs Moduli (GPa) = 89.74680 88.21766 22.69913
#
# Poissons Ratio (x) = 0.19389 0.05811
# Poissons Ratio (y) = 0.19725 0.14447
# Poissons Ratio (z) = 0.22975 0.56148
#
# Static dielectric constant tensor:
#      x y z
#    x 1.681770 0.000000 0.000000 
#    y 0.000000 1.683520 0.000000 
#    z 0.000000 0.000000 1.657490 
# 
# From -- ./inp_files/10320.got.cif
#   From: 2010.05.17/outbox.cif.g08.bks.cpg/sg54_6_cif.got.tgz:10320.got - 2010.06.03 13:09:01.
