data_PCOD9422871
_publ_section_title
;
Structure prediction by ZEFSAII (Michael W. Deem and Ramdas Pophale) SiO2 
 PCOD9422871
Probable space group: P C C A
;
_chemical_formula_sum "Si O2"
_cell_formula_units_Z 60
_cell_length_a 22.033488
_cell_length_b 5.399875
_cell_length_c 21.146299
_cell_angle_alpha 90.000000
_cell_angle_beta 90.000000
_cell_angle_gamma 90.000000
_cell_volume 2515.946076
_symmetry_space_group_name_H-M "P C C A"
_symmetry_group_IT_number 54
_symmetry_cell_setting 'orthorhombic'
loop_
_space_group_symop_operation_xyz
x,y,z
1/2-x,-y,z
1/2+x,-y,1/2-z
-x,y,1/2-z
-x,-y,-z
1/2+x,y,-z
1/2-x,y,1/2+z
x,-y,1/2+z
loop_
_atom_site_type_symbol
_atom_site_label
_atom_site_fract_x
_atom_site_fract_y
_atom_site_fract_z
Si Si1 0.030029 0.583784 0.859945
Si Si2 0.844350 0.606929 0.717707
Si Si3 0.867431 0.280007 0.461066
Si Si4 0.400376 0.533769 0.660655
Si Si5 0.189430 0.093073 0.638085
Si Si6 0.808901 0.099104 0.653211
Si Si7 0.750000 0.500000 0.955143
Si Si8 0.566467 0.084844 0.075533
O O1 0.089234 0.592980 0.815419
O O2 0.033816 0.333362 0.901120
O O3 0.967859 0.546884 0.821714
O O4 0.033468 0.832966 0.902730
O O5 0.854243 0.606752 0.792838
O O6 0.810419 0.363765 0.689237
O O7 0.815703 0.867527 0.700335
O O8 0.898506 0.476873 0.414252
O O9 0.807982 0.400626 0.495038
O O10 0.914766 0.131915 0.503335
O O11 0.835436 0.100966 0.411756
O O12 0.371632 0.805387 0.671161
O O13 0.217718 0.308973 0.593060
O O14 0.250000 0.000000 0.673308
O O15 0.868457 0.087785 0.610407
O O16 0.750000 0.000000 0.615290
#
# Coordination Sequence:
#
# PCOD9422871 Si02
#       8
#     8   8   8   8   8   8   4   8
#     4  10  24  44  65  92 128 173 225 272 324 383
#     4  10  23  43  64  95 129 167 224 273 321 391
#     4  10  22  39  61  95 127 170 215 263 339 393
#     4  11  24  39  66  93 127 177 215 268 340 392
#     4   9  20  39  57  88 129 159 212 258 318 400
#     4  10  22  44  65  97 125 169 217 267 332 381
#     4   8  18  38  56  84 126 162 210 250 312 396
#     4  10  24  43  66  92 134 166 217 279 311 395
#
# _framework density 23.847885999999999
#
# number of rings (size 3 to 8) (size 9 to 14) (size 15 to 20)
#    0.000    2.133    0.000    0.800    7.467    3.200 
#   16.800    4.000    0.000    0.000    0.000    0.000 
#    0.000    0.000    0.000    0.000    0.000    0.000 
#
# Total GULP energy -334456.259436 kJ/mol
# GULP energy per Si atom -5574.270991 kJ/mol
# Density = 2.379361 g / cm^3
# Si number density = 23.847886 Si / 1000 Ang^3
#
#
#
# Elastic Constant Matrix: (Units=GPa)
#
#
# Indices 1 2 3 4 5 6 
#
# 1 92.9402 41.6432 7.6169 0.0000 0.0000 0.0000
# 2 41.6432 128.4653 18.9415 0.0000 0.0000 0.0000
# 3 7.6169 18.9415 54.5001 0.0000 0.0000 0.0000
# 4 0.0000 0.0000 0.0000 10.2516 0.0000 0.0000
# 5 0.0000 0.0000 0.0000 0.0000 14.5222 0.0000
# 6 0.0000 0.0000 0.0000 0.0000 0.0000 29.5802
#
#
#
# Elastic Compliance Matrix: (Units=1/GPa)
#
#
# Indices 1 2 3 4 5 6 
#
# 1 0.012595 -0.004030 -0.000360 0.000000 0.000000 0.000000
# 2 -0.004030 0.009494 -0.002736 0.000000 0.000000 0.000000
# 3 -0.000360 -0.002736 0.019350 0.000000 0.000000 0.000000
# 4 0.000000 0.000000 0.000000 0.097546 0.000000 0.000000
# 5 0.000000 0.000000 0.000000 0.000000 0.068860 0.000000
# 6 0.000000 0.000000 0.000000 0.000000 0.000000 0.033806
#
#
# Mechanical properties :
#
#
# Convention : Reuss Voigt Hill
#
# Bulk Modulus (GPa) = 36.78243 45.81209 41.29726
# Shear Modulus (GPa) = 18.87045 24.71773 21.79409
#
# Velocity S-wave (km/s) = 2.81603 3.22293 3.02632
# Velocity P-wave (km/s) = 5.10202 5.75339 5.43747
#
# Compressibility (1/GPa) = 0.02718690
#
# Stress axis : x y z
#
# Youngs Moduli (GPa) = 79.39894 105.33057 51.67979
#
# Poissons Ratio (x) = 0.42444 0.01859
# Poissons Ratio (y) = 0.31995 0.14142
# Poissons Ratio (z) = 0.02856 0.28823
#
# Static dielectric constant tensor:
#      x y z
#    x 2.027250 0.000000 0.000000 
#    y 0.000000 2.003470 0.000000 
#    z 0.000000 0.000000 1.938560 
# 
# From -- ./inp_files/22351.got.cif
#   From: 2010.05.17/outbox.cif.g08.bks.cpg/sg54_12_cif.got.tgz:22351.got - 2010.06.03 13:09:01.
