data_PCOD9422909
_publ_section_title
;
Structure prediction by ZEFSAII (Michael W. Deem and Ramdas Pophale) SiO2 
 PCOD9422909
Probable space group: P C C A
;
_chemical_formula_sum "Si O2"
_cell_formula_units_Z 60
_cell_length_a 16.010396
_cell_length_b 5.797994
_cell_length_c 27.518719
_cell_angle_alpha 90.000000
_cell_angle_beta 90.000000
_cell_angle_gamma 90.000000
_cell_volume 2554.512599
_symmetry_space_group_name_H-M "P C C A"
_symmetry_group_IT_number 54
_symmetry_cell_setting 'orthorhombic'
loop_
_space_group_symop_operation_xyz
x,y,z
1/2-x,-y,z
1/2+x,-y,1/2-z
-x,y,1/2-z
-x,-y,-z
1/2+x,y,-z
1/2-x,y,1/2+z
x,-y,1/2+z
loop_
_atom_site_type_symbol
_atom_site_label
_atom_site_fract_x
_atom_site_fract_y
_atom_site_fract_z
Si Si1 0.098307 0.128575 0.733199
Si Si2 0.337896 0.954297 0.451457
Si Si3 0.402652 0.372728 0.768505
Si Si4 0.469345 0.683329 0.960012
Si Si5 0.250000 0.500000 0.123980
Si Si6 0.350293 0.825137 0.554718
Si Si7 0.370068 0.129752 0.639560
Si Si8 0.447573 0.663430 0.377365
O O1 0.131436 0.882028 0.754131
O O2 0.113475 0.083500 0.675879
O O3 0.000000 0.132636 0.750000
O O4 0.131388 0.380593 0.749025
O O5 0.316624 0.810132 0.500124
O O6 0.399233 0.835631 0.413359
O O7 0.250000 0.000000 0.426599
O O8 0.386483 0.177025 0.471858
O O9 0.500000 0.368011 0.750000
O O10 0.402875 0.378135 0.826611
O O11 0.550278 0.837652 0.952941
O O12 0.453921 0.566349 0.908511
O O13 0.500000 0.500000 0.000000
O O14 0.181774 0.616988 0.088067
O O15 0.199827 0.312531 0.155423
O O16 0.335687 0.049566 0.587390
O O17 0.459703 0.247675 0.634150
#
# Coordination Sequence:
#
# PCOD9422909 Si02
#       8
#     8   8   8   8   4   8   8   8
#     4  10  22  39  70 108 142 185 252 310 384 449
#     4  12  28  46  70 107 154 200 251 321 380 453
#     4  10  22  39  68 115 135 191 250 321 374 455
#     4  12  25  43  73 105 144 198 258 305 376 470
#     4  12  28  42  72 108 152 198 248 318 390 458
#     4  12  26  44  69 106 154 197 250 306 388 459
#     4  12  24  44  70 110 148 197 249 318 384 469
#     4  12  24  43  73 107 140 197 256 311 375 468
#
# _framework density 23.487848
#
# number of rings (size 3 to 8) (size 9 to 14) (size 15 to 20)
#    0.000    0.533    6.667    2.400    9.333    0.533 
#    0.000    0.000    0.000    3.200    0.000    0.000 
#    0.000    0.000    0.000    0.000    0.000    0.000 
#
# Total GULP energy -335269.302141 kJ/mol
# GULP energy per Si atom -5587.821702 kJ/mol
# Density = 2.343439 g / cm^3
# Si number density = 23.487848 Si / 1000 Ang^3
#
#
#
# Elastic Constant Matrix: (Units=GPa)
#
#
# Indices 1 2 3 4 5 6 
#
# 1 100.6943 22.1221 6.1595 0.0000 0.0000 0.0000
# 2 22.1221 123.8844 36.7159 0.0000 0.0000 0.0000
# 3 6.1595 36.7159 128.8521 0.0000 0.0000 0.0000
# 4 0.0000 0.0000 0.0000 47.9532 0.0000 0.0000
# 5 0.0000 0.0000 0.0000 0.0000 -0.5174 0.0000
# 6 0.0000 0.0000 0.0000 0.0000 0.0000 32.2621
#
#
#
# Elastic Compliance Matrix: (Units=1/GPa)
#
#
# Indices 1 2 3 4 5 6 
#
# 1 0.010337 -0.001856 0.000035 0.000000 0.000000 0.000000
# 2 -0.001856 0.009150 -0.002519 0.000000 0.000000 0.000000
# 3 0.000035 -0.002519 0.008477 0.000000 0.000000 0.000000
# 4 0.000000 0.000000 0.000000 0.020854 0.000000 0.000000
# 5 0.000000 0.000000 0.000000 0.000000 -1.932596 0.000000
# 6 0.000000 0.000000 0.000000 0.000000 0.000000 0.030996
#
#
# Mechanical properties :
#
#
# Convention : Reuss Voigt Hill
#
# Bulk Modulus (GPa) = 51.85729 53.71399 52.78564
# Shear Modulus (GPa) = -2.72083 35.16845 16.22381
#
# Velocity S-wave (km/s) = -1.07746 3.87370 2.63103
# Velocity P-wave (km/s) = 4.53634 6.55178 5.63490
#
# Compressibility (1/GPa) = 0.01928369
#
# Stress axis : x y z
#
# Youngs Moduli (GPa) = 96.74264 109.29072 117.96890
#
# Poissons Ratio (x) = 0.20286 -0.00410
# Poissons Ratio (y) = 0.17957 0.29711
# Poissons Ratio (z) = -0.00336 0.27525
#
# Static dielectric constant tensor:
#      x y z
#    x 1.902270 0.000000 0.000000 
#    y 0.000000 1.011900 0.000000 
#    z 0.000000 0.000000 1.926480 
# 
# From -- ./inp_files/26669.got.cif
#   From: 2010.05.17/outbox.cif.g08.bks.cpg/sg54_14_cif.got.tgz:26669.got - 2010.06.03 13:09:01.
