data_PCOD9422284
_publ_section_title
;
Structure prediction by ZEFSAII (Michael W. Deem and Ramdas Pophale) SiO2 
 PCOD9422284
Probable space group: P C C A
;
_chemical_formula_sum "Si O2"
_cell_formula_units_Z 32
_cell_length_a 5.360577
_cell_length_b 13.932740
_cell_length_c 18.533968
_cell_angle_alpha 90.000000
_cell_angle_beta 90.000000
_cell_angle_gamma 90.000000
_cell_volume 1384.256209
_symmetry_space_group_name_H-M "P C C A"
_symmetry_group_IT_number 54
_symmetry_cell_setting 'orthorhombic'
loop_
_space_group_symop_operation_xyz
x,y,z
1/2-x,-y,z
1/2+x,-y,1/2-z
-x,y,1/2-z
-x,-y,-z
1/2+x,y,-z
1/2-x,y,1/2+z
x,-y,1/2+z
loop_
_atom_site_type_symbol
_atom_site_label
_atom_site_fract_x
_atom_site_fract_y
_atom_site_fract_z
Si Si1 0.948968 0.109064 0.972290
Si Si2 0.899716 0.089141 0.673715
Si Si3 0.744865 0.384040 0.043419
Si Si4 0.745644 0.700515 0.204246
O O1 0.895652 0.112192 0.887155
O O2 0.720326 0.153918 0.014802
O O3 0.000000 0.000000 0.000000
O O4 0.746683 0.184764 0.690014
O O5 0.000000 0.055486 0.750000
O O6 0.750000 0.000000 0.642177
O O7 0.750000 0.500000 0.046788
O O8 0.748528 0.347181 0.125651
O O9 0.491141 0.355666 0.001795
O O10 0.500000 0.673868 0.250000
O O11 0.000000 0.680935 0.250000
#
# Coordination Sequence:
#
# PCOD9422284 Si02
#       4
#     8   8   8   8
#     4  10  21  38  55  81 109 144 202 260 302 369
#     4  11  24  39  62  87 124 171 215 266 318 371
#     4  10  22  43  71 102 133 170 212 263 330 397
#     4  11  25  43  63  97 133 173 221 268 328 390
#
# _framework density 23.117108000000002
#
# number of rings (size 3 to 8) (size 9 to 14) (size 15 to 20)
#    0.000    1.500    2.500    2.250    3.500    7.000 
#    0.000    0.000    0.000    0.000    0.000    0.000 
#    0.000    0.000    0.000    0.000    0.000    0.000 
#
# Total GULP energy -178957.729138 kJ/mol
# GULP energy per Si atom -5592.429036 kJ/mol
# Density = 2.306449 g / cm^3
# Si number density = 23.117108 Si / 1000 Ang^3
#
#
#
# Elastic Constant Matrix: (Units=GPa)
#
#
# Indices 1 2 3 4 5 6 
#
# 1 199.6104 45.1643 99.6882 0.0000 0.0000 0.0000
# 2 45.1643 67.6603 28.8753 0.0000 0.0000 0.0000
# 3 99.6882 28.8753 223.5776 0.0000 0.0000 0.0000
# 4 0.0000 0.0000 0.0000 21.3268 0.0000 0.0000
# 5 0.0000 0.0000 0.0000 0.0000 43.3036 0.0000
# 6 0.0000 0.0000 0.0000 0.0000 0.0000 25.0441
#
#
#
# Elastic Compliance Matrix: (Units=1/GPa)
#
#
# Indices 1 2 3 4 5 6 
#
# 1 0.007202 -0.003637 -0.002741 0.000000 0.000000 0.000000
# 2 -0.003637 0.017479 -0.000636 0.000000 0.000000 0.000000
# 3 -0.002741 -0.000636 0.005777 0.000000 0.000000 0.000000
# 4 0.000000 0.000000 0.000000 0.046889 0.000000 0.000000
# 5 0.000000 0.000000 0.000000 0.000000 0.023093 0.000000
# 6 0.000000 0.000000 0.000000 0.000000 0.000000 0.039930
#
#
# Mechanical properties :
#
#
# Convention : Reuss Voigt Hill
#
# Bulk Modulus (GPa) = 60.86714 93.14489 77.00601
# Shear Modulus (GPa) = 31.27447 39.07626 35.17536
#
# Velocity S-wave (km/s) = 3.68213 4.11586 3.90502
# Velocity P-wave (km/s) = 6.66817 7.93519 7.32911
#
# Compressibility (1/GPa) = 0.01642923
#
# Stress axis : x y z
#
# Youngs Moduli (GPa) = 138.85332 57.21148 173.09669
#
# Poissons Ratio (x) = 0.20810 0.47452
# Poissons Ratio (y) = 0.50507 0.11002
# Poissons Ratio (z) = 0.38065 0.03636
#
# Static dielectric constant tensor:
#      x y z
#    x 1.998330 0.000000 0.000000 
#    y 0.000000 2.108920 0.000000 
#    z 0.000000 0.000000 1.802740 
# 
# From -- ./inp_files/15668.got.cif
#   From: 2010.05.17/outbox.cif.g08.bks.cpg/sg54_8_cif.got.tgz:15668.got - 2010.06.03 13:09:01.
