data_PCOD9422908
_publ_section_title
;
Structure prediction by ZEFSAII (Michael W. Deem and Ramdas Pophale) SiO2 
 PCOD9422908
Probable space group: P C C A
;
_chemical_formula_sum "Si O2"
_cell_formula_units_Z 64
_cell_length_a 15.145762
_cell_length_b 11.849056
_cell_length_c 17.845222
_cell_angle_alpha 90.000000
_cell_angle_beta 90.000000
_cell_angle_gamma 90.000000
_cell_volume 3202.556756
_symmetry_space_group_name_H-M "P C C A"
_symmetry_group_IT_number 54
_symmetry_cell_setting 'orthorhombic'
loop_
_space_group_symop_operation_xyz
x,y,z
1/2-x,-y,z
1/2+x,-y,1/2-z
-x,y,1/2-z
-x,-y,-z
1/2+x,y,-z
1/2-x,y,1/2+z
x,-y,1/2+z
loop_
_atom_site_type_symbol
_atom_site_label
_atom_site_fract_x
_atom_site_fract_y
_atom_site_fract_z
Si Si1 0.400063 0.353505 0.230602
Si Si2 0.261392 0.631269 0.333049
Si Si3 0.308086 0.818840 0.622007
Si Si4 0.105589 0.173959 0.114480
Si Si5 0.885566 0.933318 0.050577
Si Si6 0.968700 0.036507 0.832359
Si Si7 0.697293 0.175628 0.552887
Si Si8 0.909182 0.383606 0.293167
O O1 0.500000 0.320768 0.250000
O O2 0.336982 0.340529 0.303265
O O3 0.352293 0.280619 0.168013
O O4 0.404511 0.481414 0.199566
O O5 0.250000 0.500000 0.357437
O O6 0.304326 0.715365 0.393847
O O7 0.325912 0.640503 0.261025
O O8 0.206752 0.844569 0.640303
O O9 0.372173 0.921638 0.642860
O O10 0.305742 0.790756 0.534078
O O11 0.091812 0.306184 0.132564
O O12 0.038582 0.098708 0.162334
O O13 0.095543 0.122945 0.030561
O O14 0.792191 0.879333 0.072163
O O15 0.963713 0.911920 0.107971
O O16 0.870038 0.069176 0.054060
O O17 0.000000 0.067750 0.750000
O O18 0.000000 0.358387 0.250000
#
# Coordination Sequence:
#
# PCOD9422908 Si02
#       8
#     8   8   8   8   8   8   8   8
#     4  10  22  42  67  96 132 166 215 274 334 388
#     4  10  22  42  66  95 132 168 216 281 330 390
#     4  11  23  41  64  88 130 169 210 267 327 394
#     4  11  22  42  64  91 127 171 217 264 327 398
#     4  10  24  43  61  89 132 173 212 270 324 389
#     4  12  26  38  63  97 124 169 223 267 325 392
#     4  10  23  43  62  89 130 173 211 264 333 387
#     4  10  22  39  67  96 127 168 216 273 329 391
#
# _framework density 19.984034000000001
#
# number of rings (size 3 to 8) (size 9 to 14) (size 15 to 20)
#    0.000    1.500    2.500    1.500    7.000    0.000 
#    6.750    0.000    0.000    3.000    0.000    0.000 
#    0.000    0.000    0.000    0.000    0.000    0.000 
#
# Total GULP energy -356833.055583 kJ/mol
# GULP energy per Si atom -5575.516493 kJ/mol
# Density = 1.993855 g / cm^3
# Si number density = 19.984034 Si / 1000 Ang^3
#
#
#
# Elastic Constant Matrix: (Units=GPa)
#
#
# Indices 1 2 3 4 5 6 
#
# 1 107.7944 16.8968 41.3933 0.0000 0.0000 0.0000
# 2 16.8968 118.1374 70.7780 0.0000 0.0000 0.0000
# 3 41.3933 70.7780 74.0182 0.0000 0.0000 0.0000
# 4 0.0000 0.0000 0.0000 25.1854 0.0000 0.0000
# 5 0.0000 0.0000 0.0000 0.0000 25.2915 0.0000
# 6 0.0000 0.0000 0.0000 0.0000 0.0000 18.3527
#
#
#
# Elastic Compliance Matrix: (Units=1/GPa)
#
#
# Indices 1 2 3 4 5 6 
#
# 1 0.013432 0.006039 -0.013286 0.000000 0.000000 0.000000
# 2 0.006039 0.022533 -0.024924 0.000000 0.000000 0.000000
# 3 -0.013286 -0.024924 0.044773 0.000000 0.000000 0.000000
# 4 0.000000 0.000000 0.000000 0.039705 0.000000 0.000000
# 5 0.000000 0.000000 0.000000 0.000000 0.039539 0.000000
# 6 0.000000 0.000000 0.000000 0.000000 0.000000 0.054488
#
#
# Mechanical properties :
#
#
# Convention : Reuss Voigt Hill
#
# Bulk Modulus (GPa) = 60.99052 62.00958 61.50005
# Shear Modulus (GPa) = 17.58830 25.15804 21.37317
#
# Velocity S-wave (km/s) = 2.96990 3.55196 3.27389
# Velocity P-wave (km/s) = 6.50740 6.92234 6.71807
#
# Compressibility (1/GPa) = 0.01639599
#
# Stress axis : x y z
#
# Youngs Moduli (GPa) = 74.44753 44.37842 22.33470
#
# Poissons Ratio (x) = -0.26799 0.29674
# Poissons Ratio (y) = -0.44957 0.55667
# Poissons Ratio (z) = 0.98913 1.10610
#
# Static dielectric constant tensor:
#      x y z
#    x 1.721560 0.000000 0.000000 
#    y 0.000000 1.764110 0.000000 
#    z 0.000000 0.000000 1.687400 
# 
# From -- ./inp_files/18220.got.cif
#   From: 2010.05.17/outbox.cif.g08.bks.cpg/sg54_10_cif.got.tgz:18220.got - 2010.06.03 13:09:01.
