data_PCOD9422027
_publ_section_title
;
Structure prediction by ZEFSAII (Michael W. Deem and Ramdas Pophale) SiO2 
 PCOD9422027
Probable space group: P C C A
;
_chemical_formula_sum "Si O2"
_cell_formula_units_Z 48
_cell_length_a 19.096282
_cell_length_b 9.616500
_cell_length_c 14.050760
_cell_angle_alpha 90.000000
_cell_angle_beta 90.000000
_cell_angle_gamma 90.000000
_cell_volume 2580.273078
_symmetry_space_group_name_H-M "P C C A"
_symmetry_group_IT_number 54
_symmetry_cell_setting 'orthorhombic'
loop_
_space_group_symop_operation_xyz
x,y,z
1/2-x,-y,z
1/2+x,-y,1/2-z
-x,y,1/2-z
-x,-y,-z
1/2+x,y,-z
1/2-x,y,1/2+z
x,-y,1/2+z
loop_
_atom_site_type_symbol
_atom_site_label
_atom_site_fract_x
_atom_site_fract_y
_atom_site_fract_z
Si Si1 0.044699 0.673225 0.920734
Si Si2 0.000000 0.154940 0.250000
Si Si3 0.250000 0.000000 0.836938
Si Si4 0.393331 0.443379 0.525135
Si Si5 0.636518 0.012516 0.820727
Si Si6 0.291012 0.812448 0.010345
Si Si7 0.137975 0.265635 0.585309
O O1 0.043700 0.750065 0.822099
O O2 0.965541 0.628059 0.943594
O O3 0.090298 0.532785 0.930041
O O4 0.078713 0.765505 0.004957
O O5 0.941683 0.068676 0.306494
O O6 0.312379 0.048614 0.767187
O O7 0.218708 0.115048 0.908469
O O8 0.337307 0.325538 0.509766
O O9 0.371680 0.567946 0.598088
O O10 0.672813 0.080746 0.914426
O O11 0.631313 0.845551 0.831131
O O12 0.214349 0.765714 0.044028
#
# Coordination Sequence:
#
# PCOD9422027 Si02
#       7
#     8   4   4   8   8   8   8
#     4   9  21  41  63  91 131 169 212 273 322 399
#     4  12  24  40  64 100 134 170 226 268 338 402
#     4  12  24  42  64 100 130 168 220 280 322 398
#     4   9  21  42  65  91 122 178 213 263 339 383
#     4  12  25  42  65  99 132 171 221 276 332 393
#     4  12  21  43  69  89 133 173 213 278 332 388
#     4  10  20  42  65  92 123 169 218 261 328 394
#
# _framework density 18.602682999999999
#
# number of rings (size 3 to 8) (size 9 to 14) (size 15 to 20)
#    1.000    0.333    5.000    1.500    0.000    2.000 
#    3.000    0.000    0.000    0.000    0.000    0.000 
#    0.000    0.000    0.000    0.000    0.000    0.000 
#
# Total GULP energy -267295.958401 kJ/mol
# GULP energy per Si atom -5568.665800 kJ/mol
# Density = 1.856034 g / cm^3
# Si number density = 18.602683 Si / 1000 Ang^3
#
#
#
# Elastic Constant Matrix: (Units=GPa)
#
#
# Indices 1 2 3 4 5 6 
#
# 1 85.4311 55.4411 29.2911 0.0000 0.0000 0.0000
# 2 55.4411 110.8573 38.0177 0.0000 0.0000 0.0000
# 3 29.2911 38.0177 63.9563 0.0000 0.0000 0.0000
# 4 0.0000 0.0000 0.0000 18.7927 0.0000 0.0000
# 5 0.0000 0.0000 0.0000 0.0000 10.8328 0.0000
# 6 0.0000 0.0000 0.0000 0.0000 0.0000 13.3159
#
#
#
# Elastic Compliance Matrix: (Units=1/GPa)
#
#
# Indices 1 2 3 4 5 6 
#
# 1 0.017976 -0.007746 -0.003628 0.000000 0.000000 0.000000
# 2 -0.007746 0.014668 -0.005172 0.000000 0.000000 0.000000
# 3 -0.003628 -0.005172 0.020372 0.000000 0.000000 0.000000
# 4 0.000000 0.000000 0.000000 0.053212 0.000000 0.000000
# 5 0.000000 0.000000 0.000000 0.000000 0.092312 0.000000
# 6 0.000000 0.000000 0.000000 0.000000 0.000000 0.075098
#
#
# Mechanical properties :
#
#
# Convention : Reuss Voigt Hill
#
# Bulk Modulus (GPa) = 50.19085 56.19383 53.19234
# Shear Modulus (GPa) = 15.95553 17.75462 16.85507
#
# Velocity S-wave (km/s) = 2.93183 3.09271 3.01334
# Velocity P-wave (km/s) = 6.20482 6.55943 6.38459
#
# Compressibility (1/GPa) = 0.01992395
#
# Stress axis : x y z
#
# Youngs Moduli (GPa) = 55.62978 68.17618 49.08776
#
# Poissons Ratio (x) = 0.52807 0.17811
# Poissons Ratio (y) = 0.43089 0.25387
# Poissons Ratio (z) = 0.20185 0.35258
#
# Static dielectric constant tensor:
#      x y z
#    x 1.636100 0.000000 0.000000 
#    y 0.000000 1.677910 0.000000 
#    z 0.000000 0.000000 1.644990 
# 
# From -- ./inp_files/14568.got.cif
#   From: 2010.05.17/outbox.cif.g08.bks.cpg/sg54_8_cif.got.tgz:14568.got - 2010.06.03 13:09:01.
