data_PCOD9422409
_publ_section_title
;
Structure prediction by ZEFSAII (Michael W. Deem and Ramdas Pophale) SiO2 
 PCOD9422409
Probable space group: P C C A
;
_chemical_formula_sum "Si O2"
_cell_formula_units_Z 24
_cell_length_a 4.876058
_cell_length_b 17.800810
_cell_length_c 11.598314
_cell_angle_alpha 90.000000
_cell_angle_beta 90.000000
_cell_angle_gamma 90.000000
_cell_volume 1006.707930
_symmetry_space_group_name_H-M "P C C A"
_symmetry_group_IT_number 54
_symmetry_cell_setting 'orthorhombic'
loop_
_space_group_symop_operation_xyz
x,y,z
1/2-x,-y,z
1/2+x,-y,1/2-z
-x,y,1/2-z
-x,-y,-z
1/2+x,y,-z
1/2-x,y,1/2+z
x,-y,1/2+z
loop_
_atom_site_type_symbol
_atom_site_label
_atom_site_fract_x
_atom_site_fract_y
_atom_site_fract_z
Si Si1 0.750000 0.500000 0.412260
Si Si2 0.500000 0.124064 0.250000
Si Si3 0.224537 0.337928 0.581266
Si Si4 0.000000 0.779841 0.750000
Si Si5 0.750000 0.000000 0.913641
O O1 0.500000 0.500000 0.500000
O O2 0.744900 0.581382 0.353773
O O3 0.748007 0.172582 0.194018
O O4 0.322396 0.070668 0.166645
O O5 0.416520 0.335058 0.466909
O O6 0.333771 0.271646 0.660408
O O7 0.500000 0.000000 0.000000
#
# Coordination Sequence:
#
# PCOD9422409 Si02
#       5
#     4   4   8   4   4
#     4   8  16  34  58  82 118 166 220 272 306 368
#     4  12  27  46  67 104 138 160 224 280 313 414
#     4  10  21  39  61  90 129 174 221 267 323 381
#     4  12  25  40  65 100 138 172 208 276 341 386
#     4  12  26  48  76  98 130 182 220 266 342 404
#
# _framework density 23.840081999999999
#
# number of rings (size 3 to 8) (size 9 to 14) (size 15 to 20)
#    0.000    1.333    0.000    6.000    0.000    8.000 
#    0.000   11.667    0.000    0.000    0.000    0.000 
#    0.000    0.000    0.000    0.000    0.000    0.000 
#
# Total GULP energy -133980.088321 kJ/mol
# GULP energy per Si atom -5582.503680 kJ/mol
# Density = 2.378582 g / cm^3
# Si number density = 23.840082 Si / 1000 Ang^3
#
#
#
# Elastic Constant Matrix: (Units=GPa)
#
#
# Indices 1 2 3 4 5 6 
#
# 1 174.2692 43.0068 10.7594 0.0000 0.0000 0.0000
# 2 43.0068 131.3757 32.5642 0.0000 0.0000 0.0000
# 3 10.7594 32.5642 44.1427 0.0000 0.0000 0.0000
# 4 0.0000 0.0000 0.0000 8.5241 0.0000 0.0000
# 5 0.0000 0.0000 0.0000 0.0000 41.9680 0.0000
# 6 0.0000 0.0000 0.0000 0.0000 0.0000 46.3501
#
#
#
# Elastic Compliance Matrix: (Units=1/GPa)
#
#
# Indices 1 2 3 4 5 6 
#
# 1 0.006243 -0.002039 -0.000017 0.000000 0.000000 0.000000
# 2 -0.002039 0.009981 -0.006866 0.000000 0.000000 0.000000
# 3 -0.000017 -0.006866 0.027723 0.000000 0.000000 0.000000
# 4 0.000000 0.000000 0.000000 0.117315 0.000000 0.000000
# 5 0.000000 0.000000 0.000000 0.000000 0.023828 0.000000
# 6 0.000000 0.000000 0.000000 0.000000 0.000000 0.021575
#
#
# Mechanical properties :
#
#
# Convention : Reuss Voigt Hill
#
# Bulk Modulus (GPa) = 38.31161 58.04984 48.18072
# Shear Modulus (GPa) = 21.43990 36.93225 29.18608
#
# Velocity S-wave (km/s) = 3.00212 3.94021 3.50272
# Velocity P-wave (km/s) = 5.30303 6.71587 6.05083
#
# Compressibility (1/GPa) = 0.02610175
#
# Stress axis : x y z
#
# Youngs Moduli (GPa) = 160.19034 100.18778 36.07093
#
# Poissons Ratio (x) = 0.20431 0.00062
# Poissons Ratio (y) = 0.32668 0.24767
# Poissons Ratio (z) = 0.00275 0.68790
#
# Static dielectric constant tensor:
#      x y z
#    x 1.844300 0.000000 0.000000 
#    y 0.000000 2.051260 0.000000 
#    z 0.000000 0.000000 1.842760 
# 
# From -- ./inp_files/6203.got.cif
#   From: 2010.05.17/outbox.cif.g08.bks.cpg/sg54_4_cif.got.tgz:6203.got - 2010.06.03 13:09:01.
