data_PCOD9422367
_publ_section_title
;
Structure prediction by ZEFSAII (Michael W. Deem and Ramdas Pophale) SiO2 
 PCOD9422367
Probable space group: P C C A
;
_chemical_formula_sum "Si O2"
_cell_formula_units_Z 40
_cell_length_a 9.954840
_cell_length_b 10.504490
_cell_length_c 18.899725
_cell_angle_alpha 90.000000
_cell_angle_beta 90.000000
_cell_angle_gamma 90.000000
_cell_volume 1976.354019
_symmetry_space_group_name_H-M "P C C A"
_symmetry_group_IT_number 54
_symmetry_cell_setting 'orthorhombic'
loop_
_space_group_symop_operation_xyz
x,y,z
1/2-x,-y,z
1/2+x,-y,1/2-z
-x,y,1/2-z
-x,-y,-z
1/2+x,y,-z
1/2-x,y,1/2+z
x,-y,1/2+z
loop_
_atom_site_type_symbol
_atom_site_label
_atom_site_fract_x
_atom_site_fract_y
_atom_site_fract_z
Si Si1 0.533798 0.628263 0.669998
Si Si2 0.515878 0.662782 0.149474
Si Si3 0.767678 0.729429 0.399335
Si Si4 0.756108 0.349147 0.054512
Si Si5 0.000000 0.113824 0.250000
Si Si6 0.250000 0.000000 0.670674
O O1 0.500000 0.676529 0.750000
O O2 0.557973 0.476031 0.676977
O O3 0.403131 0.656139 0.621958
O O4 0.659260 0.677725 0.622245
O O5 0.356200 0.668605 0.143482
O O6 0.590633 0.677858 0.075467
O O7 0.559404 0.785112 0.194052
O O8 0.728725 0.720274 0.481403
O O9 0.779057 0.875168 0.375414
O O10 0.750000 0.500000 0.040078
O O11 0.881133 0.031790 0.283020
#
# Coordination Sequence:
#
# PCOD9422367 Si02
#       6
#     8   8   8   8   4   4
#     4  11  23  36  66 101 128 160 212 266 329 387
#     4  10  21  38  64  91 127 159 202 266 336 374
#     4  11  23  41  62  87 131 171 213 259 312 386
#     4  10  22  39  62  96 132 164 202 257 335 391
#     4  10  22  42  60  88 122 162 214 276 310 374
#     4  10  26  42  64  84 128 174 226 254 316 362
#
# _framework density 20.239287000000001
#
# number of rings (size 3 to 8) (size 9 to 14) (size 15 to 20)
#    0.000    1.600    1.000    3.000    7.000    4.800 
#    0.000   10.000    0.000    0.000    0.000    0.000 
#    0.000    0.000    0.000    0.000    0.000    0.000 
#
# Total GULP energy -223144.471130 kJ/mol
# GULP energy per Si atom -5578.611778 kJ/mol
# Density = 2.019322 g / cm^3
# Si number density = 20.239287 Si / 1000 Ang^3
#
#
#
# Elastic Constant Matrix: (Units=GPa)
#
#
# Indices 1 2 3 4 5 6 
#
# 1 97.2085 32.9111 40.2064 0.0000 0.0000 0.0000
# 2 32.9111 84.6086 41.5476 0.0000 0.0000 0.0000
# 3 40.2064 41.5476 110.9326 0.0000 0.0000 0.0000
# 4 0.0000 0.0000 0.0000 74.2553 0.0000 0.0000
# 5 0.0000 0.0000 0.0000 0.0000 34.5757 0.0000
# 6 0.0000 0.0000 0.0000 0.0000 0.0000 13.5888
#
#
#
# Elastic Compliance Matrix: (Units=1/GPa)
#
#
# Indices 1 2 3 4 5 6 
#
# 1 0.012817 -0.003314 -0.003404 0.000000 0.000000 0.000000
# 2 -0.003314 0.015340 -0.004544 0.000000 0.000000 0.000000
# 3 -0.003404 -0.004544 0.011950 0.000000 0.000000 0.000000
# 4 0.000000 0.000000 0.000000 0.013467 0.000000 0.000000
# 5 0.000000 0.000000 0.000000 0.000000 0.028922 0.000000
# 6 0.000000 0.000000 0.000000 0.000000 0.000000 0.073590
#
#
# Mechanical properties :
#
#
# Convention : Reuss Voigt Hill
#
# Bulk Modulus (GPa) = 56.87489 58.00888 57.44188
# Shear Modulus (GPa) = 27.10448 36.35628 31.73038
#
# Velocity S-wave (km/s) = 3.66348 4.24290 3.96379
# Velocity P-wave (km/s) = 6.78653 7.26132 7.02793
#
# Compressibility (1/GPa) = 0.01758245
#
# Stress axis : x y z
#
# Youngs Moduli (GPa) = 78.02028 65.19090 83.68061
#
# Poissons Ratio (x) = 0.21604 0.28487
# Poissons Ratio (y) = 0.25855 0.38025
# Poissons Ratio (z) = 0.26560 0.29623
#
# Static dielectric constant tensor:
#      x y z
#    x 1.726640 0.000000 0.000000 
#    y 0.000000 1.694050 0.000000 
#    z 0.000000 0.000000 1.769060 
# 
# From -- ./inp_files/16369.got.cif
#   From: 2010.05.17/outbox.cif.g08.bks.cpg/sg54_9_cif.got.tgz:16369.got - 2010.06.03 13:09:01.
