data_PCOD9422102
_publ_section_title
;
Structure prediction by ZEFSAII (Michael W. Deem and Ramdas Pophale) SiO2 
 PCOD9422102
Probable space group: P C C A
;
_chemical_formula_sum "Si O2"
_cell_formula_units_Z 48
_cell_length_a 8.994456
_cell_length_b 12.456826
_cell_length_c 22.605586
_cell_angle_alpha 90.000000
_cell_angle_beta 90.000000
_cell_angle_gamma 90.000000
_cell_volume 2532.783507
_symmetry_space_group_name_H-M "P C C A"
_symmetry_group_IT_number 54
_symmetry_cell_setting 'orthorhombic'
loop_
_space_group_symop_operation_xyz
x,y,z
1/2-x,-y,z
1/2+x,-y,1/2-z
-x,y,1/2-z
-x,-y,-z
1/2+x,y,-z
1/2-x,y,1/2+z
x,-y,1/2+z
loop_
_atom_site_type_symbol
_atom_site_label
_atom_site_fract_x
_atom_site_fract_y
_atom_site_fract_z
Si Si1 0.455931 0.795883 0.632256
Si Si2 0.062155 0.391728 0.926673
Si Si3 0.125034 0.821832 0.592717
Si Si4 0.591566 0.636852 0.051363
Si Si5 0.378856 0.924017 0.970396
Si Si6 0.574714 0.991164 0.308057
O O1 0.516808 0.675279 0.631216
O O2 0.278250 0.788104 0.624016
O O3 0.540261 0.847886 0.575738
O O4 0.484153 0.888036 0.680533
O O5 0.230798 0.358915 0.943155
O O6 0.051004 0.520119 0.921927
O O7 0.956671 0.363297 0.982508
O O8 0.178467 0.859738 0.527711
O O9 0.059979 0.919102 0.632674
O O10 0.000426 0.731417 0.582806
O O11 0.250000 0.000000 0.944874
O O12 0.500000 0.000000 0.000000
O O13 0.500000 0.943130 0.250000
O O14 0.750000 0.000000 0.297725
#
# Coordination Sequence:
#
# PCOD9422102 Si02
#       6
#     8   8   8   8   8   8
#     4  11  22  35  55  79 111 144 179 223 271 324
#     4  10  21  34  50  79 112 149 184 219 264 321
#     4  11  21  36  54  79 112 144 177 224 271 323
#     4  10  21  34  51  77 114 148 183 221 264 320
#     4  12  21  32  48  78 114 143 178 217 266 330
#     4  10  23  41  57  80 109 140 181 227 275 323
#
# _framework density 18.951481000000001
#
# number of rings (size 3 to 8) (size 9 to 14) (size 15 to 20)
#    0.000    1.333    5.000    1.500    2.333    4.000 
#    0.000    0.000    0.000    1.000    0.000    0.000 
#    0.000    0.000    0.000    0.000    0.000    0.000 
#
# Total GULP energy -267744.457415 kJ/mol
# GULP energy per Si atom -5578.009529 kJ/mol
# Density = 1.890835 g / cm^3
# Si number density = 18.951481 Si / 1000 Ang^3
#
#
#
# Elastic Constant Matrix: (Units=GPa)
#
#
# Indices 1 2 3 4 5 6 
#
# 1 63.9607 27.1276 4.2701 0.0000 0.0000 0.0000
# 2 27.1276 92.8855 15.9310 0.0000 0.0000 0.0000
# 3 4.2701 15.9310 57.4018 0.0000 0.0000 0.0000
# 4 0.0000 0.0000 0.0000 12.8139 0.0000 0.0000
# 5 0.0000 0.0000 0.0000 0.0000 18.9326 0.0000
# 6 0.0000 0.0000 0.0000 0.0000 0.0000 35.8614
#
#
#
# Elastic Compliance Matrix: (Units=1/GPa)
#
#
# Indices 1 2 3 4 5 6 
#
# 1 0.017846 -0.005233 0.000125 0.000000 0.000000 0.000000
# 2 -0.005233 0.012839 -0.003174 0.000000 0.000000 0.000000
# 3 0.000125 -0.003174 0.018293 0.000000 0.000000 0.000000
# 4 0.000000 0.000000 0.000000 0.078040 0.000000 0.000000
# 5 0.000000 0.000000 0.000000 0.000000 0.052819 0.000000
# 6 0.000000 0.000000 0.000000 0.000000 0.000000 0.027885
#
#
# Mechanical properties :
#
#
# Convention : Reuss Voigt Hill
#
# Bulk Modulus (GPa) = 30.85228 34.32282 32.58755
# Shear Modulus (GPa) = 21.26842 24.64954 22.95898
#
# Velocity S-wave (km/s) = 3.35364 3.61039 3.48438
# Velocity P-wave (km/s) = 5.59561 5.96071 5.78104
#
# Compressibility (1/GPa) = 0.03241251
#
# Stress axis : x y z
#
# Youngs Moduli (GPa) = 56.03530 77.88928 54.66686
#
# Poissons Ratio (x) = 0.40763 -0.00683
# Poissons Ratio (y) = 0.29325 0.17351
# Poissons Ratio (z) = -0.00700 0.24721
#
# Static dielectric constant tensor:
#      x y z
#    x 1.664780 0.000000 0.000000 
#    y 0.000000 1.749440 0.000000 
#    z 0.000000 0.000000 1.662190 
# 
# From -- ./inp_files/23498.got.cif
#   From: 2010.05.17/outbox.cif.g08.bks.cpg/sg54_12_cif.got.tgz:23498.got - 2010.06.03 13:09:01.
