data_PCOD9422263
_publ_section_title
;
Structure prediction by ZEFSAII (Michael W. Deem and Ramdas Pophale) SiO2 
 PCOD9422263
Probable space group: P C C A
;
_chemical_formula_sum "Si O2"
_cell_formula_units_Z 32
_cell_length_a 14.502391
_cell_length_b 6.433568
_cell_length_c 17.547427
_cell_angle_alpha 90.000000
_cell_angle_beta 90.000000
_cell_angle_gamma 90.000000
_cell_volume 1637.212116
_symmetry_space_group_name_H-M "P C C A"
_symmetry_group_IT_number 54
_symmetry_cell_setting 'orthorhombic'
loop_
_space_group_symop_operation_xyz
x,y,z
1/2-x,-y,z
1/2+x,-y,1/2-z
-x,y,1/2-z
-x,-y,-z
1/2+x,y,-z
1/2-x,y,1/2+z
x,-y,1/2+z
loop_
_atom_site_type_symbol
_atom_site_label
_atom_site_fract_x
_atom_site_fract_y
_atom_site_fract_z
Si Si1 0.407941 0.079779 0.541874
Si Si2 0.839564 0.347565 0.910262
Si Si3 0.646319 0.562039 0.562869
Si Si4 0.017262 0.589623 0.664479
O O1 0.356002 0.210827 0.475840
O O2 0.443032 0.229430 0.609941
O O3 0.500000 0.000000 0.500000
O O4 0.344388 0.899145 0.578057
O O5 0.750000 0.500000 0.904822
O O6 0.904928 0.411499 0.841084
O O7 0.883442 0.420648 0.990751
O O8 0.750000 0.500000 0.584411
O O9 0.574190 0.512455 0.628391
O O10 0.000000 0.660420 0.750000
#
# Coordination Sequence:
#
# PCOD9422263 Si02
#       4
#     8   8   8   8
#     4  11  19  41  68  88 119 167 218 253 309 379
#     4  10  21  39  66  91 121 164 217 265 306 372
#     4  10  21  37  63  93 121 162 211 268 307 373
#     4  11  23  38  59  93 134 167 202 259 326 375
#
# _framework density 19.54542
#
# number of rings (size 3 to 8) (size 9 to 14) (size 15 to 20)
#    0.000    1.500    5.000    1.500    0.000   11.000 
#    0.000    0.000    5.500    0.000    0.000    0.000 
#    0.000    0.000    0.000    0.000    0.000    0.000 
#
# Total GULP energy -178237.523936 kJ/mol
# GULP energy per Si atom -5569.922623 kJ/mol
# Density = 1.950093 g / cm^3
# Si number density = 19.545420 Si / 1000 Ang^3
#
#
#
# Elastic Constant Matrix: (Units=GPa)
#
#
# Indices 1 2 3 4 5 6 
#
# 1 131.1867 68.7217 43.7496 0.0000 0.0000 0.0000
# 2 68.7217 137.2576 30.5126 0.0000 0.0000 0.0000
# 3 43.7496 30.5126 93.4834 0.0000 0.0000 0.0000
# 4 0.0000 0.0000 0.0000 18.8272 0.0000 0.0000
# 5 0.0000 0.0000 0.0000 0.0000 5.2685 0.0000
# 6 0.0000 0.0000 0.0000 0.0000 0.0000 32.2672
#
#
#
# Elastic Compliance Matrix: (Units=1/GPa)
#
#
# Indices 1 2 3 4 5 6 
#
# 1 0.011438 -0.004892 -0.003756 0.000000 0.000000 0.000000
# 2 -0.004892 0.009948 -0.000958 0.000000 0.000000 0.000000
# 3 -0.003756 -0.000958 0.012768 0.000000 0.000000 0.000000
# 4 0.000000 0.000000 0.000000 0.053115 0.000000 0.000000
# 5 0.000000 0.000000 0.000000 0.000000 0.189807 0.000000
# 6 0.000000 0.000000 0.000000 0.000000 0.000000 0.030991
#
#
# Mechanical properties :
#
#
# Convention : Reuss Voigt Hill
#
# Bulk Modulus (GPa) = 66.92528 71.98838 69.45683
# Shear Modulus (GPa) = 15.04857 25.86883 20.45870
#
# Velocity S-wave (km/s) = 2.77777 3.64197 3.23882
# Velocity P-wave (km/s) = 6.67857 7.38895 7.04272
#
# Compressibility (1/GPa) = 0.01494204
#
# Stress axis : x y z
#
# Youngs Moduli (GPa) = 87.42888 100.52695 78.32365
#
# Poissons Ratio (x) = 0.49174 0.29420
# Poissons Ratio (y) = 0.42767 0.07500
# Poissons Ratio (z) = 0.32840 0.09626
#
# Static dielectric constant tensor:
#      x y z
#    x 1.747940 0.000000 0.000000 
#    y 0.000000 1.795700 0.000000 
#    z 0.000000 0.000000 1.641650 
# 
# From -- ./inp_files/17562.got.cif
#   From: 2010.05.17/outbox.cif.g08.bks.cpg/sg54_9_cif.got.tgz:17562.got - 2010.06.03 13:09:01.
