data_PCOD9422307
_publ_section_title
;
Structure prediction by ZEFSAII (Michael W. Deem and Ramdas Pophale) SiO2 
 PCOD9422307
Probable space group: P C C A
;
_chemical_formula_sum "Si O2"
_cell_formula_units_Z 32
_cell_length_a 5.009537
_cell_length_b 13.424201
_cell_length_c 24.480742
_cell_angle_alpha 90.000000
_cell_angle_beta 90.000000
_cell_angle_gamma 90.000000
_cell_volume 1646.306192
_symmetry_space_group_name_H-M "P C C A"
_symmetry_group_IT_number 54
_symmetry_cell_setting 'orthorhombic'
loop_
_space_group_symop_operation_xyz
x,y,z
1/2-x,-y,z
1/2+x,-y,1/2-z
-x,y,1/2-z
-x,-y,-z
1/2+x,y,-z
1/2-x,y,1/2+z
x,-y,1/2+z
loop_
_atom_site_type_symbol
_atom_site_label
_atom_site_fract_x
_atom_site_fract_y
_atom_site_fract_z
Si Si1 0.153625 0.394138 0.193380
Si Si2 0.263868 0.380694 0.466230
Si Si3 0.497437 0.071433 0.314184
Si Si4 0.860447 0.714319 0.148155
O O1 0.250000 0.500000 0.168188
O O2 0.430063 0.335249 0.189967
O O3 0.000000 0.418918 0.250000
O O4 0.936493 0.322013 0.164897
O O5 0.250000 0.500000 0.457197
O O6 0.464350 0.355128 0.515712
O O7 0.379458 0.328894 0.412665
O O8 0.500000 0.102206 0.250000
O O9 0.436825 0.169959 0.348754
O O10 0.750000 0.000000 0.325358
O O11 0.250000 0.000000 0.321402
#
# Coordination Sequence:
#
# PCOD9422307 Si02
#       4
#     8   8   8   8
#     4  12  23  36  54  86 126 158 191 233 293 375
#     4  10  21  38  59  85 116 152 200 253 301 357
#     4  10  21  38  59  85 116 152 200 252 299 356
#     4  12  23  38  62  85 116 162 204 244 304 363
#
# _framework density 19.437453000000001
#
# number of rings (size 3 to 8) (size 9 to 14) (size 15 to 20)
#    0.000    1.000    0.000    9.000    0.000    4.000 
#    0.000    0.000    0.000    4.500    0.000    0.000 
#    0.000    0.000    0.000    0.000    0.000    0.000 
#
# Total GULP energy -178358.682775 kJ/mol
# GULP energy per Si atom -5573.708837 kJ/mol
# Density = 1.939321 g / cm^3
# Si number density = 19.437453 Si / 1000 Ang^3
#
#
#
# Elastic Constant Matrix: (Units=GPa)
#
#
# Indices 1 2 3 4 5 6 
#
# 1 134.3685 43.2400 34.9434 0.0000 0.0000 0.0000
# 2 43.2400 111.1625 40.6175 0.0000 0.0000 0.0000
# 3 34.9434 40.6175 73.3098 0.0000 0.0000 0.0000
# 4 0.0000 0.0000 0.0000 24.3263 0.0000 0.0000
# 5 0.0000 0.0000 0.0000 0.0000 11.1840 0.0000
# 6 0.0000 0.0000 0.0000 0.0000 0.0000 52.2111
#
#
#
# Elastic Compliance Matrix: (Units=1/GPa)
#
#
# Indices 1 2 3 4 5 6 
#
# 1 0.008986 -0.002420 -0.002942 0.000000 0.000000 0.000000
# 2 -0.002420 0.011931 -0.005457 0.000000 0.000000 0.000000
# 3 -0.002942 -0.005457 0.018067 0.000000 0.000000 0.000000
# 4 0.000000 0.000000 0.000000 0.041108 0.000000 0.000000
# 5 0.000000 0.000000 0.000000 0.000000 0.089413 0.000000
# 6 0.000000 0.000000 0.000000 0.000000 0.000000 0.019153
#
#
# Mechanical properties :
#
#
# Convention : Reuss Voigt Hill
#
# Bulk Modulus (GPa) = 57.65358 61.82695 59.74027
# Shear Modulus (GPa) = 23.13973 30.88028 27.01001
#
# Velocity S-wave (km/s) = 3.45406 3.99017 3.73176
# Velocity P-wave (km/s) = 6.75521 7.28738 7.02633
#
# Compressibility (1/GPa) = 0.01734498
#
# Stress axis : x y z
#
# Youngs Moduli (GPa) = 111.28078 83.81405 55.35089
#
# Poissons Ratio (x) = 0.20286 0.16286
# Poissons Ratio (y) = 0.26934 0.30204
# Poissons Ratio (z) = 0.32742 0.45736
#
# Static dielectric constant tensor:
#      x y z
#    x 1.690120 0.000000 0.000000 
#    y 0.000000 1.675770 0.000000 
#    z 0.000000 0.000000 1.686490 
# 
# From -- ./inp_files/22649.got.cif
#   From: 2010.05.17/outbox.cif.g08.bks.cpg/sg54_12_cif.got.tgz:22649.got - 2010.06.03 13:09:01.
