data_PCOD9422924
_publ_section_title
;
Structure prediction by ZEFSAII (Michael W. Deem and Ramdas Pophale) SiO2 
 PCOD9422924
Probable space group: P C C A
;
_chemical_formula_sum "Si O2"
_cell_formula_units_Z 40
_cell_length_a 4.864598
_cell_length_b 26.816159
_cell_length_c 11.864565
_cell_angle_alpha 90.000000
_cell_angle_beta 90.000000
_cell_angle_gamma 90.000000
_cell_volume 1547.730528
_symmetry_space_group_name_H-M "P C C A"
_symmetry_group_IT_number 54
_symmetry_cell_setting 'orthorhombic'
loop_
_space_group_symop_operation_xyz
x,y,z
1/2-x,-y,z
1/2+x,-y,1/2-z
-x,y,1/2-z
-x,-y,-z
1/2+x,y,-z
1/2-x,y,1/2+z
x,-y,1/2+z
loop_
_atom_site_type_symbol
_atom_site_label
_atom_site_fract_x
_atom_site_fract_y
_atom_site_fract_z
Si Si1 0.549715 0.352378 0.923465
Si Si2 0.348851 0.450996 0.914349
Si Si3 0.250000 0.000000 0.825838
Si Si4 0.431862 0.102749 0.430116
Si Si5 0.000000 0.180549 0.750000
Si Si6 0.598220 0.237987 0.917107
O O1 0.546461 0.295826 0.882586
O O2 0.367862 0.356319 0.039243
O O3 0.394344 0.397152 0.857571
O O4 0.750000 0.500000 0.154543
O O5 0.132557 0.452809 0.017180
O O6 0.128941 0.046242 0.894092
O O7 0.500000 0.019539 0.750000
O O8 0.749130 0.110515 0.459409
O O9 0.354289 0.141927 0.335354
O O10 0.233091 0.212161 0.684575
O O11 0.303257 0.227939 0.975764
#
# Coordination Sequence:
#
# PCOD9422924 Si02
#       6
#     8   8   4   8   4   8
#     4   8  14  26  44  66 100 145 198 250 303 369
#     4   8  12  18  32  58  92 134 187 237 286 348
#     4  12  24  48  76 104 136 176 214 266 358 436
#     4  12  27  46  71 101 135 173 215 278 353 428
#     4  12  26  44  68  94 130 168 230 288 344 418
#     4  10  22  40  60  86 119 164 221 278 341 397
#
# _framework density 25.844293
#
# number of rings (size 3 to 8) (size 9 to 14) (size 15 to 20)
#    0.000    2.000    1.000    3.000    0.000    2.400 
#    0.000    0.000    0.000    0.000    0.000    0.000 
#    0.000    0.000    0.000    0.000    0.000 6224.000 
#
# Total GULP energy -222971.035134 kJ/mol
# GULP energy per Si atom -5574.275878 kJ/mol
# Density = 2.578547 g / cm^3
# Si number density = 25.844293 Si / 1000 Ang^3
#
#
#
# Elastic Constant Matrix: (Units=GPa)
#
#
# Indices 1 2 3 4 5 6 
#
# 1 134.4699 28.4729 14.3038 0.0000 0.0000 0.0000
# 2 28.4729 229.3752 52.8176 0.0000 0.0000 0.0000
# 3 14.3038 52.8176 64.6256 0.0000 0.0000 0.0000
# 4 0.0000 0.0000 0.0000 -136.2117 0.0000 0.0000
# 5 0.0000 0.0000 0.0000 0.0000 26.5998 0.0000
# 6 0.0000 0.0000 0.0000 0.0000 0.0000 30.6614
#
#
#
# Elastic Compliance Matrix: (Units=1/GPa)
#
#
# Indices 1 2 3 4 5 6 
#
# 1 0.007705 -0.000694 -0.001138 0.000000 0.000000 0.000000
# 2 -0.000694 0.005433 -0.004287 0.000000 0.000000 0.000000
# 3 -0.001138 -0.004287 0.019229 0.000000 0.000000 0.000000
# 4 0.000000 0.000000 0.000000 -0.007342 0.000000 0.000000
# 5 0.000000 0.000000 0.000000 0.000000 0.037594 0.000000
# 6 0.000000 0.000000 0.000000 0.000000 0.000000 0.032614
#
#
# Mechanical properties :
#
#
# Convention : Reuss Voigt Hill
#
# Bulk Modulus (GPa) = 49.67949 68.85105 59.26527
# Shear Modulus (GPa) = 43.79023 6.40166 25.09594
#
# Velocity S-wave (km/s) = 4.12076 1.57556 3.11954
# Velocity P-wave (km/s) = 6.47342 5.47799 5.99640
#
# Compressibility (1/GPa) = 0.02012903
#
# Stress axis : x y z
#
# Youngs Moduli (GPa) = 129.79139 184.06309 52.00505
#
# Poissons Ratio (x) = 0.12782 0.05917
# Poissons Ratio (y) = 0.09013 0.22292
# Poissons Ratio (z) = 0.14767 0.78900
#
# Static dielectric constant tensor:
#      x y z
#    x 2.027920 0.000000 0.000000 
#    y 0.000000 2.265560 0.000000 
#    z 0.000000 0.000000 2.145770 
# 
# From -- ./inp_files/6455.got.cif
#   From: 2010.05.17/outbox.cif.g08.bks.cpg/sg54_4_cif.got.tgz:6455.got - 2010.06.03 13:09:01.
