data_PCOD9422756
_publ_section_title
;
Structure prediction by ZEFSAII (Michael W. Deem and Ramdas Pophale) SiO2 
 PCOD9422756
Probable space group: P C C A
;
_chemical_formula_sum "Si O2"
_cell_formula_units_Z 64
_cell_length_a 9.743510
_cell_length_b 15.221618
_cell_length_c 23.318429
_cell_angle_alpha 90.000000
_cell_angle_beta 90.000000
_cell_angle_gamma 90.000000
_cell_volume 3458.402543
_symmetry_space_group_name_H-M "P C C A"
_symmetry_group_IT_number 54
_symmetry_cell_setting 'orthorhombic'
loop_
_space_group_symop_operation_xyz
x,y,z
1/2-x,-y,z
1/2+x,-y,1/2-z
-x,y,1/2-z
-x,-y,-z
1/2+x,y,-z
1/2-x,y,1/2+z
x,-y,1/2+z
loop_
_atom_site_type_symbol
_atom_site_label
_atom_site_fract_x
_atom_site_fract_y
_atom_site_fract_z
Si Si1 0.087711 0.501265 0.308263
Si Si2 0.879157 0.064307 0.431952
Si Si3 0.503752 0.687390 0.179574
Si Si4 0.017803 0.692993 0.318739
Si Si5 0.618969 0.061637 0.061135
Si Si6 0.759789 0.784302 0.850492
Si Si7 0.739488 0.184959 0.647728
Si Si8 0.836701 0.919230 0.753001
O O1 0.250000 0.500000 0.295633
O O2 0.059562 0.407726 0.337172
O O3 0.000000 0.497714 0.250000
O O4 0.038426 0.591675 0.337964
O O5 0.927420 0.087329 0.496723
O O6 0.820752 0.149853 0.398904
O O7 0.750000 0.000000 0.433791
O O8 0.002469 0.000355 0.409136
O O9 0.500000 0.696632 0.250000
O O10 0.351936 0.697959 0.155192
O O11 0.593551 0.765031 0.150308
O O12 0.896636 0.750450 0.348156
O O13 0.000000 0.690886 0.250000
O O14 0.159182 0.742869 0.327436
O O15 0.680650 0.145626 0.093516
O O16 0.750000 0.000000 0.054909
O O17 0.796878 0.837727 0.792756
O O18 0.719388 0.103405 0.690373
O O19 0.000000 0.933549 0.750000
O O20 0.750000 0.000000 0.777068
#
# Coordination Sequence:
#
# PCOD9422756 Si02
#       8
#     8   8   8   8   8   8   8   8
#     4  10  22  35  56  82 115 151 187 226 285 342
#     4  10  22  41  57  82 114 151 199 253 282 318
#     4  11  20  37  55  80 118 148 184 235 280 351
#     4  11  22  35  54  83 116 151 187 230 285 354
#     4  10  22  38  61  82 109 151 206 245 281 329
#     4  12  22  37  55  80 116 152 186 238 289 334
#     4  12  20  37  56  80 112 151 190 234 284 341
#     4  12  26  36  51  79 116 154 190 227 284 350
#
# _framework density 18.505652999999999
#
# number of rings (size 3 to 8) (size 9 to 14) (size 15 to 20)
#    0.000    1.000    5.000    2.250    8.750    0.000 
#    0.000    0.000    0.000    0.000    0.000    5.250 
#    0.000    0.000    0.000    0.000    0.000    0.000 
#
# Total GULP energy -356494.229008 kJ/mol
# GULP energy per Si atom -5570.222328 kJ/mol
# Density = 1.846353 g / cm^3
# Si number density = 18.505653 Si / 1000 Ang^3
#
#
#
# Elastic Constant Matrix: (Units=GPa)
#
#
# Indices 1 2 3 4 5 6 
#
# 1 93.9298 18.4513 -1.1686 0.0000 0.0000 0.0000
# 2 18.4513 96.3271 17.7466 0.0000 0.0000 0.0000
# 3 -1.1686 17.7466 45.8485 0.0000 0.0000 0.0000
# 4 0.0000 0.0000 0.0000 -13.5694 0.0000 0.0000
# 5 0.0000 0.0000 0.0000 0.0000 54.1689 0.0000
# 6 0.0000 0.0000 0.0000 0.0000 0.0000 21.3371
#
#
#
# Elastic Compliance Matrix: (Units=1/GPa)
#
#
# Indices 1 2 3 4 5 6 
#
# 1 0.011123 -0.002350 0.001193 0.000000 0.000000 0.000000
# 2 -0.002350 0.011675 -0.004579 0.000000 0.000000 0.000000
# 3 0.001193 -0.004579 0.023614 0.000000 0.000000 0.000000
# 4 0.000000 0.000000 0.000000 -0.073695 0.000000 0.000000
# 5 0.000000 0.000000 0.000000 0.000000 0.018461 0.000000
# 6 0.000000 0.000000 0.000000 0.000000 0.000000 0.046867
#
#
# Mechanical properties :
#
#
# Convention : Reuss Voigt Hill
#
# Bulk Modulus (GPa) = 28.62094 34.01823 31.31958
# Shear Modulus (GPa) = 81.74917 25.79239 53.77078
#
# Velocity S-wave (km/s) = 6.65366 3.73736 5.39625
# Velocity P-wave (km/s) = 8.63295 6.08657 7.46907
#
# Compressibility (1/GPa) = 0.03493945
#
# Stress axis : x y z
#
# Youngs Moduli (GPa) = 89.90539 85.65229 42.34813
#
# Poissons Ratio (x) = 0.20132 -0.05053
# Poissons Ratio (y) = 0.21131 0.19391
# Poissons Ratio (z) = -0.10728 0.39220
#
# Static dielectric constant tensor:
#      x y z
#    x 1.680380 0.000000 0.000000 
#    y 0.000000 1.685510 0.000000 
#    z 0.000000 0.000000 1.680650 
# 
# From -- ./inp_files/23661.got.cif
#   From: 2010.05.17/outbox.cif.g08.bks.cpg/sg54_12_cif.got.tgz:23661.got - 2010.06.03 13:09:01.
