data_PCOD9422507
_publ_section_title
;
Structure prediction by ZEFSAII (Michael W. Deem and Ramdas Pophale) SiO2 
 PCOD9422507
Probable space group: P C C A
;
_chemical_formula_sum "Si O2"
_cell_formula_units_Z 36
_cell_length_a 10.840480
_cell_length_b 6.296004
_cell_length_c 23.311443
_cell_angle_alpha 90.000000
_cell_angle_beta 90.000000
_cell_angle_gamma 90.000000
_cell_volume 1591.045741
_symmetry_space_group_name_H-M "P C C A"
_symmetry_group_IT_number 54
_symmetry_cell_setting 'orthorhombic'
loop_
_space_group_symop_operation_xyz
x,y,z
1/2-x,-y,z
1/2+x,-y,1/2-z
-x,y,1/2-z
-x,-y,-z
1/2+x,y,-z
1/2-x,y,1/2+z
x,-y,1/2+z
loop_
_atom_site_type_symbol
_atom_site_label
_atom_site_fract_x
_atom_site_fract_y
_atom_site_fract_z
Si Si1 0.250000 0.500000 0.100371
Si Si2 0.628549 0.127508 0.336172
Si Si3 0.377702 0.877281 0.881508
Si Si4 0.128907 0.625519 0.492476
Si Si5 0.375851 0.615767 0.771221
O O1 0.153334 0.640223 0.135529
O O2 0.321798 0.658857 0.056902
O O3 0.505773 0.018979 0.360641
O O4 0.622556 0.173418 0.268414
O O5 0.750000 0.000000 0.348718
O O6 0.390766 0.814270 0.947959
O O7 0.376634 0.676499 0.837917
O O8 0.250000 0.000000 0.873055
O O9 0.250000 0.500000 0.467351
O O10 0.000000 0.500000 0.500000
O O11 0.250000 0.500000 0.757924
O O12 0.500000 0.498440 0.750000
#
# Coordination Sequence:
#
# PCOD9422507 Si02
#       5
#     4   8   8   8   8
#     4  10  22  42  66  88 124 172 218 254 318 388
#     4  11  23  42  66  93 129 171 214 264 321 398
#     4  11  23  41  61  99 132 160 214 277 329 376
#     4  10  21  40  63  84 124 168 213 256 314 380
#     4  10  22  39  65  94 128 169 213 261 327 392
#
# _framework density 22.626628
#
# number of rings (size 3 to 8) (size 9 to 14) (size 15 to 20)
#    0.667    0.889    3.333    1.333    0.000    4.444 
#    0.000    3.333    0.000    0.000    0.000    0.000 
#    0.000    0.000    0.000    0.000    0.000    0.000 
#
# Total GULP energy -200577.176015 kJ/mol
# GULP energy per Si atom -5571.588223 kJ/mol
# Density = 2.257513 g / cm^3
# Si number density = 22.626628 Si / 1000 Ang^3
#
#
#
# Elastic Constant Matrix: (Units=GPa)
#
#
# Indices 1 2 3 4 5 6 
#
# 1 239.9723 38.3589 28.6800 0.0000 0.0000 0.0000
# 2 38.3589 15.3726 17.9754 0.0000 0.0000 0.0000
# 3 28.6800 17.9754 89.8804 0.0000 0.0000 0.0000
# 4 0.0000 0.0000 0.0000 10.6054 0.0000 0.0000
# 5 0.0000 0.0000 0.0000 0.0000 34.1067 0.0000
# 6 0.0000 0.0000 0.0000 0.0000 0.0000 37.8739
#
#
#
# Elastic Compliance Matrix: (Units=1/GPa)
#
#
# Indices 1 2 3 4 5 6 
#
# 1 0.007120 -0.019721 0.001672 0.000000 0.000000 0.000000
# 2 -0.019721 0.139532 -0.021613 0.000000 0.000000 0.000000
# 3 0.001672 -0.021613 0.014915 0.000000 0.000000 0.000000
# 4 0.000000 0.000000 0.000000 0.094292 0.000000 0.000000
# 5 0.000000 0.000000 0.000000 0.000000 0.029320 0.000000
# 6 0.000000 0.000000 0.000000 0.000000 0.000000 0.026403
#
#
# Mechanical properties :
#
#
# Convention : Reuss Voigt Hill
#
# Bulk Modulus (GPa) = 12.15895 57.25042 34.70469
# Shear Modulus (GPa) = 11.95263 33.86459 22.90861
#
# Velocity S-wave (km/s) = 2.30087 3.87288 3.18537
# Velocity P-wave (km/s) = 3.52762 6.73469 5.37588
#
# Compressibility (1/GPa) = 0.08224394
#
# Stress axis : x y z
#
# Youngs Moduli (GPa) = 140.45693 7.16681 67.04820
#
# Poissons Ratio (x) = 0.14134 -0.11212
# Poissons Ratio (y) = 2.76993 1.44908
# Poissons Ratio (z) = -0.23487 0.15489
#
# Static dielectric constant tensor:
#      x y z
#    x 1.911890 0.000000 0.000000 
#    y 0.000000 1.851970 0.000000 
#    z 0.000000 0.000000 1.833500 
# 
# From -- ./inp_files/23841.got.cif
#   From: 2010.05.17/outbox.cif.g08.bks.cpg/sg54_12_cif.got.tgz:23841.got - 2010.06.03 13:09:01.
