data_PCOD9422961
_publ_section_title
;
Structure prediction by ZEFSAII (Michael W. Deem and Ramdas Pophale) SiO2 
 PCOD9422961
Probable space group: P C C A
;
_chemical_formula_sum "Si O2"
_cell_formula_units_Z 48
_cell_length_a 8.629566
_cell_length_b 18.904978
_cell_length_c 14.019579
_cell_angle_alpha 90.000000
_cell_angle_beta 90.000000
_cell_angle_gamma 90.000000
_cell_volume 2287.178728
_symmetry_space_group_name_H-M "P C C A"
_symmetry_group_IT_number 54
_symmetry_cell_setting 'orthorhombic'
loop_
_space_group_symop_operation_xyz
x,y,z
1/2-x,-y,z
1/2+x,-y,1/2-z
-x,y,1/2-z
-x,-y,-z
1/2+x,y,-z
1/2-x,y,1/2+z
x,-y,1/2+z
loop_
_atom_site_type_symbol
_atom_site_label
_atom_site_fract_x
_atom_site_fract_y
_atom_site_fract_z
Si Si1 0.866380 0.553435 0.464800
Si Si2 0.935775 0.997319 0.645766
Si Si3 0.280716 0.332365 0.655860
Si Si4 0.649609 0.342495 0.622620
Si Si5 0.780159 0.218402 0.490271
Si Si6 0.031741 0.882866 0.011638
O O1 0.750000 0.500000 0.414607
O O2 0.855775 0.619861 0.391839
O O3 0.799092 0.589586 0.561074
O O4 0.000000 0.500000 0.500000
O O5 0.000000 0.985111 0.750000
O O6 0.995710 0.934771 0.577041
O O7 0.750000 0.000000 0.644525
O O8 0.995827 0.071637 0.604236
O O9 0.459973 0.347701 0.620709
O O10 0.291562 0.340398 0.769141
O O11 0.258096 0.254240 0.612754
O O12 0.718048 0.274259 0.567797
O O13 0.709485 0.140195 0.494296
O O14 0.956372 0.195289 0.508717
#
# Coordination Sequence:
#
# PCOD9422961 Si02
#       6
#     8   8   8   8   8   8
#     4  11  22  41  64  91 130 171 208 256 320 382
#     4  11  26  42  64  96 131 168 216 271 318 381
#     4  10  22  40  64  93 126 167 214 271 317 377
#     4  10  22  40  63  95 127 161 218 269 319 379
#     4  11  22  41  66  92 125 173 210 270 324 384
#     4  11  24  43  64  90 131 170 217 260 327 389
#
# _framework density 20.986553000000001
#
# number of rings (size 3 to 8) (size 9 to 14) (size 15 to 20)
#    0.000    1.333    5.000    0.000    2.333    3.333 
#    0.000    1.667    0.000    0.000    0.000    0.000 
#    0.000    0.000    0.000    0.000    0.000    0.000 
#
# Total GULP energy -267231.178652 kJ/mol
# GULP energy per Si atom -5567.316222 kJ/mol
# Density = 2.093879 g / cm^3
# Si number density = 20.986553 Si / 1000 Ang^3
#
#
#
# Elastic Constant Matrix: (Units=GPa)
#
#
# Indices 1 2 3 4 5 6 
#
# 1 35.4170 15.1199 10.7365 0.0000 0.0000 0.0000
# 2 15.1199 100.9428 29.6120 0.0000 0.0000 0.0000
# 3 10.7365 29.6120 107.7881 0.0000 0.0000 0.0000
# 4 0.0000 0.0000 0.0000 9.9341 0.0000 0.0000
# 5 0.0000 0.0000 0.0000 0.0000 27.6895 0.0000
# 6 0.0000 0.0000 0.0000 0.0000 0.0000 32.7611
#
#
#
# Elastic Compliance Matrix: (Units=1/GPa)
#
#
# Indices 1 2 3 4 5 6 
#
# 1 0.030533 -0.004004 -0.001941 0.000000 0.000000 0.000000
# 2 -0.004004 0.011300 -0.002706 0.000000 0.000000 0.000000
# 3 -0.001941 -0.002706 0.010214 0.000000 0.000000 0.000000
# 4 0.000000 0.000000 0.000000 0.100663 0.000000 0.000000
# 5 0.000000 0.000000 0.000000 0.000000 0.036115 0.000000
# 6 0.000000 0.000000 0.000000 0.000000 0.000000 0.030524
#
#
# Mechanical properties :
#
#
# Convention : Reuss Voigt Hill
#
# Bulk Modulus (GPa) = 28.78082 39.45385 34.11734
# Shear Modulus (GPa) = 20.14243 26.65559 23.39901
#
# Velocity S-wave (km/s) = 3.10139 3.56775 3.34271
# Velocity P-wave (km/s) = 5.15447 5.98433 5.58483
#
# Compressibility (1/GPa) = 0.03474536
#
# Stress axis : x y z
#
# Youngs Moduli (GPa) = 32.75161 88.49542 97.90377
#
# Poissons Ratio (x) = 0.35433 0.19006
# Poissons Ratio (y) = 0.13113 0.26488
# Poissons Ratio (z) = 0.06358 0.23943
#
# Static dielectric constant tensor:
#      x y z
#    x 1.845000 0.000000 0.000000 
#    y 0.000000 1.732460 0.000000 
#    z 0.000000 0.000000 1.698590 
# 
# From -- ./inp_files/11734.got.cif
#   From: 2010.05.17/outbox.cif.g08.bks.cpg/sg54_6_cif.got.tgz:11734.got - 2010.06.03 13:09:01.
