data_PCOD9422075
_publ_section_title
;
Structure prediction by ZEFSAII (Michael W. Deem and Ramdas Pophale) SiO2 
 PCOD9422075
Probable space group: P C C A
;
_chemical_formula_sum "Si O2"
_cell_formula_units_Z 40
_cell_length_a 10.762155
_cell_length_b 12.320178
_cell_length_c 13.614937
_cell_angle_alpha 90.000000
_cell_angle_beta 90.000000
_cell_angle_gamma 90.000000
_cell_volume 1805.227169
_symmetry_space_group_name_H-M "P C C A"
_symmetry_group_IT_number 54
_symmetry_cell_setting 'orthorhombic'
loop_
_space_group_symop_operation_xyz
x,y,z
1/2-x,-y,z
1/2+x,-y,1/2-z
-x,y,1/2-z
-x,-y,-z
1/2+x,y,-z
1/2-x,y,1/2+z
x,-y,1/2+z
loop_
_atom_site_type_symbol
_atom_site_label
_atom_site_fract_x
_atom_site_fract_y
_atom_site_fract_z
Si Si1 0.250000 0.500000 0.720007
Si Si2 0.226149 0.122957 0.360040
Si Si3 0.437932 0.614328 0.084841
Si Si4 0.687090 0.686344 0.991024
Si Si5 0.000000 0.792524 0.750000
Si Si6 0.639829 0.290546 0.260993
O O1 0.127466 0.521807 0.652654
O O2 0.272333 0.611164 0.777196
O O3 0.192163 0.201962 0.449319
O O4 0.336082 0.182485 0.300490
O O5 0.111426 0.133327 0.285873
O O6 0.250000 0.000000 0.388398
O O7 0.572802 0.611994 0.032048
O O8 0.455670 0.714248 0.161556
O O9 0.326551 0.637613 0.008277
O O10 0.666781 0.715773 0.876662
O O11 0.500000 0.324521 0.250000
#
# Coordination Sequence:
#
# PCOD9422075 Si02
#       6
#     4   8   8   8   4   8
#     4  10  22  40  68 102 134 184 220 276 348 402
#     4  11  24  42  69  97 132 180 222 282 341 399
#     4  10  21  40  67  95 140 175 220 274 340 405
#     4  10  22  43  63  98 137 174 224 278 335 405
#     4  10  20  44  64  92 134 176 222 270 336 406
#     4  11  24  42  66 101 135 172 227 276 334 408
#
# _framework density 22.157876999999999
#
# number of rings (size 3 to 8) (size 9 to 14) (size 15 to 20)
#    0.000    1.600    4.000    1.200    2.800    4.000 
#    0.000    8.000    0.000    0.000    0.000    0.000 
#    0.000    0.000    0.000    0.000    0.000    0.000 
#
# Total GULP energy -223368.851467 kJ/mol
# GULP energy per Si atom -5584.221287 kJ/mol
# Density = 2.210744 g / cm^3
# Si number density = 22.157877 Si / 1000 Ang^3
#
#
#
# Elastic Constant Matrix: (Units=GPa)
#
#
# Indices 1 2 3 4 5 6 
#
# 1 141.9821 32.5014 28.1388 0.0000 0.0000 0.0000
# 2 32.5014 117.2300 20.4264 0.0000 0.0000 0.0000
# 3 28.1388 20.4264 73.1776 0.0000 0.0000 0.0000
# 4 0.0000 0.0000 0.0000 17.0643 0.0000 0.0000
# 5 0.0000 0.0000 0.0000 0.0000 37.6264 0.0000
# 6 0.0000 0.0000 0.0000 0.0000 0.0000 27.3492
#
#
#
# Elastic Compliance Matrix: (Units=1/GPa)
#
#
# Indices 1 2 3 4 5 6 
#
# 1 0.007954 -0.001758 -0.002568 0.000000 0.000000 0.000000
# 2 -0.001758 0.009355 -0.001935 0.000000 0.000000 0.000000
# 3 -0.002568 -0.001935 0.015193 0.000000 0.000000 0.000000
# 4 0.000000 0.000000 0.000000 0.058602 0.000000 0.000000
# 5 0.000000 0.000000 0.000000 0.000000 0.026577 0.000000
# 6 0.000000 0.000000 0.000000 0.000000 0.000000 0.036564
#
#
# Mechanical properties :
#
#
# Convention : Reuss Voigt Hill
#
# Bulk Modulus (GPa) = 50.05019 54.94701 52.49860
# Shear Modulus (GPa) = 28.83045 33.16287 30.99666
#
# Velocity S-wave (km/s) = 3.61104 3.87287 3.74425
# Velocity P-wave (km/s) = 6.32639 6.69706 6.51436
#
# Compressibility (1/GPa) = 0.01997994
#
# Stress axis : x y z
#
# Youngs Moduli (GPa) = 125.71522 106.89683 65.81950
#
# Poissons Ratio (x) = 0.18791 0.16903
# Poissons Ratio (y) = 0.22099 0.12738
# Poissons Ratio (z) = 0.32284 0.20688
#
# Static dielectric constant tensor:
#      x y z
#    x 1.863240 0.000000 0.000000 
#    y 0.000000 1.783650 0.000000 
#    z 0.000000 0.000000 1.859450 
# 
# From -- ./inp_files/12540.got.cif
#   From: 2010.05.17/outbox.cif.g08.bks.cpg/sg54_7_cif.got.tgz:12540.got - 2010.06.03 13:09:01.
