data_PCOD9422602
_publ_section_title
;
Structure prediction by ZEFSAII (Michael W. Deem and Ramdas Pophale) SiO2 
 PCOD9422602
Probable space group: P C C A
;
_chemical_formula_sum "Si O2"
_cell_formula_units_Z 56
_cell_length_a 17.726623
_cell_length_b 15.020227
_cell_length_c 9.584408
_cell_angle_alpha 90.000000
_cell_angle_beta 90.000000
_cell_angle_gamma 90.000000
_cell_volume 2551.924360
_symmetry_space_group_name_H-M "P C C A"
_symmetry_group_IT_number 54
_symmetry_cell_setting 'orthorhombic'
loop_
_space_group_symop_operation_xyz
x,y,z
1/2-x,-y,z
1/2+x,-y,1/2-z
-x,y,1/2-z
-x,-y,-z
1/2+x,y,-z
1/2-x,y,1/2+z
x,-y,1/2+z
loop_
_atom_site_type_symbol
_atom_site_label
_atom_site_fract_x
_atom_site_fract_y
_atom_site_fract_z
Si Si1 0.944859 0.729266 0.618629
Si Si2 0.072860 0.808019 0.169376
Si Si3 0.787023 0.361868 0.392565
Si Si4 0.086706 0.548301 0.790148
Si Si5 0.275855 0.094737 0.058918
Si Si6 0.841676 0.364080 0.700656
Si Si7 0.199014 0.816715 0.787709
O O1 0.966001 0.762932 0.466889
O O2 0.908557 0.630959 0.601478
O O3 0.886408 0.802927 0.670681
O O4 0.000000 0.721373 0.750000
O O5 0.140851 0.875943 0.121294
O O6 0.113841 0.725782 0.253248
O O7 0.000000 0.846924 0.250000
O O8 0.859087 0.415049 0.333108
O O9 0.793365 0.351828 0.558131
O O10 0.709397 0.398925 0.330209
O O11 0.784196 0.268801 0.307024
O O12 0.108706 0.450104 0.836072
O O13 0.000000 0.541271 0.750000
O O14 0.218748 0.103863 0.186804
O O15 0.250000 0.000000 0.997688
O O16 0.261278 0.164861 0.934394
#
# Coordination Sequence:
#
# PCOD9422602 Si02
#       7
#     8   8   8   8   8   8   8
#     4   9  22  43  67  95 137 190 236 287 347 416
#     4  11  26  42  70 105 142 183 235 291 357 432
#     4  11  25  42  66  95 132 189 235 300 347 419
#     4  10  24  41  64  93 140 187 249 295 353 403
#     4  11  23  43  71 103 136 172 222 285 351 431
#     4  12  26  42  66  99 140 190 246 302 351 412
#     4  10  21  41  67 100 129 176 228 271 350 425
#
# _framework density 21.944224999999999
#
# number of rings (size 3 to 8) (size 9 to 14) (size 15 to 20)
#    0.000    1.429    1.429    2.143   12.000    1.714 
#    0.000    0.714    0.000    4.286    0.000    0.000 
#    0.000    0.000    0.000    0.000    0.000    0.000 
#
# Total GULP energy -311737.399281 kJ/mol
# GULP energy per Si atom -5566.739273 kJ/mol
# Density = 2.189428 g / cm^3
# Si number density = 21.944225 Si / 1000 Ang^3
#
#
#
# Elastic Constant Matrix: (Units=GPa)
#
#
# Indices 1 2 3 4 5 6 
#
# 1 70.9316 49.4736 32.7880 0.0000 0.0000 0.0000
# 2 49.4736 94.7202 36.2420 0.0000 0.0000 0.0000
# 3 32.7880 36.2420 121.6258 0.0000 0.0000 0.0000
# 4 0.0000 0.0000 0.0000 12.1309 0.0000 0.0000
# 5 0.0000 0.0000 0.0000 0.0000 33.6106 0.0000
# 6 0.0000 0.0000 0.0000 0.0000 0.0000 18.3096
#
#
#
# Elastic Compliance Matrix: (Units=1/GPa)
#
#
# Indices 1 2 3 4 5 6 
#
# 1 0.023090 -0.010924 -0.002969 0.000000 0.000000 0.000000
# 2 -0.010924 0.017084 -0.002146 0.000000 0.000000 0.000000
# 3 -0.002969 -0.002146 0.009662 0.000000 0.000000 0.000000
# 4 0.000000 0.000000 0.000000 0.082434 0.000000 0.000000
# 5 0.000000 0.000000 0.000000 0.000000 0.029753 0.000000
# 6 0.000000 0.000000 0.000000 0.000000 0.000000 0.054616
#
#
# Mechanical properties :
#
#
# Convention : Reuss Voigt Hill
#
# Bulk Modulus (GPa) = 56.31452 58.25386 57.28419
# Shear Modulus (GPa) = 19.63582 24.06182 21.84882
#
# Velocity S-wave (km/s) = 2.99458 3.31494 3.15882
# Velocity P-wave (km/s) = 6.13799 6.42306 6.28214
#
# Compressibility (1/GPa) = 0.01775741
#
# Stress axis : x y z
#
# Youngs Moduli (GPa) = 43.30859 58.53344 103.49963
#
# Poissons Ratio (x) = 0.63942 0.30734
# Poissons Ratio (y) = 0.47311 0.22209
# Poissons Ratio (z) = 0.12860 0.12560
#
# Static dielectric constant tensor:
#      x y z
#    x 1.881120 0.000000 0.000000 
#    y 0.000000 1.885310 0.000000 
#    z 0.000000 0.000000 1.913380 
# 
# From -- ./inp_files/4787.got.cif
#   From: 2010.05.17/outbox.cif.g08.bks.cpg/sg54_3_cif.got.tgz:4787.got - 2010.06.03 13:09:01.
