data_PCOD9422971
_publ_section_title
;
Structure prediction by ZEFSAII (Michael W. Deem and Ramdas Pophale) SiO2 
 PCOD9422971
Probable space group: P C C A
;
_chemical_formula_sum "Si O2"
_cell_formula_units_Z 36
_cell_length_a 5.159134
_cell_length_b 12.897898
_cell_length_c 23.501040
_cell_angle_alpha 90.000000
_cell_angle_beta 90.000000
_cell_angle_gamma 90.000000
_cell_volume 1563.805830
_symmetry_space_group_name_H-M "P C C A"
_symmetry_group_IT_number 54
_symmetry_cell_setting 'orthorhombic'
loop_
_space_group_symop_operation_xyz
x,y,z
1/2-x,-y,z
1/2+x,-y,1/2-z
-x,y,1/2-z
-x,-y,-z
1/2+x,y,-z
1/2-x,y,1/2+z
x,-y,1/2+z
loop_
_atom_site_type_symbol
_atom_site_label
_atom_site_fract_x
_atom_site_fract_y
_atom_site_fract_z
Si Si1 0.719709 0.383413 0.022220
Si Si2 0.000000 0.065574 0.250000
Si Si3 0.415397 0.823864 0.131871
Si Si4 0.080387 0.691508 0.362378
Si Si5 0.500000 0.432042 0.250000
Si Si6 0.750000 0.000000 0.958401
O O1 0.750000 0.500000 0.998351
O O2 0.643099 0.387787 0.087325
O O3 0.490105 0.328566 0.988668
O O4 0.097236 0.128620 0.195373
O O5 0.250000 0.000000 0.269379
O O6 0.710648 0.783049 0.127186
O O7 0.314703 0.904949 0.084827
O O8 0.211584 0.730308 0.130785
O O9 0.102797 0.639056 0.301309
O O10 0.250000 0.500000 0.231356
O O11 0.500000 0.000000 0.000000
#
# Coordination Sequence:
#
# PCOD9422971 Si02
#       6
#     8   4   8   8   4   4
#     4  10  22  40  64  94 128 174 226 274 332 402
#     4  12  24  44  74  94 132 172 238 286 340 410
#     4  12  26  45  70 104 136 184 238 298 348 422
#     4  12  25  43  70 102 142 178 237 289 352 420
#     4  12  26  46  72 104 148 190 226 288 370 440
#     4  12  28  48  70 102 146 192 238 294 376 438
#
# _framework density 23.020759999999999
#
# number of rings (size 3 to 8) (size 9 to 14) (size 15 to 20)
#    0.000    0.444    1.111    7.333    1.556    8.000 
#    0.000    0.000    0.000    0.000    0.000    0.000 
#    0.000    0.000    0.000    0.000    0.000    0.000 
#
# Total GULP energy -201265.737289 kJ/mol
# GULP energy per Si atom -5590.714925 kJ/mol
# Density = 2.296836 g / cm^3
# Si number density = 23.020760 Si / 1000 Ang^3
#
#
#
# Elastic Constant Matrix: (Units=GPa)
#
#
# Indices 1 2 3 4 5 6 
#
# 1 156.9348 13.0290 38.2565 0.0000 0.0000 0.0000
# 2 13.0290 42.9589 29.7742 0.0000 0.0000 0.0000
# 3 38.2565 29.7742 154.4783 0.0000 0.0000 0.0000
# 4 0.0000 0.0000 0.0000 14.2100 0.0000 0.0000
# 5 0.0000 0.0000 0.0000 0.0000 30.9268 0.0000
# 6 0.0000 0.0000 0.0000 0.0000 0.0000 29.1983
#
#
#
# Elastic Compliance Matrix: (Units=1/GPa)
#
#
# Indices 1 2 3 4 5 6 
#
# 1 0.006821 -0.001036 -0.001490 0.000000 0.000000 0.000000
# 2 -0.001036 0.027025 -0.004952 0.000000 0.000000 0.000000
# 3 -0.001490 -0.004952 0.007797 0.000000 0.000000 0.000000
# 4 0.000000 0.000000 0.000000 0.070373 0.000000 0.000000
# 5 0.000000 0.000000 0.000000 0.000000 0.032334 0.000000
# 6 0.000000 0.000000 0.000000 0.000000 0.000000 0.034249
#
#
# Mechanical properties :
#
#
# Convention : Reuss Voigt Hill
#
# Bulk Modulus (GPa) = 37.47210 57.38795 47.43003
# Shear Modulus (GPa) = 24.69745 33.08784 28.89265
#
# Velocity S-wave (km/s) = 3.27897 3.79529 3.54654
# Velocity P-wave (km/s) = 5.53610 6.64745 6.11706
#
# Compressibility (1/GPa) = 0.02668652
#
# Stress axis : x y z
#
# Youngs Moduli (GPa) = 146.60128 37.00336 128.25881
#
# Poissons Ratio (x) = 0.03835 0.19104
# Poissons Ratio (y) = 0.15194 0.63514
# Poissons Ratio (z) = 0.21836 0.18324
#
# Static dielectric constant tensor:
#      x y z
#    x 1.978780 0.000000 0.000000 
#    y 0.000000 1.869810 0.000000 
#    z 0.000000 0.000000 1.924040 
# 
# From -- ./inp_files/22714.got.cif
#   From: 2010.05.17/outbox.cif.g08.bks.cpg/sg54_12_cif.got.tgz:22714.got - 2010.06.03 13:09:01.
