data_PCOD9422407
_publ_section_title
;
Structure prediction by ZEFSAII (Michael W. Deem and Ramdas Pophale) SiO2 
 PCOD9422407
Probable space group: P C C A
;
_chemical_formula_sum "Si O2"
_cell_formula_units_Z 40
_cell_length_a 4.867170
_cell_length_b 29.737281
_cell_length_c 11.900366
_cell_angle_alpha 90.000000
_cell_angle_beta 90.000000
_cell_angle_gamma 90.000000
_cell_volume 1722.416157
_symmetry_space_group_name_H-M "P C C A"
_symmetry_group_IT_number 54
_symmetry_cell_setting 'orthorhombic'
loop_
_space_group_symop_operation_xyz
x,y,z
1/2-x,-y,z
1/2+x,-y,1/2-z
-x,y,1/2-z
-x,-y,-z
1/2+x,y,-z
1/2-x,y,1/2+z
x,-y,1/2+z
loop_
_atom_site_type_symbol
_atom_site_label
_atom_site_fract_x
_atom_site_fract_y
_atom_site_fract_z
Si Si1 0.769388 0.097316 0.919792
Si Si2 0.500000 0.833347 0.250000
Si Si3 0.750000 0.500000 0.415022
Si Si4 0.500000 0.572798 0.750000
Si Si5 0.748749 0.702347 0.914988
Si Si6 0.750000 0.000000 0.414316
Si Si7 0.500000 0.629626 0.250000
Si Si8 0.500000 0.775366 0.750000
O O1 0.662461 0.136124 0.839273
O O2 0.743365 0.048715 0.857358
O O3 0.575559 0.099482 0.030735
O O4 0.248566 0.804534 0.303573
O O5 0.500000 0.500000 0.500000
O O6 0.674086 0.458368 0.334507
O O7 0.750080 0.601195 0.694083
O O8 0.825373 0.660781 0.834363
O O9 0.672336 0.744014 0.834702
O O10 0.498906 0.702337 0.000073
O O11 0.500000 0.000000 0.500000
#
# Coordination Sequence:
#
# PCOD9422407 Si02
#       8
#     8   4   4   4   8   4   4   4
#     4  10  21  39  61  90 126 164 212 265 321 389
#     4  12  25  40  65  97 128 171 221 270 329 402
#     4  12  26  46  72 104 148 204 246 274 340 416
#     4  12  26  46  72 107 154 191 234 304 342 386
#     4  12  26  47  74 101 136 183 227 283 361 421
#     4   8  16  34  58  82 118 160 200 260 322 376
#     4  12  26  46  74 111 144 175 240 304 344 410
#     4  12  27  46  65  97 138 171 223 282 333 418
#
# _framework density 23.223191
#
# number of rings (size 3 to 8) (size 9 to 14) (size 15 to 20)
#    0.000    0.800    0.000    8.400    0.000    9.600 
#    0.000    7.000    0.000    0.000    0.000    0.000 
#    0.000    0.000    0.000    0.000    0.000    0.000 
#
# Total GULP energy -223246.480853 kJ/mol
# GULP energy per Si atom -5581.162021 kJ/mol
# Density = 2.317033 g / cm^3
# Si number density = 23.223191 Si / 1000 Ang^3
#
#
#
# Elastic Constant Matrix: (Units=GPa)
#
#
# Indices 1 2 3 4 5 6 
#
# 1 203.5527 60.1767 29.3259 0.0000 0.0000 0.0000
# 2 60.1767 118.0309 40.8303 0.0000 0.0000 0.0000
# 3 29.3259 40.8303 68.7738 0.0000 0.0000 0.0000
# 4 0.0000 0.0000 0.0000 5.4527 0.0000 0.0000
# 5 0.0000 0.0000 0.0000 0.0000 47.6905 0.0000
# 6 0.0000 0.0000 0.0000 0.0000 0.0000 51.3738
#
#
#
# Elastic Compliance Matrix: (Units=1/GPa)
#
#
# Indices 1 2 3 4 5 6 
#
# 1 0.005829 -0.002658 -0.000908 0.000000 0.000000 0.000000
# 2 -0.002658 0.011874 -0.005916 0.000000 0.000000 0.000000
# 3 -0.000908 -0.005916 0.018440 0.000000 0.000000 0.000000
# 4 0.000000 0.000000 0.000000 0.183396 0.000000 0.000000
# 5 0.000000 0.000000 0.000000 0.000000 0.020969 0.000000
# 6 0.000000 0.000000 0.000000 0.000000 0.000000 0.019465
#
#
# Mechanical properties :
#
#
# Convention : Reuss Voigt Hill
#
# Bulk Modulus (GPa) = 58.20852 72.33592 65.27222
# Shear Modulus (GPa) = 17.56464 38.23838 27.90151
#
# Velocity S-wave (km/s) = 2.75315 4.06219 3.46995
# Velocity P-wave (km/s) = 5.93512 7.29504 6.64993
#
# Compressibility (1/GPa) = 0.01717962
#
# Stress axis : x y z
#
# Youngs Moduli (GPa) = 171.54746 84.21717 54.23059
#
# Poissons Ratio (x) = 0.22385 0.04922
# Poissons Ratio (y) = 0.45598 0.32083
# Poissons Ratio (z) = 0.15570 0.49824
#
# Static dielectric constant tensor:
#      x y z
#    x 1.815570 0.000000 0.000000 
#    y 0.000000 2.005840 0.000000 
#    z 0.000000 0.000000 1.862850 
# 
# From -- ./inp_files/6498.got.cif
#   From: 2010.05.17/outbox.cif.g08.bks.cpg/sg54_4_cif.got.tgz:6498.got - 2010.06.03 13:09:01.
