data_PCOD9422457
_publ_section_title
;
Structure prediction by ZEFSAII (Michael W. Deem and Ramdas Pophale) SiO2 
 PCOD9422457
Probable space group: P C C A
;
_chemical_formula_sum "Si O2"
_cell_formula_units_Z 48
_cell_length_a 27.429864
_cell_length_b 5.637657
_cell_length_c 13.832707
_cell_angle_alpha 90.000000
_cell_angle_beta 90.000000
_cell_angle_gamma 90.000000
_cell_volume 2139.092090
_symmetry_space_group_name_H-M "P C C A"
_symmetry_group_IT_number 54
_symmetry_cell_setting 'orthorhombic'
loop_
_space_group_symop_operation_xyz
x,y,z
1/2-x,-y,z
1/2+x,-y,1/2-z
-x,y,1/2-z
-x,-y,-z
1/2+x,y,-z
1/2-x,y,1/2+z
x,-y,1/2+z
loop_
_atom_site_type_symbol
_atom_site_label
_atom_site_fract_x
_atom_site_fract_y
_atom_site_fract_z
Si Si1 0.157349 0.514538 0.525496
Si Si2 0.476750 0.412926 0.347073
Si Si3 0.296396 0.169458 0.885440
Si Si4 0.107880 0.871411 0.393009
Si Si5 0.438553 0.752393 0.519227
Si Si6 0.276707 0.744850 0.167735
O O1 0.196059 0.333684 0.478633
O O2 0.138210 0.651471 0.432053
O O3 0.110372 0.369427 0.561578
O O4 0.176118 0.711510 0.600229
O O5 0.500000 0.516629 0.250000
O O6 0.432522 0.233317 0.321851
O O7 0.456321 0.606562 0.423340
O O8 0.518326 0.268305 0.404557
O O9 0.285676 0.281905 0.781882
O O10 0.250000 0.000000 0.904871
O O11 0.349348 0.050489 0.865914
O O12 0.077405 0.991204 0.480573
O O13 0.250000 0.500000 0.142323
O O14 0.250000 0.000000 0.154107
#
# Coordination Sequence:
#
# PCOD9422457 Si02
#       6
#     8   8   8   8   8   8
#     4  10  24  41  69  96 133 182 227 282 350 420
#     4  10  21  39  65  92 127 174 222 281 347 415
#     4  10  25  45  67  96 142 183 227 293 346 416
#     4  10  22  39  65  96 127 179 225 276 355 406
#     4   9  21  41  60  95 134 166 222 286 340 418
#     4  11  28  45  67 105 141 184 240 288 349 422
#
# _framework density 22.439429000000001
#
# number of rings (size 3 to 8) (size 9 to 14) (size 15 to 20)
#    0.000    2.000    0.000    0.500   11.667    6.000 
#    0.000    0.000    0.000    0.000    0.000    0.000 
#    0.000    0.000    0.000    0.000    0.000    0.000 
#
# Total GULP energy -267731.905306 kJ/mol
# GULP energy per Si atom -5577.748027 kJ/mol
# Density = 2.238836 g / cm^3
# Si number density = 22.439429 Si / 1000 Ang^3
#
#
#
# Elastic Constant Matrix: (Units=GPa)
#
#
# Indices 1 2 3 4 5 6 
#
# 1 111.0096 41.8028 58.8242 0.0000 0.0000 0.0000
# 2 41.8028 65.1888 18.4885 0.0000 0.0000 0.0000
# 3 58.8242 18.4885 62.7488 0.0000 0.0000 0.0000
# 4 0.0000 0.0000 0.0000 1.4910 0.0000 0.0000
# 5 0.0000 0.0000 0.0000 0.0000 -58.6124 0.0000
# 6 0.0000 0.0000 0.0000 0.0000 0.0000 32.6360
#
#
#
# Elastic Compliance Matrix: (Units=1/GPa)
#
#
# Indices 1 2 3 4 5 6 
#
# 1 0.021815 -0.008935 -0.017817 0.000000 0.000000 0.000000
# 2 -0.008935 0.020399 0.002366 0.000000 0.000000 0.000000
# 3 -0.017817 0.002366 0.031942 0.000000 0.000000 0.000000
# 4 0.000000 0.000000 0.000000 0.670689 0.000000 0.000000
# 5 0.000000 0.000000 0.000000 0.000000 -0.017061 0.000000
# 6 0.000000 0.000000 0.000000 0.000000 0.000000 0.030641
#
#
# Mechanical properties :
#
#
# Convention : Reuss Voigt Hill
#
# Bulk Modulus (GPa) = 39.39715 53.01982 46.20848
# Shear Modulus (GPa) = 6.13002 3.09168 4.61085
#
# Velocity S-wave (km/s) = 1.65461 1.17507 1.43501
# Velocity P-wave (km/s) = 4.60929 5.05176 4.83559
#
# Compressibility (1/GPa) = 0.02538255
#
# Stress axis : x y z
#
# Youngs Moduli (GPa) = 45.84097 49.02224 31.30633
#
# Poissons Ratio (x) = 0.43804 0.55780
# Poissons Ratio (y) = 0.40961 -0.07408
# Poissons Ratio (z) = 0.81677 -0.11600
#
# Static dielectric constant tensor:
#      x y z
#    x 1.953670 0.000000 0.000000 
#    y 0.000000 1.891720 0.000000 
#    z 0.000000 0.000000 1.787190 
# 
# From -- ./inp_files/15136.got.cif
#   From: 2010.05.17/outbox.cif.g08.bks.cpg/sg54_8_cif.got.tgz:15136.got - 2010.06.03 13:09:01.
