data_PCOD9422711
_publ_section_title
;
Structure prediction by ZEFSAII (Michael W. Deem and Ramdas Pophale) SiO2 
 PCOD9422711
Probable space group: P C C A
;
_chemical_formula_sum "Si O2"
_cell_formula_units_Z 40
_cell_length_a 10.611134
_cell_length_b 9.034500
_cell_length_c 15.641443
_cell_angle_alpha 90.000000
_cell_angle_beta 90.000000
_cell_angle_gamma 90.000000
_cell_volume 1499.487113
_symmetry_space_group_name_H-M "P C C A"
_symmetry_group_IT_number 54
_symmetry_cell_setting 'orthorhombic'
loop_
_space_group_symop_operation_xyz
x,y,z
1/2-x,-y,z
1/2+x,-y,1/2-z
-x,y,1/2-z
-x,-y,-z
1/2+x,y,-z
1/2-x,y,1/2+z
x,-y,1/2+z
loop_
_atom_site_type_symbol
_atom_site_label
_atom_site_fract_x
_atom_site_fract_y
_atom_site_fract_z
Si Si1 0.605743 0.985396 0.359255
Si Si2 0.156433 0.861738 0.417629
Si Si3 0.967391 0.298734 0.430701
Si Si4 0.856332 0.602870 0.432201
Si Si5 0.641224 0.746728 0.754645
O O1 0.551624 0.819162 0.355205
O O2 0.750000 0.000000 0.396828
O O3 0.486905 0.072914 0.401519
O O4 0.629088 0.077777 0.273436
O O5 0.137214 0.769673 0.504022
O O6 0.194747 0.749622 0.340451
O O7 0.250000 0.000000 0.419431
O O8 0.955426 0.471288 0.407550
O O9 0.087861 0.295959 0.493477
O O10 0.750000 0.500000 0.469900
O O11 0.809850 0.676764 0.343330
O O12 0.500000 0.685521 0.750000
#
# Coordination Sequence:
#
# PCOD9422711 Si02
#       5
#     8   8   8   8   8
#     4  11  22  40  71 100 135 182 231 287 355 418
#     4  11  24  41  73 105 139 173 233 306 349 405
#     4  11  24  40  66 100 132 178 236 285 341 418
#     4  11  24  42  66  93 138 188 225 279 354 423
#     4  10  21  44  66  94 139 179 226 288 358 419
#
# _framework density 26.675787
#
# number of rings (size 3 to 8) (size 9 to 14) (size 15 to 20)
#    0.000    1.200    4.000    3.000    2.800    0.000 
#    0.000    6.000    0.000    0.000    0.000    0.000 
#    0.000    0.000    0.000    0.000    0.000    0.000 
#
# Total GULP energy -222797.910520 kJ/mol
# GULP energy per Si atom -5569.947763 kJ/mol
# Density = 2.661507 g / cm^3
# Si number density = 26.675787 Si / 1000 Ang^3
#
#
#
# Elastic Constant Matrix: (Units=GPa)
#
#
# Indices 1 2 3 4 5 6 
#
# 1 122.8394 18.6045 2.6286 0.0000 0.0000 0.0000
# 2 18.6045 76.6378 37.6593 0.0000 0.0000 0.0000
# 3 2.6286 37.6593 106.0934 0.0000 0.0000 0.0000
# 4 0.0000 0.0000 0.0000 -128.9681 0.0000 0.0000
# 5 0.0000 0.0000 0.0000 0.0000 5.3077 0.0000
# 6 0.0000 0.0000 0.0000 0.0000 0.0000 48.8588
#
#
#
# Elastic Compliance Matrix: (Units=1/GPa)
#
#
# Indices 1 2 3 4 5 6 
#
# 1 0.008486 -0.002370 0.000631 0.000000 0.000000 0.000000
# 2 -0.002370 0.016467 -0.005787 0.000000 0.000000 0.000000
# 3 0.000631 -0.005787 0.011464 0.000000 0.000000 0.000000
# 4 0.000000 0.000000 0.000000 -0.007754 0.000000 0.000000
# 5 0.000000 0.000000 0.000000 0.000000 0.188404 0.000000
# 6 0.000000 0.000000 0.000000 0.000000 0.000000 0.020467
#
#
# Mechanical properties :
#
#
# Convention : Reuss Voigt Hill
#
# Bulk Modulus (GPa) = 46.80306 47.03949 46.92128
# Shear Modulus (GPa) = 19.25235 1.48490 10.36863
#
# Velocity S-wave (km/s) = 2.68939 0.74690 1.97366
# Velocity P-wave (km/s) = 5.21795 4.29137 4.77718
#
# Compressibility (1/GPa) = 0.02136612
#
# Stress axis : x y z
#
# Youngs Moduli (GPa) = 117.83861 60.72661 87.22938
#
# Poissons Ratio (x) = 0.14393 -0.05505
# Poissons Ratio (y) = 0.27930 0.50476
# Poissons Ratio (z) = -0.07436 0.35140
#
# Static dielectric constant tensor:
#      x y z
#    x 2.302150 0.000000 0.000000 
#    y 0.000000 2.208970 0.000000 
#    z 0.000000 0.000000 2.157390 
# 
# From -- ./inp_files/17114.got.cif
#   From: 2010.05.17/outbox.cif.g08.bks.cpg/sg54_9_cif.got.tgz:17114.got - 2010.06.03 13:09:01.
