data_PCOD9422746
_publ_section_title
;
Structure prediction by ZEFSAII (Michael W. Deem and Ramdas Pophale) SiO2 
 PCOD9422746
Probable space group: P C C A
;
_chemical_formula_sum "Si O2"
_cell_formula_units_Z 56
_cell_length_a 19.566271
_cell_length_b 8.650896
_cell_length_c 14.983270
_cell_angle_alpha 90.000000
_cell_angle_beta 90.000000
_cell_angle_gamma 90.000000
_cell_volume 2536.154817
_symmetry_space_group_name_H-M "P C C A"
_symmetry_group_IT_number 54
_symmetry_cell_setting 'orthorhombic'
loop_
_space_group_symop_operation_xyz
x,y,z
1/2-x,-y,z
1/2+x,-y,1/2-z
-x,y,1/2-z
-x,-y,-z
1/2+x,y,-z
1/2-x,y,1/2+z
x,-y,1/2+z
loop_
_atom_site_type_symbol
_atom_site_label
_atom_site_fract_x
_atom_site_fract_y
_atom_site_fract_z
Si Si1 0.239544 0.684656 0.211859
Si Si2 0.231687 0.684112 0.408003
Si Si3 0.894175 0.366845 0.478069
Si Si4 0.500000 0.010203 0.250000
Si Si5 0.000000 0.500248 0.250000
Si Si6 0.153287 0.275421 0.534504
Si Si7 0.896804 0.743564 0.778448
Si Si8 0.014240 0.747982 0.101849
O O1 0.250000 0.500000 0.199135
O O2 0.205932 0.717560 0.307996
O O3 0.198858 0.739643 0.124762
O O4 0.315691 0.748295 0.227949
O O5 0.250000 0.500000 0.407071
O O6 0.171584 0.713724 0.477767
O O7 0.299846 0.761998 0.449077
O O8 0.871864 0.546157 0.474798
O O9 0.909208 0.306880 0.380064
O O10 0.959139 0.327422 0.537377
O O11 0.434373 0.902349 0.238877
O O12 0.511791 0.114344 0.163369
O O13 0.062878 0.388371 0.278501
O O14 0.029259 0.611961 0.173698
O O15 0.081417 0.192938 0.550365
#
# Coordination Sequence:
#
# PCOD9422746 Si02
#       8
#     8   8   8   4   4   8   8   8
#     4  11  19  35  64  96 133 170 210 287 347 396
#     4   9  21  32  58  99 139 161 208 271 355 405
#     4  11  21  36  65 100 133 169 219 291 350 403
#     4  10  28  46  60  92 134 194 230 266 342 424
#     4  10  22  34  62  96 120 168 226 278 338 408
#     4  11  20  38  62 103 131 167 220 287 345 398
#     4  11  22  41  64  93 134 175 227 279 341 416
#     4  11  24  40  65  92 138 176 228 285 340 410
#
# _framework density 22.080670000000001
#
# number of rings (size 3 to 8) (size 9 to 14) (size 15 to 20)
#    0.000    1.429    4.286    0.857   10.000    1.714 
#    0.000    0.714    0.000    1.714    0.000    0.000 
#    0.000    0.000    0.000    0.000    0.000    0.000 
#
# Total GULP energy -312785.555225 kJ/mol
# GULP energy per Si atom -5585.456343 kJ/mol
# Density = 2.203041 g / cm^3
# Si number density = 22.080670 Si / 1000 Ang^3
#
#
#
# Elastic Constant Matrix: (Units=GPa)
#
#
# Indices 1 2 3 4 5 6 
#
# 1 87.2470 2.2559 -5.3054 0.0000 0.0000 0.0000
# 2 2.2559 39.8105 4.0664 0.0000 0.0000 0.0000
# 3 -5.3054 4.0664 49.1272 0.0000 0.0000 0.0000
# 4 0.0000 0.0000 0.0000 7.5819 0.0000 0.0000
# 5 0.0000 0.0000 0.0000 0.0000 34.2035 0.0000
# 6 0.0000 0.0000 0.0000 0.0000 0.0000 12.1482
#
#
#
# Elastic Compliance Matrix: (Units=1/GPa)
#
#
# Indices 1 2 3 4 5 6 
#
# 1 0.011562 -0.000789 0.001314 0.000000 0.000000 0.000000
# 2 -0.000789 0.025387 -0.002187 0.000000 0.000000 0.000000
# 3 0.001314 -0.002187 0.020678 0.000000 0.000000 0.000000
# 4 0.000000 0.000000 0.000000 0.131894 0.000000 0.000000
# 5 0.000000 0.000000 0.000000 0.000000 0.029237 0.000000
# 6 0.000000 0.000000 0.000000 0.000000 0.000000 0.082316
#
#
# Mechanical properties :
#
#
# Convention : Reuss Voigt Hill
#
# Bulk Modulus (GPa) = 18.41512 19.80207 19.10860
# Shear Modulus (GPa) = 15.50392 22.46459 18.98425
#
# Velocity S-wave (km/s) = 2.65268 3.19311 2.93536
# Velocity P-wave (km/s) = 4.21193 4.75207 4.49013
#
# Compressibility (1/GPa) = 0.05430319
#
# Stress axis : x y z
#
# Youngs Moduli (GPa) = 86.49003 39.39015 48.36012
#
# Poissons Ratio (x) = 0.03109 -0.06354
# Poissons Ratio (y) = 0.06827 0.10575
# Poissons Ratio (z) = -0.11364 0.08613
#
# Static dielectric constant tensor:
#      x y z
#    x 1.865840 0.000000 0.000000 
#    y 0.000000 1.813730 0.000000 
#    z 0.000000 0.000000 1.869910 
# 
# From -- ./inp_files/14729.got.cif
#   From: 2010.05.17/outbox.cif.g08.bks.cpg/sg54_8_cif.got.tgz:14729.got - 2010.06.03 13:09:01.
