data_PCOD9422594
_publ_section_title
;
Structure prediction by ZEFSAII (Michael W. Deem and Ramdas Pophale) SiO2 
 PCOD9422594
Probable space group: P C C A
;
_chemical_formula_sum "Si O2"
_cell_formula_units_Z 48
_cell_length_a 5.329709
_cell_length_b 31.971929
_cell_length_c 13.231451
_cell_angle_alpha 90.000000
_cell_angle_beta 90.000000
_cell_angle_gamma 90.000000
_cell_volume 2254.653510
_symmetry_space_group_name_H-M "P C C A"
_symmetry_group_IT_number 54
_symmetry_cell_setting 'orthorhombic'
loop_
_space_group_symop_operation_xyz
x,y,z
1/2-x,-y,z
1/2+x,-y,1/2-z
-x,y,1/2-z
-x,-y,-z
1/2+x,y,-z
1/2-x,y,1/2+z
x,-y,1/2+z
loop_
_atom_site_type_symbol
_atom_site_label
_atom_site_fract_x
_atom_site_fract_y
_atom_site_fract_z
Si Si1 0.914123 0.396909 0.115582
Si Si2 0.000000 0.232843 0.250000
Si Si3 0.451276 0.924288 0.437934
Si Si4 0.500000 0.527362 0.250000
Si Si5 0.085029 0.363380 0.615267
Si Si6 0.905196 0.829390 0.565736
Si Si7 0.000000 0.287958 0.750000
Si Si8 0.750000 0.000000 0.195213
O O1 0.633956 0.392882 0.156166
O O2 0.001629 0.442732 0.150128
O O3 0.135213 0.367651 0.156321
O O4 0.886050 0.379968 0.000256
O O5 0.957385 0.203385 0.153371
O O6 0.750360 0.260755 0.258993
O O7 0.739797 0.927718 0.473671
O O8 0.419461 0.877410 0.395720
O O9 0.372596 0.961938 0.366461
O O10 0.250000 0.500000 0.251316
O O11 0.991433 0.317843 0.650095
O O12 0.630468 0.824391 0.515795
O O13 0.500000 0.017509 0.250000
#
# Coordination Sequence:
#
# PCOD9422594 Si02
#       8
#     8   4   8   4   8   8   4   4
#     4  10  21  41  65  92 130 174 213 267 321 395
#     4  12  26  45  68 104 137 175 220 290 345 412
#     4  10  21  41  66  87 128 178 226 269 343 411
#     4  12  24  40  64  98 132 172 218 274 318 378
#     4  10  21  41  65  91 121 169 217 263 335 392
#     4  10  23  46  68  96 133 187 223 270 347 428
#     4  12  24  43  66 102 129 165 222 284 341 396
#     4  12  24  36  58 104 130 164 224 302 328 388
#
# _framework density 21.289303
#
# number of rings (size 3 to 8) (size 9 to 14) (size 15 to 20)
#    0.000    1.333    0.000    5.500    1.167    0.000 
#   19.500   10.000    0.000    0.000    0.000    0.000 
#    0.000    0.000    0.000    0.000    0.000    0.000 
#
# Total GULP energy -267467.600508 kJ/mol
# GULP energy per Si atom -5572.241677 kJ/mol
# Density = 2.124085 g / cm^3
# Si number density = 21.289303 Si / 1000 Ang^3
#
#
#
# Elastic Constant Matrix: (Units=GPa)
#
#
# Indices 1 2 3 4 5 6 
#
# 1 141.5952 35.9143 14.0915 0.0000 0.0000 0.0000
# 2 35.9143 136.0111 51.2202 0.0000 0.0000 0.0000
# 3 14.0915 51.2202 89.1231 0.0000 0.0000 0.0000
# 4 0.0000 0.0000 0.0000 6.3095 0.0000 0.0000
# 5 0.0000 0.0000 0.0000 0.0000 23.6050 0.0000
# 6 0.0000 0.0000 0.0000 0.0000 0.0000 -79.2459
#
#
#
# Elastic Compliance Matrix: (Units=1/GPa)
#
#
# Indices 1 2 3 4 5 6 
#
# 1 0.007570 -0.001976 -0.000061 0.000000 0.000000 0.000000
# 2 -0.001976 0.009899 -0.005377 0.000000 0.000000 0.000000
# 3 -0.000061 -0.005377 0.014320 0.000000 0.000000 0.000000
# 4 0.000000 0.000000 0.000000 0.158492 0.000000 0.000000
# 5 0.000000 0.000000 0.000000 0.000000 0.042364 0.000000
# 6 0.000000 0.000000 0.000000 0.000000 0.000000 -0.012619
#
#
# Mechanical properties :
#
#
# Convention : Reuss Voigt Hill
#
# Bulk Modulus (GPa) = 58.95808 63.24241 61.10024
# Shear Modulus (GPa) = 20.78949 7.83396 14.31172
#
# Velocity S-wave (km/s) = 3.12833 1.92035 2.59559
# Velocity P-wave (km/s) = 6.38768 5.88962 6.14370
#
# Compressibility (1/GPa) = 0.01696121
#
# Stress axis : x y z
#
# Youngs Moduli (GPa) = 132.10731 101.02258 69.83178
#
# Poissons Ratio (x) = 0.19959 0.00429
# Poissons Ratio (y) = 0.26100 0.37546
# Poissons Ratio (z) = 0.00811 0.54316
#
# Static dielectric constant tensor:
#      x y z
#    x 2.235360 0.000000 0.000000 
#    y 0.000000 1.760280 0.000000 
#    z 0.000000 0.000000 1.739710 
# 
# From -- ./inp_files/10949.got.cif
#   From: 2010.05.17/outbox.cif.g08.bks.cpg/sg54_6_cif.got.tgz:10949.got - 2010.06.03 13:09:01.
