data_PCOD9422508
_publ_section_title
;
Structure prediction by ZEFSAII (Michael W. Deem and Ramdas Pophale) SiO2 
 PCOD9422508
Probable space group: P C C A
;
_chemical_formula_sum "Si O2"
_cell_formula_units_Z 40
_cell_length_a 13.494194
_cell_length_b 14.272033
_cell_length_c 9.882351
_cell_angle_alpha 90.000000
_cell_angle_beta 90.000000
_cell_angle_gamma 90.000000
_cell_volume 1903.237849
_symmetry_space_group_name_H-M "P C C A"
_symmetry_group_IT_number 54
_symmetry_cell_setting 'orthorhombic'
loop_
_space_group_symop_operation_xyz
x,y,z
1/2-x,-y,z
1/2+x,-y,1/2-z
-x,y,1/2-z
-x,-y,-z
1/2+x,y,-z
1/2-x,y,1/2+z
x,-y,1/2+z
loop_
_atom_site_type_symbol
_atom_site_label
_atom_site_fract_x
_atom_site_fract_y
_atom_site_fract_z
Si Si1 0.899406 0.395672 0.787148
Si Si2 0.227363 0.729265 0.590935
Si Si3 0.756329 0.853283 0.659830
Si Si4 0.142104 0.454326 0.012889
Si Si5 0.424807 0.994727 0.874345
O O1 0.819879 0.325236 0.845229
O O2 0.865538 0.444967 0.648425
O O3 0.000000 0.342869 0.750000
O O4 0.923629 0.474035 0.900489
O O5 0.214552 0.816877 0.690828
O O6 0.251225 0.766077 0.441911
O O7 0.142349 0.650361 0.575685
O O8 0.649733 0.905749 0.647810
O O9 0.844526 0.921909 0.615156
O O10 0.250000 0.500000 0.039260
O O11 0.500000 0.002921 0.750000
O O12 0.500000 0.000000 0.000000
#
# Coordination Sequence:
#
# PCOD9422508 Si02
#       5
#     8   8   8   8   8
#     4  11  23  39  62  92 127 168 213 266 311 374
#     4  11  22  41  63  90 129 167 211 258 322 377
#     4  11  24  43  67  97 131 169 213 271 325 385
#     4  10  21  40  63  86 125 172 212 251 317 377
#     4  11  24  45  70  96 129 170 214 262 329 398
#
# _framework density 21.016815000000001
#
# number of rings (size 3 to 8) (size 9 to 14) (size 15 to 20)
#    0.000    1.200    2.000    4.800    2.800    5.600 
#    3.600    0.000    0.000    0.000    0.000    0.000 
#    0.000    0.000    0.000    0.000    0.000    0.000 
#
# Total GULP energy -223130.615574 kJ/mol
# GULP energy per Si atom -5578.265389 kJ/mol
# Density = 2.096898 g / cm^3
# Si number density = 21.016815 Si / 1000 Ang^3
#
#
#
# Elastic Constant Matrix: (Units=GPa)
#
#
# Indices 1 2 3 4 5 6 
#
# 1 59.3884 4.4204 -7.4595 0.0000 0.0000 0.0000
# 2 4.4204 54.2916 3.7262 0.0000 0.0000 0.0000
# 3 -7.4595 3.7262 70.2716 0.0000 0.0000 0.0000
# 4 0.0000 0.0000 0.0000 36.3103 0.0000 0.0000
# 5 0.0000 0.0000 0.0000 0.0000 23.7228 0.0000
# 6 0.0000 0.0000 0.0000 0.0000 0.0000 19.6588
#
#
#
# Elastic Compliance Matrix: (Units=1/GPa)
#
#
# Indices 1 2 3 4 5 6 
#
# 1 0.017192 -0.001531 0.001906 0.000000 0.000000 0.000000
# 2 -0.001531 0.018623 -0.001150 0.000000 0.000000 0.000000
# 3 0.001906 -0.001150 0.014494 0.000000 0.000000 0.000000
# 4 0.000000 0.000000 0.000000 0.027540 0.000000 0.000000
# 5 0.000000 0.000000 0.000000 0.000000 0.042153 0.000000
# 6 0.000000 0.000000 0.000000 0.000000 0.000000 0.050868
#
#
# Mechanical properties :
#
#
# Convention : Reuss Voigt Hill
#
# Bulk Modulus (GPa) = 20.50892 20.59174 20.55033
# Shear Modulus (GPa) = 26.50107 28.15602 27.32854
#
# Velocity S-wave (km/s) = 3.55483 3.66415 3.60990
# Velocity P-wave (km/s) = 5.16029 5.26501 5.21291
#
# Compressibility (1/GPa) = 0.04875926
#
# Stress axis : x y z
#
# Youngs Moduli (GPa) = 58.16778 53.69816 68.99499
#
# Poissons Ratio (x) = 0.08219 -0.13151
# Poissons Ratio (y) = 0.08903 0.07934
# Poissons Ratio (z) = -0.11087 0.06175
#
# Static dielectric constant tensor:
#      x y z
#    x 1.752650 0.000000 0.000000 
#    y 0.000000 1.819630 0.000000 
#    z 0.000000 0.000000 1.817760 
# 
# From -- ./inp_files/3412.got.cif
#   From: 2010.05.17/outbox.cif.g08.bks.cpg/sg54_2_cif.got.tgz:3412.got - 2010.06.03 13:09:01.
