data_PCOD9422350
_publ_section_title
;
Structure prediction by ZEFSAII (Michael W. Deem and Ramdas Pophale) SiO2 
 PCOD9422350
Probable space group: P C C A
;
_chemical_formula_sum "Si O2"
_cell_formula_units_Z 40
_cell_length_a 9.405174
_cell_length_b 15.802261
_cell_length_c 13.748699
_cell_angle_alpha 90.000000
_cell_angle_beta 90.000000
_cell_angle_gamma 90.000000
_cell_volume 2043.373088
_symmetry_space_group_name_H-M "P C C A"
_symmetry_group_IT_number 54
_symmetry_cell_setting 'orthorhombic'
loop_
_space_group_symop_operation_xyz
x,y,z
1/2-x,-y,z
1/2+x,-y,1/2-z
-x,y,1/2-z
-x,-y,-z
1/2+x,y,-z
1/2-x,y,1/2+z
x,-y,1/2+z
loop_
_atom_site_type_symbol
_atom_site_label
_atom_site_fract_x
_atom_site_fract_y
_atom_site_fract_z
Si Si1 0.000000 0.378982 0.250000
Si Si2 0.750000 0.000000 0.015664
Si Si3 0.500000 0.226218 0.250000
Si Si4 0.441150 0.277732 0.946841
Si Si5 0.505217 0.884810 0.937900
Si Si6 0.358500 0.337888 0.394234
Si Si7 0.250000 0.500000 0.800113
O O1 0.010461 0.319554 0.345241
O O2 0.136533 0.441408 0.244222
O O3 0.852470 0.932076 0.070449
O O4 0.632499 0.950209 0.953877
O O5 0.462828 0.168294 0.158678
O O6 0.380582 0.288008 0.293072
O O7 0.272120 0.291130 0.946781
O O8 0.487886 0.181521 0.971497
O O9 0.507334 0.329229 0.036341
O O10 0.330815 0.433984 0.368617
#
# Coordination Sequence:
#
# PCOD9422350 Si02
#       7
#     4   4   4   8   8   8   4
#     4  10  23  38  59  86 116 158 200 244 297 348
#     4  10  22  38  60  86 116 150 182 240 296 334
#     4  10  21  38  63  86 116 156 192 234 289 352
#     4  10  22  39  60  86 117 160 201 237 293 360
#     4  10  21  40  60  85 118 148 191 236 286 353
#     4  10  22  38  60  86 118 160 198 243 297 341
#     4  10  22  38  56  88 122 152 202 252 292 342
#
# _framework density 19.575475999999998
#
# number of rings (size 3 to 8) (size 9 to 14) (size 15 to 20)
#    0.000    2.000    0.000    3.000    0.000   16.000 
#    0.000    4.000    0.000    0.000    0.000    0.000 
#    0.000    0.000    0.000    0.000    0.000    0.000 
#
# Total GULP energy -222939.967182 kJ/mol
# GULP energy per Si atom -5573.499180 kJ/mol
# Density = 1.953092 g / cm^3
# Si number density = 19.575476 Si / 1000 Ang^3
#
#
#
# Elastic Constant Matrix: (Units=GPa)
#
#
# Indices 1 2 3 4 5 6 
#
# 1 111.8432 36.6084 36.1715 0.0000 0.0000 0.0000
# 2 36.6084 116.1502 48.4043 0.0000 0.0000 0.0000
# 3 36.1715 48.4043 84.7569 0.0000 0.0000 0.0000
# 4 0.0000 0.0000 0.0000 -59.5095 0.0000 0.0000
# 5 0.0000 0.0000 0.0000 0.0000 -1.4258 0.0000
# 6 0.0000 0.0000 0.0000 0.0000 0.0000 30.3153
#
#
#
# Elastic Compliance Matrix: (Units=1/GPa)
#
#
# Indices 1 2 3 4 5 6 
#
# 1 0.010692 -0.001927 -0.003462 0.000000 0.000000 0.000000
# 2 -0.001927 0.011646 -0.005829 0.000000 0.000000 0.000000
# 3 -0.003462 -0.005829 0.016605 0.000000 0.000000 0.000000
# 4 0.000000 0.000000 0.000000 -0.016804 0.000000 0.000000
# 5 0.000000 0.000000 0.000000 0.000000 -0.701358 0.000000
# 6 0.000000 0.000000 0.000000 0.000000 0.000000 0.032987
#
#
# Mechanical properties :
#
#
# Convention : Reuss Voigt Hill
#
# Bulk Modulus (GPa) = 60.58215 61.67987 61.13101
# Shear Modulus (GPa) = -8.08675 6.64708 -0.71984
#
# Velocity S-wave (km/s) = -2.03471 1.84472 -0.60706
# Velocity P-wave (km/s) = 5.04927 6.00953 5.55021
#
# Compressibility (1/GPa) = 0.01650651
#
# Stress axis : x y z
#
# Youngs Moduli (GPa) = 93.53165 85.86753 60.22368
#
# Poissons Ratio (x) = 0.16546 0.20852
# Poissons Ratio (y) = 0.18022 0.35102
# Poissons Ratio (z) = 0.32384 0.50049
#
# Static dielectric constant tensor:
#      x y z
#    x 1.715530 0.000000 0.000000 
#    y 0.000000 1.723330 0.000000 
#    z 0.000000 0.000000 1.655900 
# 
# From -- ./inp_files/6939.got.cif
#   From: 2010.05.17/outbox.cif.g08.bks.cpg/sg54_4_cif.got.tgz:6939.got - 2010.06.03 13:09:01.
