data_PCOD9422540
_publ_section_title
;
Structure prediction by ZEFSAII (Michael W. Deem and Ramdas Pophale) SiO2 
 PCOD9422540
Probable space group: P C C A
;
_chemical_formula_sum "Si O2"
_cell_formula_units_Z 36
_cell_length_a 9.045033
_cell_length_b 8.797788
_cell_length_c 21.154093
_cell_angle_alpha 90.000000
_cell_angle_beta 90.000000
_cell_angle_gamma 90.000000
_cell_volume 1683.364087
_symmetry_space_group_name_H-M "P C C A"
_symmetry_group_IT_number 54
_symmetry_cell_setting 'orthorhombic'
loop_
_space_group_symop_operation_xyz
x,y,z
1/2-x,-y,z
1/2+x,-y,1/2-z
-x,y,1/2-z
-x,-y,-z
1/2+x,y,-z
1/2-x,y,1/2+z
x,-y,1/2+z
loop_
_atom_site_type_symbol
_atom_site_label
_atom_site_fract_x
_atom_site_fract_y
_atom_site_fract_z
Si Si1 0.871034 0.230938 0.618265
Si Si2 0.987927 0.287194 0.476652
Si Si3 0.750000 0.500000 0.197551
Si Si4 0.250000 0.500000 0.014951
Si Si5 0.958501 0.087651 0.131899
Si Si6 0.000000 0.710295 0.750000
O O1 0.852322 0.388509 0.655084
O O2 0.708433 0.153904 0.622968
O O3 0.935528 0.261164 0.548461
O O4 0.967649 0.091105 0.645101
O O5 0.142639 0.380968 0.477705
O O6 0.979173 0.134623 0.436431
O O7 0.866559 0.400440 0.447107
O O8 0.858166 0.393776 0.237284
O O9 0.024377 0.183546 0.189109
#
# Coordination Sequence:
#
# PCOD9422540 Si02
#       6
#     8   8   4   4   8   4
#     4  10  21  40  67  90 127 164 201 263 329 370
#     4  11  20  39  61  99 127 169 201 263 318 377
#     4  10  23  45  66  90 119 172 217 262 314 381
#     4  10  23  31  64  96 137 156 213 248 320 377
#     4  10  22  40  64  91 130 165 207 257 318 382
#     4  10  24  42  66  90 122 170 220 254 314 376
#
# _framework density 21.385746000000001
#
# number of rings (size 3 to 8) (size 9 to 14) (size 15 to 20)
#    0.000    1.778    2.222    1.333    9.333    1.778 
#    0.000    0.000    0.000    0.000    0.000    0.000 
#    0.000    0.000    0.000    0.000    0.000    0.000 
#
# Total GULP energy -200644.993885 kJ/mol
# GULP energy per Si atom -5573.472052 kJ/mol
# Density = 2.133707 g / cm^3
# Si number density = 21.385746 Si / 1000 Ang^3
#
#
#
# Elastic Constant Matrix: (Units=GPa)
#
#
# Indices 1 2 3 4 5 6 
#
# 1 69.2356 33.1808 37.0341 0.0000 0.0000 0.0000
# 2 33.1808 158.5211 71.2550 0.0000 0.0000 0.0000
# 3 37.0341 71.2550 120.4743 0.0000 0.0000 0.0000
# 4 0.0000 0.0000 0.0000 9.3806 0.0000 0.0000
# 5 0.0000 0.0000 0.0000 0.0000 25.4463 0.0000
# 6 0.0000 0.0000 0.0000 0.0000 0.0000 17.3495
#
#
#
# Elastic Compliance Matrix: (Units=1/GPa)
#
#
# Indices 1 2 3 4 5 6 
#
# 1 0.017619 -0.001707 -0.004406 0.000000 0.000000 0.000000
# 2 -0.001707 0.008758 -0.004655 0.000000 0.000000 0.000000
# 3 -0.004406 -0.004655 0.012408 0.000000 0.000000 0.000000
# 4 0.000000 0.000000 0.000000 0.106603 0.000000 0.000000
# 5 0.000000 0.000000 0.000000 0.000000 0.039298 0.000000
# 6 0.000000 0.000000 0.000000 0.000000 0.000000 0.057638
#
#
# Mechanical properties :
#
#
# Convention : Reuss Voigt Hill
#
# Bulk Modulus (GPa) = 57.97886 70.13006 64.05446
# Shear Modulus (GPa) = 18.54522 24.21937 21.38229
#
# Velocity S-wave (km/s) = 2.94798 3.36892 3.16545
# Velocity P-wave (km/s) = 6.22554 6.92798 6.58613
#
# Compressibility (1/GPa) = 0.01724767
#
# Stress axis : x y z
#
# Youngs Moduli (GPa) = 56.75849 114.17889 80.59068
#
# Poissons Ratio (x) = 0.19493 0.35510
# Poissons Ratio (y) = 0.09690 0.37517
# Poissons Ratio (z) = 0.25009 0.53153
#
# Static dielectric constant tensor:
#      x y z
#    x 1.810700 0.000000 0.000000 
#    y 0.000000 1.839250 0.000000 
#    z 0.000000 0.000000 1.769050 
# 
# From -- ./inp_files/20159.got.cif
#   From: 2010.05.17/outbox.cif.g08.bks.cpg/sg54_11_cif.got.tgz:20159.got - 2010.06.03 13:09:01.
