data_PCOD9422918
_publ_section_title
;
Structure prediction by ZEFSAII (Michael W. Deem and Ramdas Pophale) SiO2 
 PCOD9422918
Probable space group: P C C A
;
_chemical_formula_sum "Si O2"
_cell_formula_units_Z 64
_cell_length_a 30.706720
_cell_length_b 8.388500
_cell_length_c 11.873879
_cell_angle_alpha 90.000000
_cell_angle_beta 90.000000
_cell_angle_gamma 90.000000
_cell_volume 3058.513183
_symmetry_space_group_name_H-M "P C C A"
_symmetry_group_IT_number 54
_symmetry_cell_setting 'orthorhombic'
loop_
_space_group_symop_operation_xyz
x,y,z
1/2-x,-y,z
1/2+x,-y,1/2-z
-x,y,1/2-z
-x,-y,-z
1/2+x,y,-z
1/2-x,y,1/2+z
x,-y,1/2+z
loop_
_atom_site_type_symbol
_atom_site_label
_atom_site_fract_x
_atom_site_fract_y
_atom_site_fract_z
Si Si1 0.178444 0.216156 0.206850
Si Si2 0.667581 0.346693 0.017648
Si Si3 0.417234 0.202301 0.020420
Si Si4 0.160648 0.864700 0.176014
Si Si5 0.264891 0.316627 0.298557
Si Si6 0.112477 0.410522 0.337703
Si Si7 0.952041 0.654489 0.259164
Si Si8 0.096569 0.876651 0.394635
O O1 0.180753 0.354286 0.111971
O O2 0.220745 0.219037 0.284526
O O3 0.136038 0.263818 0.277446
O O4 0.176986 0.042524 0.151470
O O5 0.710204 0.290290 0.084262
O O6 0.649071 0.491850 0.092627
O O7 0.626736 0.225077 0.021176
O O8 0.368815 0.200314 0.075385
O O9 0.447250 0.243509 0.126605
O O10 0.420558 0.341829 0.929435
O O11 0.420240 0.034786 0.955374
O O12 0.199551 0.746288 0.208658
O O13 0.128911 0.889786 0.285522
O O14 0.250000 0.500000 0.288762
O O15 0.086766 0.524918 0.251973
O O16 0.942647 0.771621 0.154282
O O17 0.000000 0.583477 0.250000
#
# Coordination Sequence:
#
# PCOD9422918 Si02
#       8
#     8   8   8   8   8   8   8   8
#     4  12  22  39  64  86 124 170 220 270 317 385
#     4  10  22  40  58  88 124 170 208 268 323 372
#     4  11  21  40  71  92 121 175 215 263 333 389
#     4  10  22  40  60  93 125 166 217 266 314 379
#     4  11  24  39  56  91 129 163 211 269 319 383
#     4  11  23  40  66  93 120 172 222 264 327 403
#     4  10  24  43  63  99 139 161 207 277 336 407
#     4   9  19  40  65  89 125 162 217 252 318 400
#
# _framework density 20.9252
#
# number of rings (size 3 to 8) (size 9 to 14) (size 15 to 20)
#    0.000    1.500    3.750    1.875    1.750    2.500 
#    0.000    1.875    0.000    0.000    0.000    0.000 
#    0.000    0.000    0.000    0.000    0.000    0.000 
#
# Total GULP energy -357019.573414 kJ/mol
# GULP energy per Si atom -5578.430835 kJ/mol
# Density = 2.087757 g / cm^3
# Si number density = 20.925200 Si / 1000 Ang^3
#
#
#
# Elastic Constant Matrix: (Units=GPa)
#
#
# Indices 1 2 3 4 5 6 
#
# 1 70.8067 8.3757 6.4310 0.0000 0.0000 0.0000
# 2 8.3757 62.0149 5.8359 0.0000 0.0000 0.0000
# 3 6.4310 5.8359 39.4718 0.0000 0.0000 0.0000
# 4 0.0000 0.0000 0.0000 26.9148 0.0000 0.0000
# 5 0.0000 0.0000 0.0000 0.0000 12.4192 0.0000
# 6 0.0000 0.0000 0.0000 0.0000 0.0000 13.7852
#
#
#
# Elastic Compliance Matrix: (Units=1/GPa)
#
#
# Indices 1 2 3 4 5 6 
#
# 1 0.014523 -0.001763 -0.002105 0.000000 0.000000 0.000000
# 2 -0.001763 0.016567 -0.002162 0.000000 0.000000 0.000000
# 3 -0.002105 -0.002162 0.025997 0.000000 0.000000 0.000000
# 4 0.000000 0.000000 0.000000 0.037154 0.000000 0.000000
# 5 0.000000 0.000000 0.000000 0.000000 0.080521 0.000000
# 6 0.000000 0.000000 0.000000 0.000000 0.000000 0.072542
#
#
# Mechanical properties :
#
#
# Convention : Reuss Voigt Hill
#
# Bulk Modulus (GPa) = 22.20984 23.73095 22.97039
# Shear Modulus (GPa) = 18.22334 20.73388 19.47861
#
# Velocity S-wave (km/s) = 2.95427 3.15120 3.05432
# Velocity P-wave (km/s) = 4.71952 4.96040 4.84146
#
# Compressibility (1/GPa) = 0.04502510
#
# Stress axis : x y z
#
# Youngs Moduli (GPa) = 68.85748 60.36176 38.46557
#
# Poissons Ratio (x) = 0.10644 0.08099
# Poissons Ratio (y) = 0.12142 0.08317
# Poissons Ratio (z) = 0.14497 0.13051
#
# Static dielectric constant tensor:
#      x y z
#    x 1.740690 0.000000 0.000000 
#    y 0.000000 1.770660 0.000000 
#    z 0.000000 0.000000 1.744260 
# 
# From -- ./inp_files/10558.got.cif
#   From: 2010.05.17/outbox.cif.g08.bks.cpg/sg54_6_cif.got.tgz:10558.got - 2010.06.03 13:09:01.
