data_PCOD9422210
_publ_section_title
;
Structure prediction by ZEFSAII (Michael W. Deem and Ramdas Pophale) SiO2 
 PCOD9422210
Probable space group: P C C A
;
_chemical_formula_sum "Si O2"
_cell_formula_units_Z 48
_cell_length_a 5.235428
_cell_length_b 26.818215
_cell_length_c 16.713631
_cell_angle_alpha 90.000000
_cell_angle_beta 90.000000
_cell_angle_gamma 90.000000
_cell_volume 2346.674581
_symmetry_space_group_name_H-M "P C C A"
_symmetry_group_IT_number 54
_symmetry_cell_setting 'orthorhombic'
loop_
_space_group_symop_operation_xyz
x,y,z
1/2-x,-y,z
1/2+x,-y,1/2-z
-x,y,1/2-z
-x,-y,-z
1/2+x,y,-z
1/2-x,y,1/2+z
x,-y,1/2+z
loop_
_atom_site_type_symbol
_atom_site_label
_atom_site_fract_x
_atom_site_fract_y
_atom_site_fract_z
Si Si1 0.995496 0.811246 0.846941
Si Si2 0.263257 0.440069 0.449901
Si Si3 0.478312 0.056203 0.033592
Si Si4 0.751459 0.631265 0.694748
Si Si5 0.493307 0.873248 0.843645
Si Si6 0.896778 0.710390 0.556135
O O1 0.218276 0.850907 0.863389
O O2 0.065233 0.763647 0.900181
O O3 0.000000 0.800052 0.750000
O O4 0.721820 0.835763 0.867953
O O5 0.250000 0.500000 0.443627
O O6 0.499280 0.424780 0.506882
O O7 0.298195 0.415953 0.363039
O O8 0.470463 0.070176 0.125229
O O9 0.230596 0.080821 0.998573
O O10 0.500000 0.000000 0.000000
O O11 0.500000 0.641960 0.750000
O O12 0.830878 0.673597 0.630134
O O13 0.000000 0.623164 0.750000
O O14 0.500000 0.875224 0.750000
O O15 0.659653 0.704038 0.494321
#
# Coordination Sequence:
#
# PCOD9422210 Si02
#       6
#     8   8   8   8   8   8
#     4  10  22  39  60  87 118 153 195 245 300 359
#     4  10  21  40  65  92 125 165 211 266 323 378
#     4  10  21  37  56  82 113 147 186 234 285 338
#     4  12  25  41  63  90 126 169 210 260 315 374
#     4  10  21  38  60  85 116 153 192 238 293 355
#     4  12  25  41  62  90 123 161 206 253 307 373
#
# _framework density 20.454477000000001
#
# number of rings (size 3 to 8) (size 9 to 14) (size 15 to 20)
#    0.000    1.333    0.000    5.500    0.000    6.667 
#    0.000    3.333    0.000    0.000    0.000    0.000 
#    0.000    0.000    0.000    0.000    0.000    0.000 
#
# Total GULP energy -267476.307951 kJ/mol
# GULP energy per Si atom -5572.423082 kJ/mol
# Density = 2.040792 g / cm^3
# Si number density = 20.454477 Si / 1000 Ang^3
#
#
#
# Elastic Constant Matrix: (Units=GPa)
#
#
# Indices 1 2 3 4 5 6 
#
# 1 157.0700 3.8980 47.6074 0.0000 0.0000 0.0000
# 2 3.8980 54.3464 46.3607 0.0000 0.0000 0.0000
# 3 47.6074 46.3607 95.0969 0.0000 0.0000 0.0000
# 4 0.0000 0.0000 0.0000 36.1623 0.0000 0.0000
# 5 0.0000 0.0000 0.0000 0.0000 37.6300 0.0000
# 6 0.0000 0.0000 0.0000 0.0000 0.0000 31.8025
#
#
#
# Elastic Compliance Matrix: (Units=1/GPa)
#
#
# Indices 1 2 3 4 5 6 
#
# 1 0.008231 0.005007 -0.006562 0.000000 0.000000 0.000000
# 2 0.005007 0.034547 -0.019349 0.000000 0.000000 0.000000
# 3 -0.006562 -0.019349 0.023233 0.000000 0.000000 0.000000
# 4 0.000000 0.000000 0.000000 0.027653 0.000000 0.000000
# 5 0.000000 0.000000 0.000000 0.000000 0.026575 0.000000
# 6 0.000000 0.000000 0.000000 0.000000 0.000000 0.031444
#
#
# Mechanical properties :
#
#
# Convention : Reuss Voigt Hill
#
# Bulk Modulus (GPa) = 41.31408 55.80505 48.55956
# Shear Modulus (GPa) = 24.80681 35.02878 29.91779
#
# Velocity S-wave (km/s) = 3.48628 4.14275 3.82861
# Velocity P-wave (km/s) = 6.03717 7.08696 6.58303
#
# Compressibility (1/GPa) = 0.02420482
#
# Stress axis : x y z
#
# Youngs Moduli (GPa) = 121.48947 28.94618 43.04193
#
# Poissons Ratio (x) = -0.14494 0.28243
# Poissons Ratio (y) = -0.60832 0.83280
# Poissons Ratio (z) = 0.79718 0.56007
#
# Static dielectric constant tensor:
#      x y z
#    x 1.791590 0.000000 0.000000 
#    y 0.000000 1.730720 0.000000 
#    z 0.000000 0.000000 1.762490 
# 
# From -- ./inp_files/10909.got.cif
#   From: 2010.05.17/outbox.cif.g08.bks.cpg/sg54_6_cif.got.tgz:10909.got - 2010.06.03 13:09:01.
