data_PCOD9422275
_publ_section_title
;
Structure prediction by ZEFSAII (Michael W. Deem and Ramdas Pophale) SiO2 
 PCOD9422275
Probable space group: P C C A
;
_chemical_formula_sum "Si O2"
_cell_formula_units_Z 48
_cell_length_a 14.830167
_cell_length_b 9.904832
_cell_length_c 14.749236
_cell_angle_alpha 90.000000
_cell_angle_beta 90.000000
_cell_angle_gamma 90.000000
_cell_volume 2166.519888
_symmetry_space_group_name_H-M "P C C A"
_symmetry_group_IT_number 54
_symmetry_cell_setting 'orthorhombic'
loop_
_space_group_symop_operation_xyz
x,y,z
1/2-x,-y,z
1/2+x,-y,1/2-z
-x,y,1/2-z
-x,-y,-z
1/2+x,y,-z
1/2-x,y,1/2+z
x,-y,1/2+z
loop_
_atom_site_type_symbol
_atom_site_label
_atom_site_fract_x
_atom_site_fract_y
_atom_site_fract_z
Si Si1 0.249491 0.850988 0.144479
Si Si2 0.658174 0.080107 0.162438
Si Si3 0.668051 0.594654 0.924537
Si Si4 0.096380 0.805346 0.774620
Si Si5 0.973841 0.691000 0.154534
Si Si6 0.153491 0.453696 0.368998
O O1 0.192362 0.860728 0.239573
O O2 0.214235 0.740946 0.076194
O O3 0.346961 0.813885 0.182568
O O4 0.250000 0.000000 0.104924
O O5 0.599336 0.199006 0.114121
O O6 0.750000 0.000000 0.127555
O O7 0.593197 0.953619 0.182460
O O8 0.750000 0.500000 0.882515
O O9 0.567789 0.635422 0.887931
O O10 0.650424 0.532307 0.022795
O O11 0.140882 0.700366 0.842536
O O12 0.000000 0.750941 0.750000
O O13 0.000000 0.756786 0.250000
O O14 0.917978 0.555285 0.172256
O O15 0.250000 0.500000 0.335616
#
# Coordination Sequence:
#
# PCOD9422275 Si02
#       6
#     8   8   8   8   8   8
#     4   9  20  39  64  90 123 165 213 267 319 386
#     4   9  19  38  66  98 126 163 216 273 317 384
#     4  11  26  43  61  91 136 171 213 269 329 389
#     4  10  21  37  67  95 124 156 220 270 322 388
#     4  12  23  39  70  97 126 174 223 263 326 392
#     4  11  25  43  59  92 131 173 210 276 327 392
#
# _framework density 22.155345000000001
#
# number of rings (size 3 to 8) (size 9 to 14) (size 15 to 20)
#    0.000    2.000    1.667    3.500    7.000    0.000 
#    0.000    7.500    0.000    0.000    0.000    0.000 
#    0.000    0.000    0.000    0.000    0.000    0.000 
#
# Total GULP energy -267246.475756 kJ/mol
# GULP energy per Si atom -5567.634912 kJ/mol
# Density = 2.210492 g / cm^3
# Si number density = 22.155345 Si / 1000 Ang^3
#
#
#
# Elastic Constant Matrix: (Units=GPa)
#
#
# Indices 1 2 3 4 5 6 
#
# 1 132.0188 48.3464 17.8882 0.0000 0.0000 0.0000
# 2 48.3464 118.0289 0.8150 0.0000 0.0000 0.0000
# 3 17.8882 0.8150 26.5223 0.0000 0.0000 0.0000
# 4 0.0000 0.0000 0.0000 -124.6287 0.0000 0.0000
# 5 0.0000 0.0000 0.0000 0.0000 15.3398 0.0000
# 6 0.0000 0.0000 0.0000 0.0000 0.0000 45.7655
#
#
#
# Elastic Compliance Matrix: (Units=1/GPa)
#
#
# Indices 1 2 3 4 5 6 
#
# 1 0.009941 -0.004027 -0.006581 0.000000 0.000000 0.000000
# 2 -0.004027 0.010105 0.002405 0.000000 0.000000 0.000000
# 3 -0.006581 0.002405 0.042069 0.000000 0.000000 0.000000
# 4 0.000000 0.000000 0.000000 -0.008024 0.000000 0.000000
# 5 0.000000 0.000000 0.000000 0.000000 0.065190 0.000000
# 6 0.000000 0.000000 0.000000 0.000000 0.000000 0.021850
#
#
# Mechanical properties :
#
#
# Convention : Reuss Voigt Hill
#
# Bulk Modulus (GPa) = 21.87691 45.62991 33.75341
# Shear Modulus (GPa) = 28.93968 1.26334 15.10151
#
# Velocity S-wave (km/s) = 3.61808 0.75595 2.61362
# Velocity P-wave (km/s) = 5.22970 4.62624 4.93720
#
# Compressibility (1/GPa) = 0.04571030
#
# Stress axis : x y z
#
# Youngs Moduli (GPa) = 100.59416 98.95883 23.77057
#
# Poissons Ratio (x) = 0.39846 0.15643
# Poissons Ratio (y) = 0.40504 -0.05717
# Poissons Ratio (z) = 0.66201 -0.23802
#
# Static dielectric constant tensor:
#      x y z
#    x 2.313470 0.000000 0.000000 
#    y 0.000000 1.839910 0.000000 
#    z 0.000000 0.000000 1.807450 
# 
# From -- ./inp_files/18002.got.cif
#   From: 2010.05.17/outbox.cif.g08.bks.cpg/sg54_10_cif.got.tgz:18002.got - 2010.06.03 13:09:01.
