data_PCOD9422378
_publ_section_title
;
Structure prediction by ZEFSAII (Michael W. Deem and Ramdas Pophale) SiO2 
 PCOD9422378
Probable space group: P C C A
;
_chemical_formula_sum "Si O2"
_cell_formula_units_Z 64
_cell_length_a 12.005288
_cell_length_b 14.186401
_cell_length_c 19.723724
_cell_angle_alpha 90.000000
_cell_angle_beta 90.000000
_cell_angle_gamma 90.000000
_cell_volume 3359.183523
_symmetry_space_group_name_H-M "P C C A"
_symmetry_group_IT_number 54
_symmetry_cell_setting 'orthorhombic'
loop_
_space_group_symop_operation_xyz
x,y,z
1/2-x,-y,z
1/2+x,-y,1/2-z
-x,y,1/2-z
-x,-y,-z
1/2+x,y,-z
1/2-x,y,1/2+z
x,-y,1/2+z
loop_
_atom_site_type_symbol
_atom_site_label
_atom_site_fract_x
_atom_site_fract_y
_atom_site_fract_z
Si Si1 0.626839 0.994451 0.532697
Si Si2 0.524319 0.309528 0.320676
Si Si3 0.748612 0.610649 0.874149
Si Si4 0.290983 0.652631 0.975532
Si Si5 0.463327 0.795465 0.955950
Si Si6 0.493203 0.668815 0.168378
Si Si7 0.869310 0.519286 0.142979
Si Si8 0.124837 0.807107 0.922425
O O1 0.639949 0.079944 0.586852
O O2 0.750000 0.000000 0.495305
O O3 0.500000 0.000000 0.500000
O O4 0.614820 0.885868 0.554255
O O5 0.500000 0.260370 0.250000
O O6 0.649720 0.341942 0.332759
O O7 0.493438 0.245024 0.383554
O O8 0.445421 0.402052 0.322275
O O9 0.750000 0.500000 0.860299
O O10 0.866100 0.653745 0.853011
O O11 0.730474 0.623058 0.955500
O O12 0.397824 0.713936 0.995844
O O13 0.335640 0.567155 0.929210
O O14 0.220644 0.727531 0.930702
O O15 0.571041 0.811813 0.002024
O O16 0.500000 0.670427 0.250000
O O17 0.562735 0.577786 0.140907
O O18 0.544227 0.761928 0.133661
O O19 0.750000 0.500000 0.177708
#
# Coordination Sequence:
#
# PCOD9422378 Si02
#       8
#     8   8   8   8   8   8   8   8
#     4  10  21  38  67 100 128 163 212 267 335 395
#     4  11  25  40  62  90 122 166 214 262 314 381
#     4  12  25  39  61  88 129 168 215 262 312 376
#     4  11  21  36  63  93 124 158 207 262 317 365
#     4  10  21  39  63  93 123 159 205 266 321 376
#     4  12  27  41  60  90 130 177 213 261 321 383
#     4  11  23  38  59  87 125 162 209 252 309 372
#     4  11  21  40  62  93 127 162 208 265 320 383
#
# _framework density 19.052249
#
# number of rings (size 3 to 8) (size 9 to 14) (size 15 to 20)
#    0.000    1.000    6.250    0.750    1.750    0.500 
#    0.000    0.625    0.000    0.000    0.000    0.000 
#    0.000    0.000    0.000    0.000    0.000    0.000 
#
# Total GULP energy -356403.416044 kJ/mol
# GULP energy per Si atom -5568.803376 kJ/mol
# Density = 1.900888 g / cm^3
# Si number density = 19.052249 Si / 1000 Ang^3
#
#
#
# Elastic Constant Matrix: (Units=GPa)
#
#
# Indices 1 2 3 4 5 6 
#
# 1 119.5596 20.1771 22.4225 0.0000 0.0000 0.0000
# 2 20.1771 83.6220 38.5407 0.0000 0.0000 0.0000
# 3 22.4225 38.5407 90.6465 0.0000 0.0000 0.0000
# 4 0.0000 0.0000 0.0000 10.2096 0.0000 0.0000
# 5 0.0000 0.0000 0.0000 0.0000 4.2350 0.0000
# 6 0.0000 0.0000 0.0000 0.0000 0.0000 28.2513
#
#
#
# Elastic Compliance Matrix: (Units=1/GPa)
#
#
# Indices 1 2 3 4 5 6 
#
# 1 0.008902 -0.001409 -0.001603 0.000000 0.000000 0.000000
# 2 -0.001409 0.015096 -0.006070 0.000000 0.000000 0.000000
# 3 -0.001603 -0.006070 0.014009 0.000000 0.000000 0.000000
# 4 0.000000 0.000000 0.000000 0.097947 0.000000 0.000000
# 5 0.000000 0.000000 0.000000 0.000000 0.236129 0.000000
# 6 0.000000 0.000000 0.000000 0.000000 0.000000 0.035397
#
#
# Mechanical properties :
#
#
# Convention : Reuss Voigt Hill
#
# Bulk Modulus (GPa) = 50.39429 50.67874 50.53652
# Shear Modulus (GPa) = 11.56712 22.71835 17.14274
#
# Velocity S-wave (km/s) = 2.46667 3.45689 3.00288
# Velocity P-wave (km/s) = 5.88393 6.52619 6.21336
#
# Compressibility (1/GPa) = 0.01984352
#
# Stress axis : x y z
#
# Youngs Moduli (GPa) = 112.32820 66.24178 71.38183
#
# Poissons Ratio (x) = 0.09335 0.11442
# Poissons Ratio (y) = 0.15830 0.43328
# Poissons Ratio (z) = 0.18006 0.40208
#
# Static dielectric constant tensor:
#      x y z
#    x 1.725390 0.000000 0.000000 
#    y 0.000000 1.712300 0.000000 
#    z 0.000000 0.000000 1.666300 
# 
# From -- ./inp_files/17471.got.cif
#   From: 2010.05.17/outbox.cif.g08.bks.cpg/sg54_9_cif.got.tgz:17471.got - 2010.06.03 13:09:01.
