data_PCOD9422059
_publ_section_title
;
Structure prediction by ZEFSAII (Michael W. Deem and Ramdas Pophale) SiO2 
 PCOD9422059
Probable space group: P C C A
;
_chemical_formula_sum "Si O2"
_cell_formula_units_Z 56
_cell_length_a 12.538752
_cell_length_b 15.489611
_cell_length_c 13.151416
_cell_angle_alpha 90.000000
_cell_angle_beta 90.000000
_cell_angle_gamma 90.000000
_cell_volume 2554.273156
_symmetry_space_group_name_H-M "P C C A"
_symmetry_group_IT_number 54
_symmetry_cell_setting 'orthorhombic'
loop_
_space_group_symop_operation_xyz
x,y,z
1/2-x,-y,z
1/2+x,-y,1/2-z
-x,y,1/2-z
-x,-y,-z
1/2+x,y,-z
1/2-x,y,1/2+z
x,-y,1/2+z
loop_
_atom_site_type_symbol
_atom_site_label
_atom_site_fract_x
_atom_site_fract_y
_atom_site_fract_z
Si Si1 0.557300 0.414509 0.462661
Si Si2 0.078501 0.252324 0.030466
Si Si3 0.120203 0.357635 0.219096
Si Si4 0.212704 0.740205 0.337391
Si Si5 0.173967 0.082298 0.749700
Si Si6 0.000000 0.655264 0.250000
Si Si7 0.750000 0.500000 0.405279
Si Si8 0.004941 0.918174 0.074212
O O1 0.500000 0.500000 0.500000
O O2 0.504273 0.330215 0.509286
O O3 0.536693 0.401679 0.343461
O O4 0.680966 0.435315 0.473466
O O5 0.114534 0.274650 0.143663
O O6 0.180288 0.256891 0.955238
O O7 0.020704 0.164621 0.996389
O O8 0.195859 0.327260 0.310387
O O9 0.175950 0.437654 0.162304
O O10 0.000000 0.379331 0.250000
O O11 0.236800 0.833161 0.288525
O O12 0.100826 0.712077 0.283969
O O13 0.085876 0.071626 0.839083
O O14 0.112412 0.093293 0.641708
O O15 0.250000 0.000000 0.743515
O O16 0.000000 0.000000 0.000000
#
# Coordination Sequence:
#
# PCOD9422059 Si02
#       8
#     8   8   8   8   8   4   4   8
#     4  11  22  42  66  97 133 177 235 286 344 419
#     4  10  24  47  72 102 134 187 242 282 362 419
#     4  12  28  46  69 107 143 183 236 303 354 424
#     4  10  22  46  72  96 136 188 235 289 359 425
#     4  10  22  42  69 101 138 182 235 280 356 429
#     4  10  20  42  74  94 124 188 238 290 342 424
#     4  12  26  44  68 100 140 188 234 288 368 420
#     4  10  23  44  70 102 141 184 231 295 350 419
#
# _framework density 21.924045
#
# number of rings (size 3 to 8) (size 9 to 14) (size 15 to 20)
#    0.000    1.429    2.857    2.571    3.000    2.857 
#    2.571    1.429    0.000    0.000    0.000    0.000 
#    0.000    0.000    0.000    0.000    0.000    0.000 
#
# Total GULP energy -313046.793836 kJ/mol
# GULP energy per Si atom -5590.121319 kJ/mol
# Density = 2.187415 g / cm^3
# Si number density = 21.924045 Si / 1000 Ang^3
#
#
#
# Elastic Constant Matrix: (Units=GPa)
#
#
# Indices 1 2 3 4 5 6 
#
# 1 95.7416 38.0148 3.4060 0.0000 0.0000 0.0000
# 2 38.0148 144.0372 28.0584 0.0000 0.0000 0.0000
# 3 3.4060 28.0584 78.6160 0.0000 0.0000 0.0000
# 4 0.0000 0.0000 0.0000 32.8818 0.0000 0.0000
# 5 0.0000 0.0000 0.0000 0.0000 24.8202 0.0000
# 6 0.0000 0.0000 0.0000 0.0000 0.0000 34.8979
#
#
#
# Elastic Compliance Matrix: (Units=1/GPa)
#
#
# Indices 1 2 3 4 5 6 
#
# 1 0.011697 -0.003212 0.000640 0.000000 0.000000 0.000000
# 2 -0.003212 0.008343 -0.002839 0.000000 0.000000 0.000000
# 3 0.000640 -0.002839 0.013705 0.000000 0.000000 0.000000
# 4 0.000000 0.000000 0.000000 0.030412 0.000000 0.000000
# 5 0.000000 0.000000 0.000000 0.000000 0.040290 0.000000
# 6 0.000000 0.000000 0.000000 0.000000 0.000000 0.028655
#
#
# Mechanical properties :
#
#
# Convention : Reuss Voigt Hill
#
# Bulk Modulus (GPa) = 43.62182 50.81702 47.21942
# Shear Modulus (GPa) = 32.98896 35.11436 34.05166
#
# Velocity S-wave (km/s) = 3.88325 4.00639 3.94530
# Velocity P-wave (km/s) = 6.32820 6.68061 6.50679
#
# Compressibility (1/GPa) = 0.02292431
#
# Stress axis : x y z
#
# Youngs Moduli (GPa) = 85.48994 119.85707 72.96361
#
# Poissons Ratio (x) = 0.38495 -0.04666
# Poissons Ratio (y) = 0.27457 0.20711
# Poissons Ratio (z) = -0.05467 0.34023
#
# Static dielectric constant tensor:
#      x y z
#    x 1.839570 0.000000 0.000000 
#    y 0.000000 1.763390 0.000000 
#    z 0.000000 0.000000 1.392010 
# 
# From -- ./inp_files/12780.got.cif
#   From: 2010.05.17/outbox.cif.g08.bks.cpg/sg54_7_cif.got.tgz:12780.got - 2010.06.03 13:09:01.
