data_PCOD9422688
_publ_section_title
;
Structure prediction by ZEFSAII (Michael W. Deem and Ramdas Pophale) SiO2 
 PCOD9422688
Probable space group: P C C A
;
_chemical_formula_sum "Si O2"
_cell_formula_units_Z 24
_cell_length_a 13.197289
_cell_length_b 5.229899
_cell_length_c 13.623447
_cell_angle_alpha 90.000000
_cell_angle_beta 90.000000
_cell_angle_gamma 90.000000
_cell_volume 940.296968
_symmetry_space_group_name_H-M "P C C A"
_symmetry_group_IT_number 54
_symmetry_cell_setting 'orthorhombic'
loop_
_space_group_symop_operation_xyz
x,y,z
1/2-x,-y,z
1/2+x,-y,1/2-z
-x,y,1/2-z
-x,-y,-z
1/2+x,y,-z
1/2-x,y,1/2+z
x,-y,1/2+z
loop_
_atom_site_type_symbol
_atom_site_label
_atom_site_fract_x
_atom_site_fract_y
_atom_site_fract_z
Si Si1 0.405224 0.022378 0.118567
Si Si2 0.359368 0.875404 0.844580
Si Si3 0.118849 0.515056 0.508124
O O1 0.530094 0.021126 0.114803
O O2 0.376621 0.105827 0.228379
O O3 0.355090 0.238808 0.049698
O O4 0.365187 0.745987 0.085448
O O5 0.250000 0.000000 0.863900
O O6 0.350287 0.604183 0.899857
O O7 0.000000 0.500000 0.500000
#
# Coordination Sequence:
#
# PCOD9422688 Si02
#       3
#     8   8   8
#     4  10  23  43  65  94 133 169 214 275 333 392
#     4  10  22  41  67  97 128 171 220 269 330 401
#     4  10  21  43  67  90 127 173 215 270 335 393
#
# _framework density 25.523848999999998
#
# number of rings (size 3 to 8) (size 9 to 14) (size 15 to 20)
#    0.000    2.000    0.000    4.000    0.000   14.667 
#    0.000   33.333    0.000    0.000    0.000    0.000 
#    0.000    0.000    0.000    0.000    0.000    0.000 
#
# Total GULP energy -133997.011011 kJ/mol
# GULP energy per Si atom -5583.208792 kJ/mol
# Density = 2.546576 g / cm^3
# Si number density = 25.523849 Si / 1000 Ang^3
#
#
#
# Elastic Constant Matrix: (Units=GPa)
#
#
# Indices 1 2 3 4 5 6 
#
# 1 228.3004 37.1553 32.7633 0.0000 0.0000 0.0000
# 2 37.1553 124.0079 67.6607 0.0000 0.0000 0.0000
# 3 32.7633 67.6607 170.5034 0.0000 0.0000 0.0000
# 4 0.0000 0.0000 0.0000 2.1287 0.0000 0.0000
# 5 0.0000 0.0000 0.0000 0.0000 -70.9040 0.0000
# 6 0.0000 0.0000 0.0000 0.0000 0.0000 9.9926
#
#
#
# Elastic Compliance Matrix: (Units=1/GPa)
#
#
# Indices 1 2 3 4 5 6 
#
# 1 0.004630 -0.001151 -0.000433 0.000000 0.000000 0.000000
# 2 -0.001151 0.010579 -0.003977 0.000000 0.000000 0.000000
# 3 -0.000433 -0.003977 0.007526 0.000000 0.000000 0.000000
# 4 0.000000 0.000000 0.000000 0.469769 0.000000 0.000000
# 5 0.000000 0.000000 0.000000 0.000000 -0.014104 0.000000
# 6 0.000000 0.000000 0.000000 0.000000 0.000000 0.100074
#
#
# Mechanical properties :
#
#
# Convention : Reuss Voigt Hill
#
# Bulk Modulus (GPa) = 86.10771 88.66339 87.38555
# Shear Modulus (GPa) = 8.42507 13.92561 11.17534
#
# Velocity S-wave (km/s) = 1.81880 2.33833 2.09473
# Velocity P-wave (km/s) = 6.18224 6.48870 6.33732
#
# Compressibility (1/GPa) = 0.01161336
#
# Stress axis : x y z
#
# Youngs Moduli (GPa) = 215.99999 94.53027 132.86822
#
# Poissons Ratio (x) = 0.10880 0.05752
# Poissons Ratio (y) = 0.24860 0.52838
# Poissons Ratio (z) = 0.09350 0.37592
#
# Static dielectric constant tensor:
#      x y z
#    x 2.034400 0.000000 0.000000 
#    y 0.000000 2.096980 0.000000 
#    z 0.000000 0.000000 1.999940 
# 
# From -- ./inp_files/12872.got.cif
#   From: 2010.05.17/outbox.cif.g08.bks.cpg/sg54_7_cif.got.tgz:12872.got - 2010.06.03 13:09:01.
