data_PCOD9422828
_publ_section_title
;
Structure prediction by ZEFSAII (Michael W. Deem and Ramdas Pophale) SiO2 
 PCOD9422828
Probable space group: P C C A
;
_chemical_formula_sum "Si O2"
_cell_formula_units_Z 32
_cell_length_a 8.084601
_cell_length_b 12.402929
_cell_length_c 14.330217
_cell_angle_alpha 90.000000
_cell_angle_beta 90.000000
_cell_angle_gamma 90.000000
_cell_volume 1436.930012
_symmetry_space_group_name_H-M "P C C A"
_symmetry_group_IT_number 54
_symmetry_cell_setting 'orthorhombic'
loop_
_space_group_symop_operation_xyz
x,y,z
1/2-x,-y,z
1/2+x,-y,1/2-z
-x,y,1/2-z
-x,-y,-z
1/2+x,y,-z
1/2-x,y,1/2+z
x,-y,1/2+z
loop_
_atom_site_type_symbol
_atom_site_label
_atom_site_fract_x
_atom_site_fract_y
_atom_site_fract_z
Si Si1 0.695094 0.738451 0.043656
Si Si2 0.823342 0.885482 0.198327
Si Si3 0.000000 0.441444 0.250000
Si Si4 0.250000 0.500000 0.395602
Si Si5 0.154245 0.247770 0.145715
O O1 0.819463 0.804758 0.110215
O O2 0.730073 0.610567 0.049720
O O3 0.517985 0.762389 0.089970
O O4 0.711177 0.763550 0.935232
O O5 0.696901 0.837464 0.275176
O O6 0.000000 0.893592 0.250000
O O7 0.750000 0.000000 0.167689
O O8 0.909173 0.508406 0.171219
O O9 0.867270 0.361557 0.299704
#
# Coordination Sequence:
#
# PCOD9422828 Si02
#       5
#     8   8   4   4   8
#     4  11  24  41  66 102 133 180 224 274 333 398
#     4  12  25  45  71  97 133 177 223 282 339 396
#     4  10  22  40  66  90 146 176 216 278 322 410
#     4  10  22  38  64  98 136 178 222 268 332 394
#     4  11  22  45  65  98 139 174 224 274 329 397
#
# _framework density 22.2697
#
# number of rings (size 3 to 8) (size 9 to 14) (size 15 to 20)
#    0.000    1.000    5.000    3.000    1.750    8.000 
#    0.000    5.000    0.000    0.000    0.000    0.000 
#    0.000    0.000    0.000    0.000    0.000    0.000 
#
# Total GULP energy -178914.668081 kJ/mol
# GULP energy per Si atom -5591.083378 kJ/mol
# Density = 2.221901 g / cm^3
# Si number density = 22.269700 Si / 1000 Ang^3
#
#
#
# Elastic Constant Matrix: (Units=GPa)
#
#
# Indices 1 2 3 4 5 6 
#
# 1 73.0028 24.0625 -2.8989 0.0000 0.0000 0.0000
# 2 24.0625 79.6004 29.4323 0.0000 0.0000 0.0000
# 3 -2.8989 29.4323 111.6779 0.0000 0.0000 0.0000
# 4 0.0000 0.0000 0.0000 -22.2050 0.0000 0.0000
# 5 0.0000 0.0000 0.0000 0.0000 29.2955 0.0000
# 6 0.0000 0.0000 0.0000 0.0000 0.0000 12.7720
#
#
#
# Elastic Compliance Matrix: (Units=1/GPa)
#
#
# Indices 1 2 3 4 5 6 
#
# 1 0.015540 -0.005370 0.001819 0.000000 0.000000 0.000000
# 2 -0.005370 0.015775 -0.004297 0.000000 0.000000 0.000000
# 3 0.001819 -0.004297 0.010134 0.000000 0.000000 0.000000
# 4 0.000000 0.000000 0.000000 -0.045035 0.000000 0.000000
# 5 0.000000 0.000000 0.000000 0.000000 0.034135 0.000000
# 6 0.000000 0.000000 0.000000 0.000000 0.000000 0.078297
#
#
# Mechanical properties :
#
#
# Convention : Reuss Voigt Hill
#
# Bulk Modulus (GPa) = 38.83105 40.60810 39.71958
# Shear Modulus (GPa) = 37.55822 18.21816 27.88819
#
# Velocity S-wave (km/s) = 4.11118 2.86329 3.54261
# Velocity P-wave (km/s) = 6.32537 5.40422 5.88285
#
# Compressibility (1/GPa) = 0.02575259
#
# Stress axis : x y z
#
# Youngs Moduli (GPa) = 64.34839 63.39198 98.67833
#
# Poissons Ratio (x) = 0.34043 -0.17946
# Poissons Ratio (y) = 0.34556 0.42400
# Poissons Ratio (z) = -0.11703 0.27238
#
# Static dielectric constant tensor:
#      x y z
#    x 1.894470 0.000000 0.000000 
#    y 0.000000 1.789200 0.000000 
#    z 0.000000 0.000000 1.763260 
# 
# From -- ./inp_files/11247.got.cif
#   From: 2010.05.17/outbox.cif.g08.bks.cpg/sg54_6_cif.got.tgz:11247.got - 2010.06.03 13:09:01.
