data_PCOD9422045
_publ_section_title
;
Structure prediction by ZEFSAII (Michael W. Deem and Ramdas Pophale) SiO2 
 PCOD9422045
Probable space group: P C C A
;
_chemical_formula_sum "Si O2"
_cell_formula_units_Z 40
_cell_length_a 23.759502
_cell_length_b 5.610082
_cell_length_c 13.392852
_cell_angle_alpha 90.000000
_cell_angle_beta 90.000000
_cell_angle_gamma 90.000000
_cell_volume 1785.170134
_symmetry_space_group_name_H-M "P C C A"
_symmetry_group_IT_number 54
_symmetry_cell_setting 'orthorhombic'
loop_
_space_group_symop_operation_xyz
x,y,z
1/2-x,-y,z
1/2+x,-y,1/2-z
-x,y,1/2-z
-x,-y,-z
1/2+x,y,-z
1/2-x,y,1/2+z
x,-y,1/2+z
loop_
_atom_site_type_symbol
_atom_site_label
_atom_site_fract_x
_atom_site_fract_y
_atom_site_fract_z
Si Si1 0.188300 0.539583 0.253616
Si Si2 0.693449 0.849878 0.548745
Si Si3 0.889249 0.767675 0.617408
Si Si4 0.374684 0.549040 0.080299
Si Si5 0.507612 0.249822 0.937419
O O1 0.250000 0.500000 0.211076
O O2 0.200594 0.692498 0.352213
O O3 0.153074 0.314932 0.296353
O O4 0.145453 0.627057 0.168030
O O5 0.678559 0.712259 0.447949
O O6 0.750000 0.000000 0.536779
O O7 0.636333 0.991057 0.574867
O O8 0.884082 0.589651 0.523104
O O9 0.955477 0.766243 0.639757
O O10 0.429638 0.707307 0.103790
O O11 0.500000 0.500000 0.000000
O O12 0.500000 0.000000 0.000000
#
# Coordination Sequence:
#
# PCOD9422045 Si02
#       5
#     8   8   8   8   8
#     4  11  24  40  59  97 137 169 224 282 336 417
#     4  11  22  41  64  92 132 177 218 277 350 411
#     4  10  22  42  66  90 131 176 215 277 345 399
#     4  10  24  40  67  95 128 174 227 276 344 407
#     4  10  20  42  69  97 129 174 229 280 337 409
#
# _framework density 22.406828999999998
#
# number of rings (size 3 to 8) (size 9 to 14) (size 15 to 20)
#    0.000    1.600    4.000    0.000    2.800    2.400 
#    0.000    0.000    0.000    0.000    0.000    0.000 
#    0.000    0.000    0.000    0.000    0.000    0.000 
#
# Total GULP energy -222738.064769 kJ/mol
# GULP energy per Si atom -5568.451619 kJ/mol
# Density = 2.235583 g / cm^3
# Si number density = 22.406829 Si / 1000 Ang^3
#
#
#
# Elastic Constant Matrix: (Units=GPa)
#
#
# Indices 1 2 3 4 5 6 
#
# 1 172.6981 29.3501 53.8040 0.0000 0.0000 0.0000
# 2 29.3501 65.9555 2.9385 0.0000 0.0000 0.0000
# 3 53.8040 2.9385 52.4746 0.0000 0.0000 0.0000
# 4 0.0000 0.0000 0.0000 -0.3963 0.0000 0.0000
# 5 0.0000 0.0000 0.0000 0.0000 27.9068 0.0000
# 6 0.0000 0.0000 0.0000 0.0000 0.0000 33.8378
#
#
#
# Elastic Compliance Matrix: (Units=1/GPa)
#
#
# Indices 1 2 3 4 5 6 
#
# 1 0.009347 -0.003742 -0.009374 0.000000 0.000000 0.000000
# 2 -0.003742 0.016698 0.002901 0.000000 0.000000 0.000000
# 3 -0.009374 0.002901 0.028506 0.000000 0.000000 0.000000
# 4 0.000000 0.000000 0.000000 -2.523133 0.000000 0.000000
# 5 0.000000 0.000000 0.000000 0.000000 0.035834 0.000000
# 6 0.000000 0.000000 0.000000 0.000000 0.000000 0.029553
#
#
# Mechanical properties :
#
#
# Convention : Reuss Voigt Hill
#
# Bulk Modulus (GPa) = 29.30697 51.47929 40.39313
# Shear Modulus (GPa) = -2.10846 25.93868 11.91511
#
# Velocity S-wave (km/s) = -0.97110 3.40608 2.30850
# Velocity P-wave (km/s) = 3.44246 6.20429 5.01716
#
# Compressibility (1/GPa) = 0.03412157
#
# Stress axis : x y z
#
# Youngs Moduli (GPa) = 106.98787 59.88920 35.08039
#
# Poissons Ratio (x) = 0.22409 0.32885
# Poissons Ratio (y) = 0.40031 -0.10178
# Poissons Ratio (z) = 1.00292 -0.17376
#
# Static dielectric constant tensor:
#      x y z
#    x 1.896800 0.000000 0.000000 
#    y 0.000000 17.300810 0.000000 
#    z 0.000000 0.000000 1.868950 
# 
# From -- ./inp_files/14806.got.cif
#   From: 2010.05.17/outbox.cif.g08.bks.cpg/sg54_8_cif.got.tgz:14806.got - 2010.06.03 13:09:01.
