data_PCOD9422204
_publ_section_title
;
Structure prediction by ZEFSAII (Michael W. Deem and Ramdas Pophale) SiO2 
 PCOD9422204
Probable space group: P C C A
;
_chemical_formula_sum "Si O2"
_cell_formula_units_Z 60
_cell_length_a 20.376255
_cell_length_b 5.531474
_cell_length_c 23.856784
_cell_angle_alpha 90.000000
_cell_angle_beta 90.000000
_cell_angle_gamma 90.000000
_cell_volume 2688.915415
_symmetry_space_group_name_H-M "P C C A"
_symmetry_group_IT_number 54
_symmetry_cell_setting 'orthorhombic'
loop_
_space_group_symop_operation_xyz
x,y,z
1/2-x,-y,z
1/2+x,-y,1/2-z
-x,y,1/2-z
-x,-y,-z
1/2+x,y,-z
1/2-x,y,1/2+z
x,-y,1/2+z
loop_
_atom_site_type_symbol
_atom_site_label
_atom_site_fract_x
_atom_site_fract_y
_atom_site_fract_z
Si Si1 0.570584 0.462033 0.712577
Si Si2 0.431570 0.618913 0.016744
Si Si3 0.250000 0.000000 0.267676
Si Si4 0.321389 0.326688 0.351369
Si Si5 0.310675 0.600905 0.465999
Si Si6 0.023987 0.768716 0.631495
Si Si7 0.604980 0.006454 0.578003
Si Si8 0.399129 0.030539 0.224647
O O1 0.636844 0.464596 0.676476
O O2 0.506928 0.436748 0.672595
O O3 0.579074 0.709265 0.749229
O O4 0.574007 0.203597 0.742500
O O5 0.375282 0.431435 0.002049
O O6 0.429769 0.675438 0.082114
O O7 0.500000 0.500000 0.000000
O O8 0.416968 0.840351 0.974224
O O9 0.234387 0.779306 0.311416
O O10 0.181483 0.996441 0.231409
O O11 0.307092 0.410471 0.414259
O O12 0.375868 0.125195 0.364188
O O13 0.250000 0.500000 0.501269
O O14 0.327338 0.857349 0.438725
O O15 0.959494 0.849702 0.596583
O O16 0.064308 0.975080 0.665326
#
# Coordination Sequence:
#
# PCOD9422204 Si02
#       8
#     8   8   4   8   8   8   8   8
#     4  11  24  44  65 105 138 178 242 298 356 420
#     4  11  24  43  68 105 137 181 241 291 361 450
#     4  10  22  44  66  98 142 190 244 288 364 438
#     4  10  21  36  67  95 133 173 224 292 366 411
#     4  11  23  39  66 102 134 174 231 298 365 429
#     4  12  23  44  72 100 143 186 233 294 373 419
#     4  11  22  42  66 106 133 177 232 304 358 439
#     4  11  28  44  69 103 144 189 241 306 349 441
#
# _framework density 22.313831
#
# number of rings (size 3 to 8) (size 9 to 14) (size 15 to 20)
#    0.000    1.067    2.667    4.000    1.867    8.533 
#    0.000    1.333    2.933    0.000    0.000    0.000 
#    0.000    0.000    0.000    0.000    0.000    0.000 
#
# Total GULP energy -334165.863411 kJ/mol
# GULP energy per Si atom -5569.431057 kJ/mol
# Density = 2.226304 g / cm^3
# Si number density = 22.313831 Si / 1000 Ang^3
#
#
#
# Elastic Constant Matrix: (Units=GPa)
#
#
# Indices 1 2 3 4 5 6 
#
# 1 134.0721 19.1279 31.5716 0.0000 0.0000 0.0000
# 2 19.1279 89.7755 33.6720 0.0000 0.0000 0.0000
# 3 31.5716 33.6720 75.1980 0.0000 0.0000 0.0000
# 4 0.0000 0.0000 0.0000 8.2524 0.0000 0.0000
# 5 0.0000 0.0000 0.0000 0.0000 17.2069 0.0000
# 6 0.0000 0.0000 0.0000 0.0000 0.0000 42.2029
#
#
#
# Elastic Compliance Matrix: (Units=1/GPa)
#
#
# Indices 1 2 3 4 5 6 
#
# 1 0.008300 -0.000555 -0.003236 0.000000 0.000000 0.000000
# 2 -0.000555 0.013424 -0.005778 0.000000 0.000000 0.000000
# 3 -0.003236 -0.005778 0.017244 0.000000 0.000000 0.000000
# 4 0.000000 0.000000 0.000000 0.121177 0.000000 0.000000
# 5 0.000000 0.000000 0.000000 0.000000 0.058116 0.000000
# 6 0.000000 0.000000 0.000000 0.000000 0.000000 0.023695
#
#
# Mechanical properties :
#
#
# Convention : Reuss Voigt Hill
#
# Bulk Modulus (GPa) = 50.42815 51.97652 51.20233
# Shear Modulus (GPa) = 18.67728 27.84406 23.26067
#
# Velocity S-wave (km/s) = 2.89628 3.53631 3.23218
# Velocity P-wave (km/s) = 5.81663 6.32597 6.07664
#
# Compressibility (1/GPa) = 0.01983020
#
# Stress axis : x y z
#
# Youngs Moduli (GPa) = 120.48343 74.49181 57.98991
#
# Poissons Ratio (x) = 0.04131 0.18768
# Poissons Ratio (y) = 0.06681 0.33508
# Poissons Ratio (z) = 0.38993 0.43043
#
# Static dielectric constant tensor:
#      x y z
#    x 1.943010 0.000000 0.000000 
#    y 0.000000 1.923870 0.000000 
#    z 0.000000 0.000000 1.875670 
# 
# From -- ./inp_files/24795.got.cif
#   From: 2010.05.17/outbox.cif.g08.bks.cpg/sg54_13_cif.got.tgz:24795.got - 2010.06.03 13:09:01.
