data_PCOD9422219
_publ_section_title
;
Structure prediction by ZEFSAII (Michael W. Deem and Ramdas Pophale) SiO2 
 PCOD9422219
Probable space group: P C C A
;
_chemical_formula_sum "Si O2"
_cell_formula_units_Z 40
_cell_length_a 9.890223
_cell_length_b 8.780524
_cell_length_c 24.147707
_cell_angle_alpha 90.000000
_cell_angle_beta 90.000000
_cell_angle_gamma 90.000000
_cell_volume 2097.019244
_symmetry_space_group_name_H-M "P C C A"
_symmetry_group_IT_number 54
_symmetry_cell_setting 'orthorhombic'
loop_
_space_group_symop_operation_xyz
x,y,z
1/2-x,-y,z
1/2+x,-y,1/2-z
-x,y,1/2-z
-x,-y,-z
1/2+x,y,-z
1/2-x,y,1/2+z
x,-y,1/2+z
loop_
_atom_site_type_symbol
_atom_site_label
_atom_site_fract_x
_atom_site_fract_y
_atom_site_fract_z
Si Si1 0.712611 0.323440 0.946989
Si Si2 0.659899 0.855592 0.337025
Si Si3 0.552626 0.169212 0.513806
Si Si4 0.144275 0.864495 0.861201
Si Si5 0.657668 0.646125 0.235844
O O1 0.750000 0.500000 0.950579
O O2 0.680261 0.270578 0.884571
O O3 0.578470 0.277664 0.981340
O O4 0.839198 0.227064 0.969629
O O5 0.504304 0.907571 0.338667
O O6 0.694783 0.780328 0.278609
O O7 0.750000 0.000000 0.349919
O O8 0.625549 0.166612 0.573662
O O9 0.500000 0.000000 0.500000
O O10 0.177333 0.714256 0.825561
O O11 0.250000 0.000000 0.852876
O O12 0.750000 0.500000 0.244411
O O13 0.500000 0.611497 0.250000
#
# Coordination Sequence:
#
# PCOD9422219 Si02
#       5
#     8   8   8   8   8
#     4  11  22  37  58  86 118 152 193 245 301 353
#     4  10  21  38  60  83 112 151 194 239 289 353
#     4  11  22  39  60  85 118 158 200 244 295 361
#     4  10  21  37  57  84 114 147 192 241 288 347
#     4  10  22  39  58  84 117 150 190 241 296 354
#
# _framework density 19.074694000000001
#
# number of rings (size 3 to 8) (size 9 to 14) (size 15 to 20)
#    0.000    1.600    0.000    6.000    0.000    2.400 
#    0.000    8.000    0.000    0.000    0.000    0.000 
#    0.000    0.000    0.000    0.000    0.000    0.000 
#
# Total GULP energy -223459.862029 kJ/mol
# GULP energy per Si atom -5586.496551 kJ/mol
# Density = 1.903128 g / cm^3
# Si number density = 19.074694 Si / 1000 Ang^3
#
#
#
# Elastic Constant Matrix: (Units=GPa)
#
#
# Indices 1 2 3 4 5 6 
#
# 1 96.7660 66.3252 19.3141 0.0000 0.0000 0.0000
# 2 66.3252 107.6921 23.8037 0.0000 0.0000 0.0000
# 3 19.3141 23.8037 84.6414 0.0000 0.0000 0.0000
# 4 0.0000 0.0000 0.0000 5.6814 0.0000 0.0000
# 5 0.0000 0.0000 0.0000 0.0000 21.9562 0.0000
# 6 0.0000 0.0000 0.0000 0.0000 0.0000 41.5871
#
#
#
# Elastic Compliance Matrix: (Units=1/GPa)
#
#
# Indices 1 2 3 4 5 6 
#
# 1 0.017971 -0.010835 -0.001054 0.000000 0.000000 0.000000
# 2 -0.010835 0.016434 -0.002149 0.000000 0.000000 0.000000
# 3 -0.001054 -0.002149 0.012659 0.000000 0.000000 0.000000
# 4 0.000000 0.000000 0.000000 0.176014 0.000000 0.000000
# 5 0.000000 0.000000 0.000000 0.000000 0.045545 0.000000
# 6 0.000000 0.000000 0.000000 0.000000 0.000000 0.024046
#
#
# Mechanical properties :
#
#
# Convention : Reuss Voigt Hill
#
# Bulk Modulus (GPa) = 52.66370 56.44282 54.55326
# Shear Modulus (GPa) = 15.28703 25.82203 20.55453
#
# Velocity S-wave (km/s) = 2.83402 3.68330 3.28621
# Velocity P-wave (km/s) = 6.19500 6.90967 6.56208
#
# Compressibility (1/GPa) = 0.01898841
#
# Stress axis : x y z
#
# Youngs Moduli (GPa) = 55.64495 60.84981 78.99260
#
# Poissons Ratio (x) = 0.65931 0.08323
# Poissons Ratio (y) = 0.60292 0.16978
# Poissons Ratio (z) = 0.05863 0.13078
#
# Static dielectric constant tensor:
#      x y z
#    x 1.656900 0.000000 0.000000 
#    y 0.000000 1.630300 0.000000 
#    z 0.000000 0.000000 1.671930 
# 
# From -- ./inp_files/23194.got.cif
#   From: 2010.05.17/outbox.cif.g08.bks.cpg/sg54_12_cif.got.tgz:23194.got - 2010.06.03 13:09:01.
