data_PCOD9422420
_publ_section_title
;
Structure prediction by ZEFSAII (Michael W. Deem and Ramdas Pophale) SiO2 
 PCOD9422420
Probable space group: P C C A
;
_chemical_formula_sum "Si O2"
_cell_formula_units_Z 28
_cell_length_a 4.844817
_cell_length_b 11.129143
_cell_length_c 21.832590
_cell_angle_alpha 90.000000
_cell_angle_beta 90.000000
_cell_angle_gamma 90.000000
_cell_volume 1177.184023
_symmetry_space_group_name_H-M "P C C A"
_symmetry_group_IT_number 54
_symmetry_cell_setting 'orthorhombic'
loop_
_space_group_symop_operation_xyz
x,y,z
1/2-x,-y,z
1/2+x,-y,1/2-z
-x,y,1/2-z
-x,-y,-z
1/2+x,y,-z
1/2-x,y,1/2+z
x,-y,1/2+z
loop_
_atom_site_type_symbol
_atom_site_label
_atom_site_fract_x
_atom_site_fract_y
_atom_site_fract_z
Si Si1 0.250000 0.000000 0.633962
Si Si2 0.750000 0.000000 0.710134
Si Si3 0.540634 0.825340 0.039917
Si Si4 0.000000 0.592754 0.750000
Si Si5 0.999787 0.591592 0.883961
O O1 0.081525 0.907336 0.592983
O O2 0.510880 0.934455 0.669924
O O3 0.500000 0.066774 0.750000
O O4 0.507255 0.690159 0.063580
O O5 0.353110 0.847798 0.980016
O O6 0.250000 0.500000 0.749610
O O7 0.999655 0.655043 0.816395
O O8 0.250000 0.500000 0.887292
O O9 0.750000 0.500000 0.889002
#
# Coordination Sequence:
#
# PCOD9422420 Si02
#       5
#     4   4   8   4   8
#     4  11  22  43  66  92 136 173 225 272 328 412
#     4   9  20  41  68  94 128 163 213 280 340 398
#     4  12  25  40  63  94 131 180 227 269 328 394
#     4   8  16  34  58  82 114 156 204 258 324 400
#     4  10  21  39  62  90 126 166 220 278 333 396
#
# _framework density 23.785575000000001
#
# number of rings (size 3 to 8) (size 9 to 14) (size 15 to 20)
#    0.000    1.714    0.000    4.286    0.000    3.429 
#    7.714    0.000   18.857    0.000    0.000    0.000 
#    0.000    0.000    0.000    0.000    0.000    0.000 
#
# Total GULP energy -155889.658387 kJ/mol
# GULP energy per Si atom -5567.487800 kJ/mol
# Density = 2.373144 g / cm^3
# Si number density = 23.785575 Si / 1000 Ang^3
#
#
#
# Elastic Constant Matrix: (Units=GPa)
#
#
# Indices 1 2 3 4 5 6 
#
# 1 198.5717 20.3554 31.2732 0.0000 0.0000 0.0000
# 2 20.3554 56.4599 13.4750 0.0000 0.0000 0.0000
# 3 31.2732 13.4750 64.1296 0.0000 0.0000 0.0000
# 4 0.0000 0.0000 0.0000 8.0788 0.0000 0.0000
# 5 0.0000 0.0000 0.0000 0.0000 -26.6748 0.0000
# 6 0.0000 0.0000 0.0000 0.0000 0.0000 11.6311
#
#
#
# Elastic Compliance Matrix: (Units=1/GPa)
#
#
# Indices 1 2 3 4 5 6 
#
# 1 0.005562 -0.001430 -0.002412 0.000000 0.000000 0.000000
# 2 -0.001430 0.019014 -0.003298 0.000000 0.000000 0.000000
# 3 -0.002412 -0.003298 0.017463 0.000000 0.000000 0.000000
# 4 0.000000 0.000000 0.000000 0.123780 0.000000 0.000000
# 5 0.000000 0.000000 0.000000 0.000000 -0.037489 0.000000
# 6 0.000000 0.000000 0.000000 0.000000 0.000000 0.085976
#
#
# Mechanical properties :
#
#
# Convention : Reuss Voigt Hill
#
# Bulk Modulus (GPa) = 36.02367 49.92981 42.97674
# Shear Modulus (GPa) = 21.02251 15.54420 18.28336
#
# Velocity S-wave (km/s) = 2.97616 2.55917 2.77551
# Velocity P-wave (km/s) = 5.19501 5.45616 5.32718
#
# Compressibility (1/GPa) = 0.02775953
#
# Stress axis : x y z
#
# Youngs Moduli (GPa) = 179.77812 52.59207 57.26485
#
# Poissons Ratio (x) = 0.07519 0.13813
# Poissons Ratio (y) = 0.25703 0.18886
# Poissons Ratio (z) = 0.43365 0.17345
#
# Static dielectric constant tensor:
#      x y z
#    x 1.813420 0.000000 0.000000 
#    y 0.000000 1.827180 0.000000 
#    z 0.000000 0.000000 2.228080 
# 
# From -- ./inp_files/19477.got.cif
#   From: 2010.05.17/outbox.cif.g08.bks.cpg/sg54_10_cif.got.tgz:19477.got - 2010.06.03 13:09:01.
