data_PCOD9422802
_publ_section_title
;
Structure prediction by ZEFSAII (Michael W. Deem and Ramdas Pophale) SiO2 
 PCOD9422802
Probable space group: P C C A
;
_chemical_formula_sum "Si O2"
_cell_formula_units_Z 60
_cell_length_a 19.334774
_cell_length_b 6.492110
_cell_length_c 22.076713
_cell_angle_alpha 90.000000
_cell_angle_beta 90.000000
_cell_angle_gamma 90.000000
_cell_volume 2771.145835
_symmetry_space_group_name_H-M "P C C A"
_symmetry_group_IT_number 54
_symmetry_cell_setting 'orthorhombic'
loop_
_space_group_symop_operation_xyz
x,y,z
1/2-x,-y,z
1/2+x,-y,1/2-z
-x,y,1/2-z
-x,-y,-z
1/2+x,y,-z
1/2-x,y,1/2+z
x,-y,1/2+z
loop_
_atom_site_type_symbol
_atom_site_label
_atom_site_fract_x
_atom_site_fract_y
_atom_site_fract_z
Si Si1 0.629339 0.731215 0.505452
Si Si2 0.822674 0.392083 0.215099
Si Si3 0.432029 0.661392 0.712831
Si Si4 0.960013 0.959622 0.562920
Si Si5 0.663728 0.342139 0.573636
Si Si6 0.250000 0.000000 0.485671
Si Si7 0.170917 0.955934 0.693848
Si Si8 0.434463 0.697778 0.120300
O O1 0.668369 0.536709 0.530906
O O2 0.581258 0.659414 0.450312
O O3 0.588472 0.838069 0.561732
O O4 0.684047 0.901515 0.480994
O O5 0.750000 0.500000 0.232815
O O6 0.886187 0.515901 0.243754
O O7 0.830119 0.395974 0.143401
O O8 0.824867 0.159862 0.241134
O O9 0.500000 0.730865 0.750000
O O10 0.453352 0.509755 0.656752
O O11 0.379578 0.846053 0.695197
O O12 0.909123 0.766180 0.559153
O O13 0.010648 0.888361 0.616770
O O14 0.000000 0.000000 0.500000
O O15 0.720512 0.176281 0.556736
O O16 0.134185 0.788029 0.651192
O O17 0.250000 0.000000 0.675472
#
# Coordination Sequence:
#
# PCOD9422802 Si02
#       8
#     8   8   8   8   8   4   8   8
#     4  10  22  41  64  97 137 179 224 277 341 417
#     4  11  23  42  67  94 133 173 230 290 348 417
#     4  11  25  44  70 101 135 175 234 289 346 410
#     4   9  21  41  63  94 136 174 218 271 337 416
#     4  11  23  39  65  94 131 179 225 281 346 410
#     4  10  22  38  56  94 132 172 228 272 332 404
#     4  11  25  45  67  95 130 183 232 283 355 411
#     4  10  24  42  67  99 134 175 226 281 341 418
#
# _framework density 21.651693999999999
#
# number of rings (size 3 to 8) (size 9 to 14) (size 15 to 20)
#    0.000    1.600    1.333    2.000    1.867   12.800 
#    2.400    0.000    0.000    0.000    0.000    0.000 
#    0.000    0.000    0.000    0.000    0.000    0.000 
#
# Total GULP energy -334737.464197 kJ/mol
# GULP energy per Si atom -5578.957737 kJ/mol
# Density = 2.160241 g / cm^3
# Si number density = 21.651694 Si / 1000 Ang^3
#
#
#
# Elastic Constant Matrix: (Units=GPa)
#
#
# Indices 1 2 3 4 5 6 
#
# 1 113.9962 30.4965 10.6900 0.0000 0.0000 0.0000
# 2 30.4965 96.4294 31.4914 0.0000 0.0000 0.0000
# 3 10.6900 31.4914 67.6993 0.0000 0.0000 0.0000
# 4 0.0000 0.0000 0.0000 23.1655 0.0000 0.0000
# 5 0.0000 0.0000 0.0000 0.0000 23.9271 0.0000
# 6 0.0000 0.0000 0.0000 0.0000 0.0000 45.4342
#
#
#
# Elastic Compliance Matrix: (Units=1/GPa)
#
#
# Indices 1 2 3 4 5 6 
#
# 1 0.009584 -0.002991 -0.000122 0.000000 0.000000 0.000000
# 2 -0.002991 0.013161 -0.005650 0.000000 0.000000 0.000000
# 3 -0.000122 -0.005650 0.017419 0.000000 0.000000 0.000000
# 4 0.000000 0.000000 0.000000 0.043168 0.000000 0.000000
# 5 0.000000 0.000000 0.000000 0.000000 0.041794 0.000000
# 6 0.000000 0.000000 0.000000 0.000000 0.000000 0.022010
#
#
# Mechanical properties :
#
#
# Convention : Reuss Voigt Hill
#
# Bulk Modulus (GPa) = 44.17384 47.05340 45.61362
# Shear Modulus (GPa) = 29.03483 32.20182 30.61833
#
# Velocity S-wave (km/s) = 3.66593 3.86069 3.76457
# Velocity P-wave (km/s) = 6.19395 6.45387 6.32525
#
# Compressibility (1/GPa) = 0.02263783
#
# Stress axis : x y z
#
# Youngs Moduli (GPa) = 104.34219 75.97997 57.40987
#
# Poissons Ratio (x) = 0.22727 0.00700
# Poissons Ratio (y) = 0.31210 0.32436
# Poissons Ratio (z) = 0.01272 0.42928
#
# Static dielectric constant tensor:
#      x y z
#    x 1.867800 0.000000 0.000000 
#    y 0.000000 1.787820 0.000000 
#    z 0.000000 0.000000 1.765450 
# 
# From -- ./inp_files/24774.got.cif
#   From: 2010.05.17/outbox.cif.g08.bks.cpg/sg54_13_cif.got.tgz:24774.got - 2010.06.03 13:09:01.
