data_PCOD9422589
_publ_section_title
;
Structure prediction by ZEFSAII (Michael W. Deem and Ramdas Pophale) SiO2 
 PCOD9422589
Probable space group: P C C A
;
_chemical_formula_sum "Si O2"
_cell_formula_units_Z 48
_cell_length_a 17.564659
_cell_length_b 9.095504
_cell_length_c 14.655938
_cell_angle_alpha 90.000000
_cell_angle_beta 90.000000
_cell_angle_gamma 90.000000
_cell_volume 2341.424245
_symmetry_space_group_name_H-M "P C C A"
_symmetry_group_IT_number 54
_symmetry_cell_setting 'orthorhombic'
loop_
_space_group_symop_operation_xyz
x,y,z
1/2-x,-y,z
1/2+x,-y,1/2-z
-x,y,1/2-z
-x,-y,-z
1/2+x,y,-z
1/2-x,y,1/2+z
x,-y,1/2+z
loop_
_atom_site_type_symbol
_atom_site_label
_atom_site_fract_x
_atom_site_fract_y
_atom_site_fract_z
Si Si1 0.544464 0.350370 0.022017
Si Si2 0.213359 0.659551 0.398799
Si Si3 0.656182 0.867615 0.062117
Si Si4 0.490469 0.797098 0.354610
Si Si5 0.182010 0.093259 0.770680
Si Si6 0.058939 0.892809 0.115504
O O1 0.628170 0.358451 0.063554
O O2 0.491408 0.247689 0.086739
O O3 0.500000 0.500000 0.000000
O O4 0.549768 0.275666 0.922675
O O5 0.250000 0.500000 0.392817
O O6 0.268482 0.771289 0.455139
O O7 0.208842 0.746980 0.303110
O O8 0.593951 0.761542 0.110289
O O9 0.667040 0.997321 0.136677
O O10 0.616661 0.919232 0.969126
O O11 0.500000 0.759209 0.250000
O O12 0.503210 0.970118 0.370818
O O13 0.109621 0.112480 0.706330
O O14 0.250000 0.000000 0.724135
#
# Coordination Sequence:
#
# PCOD9422589 Si02
#       6
#     8   8   8   8   8   8
#     4  11  25  45  67  98 130 185 227 269 343 405
#     4  11  23  43  65  87 139 178 219 279 334 401
#     4  10  21  41  64  96 129 169 212 282 339 391
#     4  11  21  40  71  99 132 167 227 282 333 401
#     4  10  22  39  64 102 130 170 219 274 346 399
#     4  11  22  41  70  97 131 170 226 279 333 399
#
# _framework density 20.500343000000001
#
# number of rings (size 3 to 8) (size 9 to 14) (size 15 to 20)
#    0.000    1.333    1.667    6.000    0.000    3.333 
#    6.000    0.833    0.000    0.000    0.000    0.000 
#    0.000    0.000    0.000    0.000    0.000    0.000 
#
# Total GULP energy -267958.332837 kJ/mol
# GULP energy per Si atom -5582.465267 kJ/mol
# Density = 2.045368 g / cm^3
# Si number density = 20.500343 Si / 1000 Ang^3
#
#
#
# Elastic Constant Matrix: (Units=GPa)
#
#
# Indices 1 2 3 4 5 6 
#
# 1 147.5985 57.3110 53.8702 0.0000 0.0000 0.0000
# 2 57.3110 98.2623 50.1198 0.0000 0.0000 0.0000
# 3 53.8702 50.1198 90.1338 0.0000 0.0000 0.0000
# 4 0.0000 0.0000 0.0000 14.2558 0.0000 0.0000
# 5 0.0000 0.0000 0.0000 0.0000 12.5568 0.0000
# 6 0.0000 0.0000 0.0000 0.0000 0.0000 34.7952
#
#
#
# Elastic Compliance Matrix: (Units=1/GPa)
#
#
# Indices 1 2 3 4 5 6 
#
# 1 0.009545 -0.003709 -0.003642 0.000000 0.000000 0.000000
# 2 -0.003709 0.015648 -0.006484 0.000000 0.000000 0.000000
# 3 -0.003642 -0.006484 0.016877 0.000000 0.000000 0.000000
# 4 0.000000 0.000000 0.000000 0.070147 0.000000 0.000000
# 5 0.000000 0.000000 0.000000 0.000000 0.079638 0.000000
# 6 0.000000 0.000000 0.000000 0.000000 0.000000 0.028740
#
#
# Mechanical properties :
#
#
# Convention : Reuss Voigt Hill
#
# Bulk Modulus (GPa) = 69.45196 73.17740 71.31468
# Shear Modulus (GPa) = 19.75788 23.96780 21.86284
#
# Velocity S-wave (km/s) = 3.10785 3.42298 3.26922
# Velocity P-wave (km/s) = 6.84327 7.16907 7.00806
#
# Compressibility (1/GPa) = 0.01439844
#
# Stress axis : x y z
#
# Youngs Moduli (GPa) = 104.77090 63.90797 59.25282
#
# Poissons Ratio (x) = 0.23705 0.21580
# Poissons Ratio (y) = 0.38862 0.38420
# Poissons Ratio (z) = 0.38157 0.41438
#
# Static dielectric constant tensor:
#      x y z
#    x 1.797310 0.000000 0.000000 
#    y 0.000000 1.762350 0.000000 
#    z 0.000000 0.000000 1.724310 
# 
# From -- ./inp_files/14103.got.cif
#   From: 2010.05.17/outbox.cif.g08.bks.cpg/sg54_8_cif.got.tgz:14103.got - 2010.06.03 13:09:01.
