data_PCOD9422237
_publ_section_title
;
Structure prediction by ZEFSAII (Michael W. Deem and Ramdas Pophale) SiO2 
 PCOD9422237
Probable space group: P C C A
;
_chemical_formula_sum "Si O2"
_cell_formula_units_Z 44
_cell_length_a 22.584719
_cell_length_b 7.689090
_cell_length_c 9.349895
_cell_angle_alpha 90.000000
_cell_angle_beta 90.000000
_cell_angle_gamma 90.000000
_cell_volume 1623.664777
_symmetry_space_group_name_H-M "P C C A"
_symmetry_group_IT_number 54
_symmetry_cell_setting 'orthorhombic'
loop_
_space_group_symop_operation_xyz
x,y,z
1/2-x,-y,z
1/2+x,-y,1/2-z
-x,y,1/2-z
-x,-y,-z
1/2+x,y,-z
1/2-x,y,1/2+z
x,-y,1/2+z
loop_
_atom_site_type_symbol
_atom_site_label
_atom_site_fract_x
_atom_site_fract_y
_atom_site_fract_z
Si Si1 0.750000 0.500000 0.258654
Si Si2 0.837203 0.211304 0.766960
Si Si3 0.816824 0.956655 0.000700
Si Si4 0.052215 0.662517 0.071723
Si Si5 0.460760 0.735056 0.123038
Si Si6 0.637818 0.271487 0.673536
O O1 0.707652 0.356029 0.332370
O O2 0.800924 0.376999 0.187261
O O3 0.829777 0.214404 0.595535
O O4 0.818681 0.028009 0.838505
O O5 0.903457 0.252592 0.815185
O O6 0.857797 0.096799 0.081203
O O7 0.750000 0.000000 0.043346
O O8 0.090832 0.627584 0.926671
O O9 0.995099 0.775245 0.023962
O O10 0.035010 0.473633 0.125072
O O11 0.500000 0.815083 0.250000
O O12 0.393291 0.763196 0.172286
#
# Coordination Sequence:
#
# PCOD9422237 Si02
#       6
#     4   8   8   8   8   8
#     4  12  22  40  64 100 134 170 234 280 324 412
#     4  11  24  43  65  97 134 179 224 278 338 411
#     4  11  23  42  61  90 136 181 213 266 353 408
#     4   9  19  36  61  91 128 167 223 283 337 393
#     4   9  17  36  62  91 126 165 221 285 341 384
#     4  10  21  37  59  94 130 172 218 281 334 402
#
# _framework density 27.09919
#
# number of rings (size 3 to 8) (size 9 to 14) (size 15 to 20)
#    0.000    1.818    3.636    0.545    0.000    2.909 
#    3.273    0.909    0.000    3.273    0.000    0.000 
#    0.000    0.000    0.000    0.000    0.000    0.000 
#
# Total GULP energy -245341.815782 kJ/mol
# GULP energy per Si atom -5575.950359 kJ/mol
# Density = 2.703751 g / cm^3
# Si number density = 27.099190 Si / 1000 Ang^3
#
#
#
# Elastic Constant Matrix: (Units=GPa)
#
#
# Indices 1 2 3 4 5 6 
#
# 1 106.4390 4.8631 17.4656 0.0000 0.0000 0.0000
# 2 4.8631 42.1966 -25.9918 0.0000 0.0000 0.0000
# 3 17.4656 -25.9918 90.7012 0.0000 0.0000 0.0000
# 4 0.0000 0.0000 0.0000 10.1585 0.0000 0.0000
# 5 0.0000 0.0000 0.0000 0.0000 32.7959 0.0000
# 6 0.0000 0.0000 0.0000 0.0000 0.0000 21.3224
#
#
#
# Elastic Compliance Matrix: (Units=1/GPa)
#
#
# Indices 1 2 3 4 5 6 
#
# 1 0.009973 -0.002832 -0.002732 0.000000 0.000000 0.000000
# 2 -0.002832 0.029583 0.009023 0.000000 0.000000 0.000000
# 3 -0.002732 0.009023 0.014137 0.000000 0.000000 0.000000
# 4 0.000000 0.000000 0.000000 0.098440 0.000000 0.000000
# 5 0.000000 0.000000 0.000000 0.000000 0.030492 0.000000
# 6 0.000000 0.000000 0.000000 0.000000 0.000000 0.046899
#
#
# Mechanical properties :
#
#
# Convention : Reuss Voigt Hill
#
# Bulk Modulus (GPa) = 16.49904 25.77897 21.13900
# Shear Modulus (GPa) = 20.59232 29.05536 24.82384
#
# Velocity S-wave (km/s) = 2.75960 3.27798 3.02989
# Velocity P-wave (km/s) = 4.03180 4.88470 4.47860
#
# Compressibility (1/GPa) = 0.06060960
#
# Stress axis : x y z
#
# Youngs Moduli (GPa) = 100.27335 33.80349 70.73692
#
# Poissons Ratio (x) = 0.09574 0.19325
# Poissons Ratio (y) = 0.28399 -0.63824
# Poissons Ratio (z) = 0.27394 -0.30500
#
# Static dielectric constant tensor:
#      x y z
#    x 2.064180 0.000000 0.000000 
#    y 0.000000 2.146480 0.000000 
#    z 0.000000 0.000000 2.458790 
# 
# From -- ./inp_files/9829.got.cif
#   From: 2010.05.17/outbox.cif.g08.bks.cpg/sg54_5_cif.got.tgz:9829.got - 2010.06.03 13:09:01.
