data_PCOD9422941
_publ_section_title
;
Structure prediction by ZEFSAII (Michael W. Deem and Ramdas Pophale) SiO2 
 PCOD9422941
Probable space group: P C C A
;
_chemical_formula_sum "Si O2"
_cell_formula_units_Z 24
_cell_length_a 10.915622
_cell_length_b 7.691527
_cell_length_c 13.270936
_cell_angle_alpha 90.000000
_cell_angle_beta 90.000000
_cell_angle_gamma 90.000000
_cell_volume 1114.198608
_symmetry_space_group_name_H-M "P C C A"
_symmetry_group_IT_number 54
_symmetry_cell_setting 'orthorhombic'
loop_
_space_group_symop_operation_xyz
x,y,z
1/2-x,-y,z
1/2+x,-y,1/2-z
-x,y,1/2-z
-x,-y,-z
1/2+x,y,-z
1/2-x,y,1/2+z
x,-y,1/2+z
loop_
_atom_site_type_symbol
_atom_site_label
_atom_site_fract_x
_atom_site_fract_y
_atom_site_fract_z
Si Si1 0.073719 0.206744 0.657451
Si Si2 0.750000 0.000000 0.985676
Si Si3 0.842020 0.647422 0.052063
Si Si4 0.750000 0.500000 0.353929
O O1 0.140119 0.067733 0.586211
O O2 0.174203 0.346260 0.697604
O O3 0.000000 0.126083 0.750000
O O4 0.975810 0.322509 0.595646
O O5 0.781919 0.836818 0.054426
O O6 0.750000 0.500000 0.094863
O O7 0.840372 0.599131 0.932791
#
# Coordination Sequence:
#
# PCOD9422941 Si02
#       4
#     8   4   8   4
#     4  11  22  38  60  92 129 153 204 263 312 356
#     4  10  22  40  62  90 122 166 208 242 304 376
#     4   9  20  39  66  86 118 160 210 241 303 370
#     4   8  20  36  60  86 112 160 206 236 300 368
#
# _framework density 21.540147000000001
#
# number of rings (size 3 to 8) (size 9 to 14) (size 15 to 20)
#    1.000    1.333    0.000    2.000    2.333    1.333 
#    0.000    6.667    0.000    0.000    0.000    0.000 
#    0.000    0.000    0.000    0.000    0.000    0.000 
#
# Total GULP energy -133622.854457 kJ/mol
# GULP energy per Si atom -5567.618936 kJ/mol
# Density = 2.149112 g / cm^3
# Si number density = 21.540147 Si / 1000 Ang^3
#
#
#
# Elastic Constant Matrix: (Units=GPa)
#
#
# Indices 1 2 3 4 5 6 
#
# 1 123.8191 59.7934 42.3512 0.0000 0.0000 0.0000
# 2 59.7934 158.4428 16.1153 0.0000 0.0000 0.0000
# 3 42.3512 16.1153 29.4995 0.0000 0.0000 0.0000
# 4 0.0000 0.0000 0.0000 24.9817 0.0000 0.0000
# 5 0.0000 0.0000 0.0000 0.0000-9004.5497 0.0000
# 6 0.0000 0.0000 0.0000 0.0000 0.0000 43.2744
#
#
#
# Elastic Compliance Matrix: (Units=1/GPa)
#
#
# Indices 1 2 3 4 5 6 
#
# 1 0.018506 -0.004533 -0.024091 0.000000 0.000000 0.000000
# 2 -0.004533 0.007793 0.002251 0.000000 0.000000 0.000000
# 3 -0.024091 0.002251 0.067256 0.000000 0.000000 0.000000
# 4 0.000000 0.000000 0.000000 0.040029 0.000000 0.000000
# 5 0.000000 0.000000 0.000000 0.000000 -0.000111 0.000000
# 6 0.000000 0.000000 0.000000 0.000000 0.000000 0.023108
#
#
# Mechanical properties :
#
#
# Convention : Reuss Voigt Hill
#
# Bulk Modulus (GPa) = 24.50517 60.92011 42.71264
# Shear Modulus (GPa) = 22.42836 -1774.35861 -875.96513
#
# Velocity S-wave (km/s) = 3.23032 -28.73209 -20.18785
# Velocity P-wave (km/s) = 5.03135 32.74702 22.88070
#
# Compressibility (1/GPa) = 0.04080772
#
# Stress axis : x y z
#
# Youngs Moduli (GPa) = 54.03723 128.31553 14.86850
#
# Poissons Ratio (x) = 0.58170 0.35820
# Poissons Ratio (y) = 0.24497 -0.03347
# Poissons Ratio (z) = 1.30183 -0.28884
#
# Static dielectric constant tensor:
#      x y z
#    x 1.849570 0.000000 0.000000 
#    y 0.000000 1.794130 0.000000 
#    z 0.000000 0.000000 1.825450 
# 
# From -- ./inp_files/11140.got.cif
#   From: 2010.05.17/outbox.cif.g08.bks.cpg/sg54_6_cif.got.tgz:11140.got - 2010.06.03 13:09:01.
