data_PCOD9422022
_publ_section_title
;
Structure prediction by ZEFSAII (Michael W. Deem and Ramdas Pophale) SiO2 
 PCOD9422022
Probable space group: P C C A
;
_chemical_formula_sum "Si O2"
_cell_formula_units_Z 48
_cell_length_a 9.704681
_cell_length_b 15.633995
_cell_length_c 17.103990
_cell_angle_alpha 90.000000
_cell_angle_beta 90.000000
_cell_angle_gamma 90.000000
_cell_volume 2595.067550
_symmetry_space_group_name_H-M "P C C A"
_symmetry_group_IT_number 54
_symmetry_cell_setting 'orthorhombic'
loop_
_space_group_symop_operation_xyz
x,y,z
1/2-x,-y,z
1/2+x,-y,1/2-z
-x,y,1/2-z
-x,-y,-z
1/2+x,y,-z
1/2-x,y,1/2+z
x,-y,1/2+z
loop_
_atom_site_type_symbol
_atom_site_label
_atom_site_fract_x
_atom_site_fract_y
_atom_site_fract_z
Si Si1 0.909729 0.522543 0.672663
Si Si2 0.275145 0.252693 0.671335
Si Si3 0.033341 0.308498 0.428014
Si Si4 0.663072 0.084767 0.259856
Si Si5 0.511204 0.342695 0.389400
Si Si6 0.241350 0.228905 0.841559
O O1 0.750000 0.500000 0.690228
O O2 0.000000 0.537524 0.750000
O O3 0.926087 0.603388 0.615529
O O4 0.970589 0.438799 0.630598
O O5 0.403882 0.264971 0.615060
O O6 0.202756 0.158683 0.676641
O O7 0.159724 0.319584 0.645127
O O8 0.313990 0.265758 0.762635
O O9 0.007228 0.326441 0.518284
O O10 0.163690 0.246742 0.414915
O O11 0.500000 0.070384 0.250000
O O12 0.713380 0.130985 0.179868
O O13 0.750000 0.000000 0.274710
O O14 0.400945 0.279329 0.349689
#
# Coordination Sequence:
#
# PCOD9422022 Si02
#       6
#     8   8   8   8   8   8
#     4  12  27  43  63  91 128 169 227 267 302 366
#     4  10  22  40  67  92 125 161 217 255 314 375
#     4  12  25  39  64  96 127 171 215 258 322 372
#     4  10  22  39  70  99 124 160 214 266 312 375
#     4  12  23  43  63  90 133 174 205 268 321 371
#     4  10  20  42  63  93 125 161 216 255 312 371
#
# _framework density 18.496627
#
# number of rings (size 3 to 8) (size 9 to 14) (size 15 to 20)
#    1.000    0.000    3.333    4.500    4.667    0.000 
#    0.000    0.000    0.000    6.000    0.000    0.000 
#    0.000    0.000    0.000    0.000    0.000    0.000 
#
# Total GULP energy -267834.458155 kJ/mol
# GULP energy per Si atom -5579.884545 kJ/mol
# Density = 1.845453 g / cm^3
# Si number density = 18.496627 Si / 1000 Ang^3
#
#
#
# Elastic Constant Matrix: (Units=GPa)
#
#
# Indices 1 2 3 4 5 6 
#
# 1 78.3487 34.1394 -12.1135 0.0000 0.0000 0.0000
# 2 34.1394 94.2214 14.1586 0.0000 0.0000 0.0000
# 3 -12.1135 14.1586 68.5305 0.0000 0.0000 0.0000
# 4 0.0000 0.0000 0.0000 -53.7455 0.0000 0.0000
# 5 0.0000 0.0000 0.0000 0.0000 4.6782 0.0000
# 6 0.0000 0.0000 0.0000 0.0000 0.0000 33.2548
#
#
#
# Elastic Compliance Matrix: (Units=1/GPa)
#
#
# Indices 1 2 3 4 5 6 
#
# 1 0.016260 -0.006526 0.004222 0.000000 0.000000 0.000000
# 2 -0.006526 0.013573 -0.003958 0.000000 0.000000 0.000000
# 3 0.004222 -0.003958 0.016156 0.000000 0.000000 0.000000
# 4 0.000000 0.000000 0.000000 -0.018606 0.000000 0.000000
# 5 0.000000 0.000000 0.000000 0.000000 0.213759 0.000000
# 6 0.000000 0.000000 0.000000 0.000000 0.000000 0.030071
#
#
# Mechanical properties :
#
#
# Convention : Reuss Voigt Hill
#
# Bulk Modulus (GPa) = 29.88103 34.82994 32.35549
# Shear Modulus (GPa) = 16.95550 10.49858 13.72704
#
# Velocity S-wave (km/s) = 3.03096 2.38501 2.72718
# Velocity P-wave (km/s) = 5.33281 5.14351 5.23901
#
# Compressibility (1/GPa) = 0.03346605
#
# Stress axis : x y z
#
# Youngs Moduli (GPa) = 61.50103 73.67798 61.89629
#
# Poissons Ratio (x) = 0.48082 -0.26135
# Poissons Ratio (y) = 0.40135 0.24496
# Poissons Ratio (z) = -0.25968 0.29159
#
# Static dielectric constant tensor:
#      x y z
#    x 1.637260 0.000000 0.000000 
#    y 0.000000 1.627970 0.000000 
#    z 0.000000 0.000000 1.624220 
# 
# From -- ./inp_files/16608.got.cif
#   From: 2010.05.17/outbox.cif.g08.bks.cpg/sg54_9_cif.got.tgz:16608.got - 2010.06.03 13:09:01.
