data_PCOD9422188
_publ_section_title
;
Structure prediction by ZEFSAII (Michael W. Deem and Ramdas Pophale) SiO2 
 PCOD9422188
Probable space group: P C C A
;
_chemical_formula_sum "Si O2"
_cell_formula_units_Z 56
_cell_length_a 17.258834
_cell_length_b 31.898223
_cell_length_c 5.227396
_cell_angle_alpha 90.000000
_cell_angle_beta 90.000000
_cell_angle_gamma 90.000000
_cell_volume 2877.818119
_symmetry_space_group_name_H-M "P C C A"
_symmetry_group_IT_number 54
_symmetry_cell_setting 'orthorhombic'
loop_
_space_group_symop_operation_xyz
x,y,z
1/2-x,-y,z
1/2+x,-y,1/2-z
-x,y,1/2-z
-x,-y,-z
1/2+x,y,-z
1/2-x,y,1/2+z
x,-y,1/2+z
loop_
_atom_site_type_symbol
_atom_site_label
_atom_site_fract_x
_atom_site_fract_y
_atom_site_fract_z
Si Si1 0.433880 0.403479 0.556189
Si Si2 0.914140 0.275793 0.130743
Si Si3 0.906990 0.974395 0.751212
Si Si4 0.500000 0.529460 0.750000
Si Si5 0.197969 0.800390 0.852121
Si Si6 0.699483 0.102389 0.618907
Si Si7 0.500000 0.326828 0.250000
Si Si8 0.698056 0.652203 0.319153
O O1 0.500000 0.418759 0.750000
O O2 0.431736 0.437006 0.324793
O O3 0.466755 0.359212 0.455245
O O4 0.354584 0.389882 0.688727
O O5 0.872640 0.231361 0.115267
O O6 0.856267 0.307296 0.275597
O O7 0.000000 0.272519 0.250000
O O8 0.932315 0.298114 0.861202
O O9 0.866427 0.930901 0.683381
O O10 0.000000 0.969812 0.750000
O O11 0.884835 0.007354 0.528131
O O12 0.500000 0.500000 0.500000
O O13 0.241694 0.793273 0.583728
O O14 0.173581 0.849162 0.861291
O O15 0.734660 0.096350 0.336397
O O16 0.740064 0.652905 0.591376
#
# Coordination Sequence:
#
# PCOD9422188 Si02
#       8
#     8   8   8   4   8   8   4   8
#     4  11  22  42  68  95 137 167 212 273 316 373
#     4  12  24  38  62  91 127 167 216 267 312 376
#     4  10  21  36  58  88 121 151 191 255 319 374
#     4  11  24  40  72 106 124 166 218 266 310 371
#     4  10  24  43  60  85 124 168 209 259 317 376
#     4  10  21  39  61  84 117 158 205 252 303 377
#     4  11  20  38  64  92 130 162 212 268 322 351
#     4  12  25  39  62  95 130 170 210 257 323 380
#
# _framework density 19.459188999999999
#
# number of rings (size 3 to 8) (size 9 to 14) (size 15 to 20)
#    0.000    1.143    3.571    2.571    4.000    2.286 
#    0.000    0.000    4.714    2.571    0.000    0.000 
#    0.000    0.000    0.000    0.000    0.000    0.000 
#
# Total GULP energy -312553.039156 kJ/mol
# GULP energy per Si atom -5581.304271 kJ/mol
# Density = 1.941490 g / cm^3
# Si number density = 19.459189 Si / 1000 Ang^3
#
#
#
# Elastic Constant Matrix: (Units=GPa)
#
#
# Indices 1 2 3 4 5 6 
#
# 1 60.5317 55.1517 14.2194 0.0000 0.0000 0.0000
# 2 55.1517 129.9485 34.6062 0.0000 0.0000 0.0000
# 3 14.2194 34.6062 85.9542 0.0000 0.0000 0.0000
# 4 0.0000 0.0000 0.0000 -145.2590 0.0000 0.0000
# 5 0.0000 0.0000 0.0000 0.0000 38.0804 0.0000
# 6 0.0000 0.0000 0.0000 0.0000 0.0000 3.8144
#
#
#
# Elastic Compliance Matrix: (Units=1/GPa)
#
#
# Indices 1 2 3 4 5 6 
#
# 1 0.026938 -0.011477 0.000164 0.000000 0.000000 0.000000
# 2 -0.011477 0.013509 -0.003540 0.000000 0.000000 0.000000
# 3 0.000164 -0.003540 0.013032 0.000000 0.000000 0.000000
# 4 0.000000 0.000000 0.000000 -0.006884 0.000000 0.000000
# 5 0.000000 0.000000 0.000000 0.000000 0.026260 0.000000
# 6 0.000000 0.000000 0.000000 0.000000 0.000000 0.262165
#
#
# Mechanical properties :
#
#
# Convention : Reuss Voigt Hill
#
# Bulk Modulus (GPa) = 42.06252 53.82101 47.94176
# Shear Modulus (GPa) = 13.41739 -9.17570 2.12084
#
# Velocity S-wave (km/s) = 2.62871 -2.17384 1.04511
# Velocity P-wave (km/s) = 5.55663 4.62792 5.11341
#
# Compressibility (1/GPa) = 0.02377414
#
# Stress axis : x y z
#
# Youngs Moduli (GPa) = 37.12181 74.02468 76.73246
#
# Poissons Ratio (x) = 0.84956 -0.01260
# Poissons Ratio (y) = 0.42604 0.27166
# Poissons Ratio (z) = -0.00610 0.26207
#
# Static dielectric constant tensor:
#      x y z
#    x 1.684600 0.000000 0.000000 
#    y 0.000000 1.672460 0.000000 
#    z 0.000000 0.000000 1.748610 
# 
# From -- ./inp_files/772.got.cif
#   From: 2010.05.17/outbox.cif.g08.bks.cpg/sg54_1_cif.got.tgz:772.got - 2010.06.03 13:09:01.
