data_PCOD9422452
_publ_section_title
;
Structure prediction by ZEFSAII (Michael W. Deem and Ramdas Pophale) SiO2 
 PCOD9422452
Probable space group: P C C A
;
_chemical_formula_sum "Si O2"
_cell_formula_units_Z 64
_cell_length_a 9.109263
_cell_length_b 21.671012
_cell_length_c 14.884152
_cell_angle_alpha 90.000000
_cell_angle_beta 90.000000
_cell_angle_gamma 90.000000
_cell_volume 2938.235017
_symmetry_space_group_name_H-M "P C C A"
_symmetry_group_IT_number 54
_symmetry_cell_setting 'orthorhombic'
loop_
_space_group_symop_operation_xyz
x,y,z
1/2-x,-y,z
1/2+x,-y,1/2-z
-x,y,1/2-z
-x,-y,-z
1/2+x,y,-z
1/2-x,y,1/2+z
x,-y,1/2+z
loop_
_atom_site_type_symbol
_atom_site_label
_atom_site_fract_x
_atom_site_fract_y
_atom_site_fract_z
Si Si1 0.158359 0.059057 0.707197
Si Si2 0.661063 0.438677 0.793575
Si Si3 0.262219 0.074920 0.895685
Si Si4 0.857299 0.682852 0.071461
Si Si5 0.677229 0.701650 0.245306
Si Si6 0.865047 0.546062 0.006241
Si Si7 0.331334 0.258669 0.083638
Si Si8 0.460127 0.127781 0.035620
O O1 0.244865 0.089744 0.790259
O O2 0.125041 0.097640 0.619675
O O3 0.000000 0.041562 0.750000
O O4 0.250000 0.000000 0.679694
O O5 0.750000 0.500000 0.767493
O O6 0.500000 0.444553 0.750000
O O7 0.713825 0.370349 0.766687
O O8 0.663801 0.437368 0.902142
O O9 0.129498 0.111096 0.945369
O O10 0.250000 0.000000 0.903658
O O11 0.409633 0.096846 0.943118
O O12 0.749077 0.709223 0.147773
O O13 0.025462 0.698692 0.090985
O O14 0.859778 0.609213 0.060021
O O15 0.793210 0.712582 0.980339
O O16 0.500000 0.708663 0.250000
O O17 0.756635 0.744971 0.318459
O O18 0.750000 0.500000 0.048875
O O19 0.000000 0.500000 0.000000
O O20 0.404137 0.197568 0.041226
#
# Coordination Sequence:
#
# PCOD9422452 Si02
#       8
#     8   8   8   8   8   8   8   8
#     4   9  20  38  61  90 129 165 207 259 316 376
#     4  10  24  41  64  96 132 158 216 273 339 412
#     4  10  21  39  64  98 132 170 211 265 329 381
#     4  12  26  45  71  91 137 175 220 281 339 405
#     4  11  26  46  68  94 129 175 223 281 339 404
#     4  11  25  41  66  97 126 166 213 273 348 410
#     4  12  26  46  66 100 130 181 231 274 332 401
#     4  11  23  40  66  93 133 170 220 265 316 387
#
# _framework density 21.781783000000001
#
# number of rings (size 3 to 8) (size 9 to 14) (size 15 to 20)
#    0.000    1.250    1.250    3.375    8.750    6.000 
#    0.000    0.625    0.000    0.000    0.000    0.000 
#    0.000    0.000    0.000    0.000    0.000    0.000 
#
# Total GULP energy -357494.816611 kJ/mol
# GULP energy per Si atom -5585.856510 kJ/mol
# Density = 2.173221 g / cm^3
# Si number density = 21.781783 Si / 1000 Ang^3
#
#
#
# Elastic Constant Matrix: (Units=GPa)
#
#
# Indices 1 2 3 4 5 6 
#
# 1 67.9107 7.1779 12.8209 0.0000 0.0000 0.0000
# 2 7.1779 51.2406 -12.3874 0.0000 0.0000 0.0000
# 3 12.8209 -12.3874 67.4425 0.0000 0.0000 0.0000
# 4 0.0000 0.0000 0.0000 17.1768 0.0000 0.0000
# 5 0.0000 0.0000 0.0000 0.0000 19.7616 0.0000
# 6 0.0000 0.0000 0.0000 0.0000 0.0000 31.1070
#
#
#
# Elastic Compliance Matrix: (Units=1/GPa)
#
#
# Indices 1 2 3 4 5 6 
#
# 1 0.015719 -0.003060 -0.003550 0.000000 0.000000 0.000000
# 2 -0.003060 0.021018 0.004442 0.000000 0.000000 0.000000
# 3 -0.003550 0.004442 0.016318 0.000000 0.000000 0.000000
# 4 0.000000 0.000000 0.000000 0.058218 0.000000 0.000000
# 5 0.000000 0.000000 0.000000 0.000000 0.050603 0.000000
# 6 0.000000 0.000000 0.000000 0.000000 0.000000 0.032147
#
#
# Mechanical properties :
#
#
# Convention : Reuss Voigt Hill
#
# Bulk Modulus (GPa) = 20.52582 22.42408 21.47495
# Shear Modulus (GPa) = 23.29913 25.54123 24.42018
#
# Velocity S-wave (km/s) = 3.27412 3.42803 3.35196
# Velocity P-wave (km/s) = 4.87206 5.09762 4.98612
#
# Compressibility (1/GPa) = 0.04871912
#
# Stress axis : x y z
#
# Youngs Moduli (GPa) = 63.61751 47.57743 61.28096
#
# Poissons Ratio (x) = 0.14560 0.21756
# Poissons Ratio (y) = 0.19468 -0.27223
# Poissons Ratio (z) = 0.22586 -0.21135
#
# Static dielectric constant tensor:
#      x y z
#    x 1.737320 0.000000 0.000000 
#    y 0.000000 1.774640 0.000000 
#    z 0.000000 0.000000 1.798240 
# 
# From -- ./inp_files/11943.got.cif
#   From: 2010.05.17/outbox.cif.g08.bks.cpg/sg54_6_cif.got.tgz:11943.got - 2010.06.03 13:09:01.
