data_PCOD9422818
_publ_section_title
;
Structure prediction by ZEFSAII (Michael W. Deem and Ramdas Pophale) SiO2 
 PCOD9422818
Probable space group: P C C A
;
_chemical_formula_sum "Si O2"
_cell_formula_units_Z 24
_cell_length_a 9.584791
_cell_length_b 8.351471
_cell_length_c 14.178736
_cell_angle_alpha 90.000000
_cell_angle_beta 90.000000
_cell_angle_gamma 90.000000
_cell_volume 1134.966756
_symmetry_space_group_name_H-M "P C C A"
_symmetry_group_IT_number 54
_symmetry_cell_setting 'orthorhombic'
loop_
_space_group_symop_operation_xyz
x,y,z
1/2-x,-y,z
1/2+x,-y,1/2-z
-x,y,1/2-z
-x,-y,-z
1/2+x,y,-z
1/2-x,y,1/2+z
x,-y,1/2+z
loop_
_atom_site_type_symbol
_atom_site_label
_atom_site_fract_x
_atom_site_fract_y
_atom_site_fract_z
Si Si1 0.250000 0.000000 0.223826
Si Si2 0.671497 0.845391 0.461906
Si Si3 0.000000 0.225150 0.750000
Si Si4 0.063365 0.343931 0.547960
O O1 0.335582 0.888219 0.149335
O O2 0.134512 0.888205 0.272273
O O3 0.525518 0.803821 0.506202
O O4 0.776102 0.695533 0.472482
O O5 0.750000 0.000000 0.503899
O O6 0.961281 0.331802 0.840151
O O7 0.000000 0.500000 0.500000
#
# Coordination Sequence:
#
# PCOD9422818 Si02
#       4
#     4   8   4   8
#     4   8  20  34  62  92 116 150 210 254 282 362
#     4   9  20  38  61  88 113 162 205 247 295 359
#     4  10  22  38  60  94 120 156 206 248 304 356
#     4  11  22  39  61  90 128 162 197 251 309 363
#
# _framework density 21.145992
#
# number of rings (size 3 to 8) (size 9 to 14) (size 15 to 20)
#    1.000    1.333    0.000    2.000    2.333    0.000 
#    0.000   15.000    0.000    0.000    0.000    0.000 
#    0.000    0.000    0.000    0.000    0.000    0.000 
#
# Total GULP energy -133773.850150 kJ/mol
# GULP energy per Si atom -5573.910423 kJ/mol
# Density = 2.109786 g / cm^3
# Si number density = 21.145992 Si / 1000 Ang^3
#
#
#
# Elastic Constant Matrix: (Units=GPa)
#
#
# Indices 1 2 3 4 5 6 
#
# 1 69.8549 3.4202 25.6610 0.0000 0.0000 0.0000
# 2 3.4202 86.6898 14.3919 0.0000 0.0000 0.0000
# 3 25.6610 14.3919 47.8317 0.0000 0.0000 0.0000
# 4 0.0000 0.0000 0.0000 16.5942 0.0000 0.0000
# 5 0.0000 0.0000 0.0000 0.0000 20.9889 0.0000
# 6 0.0000 0.0000 0.0000 0.0000 0.0000 34.6342
#
#
#
# Elastic Compliance Matrix: (Units=1/GPa)
#
#
# Indices 1 2 3 4 5 6 
#
# 1 0.017901 0.000935 -0.009885 0.000000 0.000000 0.000000
# 2 0.000935 0.012191 -0.004169 0.000000 0.000000 0.000000
# 3 -0.009885 -0.004169 0.027464 0.000000 0.000000 0.000000
# 4 0.000000 0.000000 0.000000 0.060262 0.000000 0.000000
# 5 0.000000 0.000000 0.000000 0.000000 0.047644 0.000000
# 6 0.000000 0.000000 0.000000 0.000000 0.000000 0.028873
#
#
# Mechanical properties :
#
#
# Convention : Reuss Voigt Hill
#
# Bulk Modulus (GPa) = 31.93183 32.36917 32.15050
# Shear Modulus (GPa) = 21.64382 25.17035 23.40708
#
# Velocity S-wave (km/s) = 3.20276 3.45383 3.33066
# Velocity P-wave (km/s) = 5.36752 5.58981 5.47979
#
# Compressibility (1/GPa) = 0.03131672
#
# Stress axis : x y z
#
# Youngs Moduli (GPa) = 55.86357 82.02973 36.41103
#
# Poissons Ratio (x) = -0.07668 0.35991
# Poissons Ratio (y) = -0.05222 0.15182
# Poissons Ratio (z) = 0.55220 0.34202
#
# Static dielectric constant tensor:
#      x y z
#    x 1.717800 0.000000 0.000000 
#    y 0.000000 1.791390 0.000000 
#    z 0.000000 0.000000 1.752880 
# 
# From -- ./inp_files/11083.got.cif
#   From: 2010.05.17/outbox.cif.g08.bks.cpg/sg54_6_cif.got.tgz:11083.got - 2010.06.03 13:09:01.
