data_PCOD9422708
_publ_section_title
;
Structure prediction by ZEFSAII (Michael W. Deem and Ramdas Pophale) SiO2 
 PCOD9422708
Probable space group: P C C A
;
_chemical_formula_sum "Si O2"
_cell_formula_units_Z 48
_cell_length_a 19.125734
_cell_length_b 5.246714
_cell_length_c 18.205006
_cell_angle_alpha 90.000000
_cell_angle_beta 90.000000
_cell_angle_gamma 90.000000
_cell_volume 1826.822404
_symmetry_space_group_name_H-M "P C C A"
_symmetry_group_IT_number 54
_symmetry_cell_setting 'orthorhombic'
loop_
_space_group_symop_operation_xyz
x,y,z
1/2-x,-y,z
1/2+x,-y,1/2-z
-x,y,1/2-z
-x,-y,-z
1/2+x,y,-z
1/2-x,y,1/2+z
x,-y,1/2+z
loop_
_atom_site_type_symbol
_atom_site_label
_atom_site_fract_x
_atom_site_fract_y
_atom_site_fract_z
Si Si1 0.556415 0.940472 0.893519
Si Si2 0.000000 0.170809 0.250000
Si Si3 0.250000 0.500000 0.160016
Si Si4 0.567955 0.781009 0.536455
Si Si5 0.629106 0.794390 0.149272
Si Si6 0.833046 0.371719 0.967425
Si Si7 0.250000 0.500000 0.912498
Si Si8 0.750000 0.000000 0.744364
O O1 0.545662 0.017874 0.810447
O O2 0.498643 0.725149 0.912329
O O3 0.630596 0.853552 0.923753
O O4 0.539245 0.150698 0.955302
O O5 0.061178 0.286244 0.302687
O O6 0.188108 0.454814 0.101790
O O7 0.242419 0.749661 0.207127
O O8 0.604853 0.020101 0.580577
O O9 0.616644 0.541437 0.518718
O O10 0.683260 0.556381 0.138084
O O11 0.681080 0.975378 0.195008
O O12 0.770159 0.292924 0.023098
#
# Coordination Sequence:
#
# PCOD9422708 Si02
#       8
#     8   4   4   8   8   8   4   4
#     4  10  21  44  66 106 142 185 253 310 393 469
#     4  10  24  42  76 104 154 214 248 332 404 498
#     4  11  29  42  70 106 148 198 254 316 404 466
#     4  10  22  40  74  99 138 192 245 322 382 465
#     4  11  23  45  73 107 154 200 268 326 411 479
#     4  11  23  41  70 102 143 190 256 325 384 467
#     4  11  23  42  70 112 142 200 266 328 394 466
#     4  12  26  48  70 106 158 204 256 334 402 494
#
# _framework density 26.275133
#
# number of rings (size 3 to 8) (size 9 to 14) (size 15 to 20)
#    0.000    1.333    1.667    3.000    4.667    0.000 
#    0.000    0.833    0.000    0.000    0.000    0.000 
#    0.000    0.000    0.000    0.000    0.000    0.000 
#
# Total GULP energy -267253.102505 kJ/mol
# GULP energy per Si atom -5567.772969 kJ/mol
# Density = 2.621533 g / cm^3
# Si number density = 26.275133 Si / 1000 Ang^3
#
#
#
# Elastic Constant Matrix: (Units=GPa)
#
#
# Indices 1 2 3 4 5 6 
#
# 1 115.9519 40.7430 52.9536 0.0000 0.0000 0.0000
# 2 40.7430 99.8312 40.4161 0.0000 0.0000 0.0000
# 3 52.9536 40.4161 154.3519 0.0000 0.0000 0.0000
# 4 0.0000 0.0000 0.0000 30.6150 0.0000 0.0000
# 5 0.0000 0.0000 0.0000 0.0000 -377.0513 0.0000
# 6 0.0000 0.0000 0.0000 0.0000 0.0000 47.0961
#
#
#
# Elastic Compliance Matrix: (Units=1/GPa)
#
#
# Indices 1 2 3 4 5 6 
#
# 1 0.011149 -0.003358 -0.002946 0.000000 0.000000 0.000000
# 2 -0.003358 0.012216 -0.002047 0.000000 0.000000 0.000000
# 3 -0.002946 -0.002047 0.008025 0.000000 0.000000 0.000000
# 4 0.000000 0.000000 0.000000 0.032664 0.000000 0.000000
# 5 0.000000 0.000000 0.000000 0.000000 -0.002652 0.000000
# 6 0.000000 0.000000 0.000000 0.000000 0.000000 0.021233
#
#
# Mechanical properties :
#
#
# Convention : Reuss Voigt Hill
#
# Bulk Modulus (GPa) = 68.07342 70.92891 69.50116
# Shear Modulus (GPa) = 47.96975 -44.13320 1.91828
#
# Velocity S-wave (km/s) = 4.27742 -4.10281 0.85537
# Velocity P-wave (km/s) = 7.09643 2.14692 5.24254
#
# Compressibility (1/GPa) = 0.01469002
#
# Stress axis : x y z
#
# Youngs Moduli (GPa) = 89.69084 81.86087 124.60661
#
# Poissons Ratio (x) = 0.27486 0.36707
# Poissons Ratio (y) = 0.30115 0.25504
# Poissons Ratio (z) = 0.26422 0.16755
#
# Static dielectric constant tensor:
#      x y z
#    x 2.425650 0.000000 0.000000 
#    y 0.000000 2.197850 0.000000 
#    z 0.000000 0.000000 2.081400 
# 
# From -- ./inp_files/19105.got.cif
#   From: 2010.05.17/outbox.cif.g08.bks.cpg/sg54_10_cif.got.tgz:19105.got - 2010.06.03 13:09:01.
