data_PCOD9422526
_publ_section_title
;
Structure prediction by ZEFSAII (Michael W. Deem and Ramdas Pophale) SiO2 
 PCOD9422526
Probable space group: P C C A
;
_chemical_formula_sum "Si O2"
_cell_formula_units_Z 60
_cell_length_a 25.172176
_cell_length_b 6.777405
_cell_length_c 17.473293
_cell_angle_alpha 90.000000
_cell_angle_beta 90.000000
_cell_angle_gamma 90.000000
_cell_volume 2980.979283
_symmetry_space_group_name_H-M "P C C A"
_symmetry_group_IT_number 54
_symmetry_cell_setting 'orthorhombic'
loop_
_space_group_symop_operation_xyz
x,y,z
1/2-x,-y,z
1/2+x,-y,1/2-z
-x,y,1/2-z
-x,-y,-z
1/2+x,y,-z
1/2-x,y,1/2+z
x,-y,1/2+z
loop_
_atom_site_type_symbol
_atom_site_label
_atom_site_fract_x
_atom_site_fract_y
_atom_site_fract_z
Si Si1 0.959877 0.124722 0.608434
Si Si2 0.250000 0.000000 0.628474
Si Si3 0.130179 0.819292 0.864816
Si Si4 0.616685 0.497631 0.850534
Si Si5 0.851432 0.152072 0.958014
Si Si6 0.446608 0.849464 0.068647
Si Si7 0.448959 0.501945 0.790180
Si Si8 0.286695 0.318246 0.743785
O O1 0.961231 0.193735 0.519638
O O2 0.968693 0.318169 0.658201
O O3 0.904417 0.021338 0.633670
O O4 0.004428 0.954073 0.611276
O O5 0.199856 0.039202 0.574117
O O6 0.253095 0.181971 0.687176
O O7 0.089062 0.648226 0.836577
O O8 0.181490 0.800648 0.809780
O O9 0.149035 0.798314 0.952237
O O10 0.637988 0.649514 0.911795
O O11 0.577768 0.338375 0.889337
O O12 0.585442 0.591668 0.779401
O O13 0.666622 0.395179 0.811054
O O14 0.900970 0.012150 0.939751
O O15 0.500000 0.402897 0.750000
O O16 0.250000 0.500000 0.772178
#
# Coordination Sequence:
#
# PCOD9422526 Si02
#       8
#     8   4   8   8   8   8   8   8
#     4  10  22  39  63  95 132 174 214 267 329 398
#     4  12  24  42  70  90 124 168 226 274 330 396
#     4  10  25  43  64  94 134 167 218 271 331 390
#     4  11  22  38  64  90 126 169 213 269 324 395
#     4  11  23  42  66  97 124 174 220 271 328 399
#     4  10  21  40  64  94 133 170 215 270 331 390
#     4  11  23  37  61  96 130 173 216 259 322 390
#     4  11  24  43  62  93 126 169 214 276 337 386
#
# _framework density 20.127614000000001
#
# number of rings (size 3 to 8) (size 9 to 14) (size 15 to 20)
#    0.000    1.333    2.667    2.400    1.867    3.200 
#    2.400    6.667    0.000    0.000    0.000    0.000 
#    0.000    0.000    0.000    0.000    0.000    0.000 
#
# Total GULP energy -335027.524221 kJ/mol
# GULP energy per Si atom -5583.792070 kJ/mol
# Density = 2.008180 g / cm^3
# Si number density = 20.127614 Si / 1000 Ang^3
#
#
#
# Elastic Constant Matrix: (Units=GPa)
#
#
# Indices 1 2 3 4 5 6 
#
# 1 56.0256 -8.4962 21.3157 0.0000 0.0000 0.0000
# 2 -8.4962 28.3729 27.9362 0.0000 0.0000 0.0000
# 3 21.3157 27.9362 98.8213 0.0000 0.0000 0.0000
# 4 0.0000 0.0000 0.0000 33.4420 0.0000 0.0000
# 5 0.0000 0.0000 0.0000 0.0000 30.4343 0.0000
# 6 0.0000 0.0000 0.0000 0.0000 0.0000 26.2052
#
#
#
# Elastic Compliance Matrix: (Units=1/GPa)
#
#
# Indices 1 2 3 4 5 6 
#
# 1 0.024314 0.017245 -0.010119 0.000000 0.000000 0.000000
# 2 0.017245 0.061069 -0.020984 0.000000 0.000000 0.000000
# 3 -0.010119 -0.020984 0.018234 0.000000 0.000000 0.000000
# 4 0.000000 0.000000 0.000000 0.029903 0.000000 0.000000
# 5 0.000000 0.000000 0.000000 0.000000 0.032858 0.000000
# 6 0.000000 0.000000 0.000000 0.000000 0.000000 0.038160
#
#
# Mechanical properties :
#
#
# Convention : Reuss Voigt Hill
#
# Bulk Modulus (GPa) = 13.17514 29.41456 21.29485
# Shear Modulus (GPa) = 19.41332 27.51391 23.46362
#
# Velocity S-wave (km/s) = 3.10903 3.70127 3.41800
# Velocity P-wave (km/s) = 4.41000 5.73687 5.11663
#
# Compressibility (1/GPa) = 0.07590055
#
# Stress axis : x y z
#
# Youngs Moduli (GPa) = 41.12821 16.37484 54.84271
#
# Poissons Ratio (x) = -0.28238 0.55498
# Poissons Ratio (y) = -0.70924 1.15080
# Poissons Ratio (z) = 0.41620 0.34360
#
# Static dielectric constant tensor:
#      x y z
#    x 1.726770 0.000000 0.000000 
#    y 0.000000 1.688530 0.000000 
#    z 0.000000 0.000000 1.722100 
# 
# From -- ./inp_files/19264.got.cif
#   From: 2010.05.17/outbox.cif.g08.bks.cpg/sg54_10_cif.got.tgz:19264.got - 2010.06.03 13:09:01.
