data_PCOD9422934
_publ_section_title
;
Structure prediction by ZEFSAII (Michael W. Deem and Ramdas Pophale) SiO2 
 PCOD9422934
Probable space group: P C C A
;
_chemical_formula_sum "Si O2"
_cell_formula_units_Z 40
_cell_length_a 13.577436
_cell_length_b 11.525556
_cell_length_c 11.609228
_cell_angle_alpha 90.000000
_cell_angle_beta 90.000000
_cell_angle_gamma 90.000000
_cell_volume 1816.699055
_symmetry_space_group_name_H-M "P C C A"
_symmetry_group_IT_number 54
_symmetry_cell_setting 'orthorhombic'
loop_
_space_group_symop_operation_xyz
x,y,z
1/2-x,-y,z
1/2+x,-y,1/2-z
-x,y,1/2-z
-x,-y,-z
1/2+x,y,-z
1/2-x,y,1/2+z
x,-y,1/2+z
loop_
_atom_site_type_symbol
_atom_site_label
_atom_site_fract_x
_atom_site_fract_y
_atom_site_fract_z
Si Si1 0.660521 0.301124 0.849600
Si Si2 0.931022 0.272840 0.598441
Si Si3 0.867355 0.525159 0.656679
Si Si4 0.260562 0.863161 0.339879
Si Si5 0.360822 0.285237 0.034341
O O1 0.616383 0.404903 0.774341
O O2 0.677877 0.191707 0.765582
O O3 0.771020 0.333063 0.890053
O O4 0.598927 0.274261 0.962967
O O5 0.919180 0.402939 0.644864
O O6 0.848174 0.193598 0.656749
O O7 0.045220 0.241002 0.603962
O O8 0.750000 0.500000 0.647849
O O9 0.892114 0.611408 0.551702
O O10 0.314736 0.816017 0.454786
O O11 0.250000 0.000000 0.335205
#
# Coordination Sequence:
#
# PCOD9422934 Si02
#       5
#     8   8   8   8   8
#     4  10  22  40  62  83 129 160 200 249 314 357
#     4  11  23  41  63  93 123 161 205 251 308 365
#     4  11  20  38  59  92 123 162 195 239 298 376
#     4  10  23  42  62  88 120 161 211 256 309 363
#     4  10  23  41  63  92 123 161 205 251 303 368
#
# _framework density 22.017955000000001
#
# number of rings (size 3 to 8) (size 9 to 14) (size 15 to 20)
#    0.000    1.600    6.000    0.600    2.800    8.000 
#    3.600    2.000    0.000    0.000    0.000    0.000 
#    0.000    0.000    0.000    0.000    0.000    0.000 
#
# Total GULP energy -223943.110750 kJ/mol
# GULP energy per Si atom -5598.577769 kJ/mol
# Density = 2.196784 g / cm^3
# Si number density = 22.017955 Si / 1000 Ang^3
#
#
#
# Elastic Constant Matrix: (Units=GPa)
#
#
# Indices 1 2 3 4 5 6 
#
# 1 113.9595 24.3173 21.5660 0.0000 0.0000 0.0000
# 2 24.3173 164.3100 57.3349 0.0000 0.0000 0.0000
# 3 21.5660 57.3349 85.9168 0.0000 0.0000 0.0000
# 4 0.0000 0.0000 0.0000 5.2866 0.0000 0.0000
# 5 0.0000 0.0000 0.0000 0.0000 27.5901 0.0000
# 6 0.0000 0.0000 0.0000 0.0000 0.0000 1.6699
#
#
#
# Elastic Compliance Matrix: (Units=1/GPa)
#
#
# Indices 1 2 3 4 5 6 
#
# 1 0.009279 -0.000731 -0.001842 0.000000 0.000000 0.000000
# 2 -0.000731 0.007991 -0.005149 0.000000 0.000000 0.000000
# 3 -0.001842 -0.005149 0.015538 0.000000 0.000000 0.000000
# 4 0.000000 0.000000 0.000000 0.189159 0.000000 0.000000
# 5 0.000000 0.000000 0.000000 0.000000 0.036245 0.000000
# 6 0.000000 0.000000 0.000000 0.000000 0.000000 0.598853
#
#
# Mechanical properties :
#
#
# Convention : Reuss Voigt Hill
#
# Bulk Modulus (GPa) = 57.58697 63.40254 60.49475
# Shear Modulus (GPa) = 5.69284 24.30717 15.00001
#
# Velocity S-wave (km/s) = 1.60971 3.32621 2.61293
# Velocity P-wave (km/s) = 5.44667 6.60378 6.05294
#
# Compressibility (1/GPa) = 0.01736504
#
# Stress axis : x y z
#
# Youngs Moduli (GPa) = 107.76465 125.14104 64.35971
#
# Poissons Ratio (x) = 0.09144 0.11853
# Poissons Ratio (y) = 0.07874 0.33140
# Poissons Ratio (z) = 0.19846 0.64438
#
# Static dielectric constant tensor:
#      x y z
#    x 1.819600 0.000000 0.000000 
#    y 0.000000 1.737450 0.000000 
#    z 0.000000 0.000000 1.857720 
# 
# From -- ./inp_files/8189.got.cif
#   From: 2010.05.17/outbox.cif.g08.bks.cpg/sg54_5_cif.got.tgz:8189.got - 2010.06.03 13:09:01.
