data_PCOD9422026
_publ_section_title
;
Structure prediction by ZEFSAII (Michael W. Deem and Ramdas Pophale) SiO2 
 PCOD9422026
Probable space group: P C C A
;
_chemical_formula_sum "Si O2"
_cell_formula_units_Z 28
_cell_length_a 8.756488
_cell_length_b 8.508791
_cell_length_c 17.573707
_cell_angle_alpha 90.000000
_cell_angle_beta 90.000000
_cell_angle_gamma 90.000000
_cell_volume 1309.366407
_symmetry_space_group_name_H-M "P C C A"
_symmetry_group_IT_number 54
_symmetry_cell_setting 'orthorhombic'
loop_
_space_group_symop_operation_xyz
x,y,z
1/2-x,-y,z
1/2+x,-y,1/2-z
-x,y,1/2-z
-x,-y,-z
1/2+x,y,-z
1/2-x,y,1/2+z
x,-y,1/2+z
loop_
_atom_site_type_symbol
_atom_site_label
_atom_site_fract_x
_atom_site_fract_y
_atom_site_fract_z
Si Si1 0.500000 0.268932 0.250000
Si Si2 0.544547 0.671970 0.411658
Si Si3 0.750000 0.500000 0.287234
Si Si4 0.069699 0.974722 0.672154
Si Si5 0.250000 0.500000 0.464877
O O1 0.648549 0.374744 0.243653
O O2 0.505801 0.152271 0.322783
O O3 0.632352 0.595366 0.340295
O O4 0.536316 0.857998 0.396362
O O5 0.377642 0.597718 0.420302
O O6 0.650392 0.618772 0.482304
O O7 0.000000 0.902229 0.750000
O O8 0.250000 0.000000 0.679697
#
# Coordination Sequence:
#
# PCOD9422026 Si02
#       5
#     4   8   4   8   4
#     4  10  24  38  62  96 132 172 206 260 348 390
#     4  10  20  42  65  90 134 166 221 273 313 389
#     4  11  22  37  64  92 131 166 215 270 320 403
#     4  10  21  40  62  94 136 165 201 270 335 400
#     4   9  22  39  68  94 123 182 229 260 314 371
#
# _framework density 21.38439
#
# number of rings (size 3 to 8) (size 9 to 14) (size 15 to 20)
#    0.857    1.143    2.857    0.000    2.000    3.429 
#    0.000    1.429    0.000    0.000    0.000    0.000 
#    0.000    0.000    0.000    0.000    0.000    0.000 
#
# Total GULP energy -156258.773290 kJ/mol
# GULP energy per Si atom -5580.670475 kJ/mol
# Density = 2.133572 g / cm^3
# Si number density = 21.384390 Si / 1000 Ang^3
#
#
#
# Elastic Constant Matrix: (Units=GPa)
#
#
# Indices 1 2 3 4 5 6 
#
# 1 190.4460 93.2046 58.0946 0.0000 0.0000 0.0000
# 2 93.2046 164.5011 49.2546 0.0000 0.0000 0.0000
# 3 58.0946 49.2546 36.5866 0.0000 0.0000 0.0000
# 4 0.0000 0.0000 0.0000 -211.2333 0.0000 0.0000
# 5 0.0000 0.0000 0.0000 0.0000 13.3870 0.0000
# 6 0.0000 0.0000 0.0000 0.0000 0.0000 36.3051
#
#
#
# Elastic Compliance Matrix: (Units=1/GPa)
#
#
# Indices 1 2 3 4 5 6 
#
# 1 0.010426 -0.001592 -0.014412 0.000000 0.000000 0.000000
# 2 -0.001592 0.010427 -0.011509 0.000000 0.000000 0.000000
# 3 -0.014412 -0.011509 0.065711 0.000000 0.000000 0.000000
# 4 0.000000 0.000000 0.000000 -0.004734 0.000000 0.000000
# 5 0.000000 0.000000 0.000000 0.000000 0.074699 0.000000
# 6 0.000000 0.000000 0.000000 0.000000 0.000000 0.027544
#
#
# Mechanical properties :
#
#
# Convention : Reuss Voigt Hill
#
# Bulk Modulus (GPa) = 31.70831 88.07126 59.88979
# Shear Modulus (GPa) = 20.03086 -19.57624 0.22731
#
# Velocity S-wave (km/s) = 3.06388 -3.02892 0.32639
# Velocity P-wave (km/s) = 5.23225 5.38905 5.31123
#
# Compressibility (1/GPa) = 0.03153747
#
# Stress axis : x y z
#
# Youngs Moduli (GPa) = 95.90991 95.90268 15.21805
#
# Poissons Ratio (x) = 0.15270 0.21933
# Poissons Ratio (y) = 0.15271 0.17515
# Poissons Ratio (z) = 1.38228 1.10378
#
# Static dielectric constant tensor:
#      x y z
#    x 1.740250 0.000000 0.000000 
#    y 0.000000 1.820290 0.000000 
#    z 0.000000 0.000000 1.800190 
# 
# From -- ./inp_files/16189.got.cif
#   From: 2010.05.17/outbox.cif.g08.bks.cpg/sg54_9_cif.got.tgz:16189.got - 2010.06.03 13:09:01.
