data_PCOD9422875
_publ_section_title
;
Structure prediction by ZEFSAII (Michael W. Deem and Ramdas Pophale) SiO2 
 PCOD9422875
Probable space group: P C C A
;
_chemical_formula_sum "Si O2"
_cell_formula_units_Z 48
_cell_length_a 9.092334
_cell_length_b 11.485977
_cell_length_c 25.191550
_cell_angle_alpha 90.000000
_cell_angle_beta 90.000000
_cell_angle_gamma 90.000000
_cell_volume 2630.862878
_symmetry_space_group_name_H-M "P C C A"
_symmetry_group_IT_number 54
_symmetry_cell_setting 'orthorhombic'
loop_
_space_group_symop_operation_xyz
x,y,z
1/2-x,-y,z
1/2+x,-y,1/2-z
-x,y,1/2-z
-x,-y,-z
1/2+x,y,-z
1/2-x,y,1/2+z
x,-y,1/2+z
loop_
_atom_site_type_symbol
_atom_site_label
_atom_site_fract_x
_atom_site_fract_y
_atom_site_fract_z
Si Si1 0.378450 0.909401 0.517214
Si Si2 0.924928 0.516745 0.556244
Si Si3 0.555625 0.883881 0.310346
Si Si4 0.522405 0.727902 0.601796
Si Si5 0.596253 0.850396 0.802836
Si Si6 0.367134 0.229962 0.906298
O O1 0.441599 0.814523 0.559243
O O2 0.351394 0.840737 0.461903
O O3 0.250000 0.000000 0.536169
O O4 0.500000 0.000000 0.500000
O O5 0.750000 0.500000 0.550605
O O6 0.987058 0.407757 0.588467
O O7 0.941371 0.645622 0.579797
O O8 0.000000 0.500000 0.500000
O O9 0.500000 0.865131 0.250000
O O10 0.727330 0.852524 0.303725
O O11 0.462341 0.824281 0.357847
O O12 0.548121 0.021543 0.322879
O O13 0.447869 0.751869 0.656979
O O14 0.695774 0.755588 0.608454
O O15 0.500000 0.834315 0.750000
#
# Coordination Sequence:
#
# PCOD9422875 Si02
#       6
#     8   8   8   8   8   8
#     4  12  24  35  56  91 124 159 196 248 308 364
#     4  10  22  40  60  85 118 164 206 250 299 361
#     4  10  22  39  63  90 122 157 199 249 308 371
#     4  11  23  39  61  86 124 160 204 253 302 364
#     4  10  22  39  62  91 121 157 200 250 308 365
#     4  11  23  40  60  86 123 163 204 250 305 363
#
# _framework density 18.244965000000001
#
# number of rings (size 3 to 8) (size 9 to 14) (size 15 to 20)
#    0.000    1.333    3.333    2.000    4.667    2.667 
#    0.000    0.833    0.000    0.000    0.000    0.000 
#    0.000    0.000    0.000    0.000    0.000    0.000 
#
# Total GULP energy -267363.391883 kJ/mol
# GULP energy per Si atom -5570.070664 kJ/mol
# Density = 1.820344 g / cm^3
# Si number density = 18.244965 Si / 1000 Ang^3
#
#
#
# Elastic Constant Matrix: (Units=GPa)
#
#
# Indices 1 2 3 4 5 6 
#
# 1 53.5101 47.5961 34.1631 0.0000 0.0000 0.0000
# 2 47.5961 121.9120 52.9007 0.0000 0.0000 0.0000
# 3 34.1631 52.9007 74.5338 0.0000 0.0000 0.0000
# 4 0.0000 0.0000 0.0000 24.6236 0.0000 0.0000
# 5 0.0000 0.0000 0.0000 0.0000 35.4219 0.0000
# 6 0.0000 0.0000 0.0000 0.0000 0.0000 29.6819
#
#
#
# Elastic Compliance Matrix: (Units=1/GPa)
#
#
# Indices 1 2 3 4 5 6 
#
# 1 0.031858 -0.008817 -0.008345 0.000000 0.000000 0.000000
# 2 -0.008817 0.014293 -0.006103 0.000000 0.000000 0.000000
# 3 -0.008345 -0.006103 0.021573 0.000000 0.000000 0.000000
# 4 0.000000 0.000000 0.000000 0.040611 0.000000 0.000000
# 5 0.000000 0.000000 0.000000 0.000000 0.028231 0.000000
# 6 0.000000 0.000000 0.000000 0.000000 0.000000 0.033691
#
#
# Mechanical properties :
#
#
# Convention : Reuss Voigt Hill
#
# Bulk Modulus (GPa) = 47.18086 57.69730 52.43908
# Shear Modulus (GPa) = 22.33611 25.63188 23.98399
#
# Velocity S-wave (km/s) = 3.50270 3.75223 3.62961
# Velocity P-wave (km/s) = 6.50187 7.10385 6.80952
#
# Compressibility (1/GPa) = 0.02119503
#
# Stress axis : x y z
#
# Youngs Moduli (GPa) = 31.38924 69.96271 46.35323
#
# Poissons Ratio (x) = 0.61686 0.38680
# Poissons Ratio (y) = 0.27676 0.28291
# Poissons Ratio (z) = 0.26193 0.42701
#
# Static dielectric constant tensor:
#      x y z
#    x 1.601150 0.000000 0.000000 
#    y 0.000000 1.551740 0.000000 
#    z 0.000000 0.000000 1.596210 
# 
# From -- ./inp_files/23474.got.cif
#   From: 2010.05.17/outbox.cif.g08.bks.cpg/sg54_12_cif.got.tgz:23474.got - 2010.06.03 13:09:01.
