data_PCOD9422157
_publ_section_title
;
Structure prediction by ZEFSAII (Michael W. Deem and Ramdas Pophale) SiO2 
 PCOD9422157
Probable space group: P C C A
;
_chemical_formula_sum "Si O2"
_cell_formula_units_Z 56
_cell_length_a 5.366230
_cell_length_b 29.274019
_cell_length_c 16.781536
_cell_angle_alpha 90.000000
_cell_angle_beta 90.000000
_cell_angle_gamma 90.000000
_cell_volume 2636.230268
_symmetry_space_group_name_H-M "P C C A"
_symmetry_group_IT_number 54
_symmetry_cell_setting 'orthorhombic'
loop_
_space_group_symop_operation_xyz
x,y,z
1/2-x,-y,z
1/2+x,-y,1/2-z
-x,y,1/2-z
-x,-y,-z
1/2+x,y,-z
1/2-x,y,1/2+z
x,-y,1/2+z
loop_
_atom_site_type_symbol
_atom_site_label
_atom_site_fract_x
_atom_site_fract_y
_atom_site_fract_z
Si Si1 0.287103 0.797051 0.946665
Si Si2 0.250330 0.555337 0.703155
Si Si3 0.250861 0.053866 0.285752
Si Si4 0.822002 0.430871 0.976284
Si Si5 0.342834 0.670666 0.457654
Si Si6 0.244238 0.096990 0.950281
Si Si7 0.749144 0.724117 0.195871
O O1 0.271682 0.850339 0.921847
O O2 0.274927 0.765462 0.868323
O O3 0.545064 0.789956 0.995977
O O4 0.250000 0.500000 0.693271
O O5 0.500000 0.567924 0.750000
O O6 0.263205 0.576457 0.615864
O O7 0.000000 0.567937 0.750000
O O8 0.500000 0.074907 0.250000
O O9 0.258714 0.061928 0.378617
O O10 0.000000 0.074482 0.250000
O O11 0.250000 0.000000 0.266420
O O12 0.587699 0.454522 0.016528
O O13 0.849510 0.383185 0.023603
O O14 0.608490 0.688750 0.489978
O O15 0.291811 0.681900 0.365728
O O16 0.501845 0.090525 0.996119
O O17 0.500000 0.728863 0.250000
O O18 0.000000 0.720326 0.250000
#
# Coordination Sequence:
#
# PCOD9422157 Si02
#       7
#     8   8   8   8   8   8   8
#     4  10  21  39  60  82 114 150 182 227 287 345
#     4  10  21  38  60  88 120 150 186 237 286 326
#     4  10  21  36  54  78 112 152 188 229 283 336
#     4  10  21  38  59  85 114 152 193 226 273 335
#     4  10  21  41  60  80 114 153 188 226 277 333
#     4  10  21  36  57  84 110 144 189 233 280 333
#     4  12  24  38  60  89 114 143 188 236 282 332
#
# _framework density 21.242453000000001
#
# number of rings (size 3 to 8) (size 9 to 14) (size 15 to 20)
#    0.000    1.714    0.000    4.286    0.000    2.286 
#    0.000   17.143    0.000    0.000    0.000    0.000 
#    0.000    0.000    0.000    0.000    0.000    0.000 
#
# Total GULP energy -312761.550326 kJ/mol
# GULP energy per Si atom -5585.027684 kJ/mol
# Density = 2.119410 g / cm^3
# Si number density = 21.242453 Si / 1000 Ang^3
#
#
#
# Elastic Constant Matrix: (Units=GPa)
#
#
# Indices 1 2 3 4 5 6 
#
# 1 255.5963 -184.6641 -12.8375 0.0000 0.0000 0.0000
# 2 -184.6641 1328.4601 630.2227 0.0000 0.0000 0.0000
# 3 -12.8375 630.2227 432.6334 0.0000 0.0000 0.0000
# 4 0.0000 0.0000 0.0000 -55.6495 0.0000 0.0000
# 5 0.0000 0.0000 0.0000 0.0000 44.1499 0.0000
# 6 0.0000 0.0000 0.0000 0.0000 0.0000 18.4088
#
#
#
# Elastic Compliance Matrix: (Units=1/GPa)
#
#
# Indices 1 2 3 4 5 6 
#
# 1 0.005316 0.002150 -0.002974 0.000000 0.000000 0.000000
# 2 0.002150 0.003306 -0.004752 0.000000 0.000000 0.000000
# 3 -0.002974 -0.004752 0.009146 0.000000 0.000000 0.000000
# 4 0.000000 0.000000 0.000000 -0.017970 0.000000 0.000000
# 5 0.000000 0.000000 0.000000 0.000000 0.022650 0.000000
# 6 0.000000 0.000000 0.000000 0.000000 0.000000 0.054322
#
#
# Mechanical properties :
#
#
# Convention : Reuss Voigt Hill
#
# Bulk Modulus (GPa) = 151.16071 320.23687 235.69879
# Shear Modulus (GPa) = 55.47683 106.97974 81.22829
#
# Velocity S-wave (km/s) = 5.11593 7.10427 6.19045
# Velocity P-wave (km/s) = 10.30588 14.77751 12.73942
#
# Compressibility (1/GPa) = 0.00661548
#
# Stress axis : x y z
#
# Youngs Moduli (GPa) = 188.10158 302.48222 109.34238
#
# Poissons Ratio (x) = -0.65029 0.32518
# Poissons Ratio (y) = -0.40439 0.51960
# Poissons Ratio (z) = 0.55941 1.43742
#
# Static dielectric constant tensor:
#      x y z
#    x 1.797550 0.000000 0.000000 
#    y 0.000000 1.522430 0.000000 
#    z 0.000000 0.000000 1.711110 
# 
# From -- ./inp_files/11013.got.cif
#   From: 2010.05.17/outbox.cif.g08.bks.cpg/sg54_6_cif.got.tgz:11013.got - 2010.06.03 13:09:01.
