data_PCOD9422414
_publ_section_title
;
Structure prediction by ZEFSAII (Michael W. Deem and Ramdas Pophale) SiO2 
 PCOD9422414
Probable space group: P C C A
;
_chemical_formula_sum "Si O2"
_cell_formula_units_Z 36
_cell_length_a 21.515000
_cell_length_b 5.933117
_cell_length_c 12.285663
_cell_angle_alpha 90.000000
_cell_angle_beta 90.000000
_cell_angle_gamma 90.000000
_cell_volume 1568.277318
_symmetry_space_group_name_H-M "P C C A"
_symmetry_group_IT_number 54
_symmetry_cell_setting 'orthorhombic'
loop_
_space_group_symop_operation_xyz
x,y,z
1/2-x,-y,z
1/2+x,-y,1/2-z
-x,y,1/2-z
-x,-y,-z
1/2+x,y,-z
1/2-x,y,1/2+z
x,-y,1/2+z
loop_
_atom_site_type_symbol
_atom_site_label
_atom_site_fract_x
_atom_site_fract_y
_atom_site_fract_z
Si Si1 0.599141 0.210147 0.412582
Si Si2 0.314513 0.428669 0.706982
Si Si3 0.897422 0.509736 0.618488
Si Si4 0.000000 0.238152 0.750000
Si Si5 0.809541 0.148360 0.508991
O O1 0.646908 0.359570 0.340960
O O2 0.578074 0.375430 0.509248
O O3 0.544490 0.116315 0.336420
O O4 0.636532 0.019809 0.473508
O O5 0.250000 0.500000 0.759976
O O6 0.361444 0.326068 0.796356
O O7 0.294555 0.277349 0.604215
O O8 0.843332 0.330150 0.585968
O O9 0.953796 0.391381 0.679347
O O10 0.750000 0.000000 0.546406
#
# Coordination Sequence:
#
# PCOD9422414 Si02
#       5
#     8   8   8   4   8
#     4  10  22  42  65  93 126 169 213 266 316 375
#     4  10  21  39  61  93 132 165 203 256 321 387
#     4  10  24  40  67  93 128 172 213 267 318 382
#     4  10  22  46  62  92 130 174 224 256 322 380
#     4  11  23  41  64  98 131 164 211 267 324 383
#
# _framework density 22.955124999999999
#
# number of rings (size 3 to 8) (size 9 to 14) (size 15 to 20)
#    0.000    1.778    2.222    0.667    3.111    4.444 
#    0.000   11.111    0.000    0.000    0.000    0.000 
#    0.000    0.000    0.000    0.000    0.000    0.000 
#
# Total GULP energy -201010.362795 kJ/mol
# GULP energy per Si atom -5583.621189 kJ/mol
# Density = 2.290288 g / cm^3
# Si number density = 22.955125 Si / 1000 Ang^3
#
#
#
# Elastic Constant Matrix: (Units=GPa)
#
#
# Indices 1 2 3 4 5 6 
#
# 1 97.8415 8.8616 40.7641 0.0000 0.0000 0.0000
# 2 8.8616 37.5212 7.1912 0.0000 0.0000 0.0000
# 3 40.7641 7.1912 90.3354 0.0000 0.0000 0.0000
# 4 0.0000 0.0000 0.0000 -4.1706 0.0000 0.0000
# 5 0.0000 0.0000 0.0000 0.0000 45.2438 0.0000
# 6 0.0000 0.0000 0.0000 0.0000 0.0000 15.2351
#
#
#
# Elastic Compliance Matrix: (Units=1/GPa)
#
#
# Indices 1 2 3 4 5 6 
#
# 1 0.012724 -0.001934 -0.005588 0.000000 0.000000 0.000000
# 2 -0.001934 0.027359 -0.001305 0.000000 0.000000 0.000000
# 3 -0.005588 -0.001305 0.013695 0.000000 0.000000 0.000000
# 4 0.000000 0.000000 0.000000 -0.239776 0.000000 0.000000
# 5 0.000000 0.000000 0.000000 0.000000 0.022102 0.000000
# 6 0.000000 0.000000 0.000000 0.000000 0.000000 0.065638
#
#
# Mechanical properties :
#
#
# Convention : Reuss Voigt Hill
#
# Bulk Modulus (GPa) = 27.68267 37.70355 32.69311
# Shear Modulus (GPa) = -72.92587 22.52042 -25.20273
#
# Velocity S-wave (km/s) = -5.64250 3.13559 -3.31707
# Velocity P-wave (km/s) = 5.51043 5.43781 0.63049
#
# Compressibility (1/GPa) = 0.03612368
#
# Stress axis : x y z
#
# Youngs Moduli (GPa) = 78.59282 36.55169 73.01825
#
# Poissons Ratio (x) = 0.07070 0.40800
# Poissons Ratio (y) = 0.15201 0.09530
# Poissons Ratio (z) = 0.43915 0.04770
#
# Static dielectric constant tensor:
#      x y z
#    x 1.853140 0.000000 0.000000 
#    y 0.000000 1.943910 0.000000 
#    z 0.000000 0.000000 1.945290 
# 
# From -- ./inp_files/9714.got.cif
#   From: 2010.05.17/outbox.cif.g08.bks.cpg/sg54_5_cif.got.tgz:9714.got - 2010.06.03 13:09:01.
