data_PCOD9422823
_publ_section_title
;
Structure prediction by ZEFSAII (Michael W. Deem and Ramdas Pophale) SiO2 
 PCOD9422823
Probable space group: P C C A
;
_chemical_formula_sum "Si O2"
_cell_formula_units_Z 36
_cell_length_a 9.977758
_cell_length_b 13.539599
_cell_length_c 12.679465
_cell_angle_alpha 90.000000
_cell_angle_beta 90.000000
_cell_angle_gamma 90.000000
_cell_volume 1712.930324
_symmetry_space_group_name_H-M "P C C A"
_symmetry_group_IT_number 54
_symmetry_cell_setting 'orthorhombic'
loop_
_space_group_symop_operation_xyz
x,y,z
1/2-x,-y,z
1/2+x,-y,1/2-z
-x,y,1/2-z
-x,-y,-z
1/2+x,y,-z
1/2-x,y,1/2+z
x,-y,1/2+z
loop_
_atom_site_type_symbol
_atom_site_label
_atom_site_fract_x
_atom_site_fract_y
_atom_site_fract_z
Si Si1 0.109407 0.334173 0.888906
Si Si2 0.383234 0.064801 0.049045
Si Si3 0.500000 0.627853 0.250000
Si Si4 0.750000 0.500000 0.248447
Si Si5 0.118796 0.284284 0.463232
Si Si6 0.500000 0.837223 0.750000
O O1 0.158740 0.426121 0.821478
O O2 0.228004 0.316543 0.970887
O O3 0.095471 0.237430 0.815127
O O4 0.970001 0.340570 0.949873
O O5 0.418411 0.096671 0.168212
O O6 0.250000 0.000000 0.043070
O O7 0.382019 0.168130 0.986343
O O8 0.500000 0.000000 0.000000
O O9 0.628673 0.565987 0.295970
O O10 0.438180 0.689080 0.347650
#
# Coordination Sequence:
#
# PCOD9422823 Si02
#       6
#     8   8   4   4   8   4
#     4  10  22  40  62  88 126 162 206 251 307 363
#     4  11  24  42  65  91 121 160 209 253 305 374
#     4  10  23  39  62  90 128 162 208 253 309 368
#     4  10  22  38  62  94 120 168 212 250 300 372
#     4  10  23  41  60  90 124 163 199 257 313 357
#     4  10  23  41  64  92 128 164 198 261 315 356
#
# _framework density 21.016615999999999
#
# number of rings (size 3 to 8) (size 9 to 14) (size 15 to 20)
#    0.000    1.778    0.000    3.333    0.000   20.444 
#    0.000    0.000    0.000    0.000    0.000    0.000 
#    0.000    0.000    0.000    0.000    0.000    0.000 
#
# Total GULP energy -201002.729104 kJ/mol
# GULP energy per Si atom -5583.409142 kJ/mol
# Density = 2.096878 g / cm^3
# Si number density = 21.016616 Si / 1000 Ang^3
#
#
#
# Elastic Constant Matrix: (Units=GPa)
#
#
# Indices 1 2 3 4 5 6 
#
# 1 162.6866 50.3210 42.1615 0.0000 0.0000 0.0000
# 2 50.3210 81.6077 26.9677 0.0000 0.0000 0.0000
# 3 42.1615 26.9677 69.0128 0.0000 0.0000 0.0000
# 4 0.0000 0.0000 0.0000 105.2707 0.0000 0.0000
# 5 0.0000 0.0000 0.0000 0.0000 -472.5107 0.0000
# 6 0.0000 0.0000 0.0000 0.0000 0.0000 41.3555
#
#
#
# Elastic Compliance Matrix: (Units=1/GPa)
#
#
# Indices 1 2 3 4 5 6 
#
# 1 0.008277 -0.003942 -0.003516 0.000000 0.000000 0.000000
# 2 -0.003942 0.015948 -0.003824 0.000000 0.000000 0.000000
# 3 -0.003516 -0.003824 0.018133 0.000000 0.000000 0.000000
# 4 0.000000 0.000000 0.000000 0.009499 0.000000 0.000000
# 5 0.000000 0.000000 0.000000 0.000000 -0.002116 0.000000
# 6 0.000000 0.000000 0.000000 0.000000 0.000000 0.024181
#
#
# Mechanical properties :
#
#
# Convention : Reuss Voigt Hill
#
# Bulk Modulus (GPa) = 50.52117 61.35640 55.93878
# Shear Modulus (GPa) = 48.50434 -52.25310 -1.87438
#
# Velocity S-wave (km/s) = 4.80928 -4.99167 -0.94541
# Velocity P-wave (km/s) = 7.41146 1.99116 5.04802
#
# Compressibility (1/GPa) = 0.01979368
#
# Stress axis : x y z
#
# Youngs Moduli (GPa) = 120.81070 62.70383 55.14958
#
# Poissons Ratio (x) = 0.24718 0.19393
# Poissons Ratio (y) = 0.47623 0.21087
# Poissons Ratio (z) = 0.42483 0.23976
#
# Static dielectric constant tensor:
#      x y z
#    x 1.741650 0.000000 0.000000 
#    y 0.000000 1.748520 0.000000 
#    z 0.000000 0.000000 1.842360 
# 
# From -- ./inp_files/7431.got.cif
#   From: 2010.05.17/outbox.cif.g08.bks.cpg/sg54_4_cif.got.tgz:7431.got - 2010.06.03 13:09:01.
