data_PCOD9422029
_publ_section_title
;
Structure prediction by ZEFSAII (Michael W. Deem and Ramdas Pophale) SiO2 
 PCOD9422029
Probable space group: P C C A
;
_chemical_formula_sum "Si O2"
_cell_formula_units_Z 56
_cell_length_a 31.310897
_cell_length_b 5.677537
_cell_length_c 13.868385
_cell_angle_alpha 90.000000
_cell_angle_beta 90.000000
_cell_angle_gamma 90.000000
_cell_volume 2465.365830
_symmetry_space_group_name_H-M "P C C A"
_symmetry_group_IT_number 54
_symmetry_cell_setting 'orthorhombic'
loop_
_space_group_symop_operation_xyz
x,y,z
1/2-x,-y,z
1/2+x,-y,1/2-z
-x,y,1/2-z
-x,-y,-z
1/2+x,y,-z
1/2-x,y,1/2+z
x,-y,1/2+z
loop_
_atom_site_type_symbol
_atom_site_label
_atom_site_fract_x
_atom_site_fract_y
_atom_site_fract_z
Si Si1 0.844654 0.015988 0.793404
Si Si2 0.458620 0.839448 0.986873
Si Si3 0.892706 0.097487 0.126027
Si Si4 0.340038 0.344922 0.015682
Si Si5 0.094803 0.397308 0.131889
Si Si6 0.454594 0.503161 0.799543
Si Si7 0.750000 0.500000 0.429441
Si Si8 0.250000 0.000000 0.186816
O O1 0.841353 0.170422 0.890891
O O2 0.873356 0.086159 0.701803
O O3 0.869191 0.773732 0.822024
O O4 0.795463 0.000779 0.760266
O O5 0.461211 0.668061 0.893335
O O6 0.416208 0.987946 0.965011
O O7 0.447471 0.720161 0.087868
O O8 0.500000 0.000000 0.000000
O O9 0.929736 0.265591 0.168774
O O10 0.851506 0.230984 0.085458
O O11 0.380826 0.503489 0.039631
O O12 0.294790 0.475067 0.014853
O O13 0.076300 0.578730 0.210203
O O14 0.500000 0.466235 0.750000
O O15 0.747468 0.750041 0.371832
#
# Coordination Sequence:
#
# PCOD9422029 Si02
#       8
#     8   8   8   8   8   8   4   4
#     4  10  22  41  67  97 140 183 233 286 355 427
#     4  12  26  42  68 101 133 176 235 291 355 424
#     4  11  24  43  67 102 135 184 234 286 356 432
#     4  11  21  42  71  99 140 181 233 292 356 424
#     4  11  22  42  67  94 133 183 223 290 354 427
#     4  11  26  42  65  96 135 177 234 292 357 428
#     4  10  22  38  74 108 140 188 238 292 360 432
#     4  10  20  42  66 108 142 192 238 294 362 426
#
# _framework density 22.714683000000001
#
# number of rings (size 3 to 8) (size 9 to 14) (size 15 to 20)
#    0.000    1.143    4.286    1.714    2.000    4.000 
#    0.000    5.000    0.000    0.000    0.000    0.000 
#    0.000    0.000    0.000    0.000    0.000    0.000 
#
# Total GULP energy -312019.444810 kJ/mol
# GULP energy per Si atom -5571.775800 kJ/mol
# Density = 2.266298 g / cm^3
# Si number density = 22.714683 Si / 1000 Ang^3
#
#
#
# Elastic Constant Matrix: (Units=GPa)
#
#
# Indices 1 2 3 4 5 6 
#
# 1 186.5574 59.8148 66.7270 0.0000 0.0000 0.0000
# 2 59.8148 57.8166 15.2463 0.0000 0.0000 0.0000
# 3 66.7270 15.2463 62.8962 0.0000 0.0000 0.0000
# 4 0.0000 0.0000 0.0000 28.9464 0.0000 0.0000
# 5 0.0000 0.0000 0.0000 0.0000 29.7452 0.0000
# 6 0.0000 0.0000 0.0000 0.0000 0.0000 31.9484
#
#
#
# Elastic Compliance Matrix: (Units=1/GPa)
#
#
# Indices 1 2 3 4 5 6 
#
# 1 0.012410 -0.010007 -0.010741 0.000000 0.000000 0.000000
# 2 -0.010007 0.026546 0.004182 0.000000 0.000000 0.000000
# 3 -0.010741 0.004182 0.026280 0.000000 0.000000 0.000000
# 4 0.000000 0.000000 0.000000 0.034547 0.000000 0.000000
# 5 0.000000 0.000000 0.000000 0.000000 0.033619 0.000000
# 6 0.000000 0.000000 0.000000 0.000000 0.000000 0.031300
#
#
# Mechanical properties :
#
#
# Convention : Reuss Voigt Hill
#
# Bulk Modulus (GPa) = 31.14776 65.64960 48.39868
# Shear Modulus (GPa) = 23.97662 29.16015 26.56839
#
# Velocity S-wave (km/s) = 3.25246 3.58684 3.42374
# Velocity P-wave (km/s) = 5.27703 6.79106 6.08135
#
# Compressibility (1/GPa) = 0.03210504
#
# Stress axis : x y z
#
# Youngs Moduli (GPa) = 80.57757 37.67007 38.05131
#
# Poissons Ratio (x) = 0.37697 0.40869
# Poissons Ratio (y) = 0.80634 -0.15912
# Poissons Ratio (z) = 0.86545 -0.15752
#
# Static dielectric constant tensor:
#      x y z
#    x 1.810310 0.000000 0.000000 
#    y 0.000000 2.011880 0.000000 
#    z 0.000000 0.000000 1.976090 
# 
# From -- ./inp_files/15370.got.cif
#   From: 2010.05.17/outbox.cif.g08.bks.cpg/sg54_8_cif.got.tgz:15370.got - 2010.06.03 13:09:01.
