data_PCOD9422956
_publ_section_title
;
Structure prediction by ZEFSAII (Michael W. Deem and Ramdas Pophale) SiO2 
 PCOD9422956
Probable space group: P C C A
;
_chemical_formula_sum "Si O2"
_cell_formula_units_Z 32
_cell_length_a 4.921815
_cell_length_b 23.888064
_cell_length_c 12.644489
_cell_angle_alpha 90.000000
_cell_angle_beta 90.000000
_cell_angle_gamma 90.000000
_cell_volume 1486.645848
_symmetry_space_group_name_H-M "P C C A"
_symmetry_group_IT_number 54
_symmetry_cell_setting 'orthorhombic'
loop_
_space_group_symop_operation_xyz
x,y,z
1/2-x,-y,z
1/2+x,-y,1/2-z
-x,y,1/2-z
-x,-y,-z
1/2+x,y,-z
1/2-x,y,1/2+z
x,-y,1/2+z
loop_
_atom_site_type_symbol
_atom_site_label
_atom_site_fract_x
_atom_site_fract_y
_atom_site_fract_z
Si Si1 0.500000 0.086203 0.250000
Si Si2 0.250000 0.000000 0.418701
Si Si3 0.558475 0.373628 0.572827
Si Si4 0.432904 0.752667 0.426812
Si Si5 0.000000 0.461806 0.250000
Si Si6 0.500000 0.839977 0.250000
O O1 0.655727 0.049084 0.162081
O O2 0.251297 0.123522 0.206157
O O3 0.500000 0.000000 0.500000
O O4 0.255736 0.378769 0.527605
O O5 0.601635 0.310629 0.615987
O O6 0.607091 0.421303 0.657803
O O7 0.733643 0.758177 0.473626
O O8 0.383013 0.799763 0.340705
O O9 0.250000 0.500000 0.213003
#
# Coordination Sequence:
#
# PCOD9422956 Si02
#       6
#     4   4   8   8   4   4
#     4  12  27  44  67 103 130 167 226 264 318 388
#     4  12  26  48  72  92 132 182 220 268 320 378
#     4  10  22  41  62  85 121 164 206 254 310 381
#     4  10  22  40  63  92 125 166 207 247 317 391
#     4  12  25  38  59  89 118 157 210 262 318 372
#     4  12  24  40  66  98 136 160 200 278 318 370
#
# _framework density 21.524964000000001
#
# number of rings (size 3 to 8) (size 9 to 14) (size 15 to 20)
#    0.000    1.000    0.000    6.750    0.000    9.000 
#    0.000   10.000    0.000    0.000    0.000    0.000 
#    0.000    0.000    0.000    0.000    0.000    0.000 
#
# Total GULP energy -178742.375150 kJ/mol
# GULP energy per Si atom -5585.699223 kJ/mol
# Density = 2.147597 g / cm^3
# Si number density = 21.524964 Si / 1000 Ang^3
#
#
#
# Elastic Constant Matrix: (Units=GPa)
#
#
# Indices 1 2 3 4 5 6 
#
# 1 94.5876 30.9579 -0.5717 0.0000 0.0000 0.0000
# 2 30.9579 118.9879 44.7372 0.0000 0.0000 0.0000
# 3 -0.5717 44.7372 56.0304 0.0000 0.0000 0.0000
# 4 0.0000 0.0000 0.0000 26.0262 0.0000 0.0000
# 5 0.0000 0.0000 0.0000 0.0000 34.1548 0.0000
# 6 0.0000 0.0000 0.0000 0.0000 0.0000 14.5874
#
#
#
# Elastic Compliance Matrix: (Units=1/GPa)
#
#
# Indices 1 2 3 4 5 6 
#
# 1 0.012088 -0.004560 0.003764 0.000000 0.000000 0.000000
# 2 -0.004560 0.013730 -0.011009 0.000000 0.000000 0.000000
# 3 0.003764 -0.011009 0.026676 0.000000 0.000000 0.000000
# 4 0.000000 0.000000 0.000000 0.038423 0.000000 0.000000
# 5 0.000000 0.000000 0.000000 0.000000 0.029278 0.000000
# 6 0.000000 0.000000 0.000000 0.000000 0.000000 0.068552
#
#
# Mechanical properties :
#
#
# Convention : Reuss Voigt Hill
#
# Bulk Modulus (GPa) = 34.62169 46.65028 40.63599
# Shear Modulus (GPa) = 22.52406 27.91917 25.22161
#
# Velocity S-wave (km/s) = 3.23834 3.60538 3.42678
# Velocity P-wave (km/s) = 5.48652 6.24911 5.88019
#
# Compressibility (1/GPa) = 0.02888362
#
# Stress axis : x y z
#
# Youngs Moduli (GPa) = 82.73006 72.83374 37.48685
#
# Poissons Ratio (x) = 0.33214 -0.14112
# Poissons Ratio (y) = 0.37727 0.41270
# Poissons Ratio (z) = -0.31143 0.80183
#
# Static dielectric constant tensor:
#      x y z
#    x 1.740110 0.000000 0.000000 
#    y 0.000000 1.794220 0.000000 
#    z 0.000000 0.000000 1.812590 
# 
# From -- ./inp_files/6302.got.cif
#   From: 2010.05.17/outbox.cif.g08.bks.cpg/sg54_4_cif.got.tgz:6302.got - 2010.06.03 13:09:01.
