data_PCOD9422084
_publ_section_title
;
Structure prediction by ZEFSAII (Michael W. Deem and Ramdas Pophale) SiO2 
 PCOD9422084
Probable space group: P C C A
;
_chemical_formula_sum "Si O2"
_cell_formula_units_Z 28
_cell_length_a 7.225253
_cell_length_b 9.976951
_cell_length_c 14.768130
_cell_angle_alpha 90.000000
_cell_angle_beta 90.000000
_cell_angle_gamma 90.000000
_cell_volume 1064.575347
_symmetry_space_group_name_H-M "P C C A"
_symmetry_group_IT_number 54
_symmetry_cell_setting 'orthorhombic'
loop_
_space_group_symop_operation_xyz
x,y,z
1/2-x,-y,z
1/2+x,-y,1/2-z
-x,y,1/2-z
-x,-y,-z
1/2+x,y,-z
1/2-x,y,1/2+z
x,-y,1/2+z
loop_
_atom_site_type_symbol
_atom_site_label
_atom_site_fract_x
_atom_site_fract_y
_atom_site_fract_z
Si Si1 0.599714 0.326866 0.909008
Si Si2 0.027410 0.618076 0.382738
Si Si3 0.500000 0.187664 0.250000
Si Si4 0.035354 0.029902 0.105164
O O1 0.496396 0.459179 0.874056
O O2 0.816361 0.323103 0.882699
O O3 0.508193 0.187549 0.881638
O O4 0.604309 0.346653 0.018268
O O5 0.123294 0.694916 0.301464
O O6 0.552081 0.075953 0.172684
O O7 0.250000 0.000000 0.121559
O O8 0.000000 0.000000 0.000000
#
# Coordination Sequence:
#
# PCOD9422084 Si02
#       4
#     8   8   4   8
#     4  10  20  45  66  95 129 182 210 277 334 394
#     4  10  22  41  71  93 134 169 233 265 332 402
#     4  12  24  40  64 104 134 168 224 280 320 412
#     4  12  24  44  70  98 136 177 222 280 342 397
#
# _framework density 26.301566999999999
#
# number of rings (size 3 to 8) (size 9 to 14) (size 15 to 20)
#    0.000    1.143    5.714    0.000    0.000    2.286 
#    5.143   11.429    0.000    0.000    0.000    0.000 
#    0.000    0.000    0.000    0.000    0.000    0.000 
#
# Total GULP energy -156103.771431 kJ/mol
# GULP energy per Si atom -5575.134694 kJ/mol
# Density = 2.624170 g / cm^3
# Si number density = 26.301567 Si / 1000 Ang^3
#
#
#
# Elastic Constant Matrix: (Units=GPa)
#
#
# Indices 1 2 3 4 5 6 
#
# 1 61.6704 4.8889 10.6547 0.0000 0.0000 0.0000
# 2 4.8889 229.9097 55.9549 0.0000 0.0000 0.0000
# 3 10.6547 55.9549 144.1024 0.0000 0.0000 0.0000
# 4 0.0000 0.0000 0.0000 19.7864 0.0000 0.0000
# 5 0.0000 0.0000 0.0000 0.0000 14.1443 0.0000
# 6 0.0000 0.0000 0.0000 0.0000 0.0000 18.9800
#
#
#
# Elastic Compliance Matrix: (Units=1/GPa)
#
#
# Indices 1 2 3 4 5 6 
#
# 1 0.016426 -0.000059 -0.001191 0.000000 0.000000 0.000000
# 2 -0.000059 0.004804 -0.001861 0.000000 0.000000 0.000000
# 3 -0.001191 -0.001861 0.007750 0.000000 0.000000 0.000000
# 4 0.000000 0.000000 0.000000 0.050540 0.000000 0.000000
# 5 0.000000 0.000000 0.000000 0.000000 0.070700 0.000000
# 6 0.000000 0.000000 0.000000 0.000000 0.000000 0.052687
#
#
# Mechanical properties :
#
#
# Convention : Reuss Voigt Hill
#
# Bulk Modulus (GPa) = 43.94379 64.29774 54.12076
# Shear Modulus (GPa) = 23.07176 34.86107 28.96642
#
# Velocity S-wave (km/s) = 2.96497 3.64460 3.32221
# Velocity P-wave (km/s) = 5.33529 6.49694 5.94456
#
# Compressibility (1/GPa) = 0.02275634
#
# Stress axis : x y z
#
# Youngs Moduli (GPa) = 60.87985 208.17318 129.02919
#
# Poissons Ratio (x) = 0.01235 0.15373
# Poissons Ratio (y) = 0.00361 0.24011
# Poissons Ratio (z) = 0.07254 0.38739
#
# Static dielectric constant tensor:
#      x y z
#    x 2.161820 0.000000 0.000000 
#    y 0.000000 2.028830 0.000000 
#    z 0.000000 0.000000 2.793460 
# 
# From -- ./inp_files/11168.got.cif
#   From: 2010.05.17/outbox.cif.g08.bks.cpg/sg54_6_cif.got.tgz:11168.got - 2010.06.03 13:09:01.
