data_PCOD9422345
_publ_section_title
;
Structure prediction by ZEFSAII (Michael W. Deem and Ramdas Pophale) SiO2 
 PCOD9422345
Probable space group: P C C A
;
_chemical_formula_sum "Si O2"
_cell_formula_units_Z 32
_cell_length_a 5.222598
_cell_length_b 12.792301
_cell_length_c 24.696262
_cell_angle_alpha 90.000000
_cell_angle_beta 90.000000
_cell_angle_gamma 90.000000
_cell_volume 1649.933695
_symmetry_space_group_name_H-M "P C C A"
_symmetry_group_IT_number 54
_symmetry_cell_setting 'orthorhombic'
loop_
_space_group_symop_operation_xyz
x,y,z
1/2-x,-y,z
1/2+x,-y,1/2-z
-x,y,1/2-z
-x,-y,-z
1/2+x,y,-z
1/2-x,y,1/2+z
x,-y,1/2+z
loop_
_atom_site_type_symbol
_atom_site_label
_atom_site_fract_x
_atom_site_fract_y
_atom_site_fract_z
Si Si1 0.015268 0.620659 0.977210
Si Si2 0.843014 0.386611 0.799978
Si Si3 0.249353 0.119182 0.788541
Si Si4 0.676743 0.320785 0.643569
O O1 0.737853 0.668468 0.986260
O O2 0.000000 0.500000 0.000000
O O3 0.097285 0.642760 0.916156
O O4 0.750000 0.500000 0.782023
O O5 0.580810 0.337764 0.820949
O O6 0.000000 0.338654 0.750000
O O7 0.068168 0.388965 0.844079
O O8 0.500000 0.134169 0.750000
O O9 0.245532 0.203412 0.837517
O O10 0.000000 0.125328 0.750000
O O11 0.250000 0.000000 0.809769
#
# Coordination Sequence:
#
# PCOD9422345 Si02
#       4
#     8   8   8   8
#     4  10  23  39  57  82 110 153 210 256 292 341
#     4  12  25  37  53  87 124 158 194 232 290 376
#     4  10  21  38  62  92 122 152 195 244 295 367
#     4  12  23  38  64  81 119 164 197 244 304 353
#
# _framework density 19.394718999999998
#
# number of rings (size 3 to 8) (size 9 to 14) (size 15 to 20)
#    0.000    1.000    0.000    8.250   10.500    0.000 
#    0.000    0.000    0.000    1.500    0.000    0.000 
#    0.000    0.000    0.000    0.000    0.000    0.000 
#
# Total GULP energy -178239.340861 kJ/mol
# GULP energy per Si atom -5569.979402 kJ/mol
# Density = 1.935058 g / cm^3
# Si number density = 19.394719 Si / 1000 Ang^3
#
#
#
# Elastic Constant Matrix: (Units=GPa)
#
#
# Indices 1 2 3 4 5 6 
#
# 1 156.3101 18.6714 13.3255 0.0000 0.0000 0.0000
# 2 18.6714 89.5534 47.5653 0.0000 0.0000 0.0000
# 3 13.3255 47.5653 79.5384 0.0000 0.0000 0.0000
# 4 0.0000 0.0000 0.0000 23.3824 0.0000 0.0000
# 5 0.0000 0.0000 0.0000 0.0000 36.4914 0.0000
# 6 0.0000 0.0000 0.0000 0.0000 0.0000 8.7556
#
#
#
# Elastic Compliance Matrix: (Units=1/GPa)
#
#
# Indices 1 2 3 4 5 6 
#
# 1 0.006570 -0.001151 -0.000413 0.000000 0.000000 0.000000
# 2 -0.001151 0.016566 -0.009714 0.000000 0.000000 0.000000
# 3 -0.000413 -0.009714 0.018451 0.000000 0.000000 0.000000
# 4 0.000000 0.000000 0.000000 0.042767 0.000000 0.000000
# 5 0.000000 0.000000 0.000000 0.000000 0.027404 0.000000
# 6 0.000000 0.000000 0.000000 0.000000 0.000000 0.114212
#
#
# Mechanical properties :
#
#
# Convention : Reuss Voigt Hill
#
# Bulk Modulus (GPa) = 52.54196 53.83625 53.18911
# Shear Modulus (GPa) = 19.61795 30.11518 24.86657
#
# Velocity S-wave (km/s) = 3.18387 3.94477 3.58457
# Velocity P-wave (km/s) = 6.37697 6.96899 6.67954
#
# Compressibility (1/GPa) = 0.01903241
#
# Stress axis : x y z
#
# Youngs Moduli (GPa) = 152.20319 60.36509 54.19841
#
# Poissons Ratio (x) = 0.06946 0.02236
# Poissons Ratio (y) = 0.17514 0.52648
# Poissons Ratio (z) = 0.06280 0.58638
#
# Static dielectric constant tensor:
#      x y z
#    x 1.673910 0.000000 0.000000 
#    y 0.000000 1.706930 0.000000 
#    z 0.000000 0.000000 1.750080 
# 
# From -- ./inp_files/22647.got.cif
#   From: 2010.05.17/outbox.cif.g08.bks.cpg/sg54_12_cif.got.tgz:22647.got - 2010.06.03 13:09:01.
