data_PCOD9422886
_publ_section_title
;
Structure prediction by ZEFSAII (Michael W. Deem and Ramdas Pophale) SiO2 
 PCOD9422886
Probable space group: P C C A
;
_chemical_formula_sum "Si O2"
_cell_formula_units_Z 48
_cell_length_a 17.339494
_cell_length_b 9.421777
_cell_length_c 14.342241
_cell_angle_alpha 90.000000
_cell_angle_beta 90.000000
_cell_angle_gamma 90.000000
_cell_volume 2343.075358
_symmetry_space_group_name_H-M "P C C A"
_symmetry_group_IT_number 54
_symmetry_cell_setting 'orthorhombic'
loop_
_space_group_symop_operation_xyz
x,y,z
1/2-x,-y,z
1/2+x,-y,1/2-z
-x,y,1/2-z
-x,-y,-z
1/2+x,y,-z
1/2-x,y,1/2+z
x,-y,1/2+z
loop_
_atom_site_type_symbol
_atom_site_label
_atom_site_fract_x
_atom_site_fract_y
_atom_site_fract_z
Si Si1 0.079882 0.428222 0.022365
Si Si2 0.308817 0.313868 0.061217
Si Si3 0.417971 0.226445 0.700885
Si Si4 0.658866 0.009679 0.424854
Si Si5 0.325904 0.210597 0.423424
Si Si6 0.761326 0.662584 0.734258
O O1 0.144267 0.549283 0.031846
O O2 0.075208 0.343053 0.119122
O O3 0.104162 0.316747 0.943042
O O4 0.000000 0.500000 0.000000
O O5 0.265657 0.337767 0.158662
O O6 0.361930 0.174356 0.072040
O O7 0.244452 0.271578 0.986188
O O8 0.500000 0.207284 0.750000
O O9 0.388254 0.085219 0.647794
O O10 0.349470 0.283531 0.767980
O O11 0.654263 0.938732 0.528074
O O12 0.750000 0.000000 0.398585
O O13 0.293566 0.227508 0.320434
O O14 0.750000 0.500000 0.699039
#
# Coordination Sequence:
#
# PCOD9422886 Si02
#       6
#     8   8   8   8   8   8
#     4  11  23  40  63  92 134 169 207 281 334 381
#     4  11  20  43  66  91 127 168 223 268 310 391
#     4  11  24  41  62  97 133 165 211 274 335 382
#     4   9  19  44  65  87 130 167 212 265 317 389
#     4  10  22  39  63  96 123 166 221 260 321 395
#     4  12  21  38  70  98 124 170 223 270 319 389
#
# _framework density 20.485899
#
# number of rings (size 3 to 8) (size 9 to 14) (size 15 to 20)
#    0.000    1.333    6.667    1.500    4.667    0.000 
#    9.000    5.833    0.000    0.000    0.000    0.000 
#    0.000    0.000    0.000    0.000    0.000    0.000 
#
# Total GULP energy -268233.149164 kJ/mol
# GULP energy per Si atom -5588.190608 kJ/mol
# Density = 2.043927 g / cm^3
# Si number density = 20.485899 Si / 1000 Ang^3
#
#
#
# Elastic Constant Matrix: (Units=GPa)
#
#
# Indices 1 2 3 4 5 6 
#
# 1 66.3576 8.9558 -0.5133 0.0000 0.0000 0.0000
# 2 8.9558 106.1937 -8.1031 0.0000 0.0000 0.0000
# 3 -0.5133 -8.1031 32.8580 0.0000 0.0000 0.0000
# 4 0.0000 0.0000 0.0000 9.5428 0.0000 0.0000
# 5 0.0000 0.0000 0.0000 0.0000 23.6175 0.0000
# 6 0.0000 0.0000 0.0000 0.0000 0.0000 25.6005
#
#
#
# Elastic Compliance Matrix: (Units=1/GPa)
#
#
# Indices 1 2 3 4 5 6 
#
# 1 0.015244 -0.001292 -0.000080 0.000000 0.000000 0.000000
# 2 -0.001292 0.009707 0.002374 0.000000 0.000000 0.000000
# 3 -0.000080 0.002374 0.031018 0.000000 0.000000 0.000000
# 4 0.000000 0.000000 0.000000 0.104792 0.000000 0.000000
# 5 0.000000 0.000000 0.000000 0.000000 0.042341 0.000000
# 6 0.000000 0.000000 0.000000 0.000000 0.000000 0.039062
#
#
# Mechanical properties :
#
#
# Convention : Reuss Voigt Hill
#
# Bulk Modulus (GPa) = 17.24983 22.89865 20.07424
# Shear Modulus (GPa) = 19.26900 25.42348 22.34624
#
# Velocity S-wave (km/s) = 3.07024 3.52664 3.30633
# Velocity P-wave (km/s) = 4.58336 5.27114 4.93924
#
# Compressibility (1/GPa) = 0.05797160
#
# Stress axis : x y z
#
# Youngs Moduli (GPa) = 65.60138 103.02043 32.23920
#
# Poissons Ratio (x) = 0.13307 0.00259
# Poissons Ratio (y) = 0.08474 -0.07652
# Poissons Ratio (z) = 0.00527 -0.24453
#
# Static dielectric constant tensor:
#      x y z
#    x 1.716320 0.000000 0.000000 
#    y 0.000000 1.764890 0.000000 
#    z 0.000000 0.000000 1.738880 
# 
# From -- ./inp_files/14135.got.cif
#   From: 2010.05.17/outbox.cif.g08.bks.cpg/sg54_8_cif.got.tgz:14135.got - 2010.06.03 13:09:01.
