data_PCOD9422567
_publ_section_title
;
Structure prediction by ZEFSAII (Michael W. Deem and Ramdas Pophale) SiO2 
 PCOD9422567
Probable space group: P C C A
;
_chemical_formula_sum "Si O2"
_cell_formula_units_Z 36
_cell_length_a 10.611723
_cell_length_b 6.033229
_cell_length_c 27.537560
_cell_angle_alpha 90.000000
_cell_angle_beta 90.000000
_cell_angle_gamma 90.000000
_cell_volume 1763.035963
_symmetry_space_group_name_H-M "P C C A"
_symmetry_group_IT_number 54
_symmetry_cell_setting 'orthorhombic'
loop_
_space_group_symop_operation_xyz
x,y,z
1/2-x,-y,z
1/2+x,-y,1/2-z
-x,y,1/2-z
-x,-y,-z
1/2+x,y,-z
1/2-x,y,1/2+z
x,-y,1/2+z
loop_
_atom_site_type_symbol
_atom_site_label
_atom_site_fract_x
_atom_site_fract_y
_atom_site_fract_z
Si Si1 0.877220 0.584104 0.939709
Si Si2 0.617637 0.118100 0.213613
Si Si3 0.575315 0.865792 0.115439
Si Si4 0.250000 0.500000 0.844080
Si Si5 0.567299 0.189442 0.031881
O O1 0.750000 0.500000 0.916080
O O2 0.948611 0.760804 0.906352
O O3 0.970422 0.379076 0.950669
O O4 0.843781 0.695052 0.992020
O O5 0.500000 0.138152 0.250000
O O6 0.660620 0.351938 0.190394
O O7 0.750000 0.000000 0.230988
O O8 0.568640 0.971263 0.168484
O O9 0.670730 0.663125 0.121987
O O10 0.616043 0.058910 0.078444
O O11 0.500000 0.000000 0.000000
#
# Coordination Sequence:
#
# PCOD9422567 Si02
#       5
#     8   8   8   4   8
#     4  10  21  41  60  93 130 172 219 266 321 383
#     4  10  23  46  70  99 129 169 217 273 338 405
#     4  10  21  42  64  93 131 168 216 266 325 390
#     4  10  22  42  68 100 126 170 222 262 326 402
#     4   9  20  40  56  88 126 168 215 259 313 369
#
# _framework density 20.419322999999999
#
# number of rings (size 3 to 8) (size 9 to 14) (size 15 to 20)
#    0.000    2.222    0.000    1.333    0.000    7.111 
#   68.000    0.000    0.000    0.000    0.000    0.000 
#    0.000    0.000    0.000    0.000    0.000    0.000 
#
# Total GULP energy -200915.816722 kJ/mol
# GULP energy per Si atom -5580.994909 kJ/mol
# Density = 2.037285 g / cm^3
# Si number density = 20.419323 Si / 1000 Ang^3
#
#
#
# Elastic Constant Matrix: (Units=GPa)
#
#
# Indices 1 2 3 4 5 6 
#
# 1 119.5828 45.4284 65.5387 0.0000 0.0000 0.0000
# 2 45.4284 107.9567 36.4114 0.0000 0.0000 0.0000
# 3 65.5387 36.4114 82.4644 0.0000 0.0000 0.0000
# 4 0.0000 0.0000 0.0000 21.4830 0.0000 0.0000
# 5 0.0000 0.0000 0.0000 0.0000 22.8746 0.0000
# 6 0.0000 0.0000 0.0000 0.0000 0.0000 35.1378
#
#
#
# Elastic Compliance Matrix: (Units=1/GPa)
#
#
# Indices 1 2 3 4 5 6 
#
# 1 0.015495 -0.002781 -0.011087 0.000000 0.000000 0.000000
# 2 -0.002781 0.011383 -0.002816 0.000000 0.000000 0.000000
# 3 -0.011087 -0.002816 0.022181 0.000000 0.000000 0.000000
# 4 0.000000 0.000000 0.000000 0.046549 0.000000 0.000000
# 5 0.000000 0.000000 0.000000 0.000000 0.043717 0.000000
# 6 0.000000 0.000000 0.000000 0.000000 0.000000 0.028459
#
#
# Mechanical properties :
#
#
# Convention : Reuss Voigt Hill
#
# Bulk Modulus (GPa) = 63.72777 67.19564 65.46171
# Shear Modulus (GPa) = 24.22695 26.74077 25.48386
#
# Velocity S-wave (km/s) = 3.44826 3.62274 3.53657
# Velocity P-wave (km/s) = 6.86522 7.10481 6.98604
#
# Compressibility (1/GPa) = 0.01569175
#
# Stress axis : x y z
#
# Youngs Moduli (GPa) = 64.53613 87.85074 45.08356
#
# Poissons Ratio (x) = 0.24432 0.49984
# Poissons Ratio (y) = 0.17948 0.12695
# Poissons Ratio (z) = 0.71550 0.24737
#
# Static dielectric constant tensor:
#      x y z
#    x 1.906560 0.000000 0.000000 
#    y 0.000000 1.753040 0.000000 
#    z 0.000000 0.000000 1.720610 
# 
# From -- ./inp_files/23825.got.cif
#   From: 2010.05.17/outbox.cif.g08.bks.cpg/sg54_12_cif.got.tgz:23825.got - 2010.06.03 13:09:01.
