data_PCOD9422489
_publ_section_title
;
Structure prediction by ZEFSAII (Michael W. Deem and Ramdas Pophale) SiO2 
 PCOD9422489
Probable space group: P C C A
;
_chemical_formula_sum "Si O2"
_cell_formula_units_Z 48
_cell_length_a 12.571948
_cell_length_b 11.671503
_cell_length_c 17.025952
_cell_angle_alpha 90.000000
_cell_angle_beta 90.000000
_cell_angle_gamma 90.000000
_cell_volume 2498.278018
_symmetry_space_group_name_H-M "P C C A"
_symmetry_group_IT_number 54
_symmetry_cell_setting 'orthorhombic'
loop_
_space_group_symop_operation_xyz
x,y,z
1/2-x,-y,z
1/2+x,-y,1/2-z
-x,y,1/2-z
-x,-y,-z
1/2+x,y,-z
1/2-x,y,1/2+z
x,-y,1/2+z
loop_
_atom_site_type_symbol
_atom_site_label
_atom_site_fract_x
_atom_site_fract_y
_atom_site_fract_z
Si Si1 0.604474 0.806951 0.624025
Si Si2 0.078665 0.238954 0.319410
Si Si3 0.639754 0.777895 0.931728
Si Si4 0.283221 0.630822 0.437171
Si Si5 0.911401 0.048029 0.058048
Si Si6 0.221836 0.134627 0.729393
O O1 0.484395 0.780169 0.595206
O O2 0.684298 0.711541 0.589690
O O3 0.621338 0.826607 0.717172
O O4 0.637793 0.933832 0.593797
O O5 0.119183 0.336358 0.378901
O O6 0.042092 0.131321 0.373936
O O7 0.181222 0.192090 0.274562
O O8 0.000000 0.273810 0.250000
O O9 0.706564 0.815699 0.856958
O O10 0.678595 0.663291 0.974909
O O11 0.655851 0.870872 0.001297
O O12 0.250000 0.500000 0.430454
O O13 0.000000 0.000000 0.000000
O O14 0.250000 0.000000 0.725949
#
# Coordination Sequence:
#
# PCOD9422489 Si02
#       6
#     8   8   8   8   8   8
#     4  10  21  40  58  88 132 159 205 258 324 377
#     4  10  22  39  61  91 125 162 209 257 321 383
#     4  10  23  36  61  92 119 168 210 252 325 385
#     4  10  24  45  64  87 123 170 224 274 310 361
#     4   9  19  33  57  89 123 156 194 249 316 394
#     4  11  22  33  59  92 131 164 195 250 316 395
#
# _framework density 19.213234
#
# number of rings (size 3 to 8) (size 9 to 14) (size 15 to 20)
#    0.000    2.000    1.667    0.500    7.000    3.333 
#    0.000    6.667    0.000    0.000    0.000    0.000 
#    0.000    0.000    0.000    0.000    0.000    0.000 
#
# Total GULP energy -267593.200808 kJ/mol
# GULP energy per Si atom -5574.858350 kJ/mol
# Density = 1.916950 g / cm^3
# Si number density = 19.213234 Si / 1000 Ang^3
#
#
#
# Elastic Constant Matrix: (Units=GPa)
#
#
# Indices 1 2 3 4 5 6 
#
# 1 53.7896 30.6554 28.1588 0.0000 0.0000 0.0000
# 2 30.6554 129.6948 44.7871 0.0000 0.0000 0.0000
# 3 28.1588 44.7871 129.0348 0.0000 0.0000 0.0000
# 4 0.0000 0.0000 0.0000 11.8736 0.0000 0.0000
# 5 0.0000 0.0000 0.0000 0.0000 32.8853 0.0000
# 6 0.0000 0.0000 0.0000 0.0000 0.0000 16.8955
#
#
#
# Elastic Compliance Matrix: (Units=1/GPa)
#
#
# Indices 1 2 3 4 5 6 
#
# 1 0.022818 -0.004174 -0.003531 0.000000 0.000000 0.000000
# 2 -0.004174 0.009524 -0.002395 0.000000 0.000000 0.000000
# 3 -0.003531 -0.002395 0.009352 0.000000 0.000000 0.000000
# 4 0.000000 0.000000 0.000000 0.084221 0.000000 0.000000
# 5 0.000000 0.000000 0.000000 0.000000 0.030409 0.000000
# 6 0.000000 0.000000 0.000000 0.000000 0.000000 0.059187
#
#
# Mechanical properties :
#
#
# Convention : Reuss Voigt Hill
#
# Bulk Modulus (GPa) = 46.52374 57.74687 52.13531
# Shear Modulus (GPa) = 20.58676 26.25874 23.42275
#
# Velocity S-wave (km/s) = 3.27691 3.70090 3.49534
# Velocity P-wave (km/s) = 6.21164 6.95581 6.59423
#
# Compressibility (1/GPa) = 0.02149440
#
# Stress axis : x y z
#
# Youngs Moduli (GPa) = 43.82462 104.99741 106.93399
#
# Poissons Ratio (x) = 0.43828 0.37755
# Poissons Ratio (y) = 0.18293 0.25609
# Poissons Ratio (z) = 0.15473 0.25145
#
# Static dielectric constant tensor:
#      x y z
#    x -12.582890 0.000000 0.000000 
#    y 0.000000 1.681670 0.000000 
#    z 0.000000 0.000000 1.707660 
# 
# From -- ./inp_files/13413.got.cif
#   From: 2010.05.17/outbox.cif.g08.bks.cpg/sg54_7_cif.got.tgz:13413.got - 2010.06.03 13:09:01.
