data_PCOD9422613
_publ_section_title
;
Structure prediction by ZEFSAII (Michael W. Deem and Ramdas Pophale) SiO2 
 PCOD9422613
Probable space group: P C C A
;
_chemical_formula_sum "Si O2"
_cell_formula_units_Z 56
_cell_length_a 20.356475
_cell_length_b 12.845186
_cell_length_c 9.353251
_cell_angle_alpha 90.000000
_cell_angle_beta 90.000000
_cell_angle_gamma 90.000000
_cell_volume 2445.713397
_symmetry_space_group_name_H-M "P C C A"
_symmetry_group_IT_number 54
_symmetry_cell_setting 'orthorhombic'
loop_
_space_group_symop_operation_xyz
x,y,z
1/2-x,-y,z
1/2+x,-y,1/2-z
-x,y,1/2-z
-x,-y,-z
1/2+x,y,-z
1/2-x,y,1/2+z
x,-y,1/2+z
loop_
_atom_site_type_symbol
_atom_site_label
_atom_site_fract_x
_atom_site_fract_y
_atom_site_fract_z
Si Si1 0.664233 0.204090 0.121439
Si Si2 0.855015 0.961030 0.564237
Si Si3 0.606787 0.362360 0.492597
Si Si4 0.464217 0.728992 0.000687
Si Si5 0.428293 0.462296 0.709349
Si Si6 0.937462 0.940841 0.829759
Si Si7 0.723596 0.784352 0.927481
O O1 0.708654 0.222849 0.259955
O O2 0.658360 0.079742 0.108182
O O3 0.591739 0.254663 0.120444
O O4 0.703648 0.240421 0.980640
O O5 0.884066 0.911620 0.708629
O O6 0.796546 0.897017 0.492351
O O7 0.908957 0.975752 0.439944
O O8 0.539733 0.296602 0.465452
O O9 0.600180 0.419255 0.644282
O O10 0.611920 0.449604 0.370752
O O11 0.669834 0.290794 0.495626
O O12 0.442052 0.633119 0.101367
O O13 0.459563 0.836415 0.089803
O O14 0.500000 0.507516 0.750000
O O15 0.000000 0.987446 0.750000
#
# Coordination Sequence:
#
# PCOD9422613 Si02
#       7
#     8   8   8   8   8   8   8
#     4  11  28  44  70  99 139 185 230 289 336 419
#     4  11  23  43  65  98 133 187 232 277 335 414
#     4  11  25  43  77 103 139 178 231 288 347 409
#     4  10  22  43  71  99 137 176 229 286 345 406
#     4  10  21  41  71 106 132 179 222 285 342 416
#     4  11  21  37  63  99 142 175 222 282 349 399
#     4  12  27  46  70 101 137 185 232 281 349 404
#
# _framework density 22.897205
#
# number of rings (size 3 to 8) (size 9 to 14) (size 15 to 20)
#    0.000    1.143    1.429    5.571   10.000    2.286 
#    0.000    0.714    0.000    0.000    0.000    0.000 
#    0.000    0.000    0.000    0.000    0.000    0.000 
#
# Total GULP energy -313459.510900 kJ/mol
# GULP energy per Si atom -5597.491266 kJ/mol
# Density = 2.284509 g / cm^3
# Si number density = 22.897205 Si / 1000 Ang^3
#
#
#
# Elastic Constant Matrix: (Units=GPa)
#
#
# Indices 1 2 3 4 5 6 
#
# 1 51.3040 12.8064 -2.0690 0.0000 0.0000 0.0000
# 2 12.8064 61.9365 -0.7515 0.0000 0.0000 0.0000
# 3 -2.0690 -0.7515 77.6617 0.0000 0.0000 0.0000
# 4 0.0000 0.0000 0.0000 20.0480 0.0000 0.0000
# 5 0.0000 0.0000 0.0000 0.0000 35.8274 0.0000
# 6 0.0000 0.0000 0.0000 0.0000 0.0000 12.0808
#
#
#
# Elastic Compliance Matrix: (Units=1/GPa)
#
#
# Indices 1 2 3 4 5 6 
#
# 1 0.020572 -0.004248 0.000507 0.000000 0.000000 0.000000
# 2 -0.004248 0.017024 0.000052 0.000000 0.000000 0.000000
# 3 0.000507 0.000052 0.012890 0.000000 0.000000 0.000000
# 4 0.000000 0.000000 0.000000 0.049880 0.000000 0.000000
# 5 0.000000 0.000000 0.000000 0.000000 0.027912 0.000000
# 6 0.000000 0.000000 0.000000 0.000000 0.000000 0.082776
#
#
# Mechanical properties :
#
#
# Convention : Reuss Voigt Hill
#
# Bulk Modulus (GPa) = 23.19688 23.43043 23.31366
# Shear Modulus (GPa) = 21.47741 25.65233 23.56487
#
# Velocity S-wave (km/s) = 3.06599 3.35076 3.21153
# Velocity P-wave (km/s) = 4.76304 5.02247 4.89448
#
# Compressibility (1/GPa) = 0.04310924
#
# Stress axis : x y z
#
# Youngs Moduli (GPa) = 48.60895 58.73907 77.57732
#
# Poissons Ratio (x) = 0.24950 -0.03933
# Poissons Ratio (y) = 0.20647 -0.00400
# Poissons Ratio (z) = -0.02464 -0.00303
#
# Static dielectric constant tensor:
#      x y z
#    x 1.874470 0.000000 0.000000 
#    y 0.000000 1.820270 0.000000 
#    z 0.000000 0.000000 1.904380 
# 
# From -- ./inp_files/4791.got.cif
#   From: 2010.05.17/outbox.cif.g08.bks.cpg/sg54_3_cif.got.tgz:4791.got - 2010.06.03 13:09:01.
