data_PCOD9422621
_publ_section_title
;
Structure prediction by ZEFSAII (Michael W. Deem and Ramdas Pophale) SiO2 
 PCOD9422621
Probable space group: P C C A
;
_chemical_formula_sum "Si O2"
_cell_formula_units_Z 32
_cell_length_a 5.222086
_cell_length_b 20.740402
_cell_length_c 12.510543
_cell_angle_alpha 90.000000
_cell_angle_beta 90.000000
_cell_angle_gamma 90.000000
_cell_volume 1354.993929
_symmetry_space_group_name_H-M "P C C A"
_symmetry_group_IT_number 54
_symmetry_cell_setting 'orthorhombic'
loop_
_space_group_symop_operation_xyz
x,y,z
1/2-x,-y,z
1/2+x,-y,1/2-z
-x,y,1/2-z
-x,-y,-z
1/2+x,y,-z
1/2-x,y,1/2+z
x,-y,1/2+z
loop_
_atom_site_type_symbol
_atom_site_label
_atom_site_fract_x
_atom_site_fract_y
_atom_site_fract_z
Si Si1 0.870455 0.867657 0.063044
Si Si2 0.542630 0.427464 0.955207
Si Si3 0.250000 0.000000 0.818736
Si Si4 0.000000 0.639351 0.750000
Si Si5 0.254414 0.271215 0.921796
O O1 0.783772 0.802125 0.121455
O O2 0.811626 0.935807 0.115507
O O3 0.672642 0.865120 0.962528
O O4 0.624742 0.410269 0.835935
O O5 0.500000 0.500000 0.000000
O O6 0.762131 0.399412 0.028419
O O7 0.500000 0.014300 0.750000
O O8 0.189276 0.685384 0.816560
O O9 0.505611 0.277643 0.999627
#
# Coordination Sequence:
#
# PCOD9422621 Si02
#       5
#     8   8   4   4   8
#     4  10  21  42  63  85 125 171 213 264 333 386
#     4  10  24  43  65  98 134 168 221 267 322 398
#     4  12  24  36  62  98 128 162 220 274 322 402
#     4  12  24  42  72  94 134 180 214 274 344 376
#     4  10  24  43  64  96 129 169 223 273 320 400
#
# _framework density 23.616343000000001
#
# number of rings (size 3 to 8) (size 9 to 14) (size 15 to 20)
#    0.000    1.500    0.000    3.750    1.750    8.000 
#    0.000    0.000    0.000    0.000    0.000    0.000 
#    0.000    0.000    0.000    0.000    0.000    0.000 
#
# Total GULP energy -178329.624870 kJ/mol
# GULP energy per Si atom -5572.800777 kJ/mol
# Density = 2.356259 g / cm^3
# Si number density = 23.616343 Si / 1000 Ang^3
#
#
#
# Elastic Constant Matrix: (Units=GPa)
#
#
# Indices 1 2 3 4 5 6 
#
# 1 116.3463 -12.1780 -4.3034 0.0000 0.0000 0.0000
# 2 -12.1780 131.0376 43.1283 0.0000 0.0000 0.0000
# 3 -4.3034 43.1283 78.8892 0.0000 0.0000 0.0000
# 4 0.0000 0.0000 0.0000 47.6252 0.0000 0.0000
# 5 0.0000 0.0000 0.0000 0.0000 47.6123 0.0000
# 6 0.0000 0.0000 0.0000 0.0000 0.0000 18.3552
#
#
#
# Elastic Compliance Matrix: (Units=1/GPa)
#
#
# Indices 1 2 3 4 5 6 
#
# 1 0.008680 0.000794 0.000040 0.000000 0.000000 0.000000
# 2 0.000794 0.009378 -0.005084 0.000000 0.000000 0.000000
# 3 0.000040 -0.005084 0.015457 0.000000 0.000000 0.000000
# 4 0.000000 0.000000 0.000000 0.020997 0.000000 0.000000
# 5 0.000000 0.000000 0.000000 0.000000 0.021003 0.000000
# 6 0.000000 0.000000 0.000000 0.000000 0.000000 0.054480
#
#
# Mechanical properties :
#
#
# Convention : Reuss Voigt Hill
#
# Bulk Modulus (GPa) = 39.97731 42.17410 41.07571
# Shear Modulus (GPa) = 34.05173 42.69363 38.37268
#
# Velocity S-wave (km/s) = 3.80132 4.25644 4.03530
# Velocity P-wave (km/s) = 6.01924 6.48484 6.25637
#
# Compressibility (1/GPa) = 0.02501419
#
# Stress axis : x y z
#
# Youngs Moduli (GPa) = 115.21321 106.62809 64.69365
#
# Poissons Ratio (x) = -0.08462 -0.00256
# Poissons Ratio (y) = -0.09143 0.32889
# Poissons Ratio (z) = -0.00456 0.54208
#
# Static dielectric constant tensor:
#      x y z
#    x 1.910820 0.000000 0.000000 
#    y 0.000000 -1.798650 0.000000 
#    z 0.000000 0.000000 1.906220 
# 
# From -- ./inp_files/6294.got.cif
#   From: 2010.05.17/outbox.cif.g08.bks.cpg/sg54_4_cif.got.tgz:6294.got - 2010.06.03 13:09:01.
