data_PCOD9422238
_publ_section_title
;
Structure prediction by ZEFSAII (Michael W. Deem and Ramdas Pophale) SiO2 
 PCOD9422238
Probable space group: P C C A
;
_chemical_formula_sum "Si O2"
_cell_formula_units_Z 36
_cell_length_a 8.617167
_cell_length_b 10.078081
_cell_length_c 20.086901
_cell_angle_alpha 90.000000
_cell_angle_beta 90.000000
_cell_angle_gamma 90.000000
_cell_volume 1744.437015
_symmetry_space_group_name_H-M "P C C A"
_symmetry_group_IT_number 54
_symmetry_cell_setting 'orthorhombic'
loop_
_space_group_symop_operation_xyz
x,y,z
1/2-x,-y,z
1/2+x,-y,1/2-z
-x,y,1/2-z
-x,-y,-z
1/2+x,y,-z
1/2-x,y,1/2+z
x,-y,1/2+z
loop_
_atom_site_type_symbol
_atom_site_label
_atom_site_fract_x
_atom_site_fract_y
_atom_site_fract_z
Si Si1 0.568725 0.143471 0.820765
Si Si2 0.603582 0.901666 0.044626
Si Si3 0.750000 0.500000 0.480428
Si Si4 0.996815 0.679151 0.054631
Si Si5 0.077054 0.822810 0.181373
O O1 0.500000 0.188754 0.750000
O O2 0.463222 0.155286 0.886237
O O3 0.739887 0.205769 0.828976
O O4 0.577689 0.982727 0.817234
O O5 0.750000 0.000000 0.056842
O O6 0.590398 0.774207 0.996510
O O7 0.500000 0.000000 0.000000
O O8 0.618493 0.437870 0.434242
O O9 0.654938 0.607616 0.525048
O O10 0.977156 0.764866 0.120815
O O11 0.000000 0.776667 0.250000
#
# Coordination Sequence:
#
# PCOD9422238 Si02
#       5
#     8   8   4   8   8
#     4  10  22  35  55  93 131 164 194 242 323 397
#     4  12  23  36  63  96 126 159 203 260 320 385
#     4  10  24  40  62  82 118 168 212 266 302 356
#     4  11  22  41  61  89 122 161 215 257 310 367
#     4  10  21  37  60  85 126 165 201 254 314 384
#
# _framework density 20.637029999999999
#
# number of rings (size 3 to 8) (size 9 to 14) (size 15 to 20)
#    0.000    1.333    2.222    4.000    6.222    0.000 
#    0.000    1.111    0.000    5.333    0.000    0.000 
#    0.000    0.000    0.000    0.000    0.000    0.000 
#
# Total GULP energy -200408.097280 kJ/mol
# GULP energy per Si atom -5566.891591 kJ/mol
# Density = 2.059006 g / cm^3
# Si number density = 20.637030 Si / 1000 Ang^3
#
#
#
# Elastic Constant Matrix: (Units=GPa)
#
#
# Indices 1 2 3 4 5 6 
#
# 1 83.5957 28.4625 20.2837 0.0000 0.0000 0.0000
# 2 28.4625 46.4536 14.7926 0.0000 0.0000 0.0000
# 3 20.2837 14.7926 134.1782 0.0000 0.0000 0.0000
# 4 0.0000 0.0000 0.0000 12.2257 0.0000 0.0000
# 5 0.0000 0.0000 0.0000 0.0000 22.6897 0.0000
# 6 0.0000 0.0000 0.0000 0.0000 0.0000 24.8581
#
#
#
# Elastic Compliance Matrix: (Units=1/GPa)
#
#
# Indices 1 2 3 4 5 6 
#
# 1 0.015341 -0.008976 -0.001330 0.000000 0.000000 0.000000
# 2 -0.008976 0.027562 -0.001682 0.000000 0.000000 0.000000
# 3 -0.001330 -0.001682 0.007839 0.000000 0.000000 0.000000
# 4 0.000000 0.000000 0.000000 0.081795 0.000000 0.000000
# 5 0.000000 0.000000 0.000000 0.000000 0.044073 0.000000
# 6 0.000000 0.000000 0.000000 0.000000 0.000000 0.040228
#
#
# Mechanical properties :
#
#
# Convention : Reuss Voigt Hill
#
# Bulk Modulus (GPa) = 37.35863 43.47832 40.41848
# Shear Modulus (GPa) = 20.02113 25.33396 22.67754
#
# Velocity S-wave (km/s) = 3.11811 3.50751 3.31853
# Velocity P-wave (km/s) = 5.57723 6.12514 5.85760
#
# Compressibility (1/GPa) = 0.02676758
#
# Stress axis : x y z
#
# Youngs Moduli (GPa) = 65.18417 36.28156 127.56475
#
# Poissons Ratio (x) = 0.32567 0.16960
# Poissons Ratio (y) = 0.58511 0.21452
# Poissons Ratio (z) = 0.08666 0.06101
#
# Static dielectric constant tensor:
#      x y z
#    x 1.825440 0.000000 0.000000 
#    y 0.000000 1.808310 0.000000 
#    z 0.000000 0.000000 1.706710 
# 
# From -- ./inp_files/20227.got.cif
#   From: 2010.05.17/outbox.cif.g08.bks.cpg/sg54_11_cif.got.tgz:20227.got - 2010.06.03 13:09:01.
