data_PCOD9422976
_publ_section_title
;
Structure prediction by ZEFSAII (Michael W. Deem and Ramdas Pophale) SiO2 
 PCOD9422976
Probable space group: P C C A
;
_chemical_formula_sum "Si O2"
_cell_formula_units_Z 64
_cell_length_a 21.928046
_cell_length_b 9.363460
_cell_length_c 13.895572
_cell_angle_alpha 90.000000
_cell_angle_beta 90.000000
_cell_angle_gamma 90.000000
_cell_volume 2853.071937
_symmetry_space_group_name_H-M "P C C A"
_symmetry_group_IT_number 54
_symmetry_cell_setting 'orthorhombic'
loop_
_space_group_symop_operation_xyz
x,y,z
1/2-x,-y,z
1/2+x,-y,1/2-z
-x,y,1/2-z
-x,-y,-z
1/2+x,y,-z
1/2-x,y,1/2+z
x,-y,1/2+z
loop_
_atom_site_type_symbol
_atom_site_label
_atom_site_fract_x
_atom_site_fract_y
_atom_site_fract_z
Si Si1 0.065463 0.831913 0.544310
Si Si2 0.345884 0.037673 0.836239
Si Si3 0.612814 0.132603 0.457828
Si Si4 0.536000 0.369356 0.548540
Si Si5 0.941718 0.184990 0.682845
Si Si6 0.835848 0.714063 0.821387
Si Si7 0.074870 0.492169 0.767630
Si Si8 0.782654 0.144959 0.807643
O O1 0.054719 0.793615 0.432513
O O2 0.130609 0.781328 0.585602
O O3 0.012144 0.742493 0.595048
O O4 0.065951 0.001568 0.558100
O O5 0.348924 0.084865 0.946915
O O6 0.341041 0.173347 0.767151
O O7 0.410130 0.966901 0.811470
O O8 0.300784 0.908322 0.801071
O O9 0.576094 0.276588 0.476519
O O10 0.656736 0.153441 0.369124
O O11 0.500000 0.500000 0.500000
O O12 0.579356 0.432167 0.629419
O O13 0.908266 0.327123 0.720841
O O14 0.000000 0.179335 0.750000
O O15 0.876995 0.575264 0.799206
O O16 0.762112 0.721279 0.827046
O O17 0.000000 0.497593 0.750000
O O18 0.750000 0.000000 0.846046
#
# Coordination Sequence:
#
# PCOD9422976 Si02
#       8
#     8   8   8   8   8   8   8   8
#     4  11  22  40  64  96 135 169 223 281 341 408
#     4  10  22  40  64  95 130 170 230 280 333 407
#     4  11  23  40  68  97 130 180 224 281 347 406
#     4  12  24  39  62  97 134 172 220 275 338 419
#     4  10  24  40  61  95 132 177 218 273 338 415
#     4  11  22  43  66  96 132 174 226 285 343 406
#     4  11  22  41  64  92 132 180 217 272 343 410
#     4  10  22  42  66  96 133 171 228 288 339 397
#
# _framework density 22.431963
#
# number of rings (size 3 to 8) (size 9 to 14) (size 15 to 20)
#    0.000    1.250    6.250    0.375    1.750    4.000 
#    0.000    0.625    0.000    0.000    0.000    0.000 
#    0.000    0.000    0.000    0.000    0.000    0.000 
#
# Total GULP energy -357038.568619 kJ/mol
# GULP energy per Si atom -5578.727635 kJ/mol
# Density = 2.238091 g / cm^3
# Si number density = 22.431963 Si / 1000 Ang^3
#
#
#
# Elastic Constant Matrix: (Units=GPa)
#
#
# Indices 1 2 3 4 5 6 
#
# 1 67.7709 29.7309 27.0574 0.0000 0.0000 0.0000
# 2 29.7309 95.6164 21.3141 0.0000 0.0000 0.0000
# 3 27.0574 21.3141 92.3629 0.0000 0.0000 0.0000
# 4 0.0000 0.0000 0.0000 20.9484 0.0000 0.0000
# 5 0.0000 0.0000 0.0000 0.0000 27.3024 0.0000
# 6 0.0000 0.0000 0.0000 0.0000 0.0000 26.3468
#
#
#
# Elastic Compliance Matrix: (Units=1/GPa)
#
#
# Indices 1 2 3 4 5 6 
#
# 1 0.018600 -0.004817 -0.004337 0.000000 0.000000 0.000000
# 2 -0.004817 0.012273 -0.001421 0.000000 0.000000 0.000000
# 3 -0.004337 -0.001421 0.012425 0.000000 0.000000 0.000000
# 4 0.000000 0.000000 0.000000 0.047736 0.000000 0.000000
# 5 0.000000 0.000000 0.000000 0.000000 0.036627 0.000000
# 6 0.000000 0.000000 0.000000 0.000000 0.000000 0.037955
#
#
# Mechanical properties :
#
#
# Convention : Reuss Voigt Hill
#
# Bulk Modulus (GPa) = 45.15020 45.77275 45.46147
# Shear Modulus (GPa) = 25.75322 26.76270 26.25796
#
# Velocity S-wave (km/s) = 3.39198 3.45782 3.42506
# Velocity P-wave (km/s) = 5.95919 6.03253 5.99598
#
# Compressibility (1/GPa) = 0.02214830
#
# Stress axis : x y z
#
# Youngs Moduli (GPa) = 53.76239 81.47998 80.48014
#
# Poissons Ratio (x) = 0.39247 0.34907
# Poissons Ratio (y) = 0.25896 0.11437
# Poissons Ratio (z) = 0.23319 0.11579
#
# Static dielectric constant tensor:
#      x y z
#    x 1.935280 0.000000 0.000000 
#    y 0.000000 1.839690 0.000000 
#    z 0.000000 0.000000 1.924150 
# 
# From -- ./inp_files/14988.got.cif
#   From: 2010.05.17/outbox.cif.g08.bks.cpg/sg54_8_cif.got.tgz:14988.got - 2010.06.03 13:09:01.
