data_PCOD9422086
_publ_section_title
;
Structure prediction by ZEFSAII (Michael W. Deem and Ramdas Pophale) SiO2 
 PCOD9422086
Probable space group: P C C A
;
_chemical_formula_sum "Si O2"
_cell_formula_units_Z 36
_cell_length_a 11.644908
_cell_length_b 10.910730
_cell_length_c 14.231513
_cell_angle_alpha 90.000000
_cell_angle_beta 90.000000
_cell_angle_gamma 90.000000
_cell_volume 1808.177015
_symmetry_space_group_name_H-M "P C C A"
_symmetry_group_IT_number 54
_symmetry_cell_setting 'orthorhombic'
loop_
_space_group_symop_operation_xyz
x,y,z
1/2-x,-y,z
1/2+x,-y,1/2-z
-x,y,1/2-z
-x,-y,-z
1/2+x,y,-z
1/2-x,y,1/2+z
x,-y,1/2+z
loop_
_atom_site_type_symbol
_atom_site_label
_atom_site_fract_x
_atom_site_fract_y
_atom_site_fract_z
Si Si1 0.448910 0.294419 0.643972
Si Si2 0.087285 0.104950 0.465490
Si Si3 0.704124 0.185758 0.348386
Si Si4 0.250000 0.000000 0.806647
Si Si5 0.622582 0.544058 0.804924
O O1 0.500000 0.296358 0.750000
O O2 0.529523 0.232656 0.567109
O O3 0.339403 0.207763 0.649597
O O4 0.405337 0.432537 0.623439
O O5 0.167032 0.127853 0.554360
O O6 0.158151 0.062260 0.374986
O O7 0.000000 0.000000 0.500000
O O8 0.646097 0.318637 0.338140
O O9 0.684997 0.096871 0.260212
O O10 0.750000 0.500000 0.762377
O O11 0.500000 0.551510 0.750000
#
# Coordination Sequence:
#
# PCOD9422086 Si02
#       5
#     8   8   8   4   8
#     4  10  20  45  68  91 136 179 214 286 353 400
#     4  12  26  39  65 101 134 179 232 278 350 424
#     4  11  24  42  67  99 129 177 233 276 346 421
#     4  12  24  42  66  94 142 182 220 298 340 418
#     4   9  21  41  72 100 132 180 235 284 349 421
#
# _framework density 19.909555999999998
#
# number of rings (size 3 to 8) (size 9 to 14) (size 15 to 20)
#    0.000    1.333    2.222    3.333    3.111    0.889 
#    0.000    0.000    9.778    0.000    0.000    0.000 
#    0.000    0.000    0.000    0.000    0.000    0.000 
#
# Total GULP energy -200612.184547 kJ/mol
# GULP energy per Si atom -5572.560682 kJ/mol
# Density = 1.986424 g / cm^3
# Si number density = 19.909556 Si / 1000 Ang^3
#
#
#
# Elastic Constant Matrix: (Units=GPa)
#
#
# Indices 1 2 3 4 5 6 
#
# 1 89.3715 36.6294 43.9209 0.0000 0.0000 0.0000
# 2 36.6294 134.0427 66.7614 0.0000 0.0000 0.0000
# 3 43.9209 66.7614 125.9204 0.0000 0.0000 0.0000
# 4 0.0000 0.0000 0.0000 11.3537 0.0000 0.0000
# 5 0.0000 0.0000 0.0000 0.0000 31.7926 0.0000
# 6 0.0000 0.0000 0.0000 0.0000 0.0000 33.3373
#
#
#
# Elastic Compliance Matrix: (Units=1/GPa)
#
#
# Indices 1 2 3 4 5 6 
#
# 1 0.013841 -0.001872 -0.003835 0.000000 0.000000 0.000000
# 2 -0.001872 0.010390 -0.004856 0.000000 0.000000 0.000000
# 3 -0.003835 -0.004856 0.011854 0.000000 0.000000 0.000000
# 4 0.000000 0.000000 0.000000 0.088077 0.000000 0.000000
# 5 0.000000 0.000000 0.000000 0.000000 0.031454 0.000000
# 6 0.000000 0.000000 0.000000 0.000000 0.000000 0.029996
#
#
# Mechanical properties :
#
#
# Convention : Reuss Voigt Hill
#
# Bulk Modulus (GPa) = 66.84948 71.55090 69.20019
# Shear Modulus (GPa) = 23.61543 28.76491 26.19017
#
# Velocity S-wave (km/s) = 3.44777 3.80515 3.63086
# Velocity P-wave (km/s) = 7.03555 7.43784 7.23949
#
# Compressibility (1/GPa) = 0.01495898
#
# Stress axis : x y z
#
# Youngs Moduli (GPa) = 72.24709 96.24240 84.36143
#
# Poissons Ratio (x) = 0.18019 0.32355
# Poissons Ratio (y) = 0.13526 0.40965
# Poissons Ratio (z) = 0.27709 0.46734
#
# Static dielectric constant tensor:
#      x y z
#    x 1.778640 0.000000 0.000000 
#    y 0.000000 1.752430 0.000000 
#    z 0.000000 0.000000 1.630610 
# 
# From -- ./inp_files/7395.got.cif
#   From: 2010.05.17/outbox.cif.g08.bks.cpg/sg54_4_cif.got.tgz:7395.got - 2010.06.03 13:09:01.
