data_PCOD9422690
_publ_section_title
;
Structure prediction by ZEFSAII (Michael W. Deem and Ramdas Pophale) SiO2 
 PCOD9422690
Probable space group: P C C A
;
_chemical_formula_sum "Si O2"
_cell_formula_units_Z 28
_cell_length_a 5.539524
_cell_length_b 8.016313
_cell_length_c 25.159599
_cell_angle_alpha 90.000000
_cell_angle_beta 90.000000
_cell_angle_gamma 90.000000
_cell_volume 1117.251199
_symmetry_space_group_name_H-M "P C C A"
_symmetry_group_IT_number 54
_symmetry_cell_setting 'orthorhombic'
loop_
_space_group_symop_operation_xyz
x,y,z
1/2-x,-y,z
1/2+x,-y,1/2-z
-x,y,1/2-z
-x,-y,-z
1/2+x,y,-z
1/2-x,y,1/2+z
x,-y,1/2+z
loop_
_atom_site_type_symbol
_atom_site_label
_atom_site_fract_x
_atom_site_fract_y
_atom_site_fract_z
Si Si1 0.569376 0.312775 0.519738
Si Si2 0.250000 0.000000 0.158624
Si Si3 0.500000 0.654724 0.250000
Si Si4 0.500000 0.147053 0.250000
Si Si5 0.428506 0.356234 0.629236
O O1 0.500000 0.500000 0.500000
O O2 0.304478 0.233012 0.507915
O O3 0.621927 0.326922 0.582885
O O4 0.298501 0.824030 0.131843
O O5 0.025128 0.966517 0.198163
O O6 0.759533 0.744941 0.249742
O O7 0.500203 0.586704 0.310963
O O8 0.250000 0.500000 0.609663
#
# Coordination Sequence:
#
# PCOD9422690 Si02
#       5
#     8   4   4   4   8
#     4  10  21  43  68  90 127 181 219 271 338 381
#     4  10  22  40  66  98 132 182 218 268 336 400
#     4  10  25  43  68 107 135 180 219 273 342 405
#     4  10  21  45  66  91 153 180 209 271 340 403
#     4  11  23  43  69 100 137 174 223 278 332 405
#
# _framework density 25.061509000000001
#
# number of rings (size 3 to 8) (size 9 to 14) (size 15 to 20)
#    0.000    1.714    2.857    3.429    0.000    9.143 
#    5.143    1.429    0.000    0.000    0.000    0.000 
#    0.000    0.000    0.000    0.000    0.000    0.000 
#
# Total GULP energy -156034.756111 kJ/mol
# GULP energy per Si atom -5572.669861 kJ/mol
# Density = 2.500447 g / cm^3
# Si number density = 25.061509 Si / 1000 Ang^3
#
#
#
# Elastic Constant Matrix: (Units=GPa)
#
#
# Indices 1 2 3 4 5 6 
#
# 1 174.4148 17.3037 15.7821 0.0000 0.0000 0.0000
# 2 17.3037 92.0291 3.7794 0.0000 0.0000 0.0000
# 3 15.7821 3.7794 172.7458 0.0000 0.0000 0.0000
# 4 0.0000 0.0000 0.0000 -38.0138 0.0000 0.0000
# 5 0.0000 0.0000 0.0000 0.0000 24.1768 0.0000
# 6 0.0000 0.0000 0.0000 0.0000 0.0000 34.4244
#
#
#
# Elastic Compliance Matrix: (Units=1/GPa)
#
#
# Indices 1 2 3 4 5 6 
#
# 1 0.005888 -0.001086 -0.000514 0.000000 0.000000 0.000000
# 2 -0.001086 0.011076 -0.000143 0.000000 0.000000 0.000000
# 3 -0.000514 -0.000143 0.005839 0.000000 0.000000 0.000000
# 4 0.000000 0.000000 0.000000 -0.026306 0.000000 0.000000
# 5 0.000000 0.000000 0.000000 0.000000 0.041362 0.000000
# 6 0.000000 0.000000 0.000000 0.000000 0.000000 0.029049
#
#
# Mechanical properties :
#
#
# Convention : Reuss Voigt Hill
#
# Bulk Modulus (GPa) = 51.76923 56.99111 54.38017
# Shear Modulus (GPa) = 65.07626 30.93911 48.00769
#
# Velocity S-wave (km/s) = 5.10127 3.51740 4.38150
# Velocity P-wave (km/s) = 7.44305 6.26785 6.88059
#
# Compressibility (1/GPa) = 0.01931649
#
# Stress axis : x y z
#
# Youngs Moduli (GPa) = 169.84517 90.28378 171.26345
#
# Poissons Ratio (x) = 0.09804 0.08805
# Poissons Ratio (y) = 0.18444 0.02451
# Poissons Ratio (z) = 0.08733 0.01292
#
# Static dielectric constant tensor:
#      x y z
#    x 2.082830 0.000000 0.000000 
#    y 0.000000 2.208720 0.000000 
#    z 0.000000 0.000000 2.000450 
# 
# From -- ./inp_files/25054.got.cif
#   From: 2010.05.17/outbox.cif.g08.bks.cpg/sg54_13_cif.got.tgz:25054.got - 2010.06.03 13:09:01.
