data_PCOD9422160
_publ_section_title
;
Structure prediction by ZEFSAII (Michael W. Deem and Ramdas Pophale) SiO2 
 PCOD9422160
Probable space group: P C C A
;
_chemical_formula_sum "Si O2"
_cell_formula_units_Z 60
_cell_length_a 5.089326
_cell_length_b 24.901865
_cell_length_c 24.610183
_cell_angle_alpha 90.000000
_cell_angle_beta 90.000000
_cell_angle_gamma 90.000000
_cell_volume 3118.939771
_symmetry_space_group_name_H-M "P C C A"
_symmetry_group_IT_number 54
_symmetry_cell_setting 'orthorhombic'
loop_
_space_group_symop_operation_xyz
x,y,z
1/2-x,-y,z
1/2+x,-y,1/2-z
-x,y,1/2-z
-x,-y,-z
1/2+x,y,-z
1/2-x,y,1/2+z
x,-y,1/2+z
loop_
_atom_site_type_symbol
_atom_site_label
_atom_site_fract_x
_atom_site_fract_y
_atom_site_fract_z
Si Si1 0.506815 0.618543 0.850387
Si Si2 0.000000 0.462423 0.750000
Si Si3 0.359062 0.211181 0.694359
Si Si4 0.898728 0.654386 0.037201
Si Si5 0.504363 0.223212 0.036741
Si Si6 0.248003 0.938225 0.289183
Si Si7 0.993211 0.666634 0.690013
Si Si8 0.844517 0.835466 0.142519
O O1 0.467413 0.573010 0.804887
O O2 0.434520 0.613171 0.913364
O O3 0.304892 0.665056 0.829748
O O4 0.812121 0.634099 0.848184
O O5 0.250000 0.500000 0.743014
O O6 0.500000 0.192021 0.750000
O O7 0.375458 0.275222 0.695439
O O8 0.563953 0.193352 0.648532
O O9 0.069904 0.189005 0.682574
O O10 0.947610 0.715830 0.058559
O O11 0.615823 0.649043 0.009829
O O12 0.553045 0.179104 0.082890
O O13 0.215888 0.218424 0.011599
O O14 0.500000 0.929935 0.250000
O O15 0.213325 0.895891 0.337743
O O16 0.000000 0.931533 0.250000
O O17 0.250000 0.000000 0.308625
O O18 0.000000 0.641584 0.750000
#
# Coordination Sequence:
#
# PCOD9422160 Si02
#       8
#     8   4   8   8   8   8   8   8
#     4  12  22  40  64  85 123 160 199 246 297 350
#     4  12  26  44  66  94 122 158 208 254 306 352
#     4  11  22  31  50  83 121 148 180 226 286 366
#     4  10  21  37  59  88 117 157 203 239 286 357
#     4  10  21  36  54  80 114 152 196 238 283 349
#     4  10  21  37  57  80 109 149 201 251 299 361
#     4  11  20  34  53  86 119 156 191 226 291 367
#     4  12  21  35  54  78 112 156 194 237 300 346
#
# _framework density 19.237306
#
# number of rings (size 3 to 8) (size 9 to 14) (size 15 to 20)
#    0.000    1.067    1.333    7.200    0.000    4.267 
#    0.000    0.000    0.000    3.200    0.000    0.000 
#    0.000    0.000    0.000    0.000    0.000    0.000 
#
# Total GULP energy -334976.828140 kJ/mol
# GULP energy per Si atom -5582.947136 kJ/mol
# Density = 1.919352 g / cm^3
# Si number density = 19.237306 Si / 1000 Ang^3
#
#
#
# Elastic Constant Matrix: (Units=GPa)
#
#
# Indices 1 2 3 4 5 6 
#
# 1 93.5587 17.6292 0.0720 0.0000 0.0000 0.0000
# 2 17.6292 80.4280 38.8549 0.0000 0.0000 0.0000
# 3 0.0720 38.8549 78.9607 0.0000 0.0000 0.0000
# 4 0.0000 0.0000 0.0000 10.1393 0.0000 0.0000
# 5 0.0000 0.0000 0.0000 0.0000 20.2406 0.0000
# 6 0.0000 0.0000 0.0000 0.0000 0.0000 23.0709
#
#
#
# Elastic Compliance Matrix: (Units=1/GPa)
#
#
# Indices 1 2 3 4 5 6 
#
# 1 0.011298 -0.003242 0.001585 0.000000 0.000000 0.000000
# 2 -0.003242 0.017241 -0.008481 0.000000 0.000000 0.000000
# 3 0.001585 -0.008481 0.016837 0.000000 0.000000 0.000000
# 4 0.000000 0.000000 0.000000 0.098626 0.000000 0.000000
# 5 0.000000 0.000000 0.000000 0.000000 0.049406 0.000000
# 6 0.000000 0.000000 0.000000 0.000000 0.000000 0.043345
#
#
# Mechanical properties :
#
#
# Convention : Reuss Voigt Hill
#
# Bulk Modulus (GPa) = 39.84140 40.67328 40.25734
# Shear Modulus (GPa) = 18.83980 23.78290 21.31135
#
# Velocity S-wave (km/s) = 3.13283 3.51991 3.33199
# Velocity P-wave (km/s) = 5.81735 6.14072 5.98122
#
# Compressibility (1/GPa) = 0.02509952
#
# Stress axis : x y z
#
# Youngs Moduli (GPa) = 88.50970 57.99982 59.39477
#
# Poissons Ratio (x) = 0.18805 -0.09415
# Poissons Ratio (y) = 0.28697 0.50374
# Poissons Ratio (z) = -0.14030 0.49191
#
# Static dielectric constant tensor:
#      x y z
#    x 1.689860 0.000000 0.000000 
#    y 0.000000 1.704410 0.000000 
#    z 0.000000 0.000000 1.705040 
# 
# From -- ./inp_files/19887.got.cif
#   From: 2010.05.17/outbox.cif.g08.bks.cpg/sg54_10_cif.got.tgz:19887.got - 2010.06.03 13:09:01.
