data_PCOD9422878
_publ_section_title
;
Structure prediction by ZEFSAII (Michael W. Deem and Ramdas Pophale) SiO2 
 PCOD9422878
Probable space group: P C C A
;
_chemical_formula_sum "Si O2"
_cell_formula_units_Z 32
_cell_length_a 6.141485
_cell_length_b 13.146897
_cell_length_c 17.455227
_cell_angle_alpha 90.000000
_cell_angle_beta 90.000000
_cell_angle_gamma 90.000000
_cell_volume 1409.360700
_symmetry_space_group_name_H-M "P C C A"
_symmetry_group_IT_number 54
_symmetry_cell_setting 'orthorhombic'
loop_
_space_group_symop_operation_xyz
x,y,z
1/2-x,-y,z
1/2+x,-y,1/2-z
-x,y,1/2-z
-x,-y,-z
1/2+x,y,-z
1/2-x,y,1/2+z
x,-y,1/2+z
loop_
_atom_site_type_symbol
_atom_site_label
_atom_site_fract_x
_atom_site_fract_y
_atom_site_fract_z
Si Si1 0.676812 0.893761 0.194442
Si Si2 0.999260 0.533795 0.088811
Si Si3 0.995695 0.224494 0.899955
Si Si4 0.380472 0.896100 0.055626
O O1 0.500000 0.846483 0.250000
O O2 0.863917 0.817604 0.169738
O O3 0.571367 0.925382 0.113085
O O4 0.750000 0.000000 0.232409
O O5 0.250000 0.500000 0.117741
O O6 0.750000 0.500000 0.118287
O O7 0.993542 0.655719 0.092667
O O8 0.000000 0.500000 0.000000
O O9 0.754572 0.182690 0.892998
O O10 0.064306 0.167407 0.979522
O O11 0.250000 0.000000 0.039441
#
# Coordination Sequence:
#
# PCOD9422878 Si02
#       4
#     8   8   8   8
#     4  12  27  44  63  97 145 193 235 287 361 447
#     4  10  22  39  63 103 146 176 225 303 359 420
#     4  12  24  38  70 104 136 185 236 301 364 428
#     4  12  22  39  64 100 139 175 234 297 354 434
#
# _framework density 22.705328999999999
#
# number of rings (size 3 to 8) (size 9 to 14) (size 15 to 20)
#    0.000    0.500    5.000    5.250    3.500    0.000 
#    0.000    0.000    0.000    0.000    6.500    0.000 
#    0.000    0.000    0.000    0.000    0.000    0.000 
#
# Total GULP energy -178470.383771 kJ/mol
# GULP energy per Si atom -5577.199493 kJ/mol
# Density = 2.265365 g / cm^3
# Si number density = 22.705329 Si / 1000 Ang^3
#
#
#
# Elastic Constant Matrix: (Units=GPa)
#
#
# Indices 1 2 3 4 5 6 
#
# 1 131.4655 47.1416 36.2224 0.0000 0.0000 0.0000
# 2 47.1416 188.6085 15.5105 0.0000 0.0000 0.0000
# 3 36.2224 15.5105 70.5936 0.0000 0.0000 0.0000
# 4 0.0000 0.0000 0.0000 -0.1177 0.0000 0.0000
# 5 0.0000 0.0000 0.0000 0.0000 51.4735 0.0000
# 6 0.0000 0.0000 0.0000 0.0000 0.0000 26.2680
#
#
#
# Elastic Compliance Matrix: (Units=1/GPa)
#
#
# Indices 1 2 3 4 5 6 
#
# 1 0.009561 -0.002023 -0.004462 0.000000 0.000000 0.000000
# 2 -0.002023 0.005828 -0.000242 0.000000 0.000000 0.000000
# 3 -0.004462 -0.000242 0.016508 0.000000 0.000000 0.000000
# 4 0.000000 0.000000 0.000000 -8.497720 0.000000 0.000000
# 5 0.000000 0.000000 0.000000 0.000000 0.019427 0.000000
# 6 0.000000 0.000000 0.000000 0.000000 0.000000 0.038069
#
#
# Mechanical properties :
#
#
# Convention : Reuss Voigt Hill
#
# Bulk Modulus (GPa) = 54.22052 65.37963 59.80008
# Shear Modulus (GPa) = -0.59604 34.97763 17.19080
#
# Velocity S-wave (km/s) = -0.51291 3.92918 2.75458
# Velocity P-wave (km/s) = 4.85604 7.03150 6.04248
#
# Compressibility (1/GPa) = 0.01844320
#
# Stress axis : x y z
#
# Youngs Moduli (GPa) = 104.58934 171.59929 60.57626
#
# Poissons Ratio (x) = 0.34712 0.27026
# Poissons Ratio (y) = 0.21157 0.01469
# Poissons Ratio (z) = 0.46663 0.04160
#
# Static dielectric constant tensor:
#      x y z
#    x 2.171170 0.000000 0.000000 
#    y 0.000000 1.869080 0.000000 
#    z 0.000000 0.000000 1.740930 
# 
# From -- ./inp_files/15708.got.cif
#   From: 2010.05.17/outbox.cif.g08.bks.cpg/sg54_8_cif.got.tgz:15708.got - 2010.06.03 13:09:01.
