data_PCOD9422564
_publ_section_title
;
Structure prediction by ZEFSAII (Michael W. Deem and Ramdas Pophale) SiO2 
 PCOD9422564
Probable space group: P C C A
;
_chemical_formula_sum "Si O2"
_cell_formula_units_Z 52
_cell_length_a 9.615174
_cell_length_b 14.778071
_cell_length_c 16.139126
_cell_angle_alpha 90.000000
_cell_angle_beta 90.000000
_cell_angle_gamma 90.000000
_cell_volume 2293.268516
_symmetry_space_group_name_H-M "P C C A"
_symmetry_group_IT_number 54
_symmetry_cell_setting 'orthorhombic'
loop_
_space_group_symop_operation_xyz
x,y,z
1/2-x,-y,z
1/2+x,-y,1/2-z
-x,y,1/2-z
-x,-y,-z
1/2+x,y,-z
1/2-x,y,1/2+z
x,-y,1/2+z
loop_
_atom_site_type_symbol
_atom_site_label
_atom_site_fract_x
_atom_site_fract_y
_atom_site_fract_z
Si Si1 0.213009 0.897257 0.609011
Si Si2 0.980915 0.707495 0.047960
Si Si3 0.966921 0.107482 0.001485
Si Si4 0.186645 0.332334 0.404840
Si Si5 0.194037 0.407383 0.655799
Si Si6 0.750000 0.500000 0.187162
Si Si7 0.161495 0.752861 0.733999
O O1 0.304845 0.883344 0.524796
O O2 0.053420 0.874641 0.585448
O O3 0.241690 0.831207 0.685192
O O4 0.250000 0.000000 0.632662
O O5 0.073283 0.648102 0.110962
O O6 0.827862 0.667738 0.042835
O O7 0.063517 0.700166 0.961988
O O8 0.973466 0.816187 0.061797
O O9 0.000000 0.000000 0.000000
O O10 0.162911 0.431827 0.368276
O O11 0.216804 0.269689 0.325462
O O12 0.250000 0.500000 0.613168
O O13 0.157178 0.443199 0.748297
O O14 0.316646 0.336233 0.677059
O O15 0.000000 0.771281 0.750000
#
# Coordination Sequence:
#
# PCOD9422564 Si02
#       7
#     8   8   8   8   8   4   8
#     4  10  21  42  71 105 142 185 236 291 360 433
#     4  12  24  44  71 104 140 190 248 303 361 442
#     4  10  21  40  70 104 142 183 229 290 358 427
#     4  11  27  43  70 100 142 188 248 297 369 425
#     4   9  22  43  68  96 138 188 236 298 359 443
#     4   8  22  46  60 104 132 190 226 298 372 416
#     4  11  23  44  68  99 144 190 234 303 369 430
#
# _framework density 22.675059999999998
#
# number of rings (size 3 to 8) (size 9 to 14) (size 15 to 20)
#    0.462    1.231    1.538    1.846    3.231    5.538 
#    0.000    4.615    0.000    0.000    0.000    0.000 
#    0.000    0.000    0.000    0.000    0.000    0.000 
#
# Total GULP energy -289573.290325 kJ/mol
# GULP energy per Si atom -5568.717122 kJ/mol
# Density = 2.262345 g / cm^3
# Si number density = 22.675060 Si / 1000 Ang^3
#
#
#
# Elastic Constant Matrix: (Units=GPa)
#
#
# Indices 1 2 3 4 5 6 
#
# 1 83.8036 44.9530 46.7354 0.0000 0.0000 0.0000
# 2 44.9530 141.3964 54.5026 0.0000 0.0000 0.0000
# 3 46.7354 54.5026 96.6326 0.0000 0.0000 0.0000
# 4 0.0000 0.0000 0.0000 17.0299 0.0000 0.0000
# 5 0.0000 0.0000 0.0000 0.0000 25.2243 0.0000
# 6 0.0000 0.0000 0.0000 0.0000 0.0000 17.6648
#
#
#
# Elastic Compliance Matrix: (Units=1/GPa)
#
#
# Indices 1 2 3 4 5 6 
#
# 1 0.017219 -0.002893 -0.006696 0.000000 0.000000 0.000000
# 2 -0.002893 0.009523 -0.003972 0.000000 0.000000 0.000000
# 3 -0.006696 -0.003972 0.015827 0.000000 0.000000 0.000000
# 4 0.000000 0.000000 0.000000 0.058720 0.000000 0.000000
# 5 0.000000 0.000000 0.000000 0.000000 0.039644 0.000000
# 6 0.000000 0.000000 0.000000 0.000000 0.000000 0.056610
#
#
# Mechanical properties :
#
#
# Convention : Reuss Voigt Hill
#
# Bulk Modulus (GPa) = 64.73767 68.24605 66.49186
# Shear Modulus (GPa) = 21.75667 23.69322 22.72495
#
# Velocity S-wave (km/s) = 3.10094 3.23600 3.16919
# Velocity P-wave (km/s) = 6.43686 6.64267 6.54058
#
# Compressibility (1/GPa) = 0.01544696
#
# Stress axis : x y z
#
# Youngs Moduli (GPa) = 58.07633 105.00702 63.18274
#
# Poissons Ratio (x) = 0.30381 0.42306
# Poissons Ratio (y) = 0.16803 0.25096
# Poissons Ratio (z) = 0.38887 0.41708
#
# Static dielectric constant tensor:
#      x y z
#    x 1.884440 0.000000 0.000000 
#    y 0.000000 1.930900 0.000000 
#    z 0.000000 0.000000 1.867990 
# 
# From -- ./inp_files/17401.got.cif
#   From: 2010.05.17/outbox.cif.g08.bks.cpg/sg54_9_cif.got.tgz:17401.got - 2010.06.03 13:09:01.
