data_PCOD9422785
_publ_section_title
;
Structure prediction by ZEFSAII (Michael W. Deem and Ramdas Pophale) SiO2 
 PCOD9422785
Probable space group: P C C A
;
_chemical_formula_sum "Si O2"
_cell_formula_units_Z 52
_cell_length_a 5.199796
_cell_length_b 29.814724
_cell_length_c 16.796353
_cell_angle_alpha 90.000000
_cell_angle_beta 90.000000
_cell_angle_gamma 90.000000
_cell_volume 2603.946711
_symmetry_space_group_name_H-M "P C C A"
_symmetry_group_IT_number 54
_symmetry_cell_setting 'orthorhombic'
loop_
_space_group_symop_operation_xyz
x,y,z
1/2-x,-y,z
1/2+x,-y,1/2-z
-x,y,1/2-z
-x,-y,-z
1/2+x,y,-z
1/2-x,y,1/2+z
x,-y,1/2+z
loop_
_atom_site_type_symbol
_atom_site_label
_atom_site_fract_x
_atom_site_fract_y
_atom_site_fract_z
Si Si1 0.250000 0.000000 0.556626
Si Si2 0.499406 0.327624 0.948648
Si Si3 0.859861 0.262983 0.324230
Si Si4 0.228034 0.903425 0.553916
Si Si5 0.500000 0.661827 0.750000
Si Si6 0.650430 0.193351 0.444212
Si Si7 0.750000 0.500000 0.194280
Si Si8 0.350837 0.597637 0.335204
O O1 0.256685 0.951242 0.598240
O O2 0.500000 0.000000 0.500000
O O3 0.451154 0.287744 0.885732
O O4 0.490376 0.375390 0.904290
O O5 0.279211 0.323066 0.013779
O O6 0.709335 0.304960 0.286317
O O7 0.687056 0.230068 0.376069
O O8 0.000000 0.239929 0.250000
O O9 0.439452 0.903050 0.481902
O O10 0.297979 0.856105 0.593393
O O11 0.604552 0.628498 0.682668
O O12 0.378619 0.197441 0.489555
O O13 0.500000 0.493020 0.250000
O O14 0.790469 0.453909 0.146936
O O15 0.500000 0.597834 0.250000
#
# Coordination Sequence:
#
# PCOD9422785 Si02
#       8
#     4   8   8   8   4   8   4   8
#     4   8  12  20  40  68  98 134 178 222 270 326
#     4  12  25  40  61  88 119 153 187 232 288 338
#     4  12  25  38  59  85 112 153 198 240 280 338
#     4   8  14  26  44  69 104 141 177 224 278 330
#     4  12  20  40  64  84 118 142 200 238 282 316
#     4  10  22  38  55  80 118 153 186 234 294 345
#     4  10  22  36  68  94 116 148 192 234 278 330
#     4  11  22  42  64  93 117 153 191 238 277 342
#
# _framework density 19.969688000000001
#
# number of rings (size 3 to 8) (size 9 to 14) (size 15 to 20)
#    0.000    1.538    3.846    1.846    2.154    0.000 
#    0.000    0.769    0.000    0.000    0.000    0.000 
#    2.308    0.000    0.000    0.000    0.308    0.000 
#
# Total GULP energy -290049.577506 kJ/mol
# GULP energy per Si atom -5577.876490 kJ/mol
# Density = 1.992424 g / cm^3
# Si number density = 19.969688 Si / 1000 Ang^3
#
#
#
# Elastic Constant Matrix: (Units=GPa)
#
#
# Indices 1 2 3 4 5 6 
#
# 1 74.1489 -6.6639 0.6325 0.0000 0.0000 0.0000
# 2 -6.6639 128.0675 19.5916 0.0000 0.0000 0.0000
# 3 0.6325 19.5916 38.5682 0.0000 0.0000 0.0000
# 4 0.0000 0.0000 0.0000 22.0226 0.0000 0.0000
# 5 0.0000 0.0000 0.0000 0.0000 15.5378 0.0000
# 6 0.0000 0.0000 0.0000 0.0000 0.0000 20.2700
#
#
#
# Elastic Compliance Matrix: (Units=1/GPa)
#
#
# Indices 1 2 3 4 5 6 
#
# 1 0.013564 0.000802 -0.000630 0.000000 0.000000 0.000000
# 2 0.000802 0.008514 -0.004338 0.000000 0.000000 0.000000
# 3 -0.000630 -0.004338 0.028142 0.000000 0.000000 0.000000
# 4 0.000000 0.000000 0.000000 0.045408 0.000000 0.000000
# 5 0.000000 0.000000 0.000000 0.000000 0.064359 0.000000
# 6 0.000000 0.000000 0.000000 0.000000 0.000000 0.049334
#
#
# Mechanical properties :
#
#
# Convention : Reuss Voigt Hill
#
# Bulk Modulus (GPa) = 23.87305 29.76722 26.82013
# Shear Modulus (GPa) = 21.58758 26.71438 24.15098
#
# Velocity S-wave (km/s) = 3.29145 3.66149 3.48139
# Velocity P-wave (km/s) = 5.14057 5.72834 5.44240
#
# Compressibility (1/GPa) = 0.04188824
#
# Stress axis : x y z
#
# Youngs Moduli (GPa) = 73.72545 117.45736 35.53411
#
# Poissons Ratio (x) = -0.09422 0.02238
# Poissons Ratio (y) = -0.05914 0.15414
# Poissons Ratio (z) = 0.04644 0.50952
#
# Static dielectric constant tensor:
#      x y z
#    x 1.754870 0.000000 0.000000 
#    y 0.000000 1.776180 0.000000 
#    z 0.000000 0.000000 1.704790 
# 
# From -- ./inp_files/15994.got.cif
#   From: 2010.05.17/outbox.cif.g08.bks.cpg/sg54_8_cif.got.tgz:15994.got - 2010.06.03 13:09:01.
