data_PCOD9422885
_publ_section_title
;
Structure prediction by ZEFSAII (Michael W. Deem and Ramdas Pophale) SiO2 
 PCOD9422885
Probable space group: P C C A
;
_chemical_formula_sum "Si O2"
_cell_formula_units_Z 60
_cell_length_a 26.240241
_cell_length_b 12.020425
_cell_length_c 8.981793
_cell_angle_alpha 90.000000
_cell_angle_beta 90.000000
_cell_angle_gamma 90.000000
_cell_volume 2833.026809
_symmetry_space_group_name_H-M "P C C A"
_symmetry_group_IT_number 54
_symmetry_cell_setting 'orthorhombic'
loop_
_space_group_symop_operation_xyz
x,y,z
1/2-x,-y,z
1/2+x,-y,1/2-z
-x,y,1/2-z
-x,-y,-z
1/2+x,y,-z
1/2-x,y,1/2+z
x,-y,1/2+z
loop_
_atom_site_type_symbol
_atom_site_label
_atom_site_fract_x
_atom_site_fract_y
_atom_site_fract_z
Si Si1 0.721643 0.599696 0.063419
Si Si2 0.628585 0.027913 0.267783
Si Si3 0.500000 0.775796 0.250000
Si Si4 0.089157 0.612389 0.651259
Si Si5 0.420846 0.142920 0.967590
Si Si6 0.302037 0.291451 0.639856
Si Si7 0.700651 0.932521 0.517750
Si Si8 0.389981 0.598009 0.486495
O O1 0.750000 0.500000 0.149519
O O2 0.707026 0.693462 0.184581
O O3 0.669112 0.578731 0.976416
O O4 0.764664 0.629051 0.947360
O O5 0.584330 0.080986 0.372434
O O6 0.660916 0.099284 0.148578
O O7 0.610918 0.922881 0.164099
O O8 0.669200 0.001651 0.396071
O O9 0.542708 0.696568 0.324152
O O10 0.525000 0.845531 0.115766
O O11 0.139293 0.680442 0.598912
O O12 0.077838 0.498687 0.564786
O O13 0.105293 0.571615 0.813502
O O14 0.403730 0.271180 0.999335
O O15 0.284849 0.173825 0.577365
O O16 0.750000 0.000000 0.572618
#
# Coordination Sequence:
#
# PCOD9422885 Si02
#       8
#     8   8   4   8   8   8   8   8
#     4  11  22  37  59  91 129 177 215 261 323 406
#     4  10  23  43  61  91 133 168 225 278 331 391
#     4  10  22  44  74  98 130 172 220 286 362 400
#     4  10  22  41  64  97 134 170 220 278 337 411
#     4  10  23  43  69  94 129 171 222 285 341 402
#     4  11  25  38  61  92 134 175 221 270 320 399
#     4  11  24  38  61  92 131 179 222 271 322 393
#     4  10  22  39  63  94 136 173 212 271 335 402
#
# _framework density 21.178761999999999
#
# number of rings (size 3 to 8) (size 9 to 14) (size 15 to 20)
#    0.000    1.600    1.333    3.200    9.333    3.733 
#    0.000    0.000    0.000   10.400    0.000    0.000 
#    0.000    0.000    0.000    0.000    0.000    0.000 
#
# Total GULP energy -334141.473177 kJ/mol
# GULP energy per Si atom -5569.024553 kJ/mol
# Density = 2.113056 g / cm^3
# Si number density = 21.178762 Si / 1000 Ang^3
#
#
#
# Elastic Constant Matrix: (Units=GPa)
#
#
# Indices 1 2 3 4 5 6 
#
# 1 71.7864 -5.3752 4.7879 0.0000 0.0000 0.0000
# 2 -5.3752 44.0075 9.8484 0.0000 0.0000 0.0000
# 3 4.7879 9.8484 76.6845 0.0000 0.0000 0.0000
# 4 0.0000 0.0000 0.0000 26.2675 0.0000 0.0000
# 5 0.0000 0.0000 0.0000 0.0000 20.4516 0.0000
# 6 0.0000 0.0000 0.0000 0.0000 0.0000 2.5261
#
#
#
# Elastic Compliance Matrix: (Units=1/GPa)
#
#
# Indices 1 2 3 4 5 6 
#
# 1 0.014155 0.001984 -0.001139 0.000000 0.000000 0.000000
# 2 0.001984 0.023674 -0.003164 0.000000 0.000000 0.000000
# 3 -0.001139 -0.003164 0.013518 0.000000 0.000000 0.000000
# 4 0.000000 0.000000 0.000000 0.038070 0.000000 0.000000
# 5 0.000000 0.000000 0.000000 0.000000 0.048896 0.000000
# 6 0.000000 0.000000 0.000000 0.000000 0.000000 0.395870
#
#
# Mechanical properties :
#
#
# Convention : Reuss Voigt Hill
#
# Bulk Modulus (GPa) = 21.40948 23.44451 22.42699
# Shear Modulus (GPa) = 9.01893 22.06352 15.54122
#
# Velocity S-wave (km/s) = 2.06585 3.23116 2.71183
# Velocity P-wave (km/s) = 3.97758 5.00143 4.51860
#
# Compressibility (1/GPa) = 0.04670829
#
# Stress axis : x y z
#
# Youngs Moduli (GPa) = 70.64798 42.24075 73.97599
#
# Poissons Ratio (x) = -0.08379 0.08422
# Poissons Ratio (y) = -0.14014 0.23408
# Poissons Ratio (z) = 0.08044 0.13366
#
# Static dielectric constant tensor:
#      x y z
#    x 2.139030 0.000000 0.000000 
#    y 0.000000 1.935150 0.000000 
#    z 0.000000 0.000000 1.782600 
# 
# From -- ./inp_files/5584.got.cif
#   From: 2010.05.17/outbox.cif.g08.bks.cpg/sg54_3_cif.got.tgz:5584.got - 2010.06.03 13:09:01.
