data_PCOD9422334
_publ_section_title
;
Structure prediction by ZEFSAII (Michael W. Deem and Ramdas Pophale) SiO2 
 PCOD9422334
Probable space group: P C C A
;
_chemical_formula_sum "Si O2"
_cell_formula_units_Z 20
_cell_length_a 5.359414
_cell_length_b 8.034707
_cell_length_c 18.742754
_cell_angle_alpha 90.000000
_cell_angle_beta 90.000000
_cell_angle_gamma 90.000000
_cell_volume 807.087750
_symmetry_space_group_name_H-M "P C C A"
_symmetry_group_IT_number 54
_symmetry_cell_setting 'orthorhombic'
loop_
_space_group_symop_operation_xyz
x,y,z
1/2-x,-y,z
1/2+x,-y,1/2-z
-x,y,1/2-z
-x,-y,-z
1/2+x,y,-z
1/2-x,y,1/2+z
x,-y,1/2+z
loop_
_atom_site_type_symbol
_atom_site_label
_atom_site_fract_x
_atom_site_fract_y
_atom_site_fract_z
Si Si1 0.250000 0.500000 0.297169
Si Si2 0.919452 0.842678 0.667660
Si Si3 0.229408 0.805119 0.532833
O O1 0.500000 0.496095 0.250000
O O2 0.236810 0.326869 0.338262
O O3 0.000000 0.866109 0.750000
O O4 0.154335 0.812631 0.615945
O O5 0.750000 0.000000 0.647120
O O6 0.491996 0.730513 0.508940
O O7 0.250000 0.000000 0.511891
#
# Coordination Sequence:
#
# PCOD9422334 Si02
#       3
#     4   8   8
#     4  10  24  42  60  92 132 160 200 266 318 358
#     4  11  22  39  67  95 122 165 213 256 307 373
#     4  10  21  38  61  91 127 164 203 254 313 367
#
# _framework density 24.780453999999999
#
# number of rings (size 3 to 8) (size 9 to 14) (size 15 to 20)
#    0.000    1.600    0.000    6.000    0.000    9.600 
#    0.000    2.000    0.000    0.000    0.000    2.800 
#    0.000    0.000    0.000    0.000    0.000    0.000 
#
# Total GULP energy -111895.815093 kJ/mol
# GULP energy per Si atom -5594.790755 kJ/mol
# Density = 2.472405 g / cm^3
# Si number density = 24.780454 Si / 1000 Ang^3
#
#
#
# Elastic Constant Matrix: (Units=GPa)
#
#
# Indices 1 2 3 4 5 6 
#
# 1 180.4141 22.7444 62.8204 0.0000 0.0000 0.0000
# 2 22.7444 144.4475 -7.1499 0.0000 0.0000 0.0000
# 3 62.8204 -7.1499 192.2012 0.0000 0.0000 0.0000
# 4 0.0000 0.0000 0.0000 -9.5466 0.0000 0.0000
# 5 0.0000 0.0000 0.0000 0.0000 41.7646 0.0000
# 6 0.0000 0.0000 0.0000 0.0000 0.0000 18.2791
#
#
#
# Elastic Compliance Matrix: (Units=1/GPa)
#
#
# Indices 1 2 3 4 5 6 
#
# 1 0.006430 -0.001119 -0.002143 0.000000 0.000000 0.000000
# 2 -0.001119 0.007130 0.000631 0.000000 0.000000 0.000000
# 3 -0.002143 0.000631 0.005927 0.000000 0.000000 0.000000
# 4 0.000000 0.000000 0.000000 -0.104749 0.000000 0.000000
# 5 0.000000 0.000000 0.000000 0.000000 0.023944 0.000000
# 6 0.000000 0.000000 0.000000 0.000000 0.000000 0.054707
#
#
# Mechanical properties :
#
#
# Convention : Reuss Voigt Hill
#
# Bulk Modulus (GPa) = 70.29734 74.87696 72.58715
# Shear Modulus (GPa) = 1473.85963 39.34263 756.60113
#
# Velocity S-wave (km/s) = 24.41430 3.98885 17.49241
# Velocity P-wave (km/s) = 28.69101 7.17609 20.91256
#
# Compressibility (1/GPa) = 0.01422529
#
# Stress axis : x y z
#
# Youngs Moduli (GPa) = 155.51836 140.24685 168.72307
#
# Poissons Ratio (x) = 0.15687 0.36162
# Poissons Ratio (y) = 0.17396 -0.10644
# Poissons Ratio (z) = 0.33332 -0.08847
#
# Static dielectric constant tensor:
#      x y z
#    x 6.387290 0.000000 0.000000 
#    y 0.000000 1.946930 0.000000 
#    z 0.000000 0.000000 2.006800 
# 
# From -- ./inp_files/15530.got.cif
#   From: 2010.05.17/outbox.cif.g08.bks.cpg/sg54_8_cif.got.tgz:15530.got - 2010.06.03 13:09:01.
