data_PCOD9422170
_publ_section_title
;
Structure prediction by ZEFSAII (Michael W. Deem and Ramdas Pophale) SiO2 
 PCOD9422170
Probable space group: P C C A
;
_chemical_formula_sum "Si O2"
_cell_formula_units_Z 64
_cell_length_a 24.478825
_cell_length_b 14.325488
_cell_length_c 9.729378
_cell_angle_alpha 90.000000
_cell_angle_beta 90.000000
_cell_angle_gamma 90.000000
_cell_volume 3411.811820
_symmetry_space_group_name_H-M "P C C A"
_symmetry_group_IT_number 54
_symmetry_cell_setting 'orthorhombic'
loop_
_space_group_symop_operation_xyz
x,y,z
1/2-x,-y,z
1/2+x,-y,1/2-z
-x,y,1/2-z
-x,-y,-z
1/2+x,y,-z
1/2-x,y,1/2+z
x,-y,1/2+z
loop_
_atom_site_type_symbol
_atom_site_label
_atom_site_fract_x
_atom_site_fract_y
_atom_site_fract_z
Si Si1 0.959764 0.487936 0.870603
Si Si2 0.926111 0.701506 0.467804
Si Si3 0.786802 0.091741 0.735089
Si Si4 0.859951 0.125880 0.975076
Si Si5 0.474508 0.194873 0.612465
Si Si6 0.316739 0.807187 0.237588
Si Si7 0.106751 0.649118 0.731892
Si Si8 0.876272 0.919188 0.000502
O O1 0.907309 0.554429 0.848452
O O2 0.000000 0.516485 0.750000
O O3 0.942286 0.380276 0.865101
O O4 0.000000 0.500000 0.000000
O O5 0.886717 0.781971 0.409928
O O6 0.901519 0.647955 0.602735
O O7 0.977928 0.759453 0.522947
O O8 0.745643 0.178221 0.718805
O O9 0.840759 0.088856 0.640364
O O10 0.750000 0.000000 0.708791
O O11 0.805676 0.098937 0.892697
O O12 0.850808 0.157077 0.131167
O O13 0.890715 0.027590 0.975786
O O14 0.500000 0.146500 0.750000
O O15 0.438437 0.278453 0.675646
O O16 0.432718 0.135733 0.520627
O O17 0.336195 0.702404 0.205458
O O18 0.335293 0.875229 0.114163
#
# Coordination Sequence:
#
# PCOD9422170 Si02
#       8
#     8   8   8   8   8   8   8   8
#     4  12  20  35  62  87 113 153 198 249 298 355
#     4  10  21  36  55  85 119 155 192 245 295 363
#     4  12  22  36  58  88 119 150 202 266 295 334
#     4  11  22  37  55  86 122 157 201 244 303 359
#     4   9  18  35  57  83 123 164 199 234 297 376
#     4  10  21  36  60  81 116 157 196 247 305 359
#     4   9  18  36  58  85 112 151 196 235 306 366
#     4  11  21  35  59  88 117 163 206 241 295 365
#
# _framework density 18.758361000000001
#
# number of rings (size 3 to 8) (size 9 to 14) (size 15 to 20)
#    0.000    1.500    5.000    1.875    0.000    1.500 
#    0.000    0.625    0.000    0.750    0.000    3.500 
#    0.000    0.000    0.000    0.000    0.000    0.000 
#
# Total GULP energy -356537.704683 kJ/mol
# GULP energy per Si atom -5570.901636 kJ/mol
# Density = 1.871567 g / cm^3
# Si number density = 18.758361 Si / 1000 Ang^3
#
#
#
# Elastic Constant Matrix: (Units=GPa)
#
#
# Indices 1 2 3 4 5 6 
#
# 1 61.8609 40.2567 8.5401 0.0000 0.0000 0.0000
# 2 40.2567 104.9869 16.7441 0.0000 0.0000 0.0000
# 3 8.5401 16.7441 49.7863 0.0000 0.0000 0.0000
# 4 0.0000 0.0000 0.0000 20.7385 0.0000 0.0000
# 5 0.0000 0.0000 0.0000 0.0000 27.0164 0.0000
# 6 0.0000 0.0000 0.0000 0.0000 0.0000 23.9653
#
#
#
# Elastic Compliance Matrix: (Units=1/GPa)
#
#
# Indices 1 2 3 4 5 6 
#
# 1 0.021585 -0.008122 -0.000971 0.000000 0.000000 0.000000
# 2 -0.008122 0.013121 -0.003020 0.000000 0.000000 0.000000
# 3 -0.000971 -0.003020 0.021268 0.000000 0.000000 0.000000
# 4 0.000000 0.000000 0.000000 0.048219 0.000000 0.000000
# 5 0.000000 0.000000 0.000000 0.000000 0.037015 0.000000
# 6 0.000000 0.000000 0.000000 0.000000 0.000000 0.041727
#
#
# Mechanical properties :
#
#
# Convention : Reuss Voigt Hill
#
# Bulk Modulus (GPa) = 31.49734 38.63510 35.06622
# Shear Modulus (GPa) = 22.96296 24.41692 23.68994
#
# Velocity S-wave (km/s) = 3.50257 3.61176 3.55759
# Velocity P-wave (km/s) = 5.76064 6.16717 5.96737
#
# Compressibility (1/GPa) = 0.03174872
#
# Stress axis : x y z
#
# Youngs Moduli (GPa) = 46.32932 76.21499 47.01904
#
# Poissons Ratio (x) = 0.61899 0.04566
# Poissons Ratio (y) = 0.37627 0.14198
# Poissons Ratio (z) = 0.04499 0.23014
#
# Static dielectric constant tensor:
#      x y z
#    x 1.575990 0.000000 0.000000 
#    y 0.000000 1.685840 0.000000 
#    z 0.000000 0.000000 1.640760 
# 
# From -- ./inp_files/5293.got.cif
#   From: 2010.05.17/outbox.cif.g08.bks.cpg/sg54_3_cif.got.tgz:5293.got - 2010.06.03 13:09:01.
