data_PCOD9422118
_publ_section_title
;
Structure prediction by ZEFSAII (Michael W. Deem and Ramdas Pophale) SiO2 
 PCOD9422118
Probable space group: P C C A
;
_chemical_formula_sum "Si O2"
_cell_formula_units_Z 36
_cell_length_a 13.462192
_cell_length_b 14.519549
_cell_length_c 8.085841
_cell_angle_alpha 90.000000
_cell_angle_beta 90.000000
_cell_angle_gamma 90.000000
_cell_volume 1580.498558
_symmetry_space_group_name_H-M "P C C A"
_symmetry_group_IT_number 54
_symmetry_cell_setting 'orthorhombic'
loop_
_space_group_symop_operation_xyz
x,y,z
1/2-x,-y,z
1/2+x,-y,1/2-z
-x,y,1/2-z
-x,-y,-z
1/2+x,y,-z
1/2-x,y,1/2+z
x,-y,1/2+z
loop_
_atom_site_type_symbol
_atom_site_label
_atom_site_fract_x
_atom_site_fract_y
_atom_site_fract_z
Si Si1 0.613725 0.098496 0.825383
Si Si2 0.770784 0.608306 0.732791
Si Si3 0.750000 0.000000 0.075074
Si Si4 0.536548 0.598647 0.061628
Si Si5 0.374678 0.711271 0.972716
O O1 0.500000 0.089673 0.750000
O O2 0.700179 0.081638 0.686327
O O3 0.623295 0.192793 0.929658
O O4 0.654799 0.026666 0.962606
O O5 0.750000 0.500000 0.751205
O O6 0.847120 0.609626 0.578033
O O7 0.686244 0.683149 0.689585
O O8 0.826938 0.641418 0.894913
O O9 0.500000 0.608352 0.250000
O O10 0.487324 0.677839 0.953941
O O11 0.500000 0.500000 0.000000
#
# Coordination Sequence:
#
# PCOD9422118 Si02
#       5
#     8   8   4   8   8
#     4  11  22  43  67  95 128 161 209 264 333 389
#     4  11  21  35  55  80 117 160 203 242 295 344
#     4  10  24  42  70  96 122 164 206 268 336 402
#     4  10  21  35  52  77 113 157 196 239 290 340
#     4  11  23  37  58  86 117 158 200 251 294 368
#
# _framework density 22.777622999999998
#
# number of rings (size 3 to 8) (size 9 to 14) (size 15 to 20)
#    0.000    1.333    2.222    4.667    3.111    0.000 
#    0.000    0.000    0.000    5.333    0.000    0.000 
#    0.000    0.000    0.000    0.000    0.000    0.000 
#
# Total GULP energy -200449.929603 kJ/mol
# GULP energy per Si atom -5568.053600 kJ/mol
# Density = 2.272578 g / cm^3
# Si number density = 22.777623 Si / 1000 Ang^3
#
#
#
# Elastic Constant Matrix: (Units=GPa)
#
#
# Indices 1 2 3 4 5 6 
#
# 1 70.5331 25.2418 18.6166 0.0000 0.0000 0.0000
# 2 25.2418 83.6924 5.6488 0.0000 0.0000 0.0000
# 3 18.6166 5.6488 56.3320 0.0000 0.0000 0.0000
# 4 0.0000 0.0000 0.0000 15.4458 0.0000 0.0000
# 5 0.0000 0.0000 0.0000 0.0000 7.9506 0.0000
# 6 0.0000 0.0000 0.0000 0.0000 0.0000 26.3416
#
#
#
# Elastic Compliance Matrix: (Units=1/GPa)
#
#
# Indices 1 2 3 4 5 6 
#
# 1 0.017299 -0.004864 -0.005229 0.000000 0.000000 0.000000
# 2 -0.004864 0.013398 0.000264 0.000000 0.000000 0.000000
# 3 -0.005229 0.000264 0.019454 0.000000 0.000000 0.000000
# 4 0.000000 0.000000 0.000000 0.064742 0.000000 0.000000
# 5 0.000000 0.000000 0.000000 0.000000 0.125776 0.000000
# 6 0.000000 0.000000 0.000000 0.000000 0.000000 0.037963
#
#
# Mechanical properties :
#
#
# Convention : Reuss Voigt Hill
#
# Bulk Modulus (GPa) = 32.79627 34.39689 33.59658
# Shear Modulus (GPa) = 16.20986 20.68429 18.44707
#
# Velocity S-wave (km/s) = 2.67058 3.01673 2.84892
# Velocity P-wave (km/s) = 4.89276 5.22190 5.06000
#
# Compressibility (1/GPa) = 0.03049127
#
# Stress axis : x y z
#
# Youngs Moduli (GPa) = 57.80764 74.63905 51.40449
#
# Poissons Ratio (x) = 0.36308 0.26880
# Poissons Ratio (y) = 0.28120 -0.01358
# Poissons Ratio (z) = 0.30228 -0.01971
#
# Static dielectric constant tensor:
#      x y z
#    x 1.887410 0.000000 0.000000 
#    y 0.000000 1.836150 0.000000 
#    z 0.000000 0.000000 1.876720 
# 
# From -- ./inp_files/3387.got.cif
#   From: 2010.05.17/outbox.cif.g08.bks.cpg/sg54_2_cif.got.tgz:3387.got - 2010.06.03 13:09:01.
