data_PCOD9422046
_publ_section_title
;
Structure prediction by ZEFSAII (Michael W. Deem and Ramdas Pophale) SiO2 
 PCOD9422046
Probable space group: P C C A
;
_chemical_formula_sum "Si O2"
_cell_formula_units_Z 32
_cell_length_a 10.573963
_cell_length_b 14.427263
_cell_length_c 8.286405
_cell_angle_alpha 90.000000
_cell_angle_beta 90.000000
_cell_angle_gamma 90.000000
_cell_volume 1264.118802
_symmetry_space_group_name_H-M "P C C A"
_symmetry_group_IT_number 54
_symmetry_cell_setting 'orthorhombic'
loop_
_space_group_symop_operation_xyz
x,y,z
1/2-x,-y,z
1/2+x,-y,1/2-z
-x,y,1/2-z
-x,-y,-z
1/2+x,y,-z
1/2-x,y,1/2+z
x,-y,1/2+z
loop_
_atom_site_type_symbol
_atom_site_label
_atom_site_fract_x
_atom_site_fract_y
_atom_site_fract_z
Si Si1 0.500000 0.778327 0.250000
Si Si2 0.750000 0.500000 0.389713
Si Si3 0.621015 0.123081 0.002533
Si Si4 0.500000 0.570269 0.750000
Si Si5 0.149461 0.679985 0.504040
Si Si6 0.750000 0.000000 0.741639
O O1 0.492350 0.842470 0.412298
O O2 0.609276 0.710608 0.314930
O O3 0.620364 0.492117 0.291646
O O4 0.753322 0.403486 0.485951
O O5 0.636806 0.044211 0.135331
O O6 0.679214 0.219203 0.068725
O O7 0.699270 0.081538 0.853942
O O8 0.536724 0.635716 0.600248
#
# Coordination Sequence:
#
# PCOD9422046 Si02
#       6
#     4   4   8   4   8   4
#     4   8  21  44  63  98 144 180 237 300 365 434
#     4  12  26  46  80 110 154 192 258 308 376 444
#     4   9  22  41  68  98 141 181 244 307 365 446
#     4  12  27  46  77 110 148 204 249 304 379 444
#     4  10  24  45  68 106 143 195 238 311 363 453
#     4  10  20  42  70 102 130 192 246 304 380 434
#
# _framework density 25.314076
#
# number of rings (size 3 to 8) (size 9 to 14) (size 15 to 20)
#    1.500    0.500    0.000    2.250    3.500    5.000 
#    4.500    0.000    0.000    0.000    0.000    0.000 
#    0.000    0.000    0.000    0.000    0.000    0.000 
#
# Total GULP energy -178251.393658 kJ/mol
# GULP energy per Si atom -5570.356052 kJ/mol
# Density = 2.525646 g / cm^3
# Si number density = 25.314076 Si / 1000 Ang^3
#
#
#
# Elastic Constant Matrix: (Units=GPa)
#
#
# Indices 1 2 3 4 5 6 
#
# 1 88.4306 46.6245 42.7166 0.0000 0.0000 0.0000
# 2 46.6245 191.2803 31.0632 0.0000 0.0000 0.0000
# 3 42.7166 31.0632 74.7170 0.0000 0.0000 0.0000
# 4 0.0000 0.0000 0.0000 40.2216 0.0000 0.0000
# 5 0.0000 0.0000 0.0000 0.0000 33.5836 0.0000
# 6 0.0000 0.0000 0.0000 0.0000 0.0000 33.3884
#
#
#
# Elastic Compliance Matrix: (Units=1/GPa)
#
#
# Indices 1 2 3 4 5 6 
#
# 1 0.016853 -0.002727 -0.008501 0.000000 0.000000 0.000000
# 2 -0.002727 0.006048 -0.000955 0.000000 0.000000 0.000000
# 3 -0.008501 -0.000955 0.018641 0.000000 0.000000 0.000000
# 4 0.000000 0.000000 0.000000 0.024862 0.000000 0.000000
# 5 0.000000 0.000000 0.000000 0.000000 0.029776 0.000000
# 6 0.000000 0.000000 0.000000 0.000000 0.000000 0.029950
#
#
# Mechanical properties :
#
#
# Convention : Reuss Voigt Hill
#
# Bulk Modulus (GPa) = 58.22524 66.13738 62.18131
# Shear Modulus (GPa) = 32.00563 37.04031 34.52297
#
# Velocity S-wave (km/s) = 3.55961 3.82937 3.69695
# Velocity P-wave (km/s) = 6.32025 6.76280 6.54527
#
# Compressibility (1/GPa) = 0.01717468
#
# Stress axis : x y z
#
# Youngs Moduli (GPa) = 59.33764 165.34889 53.64497
#
# Poissons Ratio (x) = 0.45096 0.45604
# Poissons Ratio (y) = 0.16183 0.05124
# Poissons Ratio (z) = 0.50443 0.15793
#
# Static dielectric constant tensor:
#      x y z
#    x 2.955570 0.000000 0.000000 
#    y 0.000000 2.031410 0.000000 
#    z 0.000000 0.000000 2.038690 
# 
# From -- ./inp_files/2847.got.cif
#   From: 2010.05.17/outbox.cif.g08.bks.cpg/sg54_2_cif.got.tgz:2847.got - 2010.06.03 13:09:01.
