data_PCOD9422228
_publ_section_title
;
Structure prediction by ZEFSAII (Michael W. Deem and Ramdas Pophale) SiO2 
 PCOD9422228
Probable space group: P C C A
;
_chemical_formula_sum "Si O2"
_cell_formula_units_Z 40
_cell_length_a 13.257721
_cell_length_b 8.395654
_cell_length_c 17.152565
_cell_angle_alpha 90.000000
_cell_angle_beta 90.000000
_cell_angle_gamma 90.000000
_cell_volume 1909.204641
_symmetry_space_group_name_H-M "P C C A"
_symmetry_group_IT_number 54
_symmetry_cell_setting 'orthorhombic'
loop_
_space_group_symop_operation_xyz
x,y,z
1/2-x,-y,z
1/2+x,-y,1/2-z
-x,y,1/2-z
-x,-y,-z
1/2+x,y,-z
1/2-x,y,1/2+z
x,-y,1/2+z
loop_
_atom_site_type_symbol
_atom_site_label
_atom_site_fract_x
_atom_site_fract_y
_atom_site_fract_z
Si Si1 0.129022 0.000552 0.770154
Si Si2 0.504133 0.251026 0.997710
Si Si3 0.369896 0.023042 0.088297
Si Si4 0.637608 0.323440 0.139604
Si Si5 0.877455 0.667233 0.648762
O O1 0.102999 0.015671 0.679441
O O2 0.097660 0.827906 0.803421
O O3 0.250000 0.000000 0.773224
O O4 0.102683 0.160760 0.818069
O O5 0.571259 0.112377 0.958815
O O6 0.451160 0.333945 0.925057
O O7 0.580383 0.332955 0.057439
O O8 0.412208 0.182957 0.049689
O O9 0.250000 0.000000 0.079863
O O10 0.616379 0.489463 0.185231
O O11 0.758614 0.314126 0.127158
#
# Coordination Sequence:
#
# PCOD9422228 Si02
#       5
#     8   8   8   8   8
#     4   9  19  38  60  80 110 151 190 231 281 332
#     4  11  21  34  58  85 115 150 187 231 282 337
#     4  10  21  37  59  86 114 148 189 233 282 335
#     4  10  21  38  59  84 115 150 189 233 281 333
#     4  10  21  38  59  84 115 150 189 233 281 333
#
# _framework density 20.951132999999999
#
# number of rings (size 3 to 8) (size 9 to 14) (size 15 to 20)
#    0.000    2.000    0.000    4.200    0.000    4.800 
#    0.000    6.000    0.000    9.600    0.000    0.000 
#    0.000    0.000    0.000    0.000    0.000    0.000 
#
# Total GULP energy -223064.715172 kJ/mol
# GULP energy per Si atom -5576.617879 kJ/mol
# Density = 2.090345 g / cm^3
# Si number density = 20.951133 Si / 1000 Ang^3
#
#
#
# Elastic Constant Matrix: (Units=GPa)
#
#
# Indices 1 2 3 4 5 6 
#
# 1 118.7182 24.0281 16.4336 0.0000 0.0000 0.0000
# 2 24.0281 114.5702 29.4174 0.0000 0.0000 0.0000
# 3 16.4336 29.4174 79.0589 0.0000 0.0000 0.0000
# 4 0.0000 0.0000 0.0000 2.8317 0.0000 0.0000
# 5 0.0000 0.0000 0.0000 0.0000 -41.7001 0.0000
# 6 0.0000 0.0000 0.0000 0.0000 0.0000 4.9736
#
#
#
# Elastic Compliance Matrix: (Units=1/GPa)
#
#
# Indices 1 2 3 4 5 6 
#
# 1 0.008912 -0.001541 -0.001279 0.000000 0.000000 0.000000
# 2 -0.001541 0.009917 -0.003370 0.000000 0.000000 0.000000
# 3 -0.001279 -0.003370 0.014169 0.000000 0.000000 0.000000
# 4 0.000000 0.000000 0.000000 0.353140 0.000000 0.000000
# 5 0.000000 0.000000 0.000000 0.000000 -0.023981 0.000000
# 6 0.000000 0.000000 0.000000 0.000000 0.000000 0.201060
#
#
# Mechanical properties :
#
#
# Convention : Reuss Voigt Hill
#
# Bulk Modulus (GPa) = 48.50087 50.23396 49.36741
# Shear Modulus (GPa) = 8.58416 9.38560 8.98488
#
# Velocity S-wave (km/s) = 2.02636 2.11884 2.07311
# Velocity P-wave (km/s) = 5.35487 5.47857 5.41707
#
# Compressibility (1/GPa) = 0.02061819
#
# Stress axis : x y z
#
# Youngs Moduli (GPa) = 112.20566 100.84116 70.57884
#
# Poissons Ratio (x) = 0.15536 0.09029
# Poissons Ratio (y) = 0.17287 0.23783
# Poissons Ratio (z) = 0.14354 0.33980
#
# Static dielectric constant tensor:
#      x y z
#    x 1.754200 0.000000 0.000000 
#    y 0.000000 1.803260 0.000000 
#    z 0.000000 0.000000 1.714260 
# 
# From -- ./inp_files/13211.got.cif
#   From: 2010.05.17/outbox.cif.g08.bks.cpg/sg54_7_cif.got.tgz:13211.got - 2010.06.03 13:09:01.
