data_PCOD9422292
_publ_section_title
;
Structure prediction by ZEFSAII (Michael W. Deem and Ramdas Pophale) SiO2 
 PCOD9422292
Probable space group: P C C A
;
_chemical_formula_sum "Si O2"
_cell_formula_units_Z 36
_cell_length_a 4.808469
_cell_length_b 26.523639
_cell_length_c 10.780246
_cell_angle_alpha 90.000000
_cell_angle_beta 90.000000
_cell_angle_gamma 90.000000
_cell_volume 1374.892048
_symmetry_space_group_name_H-M "P C C A"
_symmetry_group_IT_number 54
_symmetry_cell_setting 'orthorhombic'
loop_
_space_group_symop_operation_xyz
x,y,z
1/2-x,-y,z
1/2+x,-y,1/2-z
-x,y,1/2-z
-x,-y,-z
1/2+x,y,-z
1/2-x,y,1/2+z
x,-y,1/2+z
loop_
_atom_site_type_symbol
_atom_site_label
_atom_site_fract_x
_atom_site_fract_y
_atom_site_fract_z
Si Si1 0.821909 0.605830 0.910998
Si Si2 0.000000 0.863978 0.750000
Si Si3 0.804489 0.944397 0.418585
Si Si4 0.250000 0.500000 0.096081
Si Si5 0.500000 0.797629 0.750000
Si Si6 0.796328 0.715890 0.916543
O O1 0.258623 0.660596 0.144743
O O2 0.633963 0.604655 0.036314
O O3 0.758863 0.554219 0.837942
O O4 0.820403 0.899481 0.839781
O O5 0.750133 0.830740 0.689487
O O6 0.626998 0.942040 0.546628
O O7 0.750000 0.000000 0.364121
O O8 0.500000 0.500000 0.000000
O O9 0.677928 0.761622 0.838997
O O10 0.116234 0.718030 0.956623
#
# Coordination Sequence:
#
# PCOD9422292 Si02
#       6
#     8   4   8   4   4   8
#     4   8  14  25  44  70  99 136 178 228 288 344
#     4  12  26  41  64  94 125 158 200 248 292 340
#     4  10  23  43  67  94 123 157 194 237 294 353
#     4   8  12  20  38  68  98 124 172 228 280 348
#     4  12  26  39  58  90 119 162 208 244 292 342
#     4  10  21  38  57  79 114 156 199 246 296 351
#
# _framework density 26.183872999999998
#
# number of rings (size 3 to 8) (size 9 to 14) (size 15 to 20)
#    0.000    2.222    0.000    2.667    0.000    8.889 
#    0.000    0.000    0.000    0.000    0.000   24.889 
#    0.000    0.000    0.000    0.000    0.000    0.000 
#
# Total GULP energy -201208.547907 kJ/mol
# GULP energy per Si atom -5589.126331 kJ/mol
# Density = 2.612428 g / cm^3
# Si number density = 26.183873 Si / 1000 Ang^3
#
#
#
# Elastic Constant Matrix: (Units=GPa)
#
#
# Indices 1 2 3 4 5 6 
#
# 1 139.1405 25.6965 13.6399 0.0000 0.0000 0.0000
# 2 25.6965 187.6920 30.5039 0.0000 0.0000 0.0000
# 3 13.6399 30.5039 36.1740 0.0000 0.0000 0.0000
# 4 0.0000 0.0000 0.0000 113.8724 0.0000 0.0000
# 5 0.0000 0.0000 0.0000 0.0000 42.3257 0.0000
# 6 0.0000 0.0000 0.0000 0.0000 0.0000 40.6752
#
#
#
# Elastic Compliance Matrix: (Units=1/GPa)
#
#
# Indices 1 2 3 4 5 6 
#
# 1 0.007533 -0.000660 -0.002284 0.000000 0.000000 0.000000
# 2 -0.000660 0.006232 -0.005006 0.000000 0.000000 0.000000
# 3 -0.002284 -0.005006 0.032727 0.000000 0.000000 0.000000
# 4 0.000000 0.000000 0.000000 0.008782 0.000000 0.000000
# 5 0.000000 0.000000 0.000000 0.000000 0.023626 0.000000
# 6 0.000000 0.000000 0.000000 0.000000 0.000000 0.024585
#
#
# Mechanical properties :
#
#
# Convention : Reuss Voigt Hill
#
# Bulk Modulus (GPa) = 32.68890 55.85412 44.27151
# Shear Modulus (GPa) = 38.58580 58.91907 48.75244
#
# Velocity S-wave (km/s) = 3.84298 4.74878 4.31969
# Velocity P-wave (km/s) = 5.67475 7.17256 6.46716
#
# Compressibility (1/GPa) = 0.03059142
#
# Stress axis : x y z
#
# Youngs Moduli (GPa) = 132.75335 160.46584 30.55612
#
# Poissons Ratio (x) = 0.10593 0.06978
# Poissons Ratio (y) = 0.08764 0.15297
# Poissons Ratio (z) = 0.30316 0.80331
#
# Static dielectric constant tensor:
#      x y z
#    x 1.955130 0.000000 0.000000 
#    y 0.000000 2.154750 0.000000 
#    z 0.000000 0.000000 2.084320 
# 
# From -- ./inp_files/6406.got.cif
#   From: 2010.05.17/outbox.cif.g08.bks.cpg/sg54_4_cif.got.tgz:6406.got - 2010.06.03 13:09:01.
