data_PCOD9422519
_publ_section_title
;
Structure prediction by ZEFSAII (Michael W. Deem and Ramdas Pophale) SiO2 
 PCOD9422519
Probable space group: P C C A
;
_chemical_formula_sum "Si O2"
_cell_formula_units_Z 36
_cell_length_a 5.382793
_cell_length_b 17.552819
_cell_length_c 15.716749
_cell_angle_alpha 90.000000
_cell_angle_beta 90.000000
_cell_angle_gamma 90.000000
_cell_volume 1484.968601
_symmetry_space_group_name_H-M "P C C A"
_symmetry_group_IT_number 54
_symmetry_cell_setting 'orthorhombic'
loop_
_space_group_symop_operation_xyz
x,y,z
1/2-x,-y,z
1/2+x,-y,1/2-z
-x,y,1/2-z
-x,-y,-z
1/2+x,y,-z
1/2-x,y,1/2+z
x,-y,1/2+z
loop_
_atom_site_type_symbol
_atom_site_label
_atom_site_fract_x
_atom_site_fract_y
_atom_site_fract_z
Si Si1 0.250276 0.139335 0.556206
Si Si2 0.751558 0.612667 0.710432
Si Si3 0.750110 0.784211 0.782107
Si Si4 0.750000 0.000000 0.808544
Si Si5 0.940675 0.412261 0.024803
O O1 0.500461 0.136447 0.500094
O O2 0.250151 0.214276 0.616376
O O3 0.250037 0.071397 0.625489
O O4 0.500000 0.582228 0.750000
O O5 0.750711 0.702378 0.735076
O O6 0.786690 0.598434 0.611550
O O7 0.000000 0.580002 0.750000
O O8 0.500000 0.822909 0.750000
O O9 0.000000 0.823084 0.750000
O O10 0.500000 0.999966 0.750000
O O11 0.721856 0.380541 0.962953
O O12 0.000000 0.500000 0.000000
#
# Coordination Sequence:
#
# PCOD9422519 Si02
#       5
#     8   8   8   4   8
#     4  12  24  41  64  96 132 170 222 283 336 390
#     4  10  21  40  64  91 127 171 216 264 321 400
#     4  10  21  41  62  89 127 172 219 265 327 399
#     4  12  24  42  68  94 130 178 224 274 336 408
#     4  10  21  40  64  94 127 162 205 260 319 377
#
# _framework density 24.242939
#
# number of rings (size 3 to 8) (size 9 to 14) (size 15 to 20)
#    0.000    1.333    0.000    6.000    0.000    0.000 
#    0.000   35.556    0.000    0.000    0.000    0.000 
#    0.000    0.000    0.000    0.000    0.000    0.000 
#
# Total GULP energy -200947.305763 kJ/mol
# GULP energy per Si atom -5581.869605 kJ/mol
# Density = 2.418776 g / cm^3
# Si number density = 24.242939 Si / 1000 Ang^3
#
#
#
# Elastic Constant Matrix: (Units=GPa)
#
#
# Indices 1 2 3 4 5 6 
#
# 1 307.9259 10.6825 86.9215 0.0000 0.0000 0.0000
# 2 10.6825 117.6373 62.2981 0.0000 0.0000 0.0000
# 3 86.9215 62.2981 163.1109 0.0000 0.0000 0.0000
# 4 0.0000 0.0000 0.0000 56.8579 0.0000 0.0000
# 5 0.0000 0.0000 0.0000 0.0000 71.3967 0.0000
# 6 0.0000 0.0000 0.0000 0.0000 0.0000 -73.2380
#
#
#
# Elastic Compliance Matrix: (Units=1/GPa)
#
#
# Indices 1 2 3 4 5 6 
#
# 1 0.003903 0.000936 -0.002438 0.000000 0.000000 0.000000
# 2 0.000936 0.010881 -0.004655 0.000000 0.000000 0.000000
# 3 -0.002438 -0.004655 0.009208 0.000000 0.000000 0.000000
# 4 0.000000 0.000000 0.000000 0.017588 0.000000 0.000000
# 5 0.000000 0.000000 0.000000 0.000000 0.014006 0.000000
# 6 0.000000 0.000000 0.000000 0.000000 0.000000 -0.013654
#
#
# Mechanical properties :
#
#
# Convention : Reuss Voigt Hill
#
# Bulk Modulus (GPa) = 85.61940 100.94202 93.28071
# Shear Modulus (GPa) = 86.00440 39.58813 62.79627
#
# Velocity S-wave (km/s) = 5.96264 4.04539 5.09501
# Velocity P-wave (km/s) = 9.09934 7.97172 8.55413
#
# Compressibility (1/GPa) = 0.01167960
#
# Stress axis : x y z
#
# Youngs Moduli (GPa) = 256.20331 91.90550 108.60513
#
# Poissons Ratio (x) = -0.08607 0.26474
# Poissons Ratio (y) = -0.23993 0.50554
# Poissons Ratio (z) = 0.62454 0.42780
#
# Static dielectric constant tensor:
#      x y z
#    x -1.225740 0.000000 0.000000 
#    y 0.000000 -8.434990 0.000000 
#    z 0.000000 0.000000 1.977180 
# 
# From -- ./inp_files/6369.got.cif
#   From: 2010.05.17/outbox.cif.g08.bks.cpg/sg54_4_cif.got.tgz:6369.got - 2010.06.03 13:09:01.
