data_PCOD9422070
_publ_section_title
;
Structure prediction by ZEFSAII (Michael W. Deem and Ramdas Pophale) SiO2 
 PCOD9422070
Probable space group: P C C A
;
_chemical_formula_sum "Si O2"
_cell_formula_units_Z 56
_cell_length_a 14.749596
_cell_length_b 13.103001
_cell_length_c 14.731135
_cell_angle_alpha 90.000000
_cell_angle_beta 90.000000
_cell_angle_gamma 90.000000
_cell_volume 2846.997649
_symmetry_space_group_name_H-M "P C C A"
_symmetry_group_IT_number 54
_symmetry_cell_setting 'orthorhombic'
loop_
_space_group_symop_operation_xyz
x,y,z
1/2-x,-y,z
1/2+x,-y,1/2-z
-x,y,1/2-z
-x,-y,-z
1/2+x,y,-z
1/2-x,y,1/2+z
x,-y,1/2+z
loop_
_atom_site_type_symbol
_atom_site_label
_atom_site_fract_x
_atom_site_fract_y
_atom_site_fract_z
Si Si1 0.183211 0.905939 0.307002
Si Si2 0.816816 0.756535 0.937211
Si Si3 0.743104 0.688287 0.626610
Si Si4 0.393125 0.364138 0.736637
Si Si5 0.894781 0.601520 0.271173
Si Si6 0.369043 0.801347 0.625388
Si Si7 0.458782 0.896551 0.962934
O O1 0.236934 0.807546 0.345442
O O2 0.133119 0.867026 0.217000
O O3 0.106903 0.927788 0.380825
O O4 0.250000 0.000000 0.291251
O O5 0.847342 0.701968 0.843841
O O6 0.726566 0.823076 0.921518
O O7 0.785709 0.683540 0.021168
O O8 0.897933 0.829133 0.969718
O O9 0.838301 0.650563 0.668585
O O10 0.666601 0.630238 0.684928
O O11 0.500000 0.341281 0.750000
O O12 0.383849 0.482677 0.708208
O O13 0.867485 0.681720 0.348472
O O14 0.000000 0.621087 0.250000
O O15 0.457868 0.827555 0.570209
O O16 0.500000 0.000000 0.000000
#
# Coordination Sequence:
#
# PCOD9422070 Si02
#       7
#     8   8   8   8   8   8   8
#     4  10  22  41  69  92 125 174 222 270 335 399
#     4  11  25  43  68  99 135 181 223 280 341 399
#     4  10  22  43  63  95 135 171 217 274 335 402
#     4  11  24  43  68 104 137 173 225 283 332 398
#     4  10  20  43  69  94 131 173 221 276 332 408
#     4  11  23  44  70  90 134 182 222 271 342 404
#     4  11  27  41  66 100 135 172 229 283 334 405
#
# _framework density 19.669844000000001
#
# number of rings (size 3 to 8) (size 9 to 14) (size 15 to 20)
#    0.000    1.429    2.857    3.429    8.000    0.000 
#    5.143    2.143    0.000    0.000    0.000    0.000 
#    0.000    0.000    0.000    0.000    0.000    0.000 
#
# Total GULP energy -312643.755252 kJ/mol
# GULP energy per Si atom -5582.924201 kJ/mol
# Density = 1.962507 g / cm^3
# Si number density = 19.669844 Si / 1000 Ang^3
#
#
#
# Elastic Constant Matrix: (Units=GPa)
#
#
# Indices 1 2 3 4 5 6 
#
# 1 117.0094 39.4810 23.3551 0.0000 0.0000 0.0000
# 2 39.4810 50.9415 14.0042 0.0000 0.0000 0.0000
# 3 23.3551 14.0042 60.8889 0.0000 0.0000 0.0000
# 4 0.0000 0.0000 0.0000 11.9627 0.0000 0.0000
# 5 0.0000 0.0000 0.0000 0.0000 36.2509 0.0000
# 6 0.0000 0.0000 0.0000 0.0000 0.0000 26.2088
#
#
#
# Elastic Compliance Matrix: (Units=1/GPa)
#
#
# Indices 1 2 3 4 5 6 
#
# 1 0.011952 -0.008543 -0.002619 0.000000 0.000000 0.000000
# 2 -0.008543 0.027061 -0.002947 0.000000 0.000000 0.000000
# 3 -0.002619 -0.002947 0.018106 0.000000 0.000000 0.000000
# 4 0.000000 0.000000 0.000000 0.083593 0.000000 0.000000
# 5 0.000000 0.000000 0.000000 0.000000 0.027586 0.000000
# 6 0.000000 0.000000 0.000000 0.000000 0.000000 0.038155
#
#
# Mechanical properties :
#
#
# Convention : Reuss Voigt Hill
#
# Bulk Modulus (GPa) = 34.60203 42.50228 38.55216
# Shear Modulus (GPa) = 20.46620 25.01776 22.74198
#
# Velocity S-wave (km/s) = 3.22916 3.57022 3.40396
# Velocity P-wave (km/s) = 5.61541 6.21691 5.92380
#
# Compressibility (1/GPa) = 0.02890003
#
# Stress axis : x y z
#
# Youngs Moduli (GPa) = 83.67061 36.95300 55.23036
#
# Poissons Ratio (x) = 0.31568 0.14468
# Poissons Ratio (y) = 0.71477 0.16278
# Poissons Ratio (z) = 0.21917 0.10891
#
# Static dielectric constant tensor:
#      x y z
#    x 1.696390 0.000000 0.000000 
#    y 0.000000 1.683280 0.000000 
#    z 0.000000 0.000000 1.707810 
# 
# From -- ./inp_files/13523.got.cif
#   From: 2010.05.17/outbox.cif.g08.bks.cpg/sg54_7_cif.got.tgz:13523.got - 2010.06.03 13:09:01.
