data_PCOD9422904
_publ_section_title
;
Structure prediction by ZEFSAII (Michael W. Deem and Ramdas Pophale) SiO2 
 PCOD9422904
Probable space group: P C C A
;
_chemical_formula_sum "Si O2"
_cell_formula_units_Z 40
_cell_length_a 18.967675
_cell_length_b 8.539953
_cell_length_c 11.641424
_cell_angle_alpha 90.000000
_cell_angle_beta 90.000000
_cell_angle_gamma 90.000000
_cell_volume 1885.713401
_symmetry_space_group_name_H-M "P C C A"
_symmetry_group_IT_number 54
_symmetry_cell_setting 'orthorhombic'
loop_
_space_group_symop_operation_xyz
x,y,z
1/2-x,-y,z
1/2+x,-y,1/2-z
-x,y,1/2-z
-x,-y,-z
1/2+x,y,-z
1/2-x,y,1/2+z
x,-y,1/2+z
loop_
_atom_site_type_symbol
_atom_site_label
_atom_site_fract_x
_atom_site_fract_y
_atom_site_fract_z
Si Si1 0.250000 0.000000 0.937090
Si Si2 0.214238 0.285885 0.319702
Si Si3 0.635663 0.425830 0.120766
Si Si4 0.500000 0.669181 0.750000
Si Si5 0.153950 0.784484 0.585299
Si Si6 0.533246 0.024356 0.372322
O O1 0.201700 0.893858 0.855551
O O2 0.284342 0.870233 0.016356
O O3 0.169455 0.403970 0.398028
O O4 0.297289 0.330977 0.323940
O O5 0.184871 0.306693 0.192594
O O6 0.565534 0.424415 0.197271
O O7 0.618403 0.334718 0.003625
O O8 0.467967 0.789859 0.654649
O O9 0.104591 0.927473 0.620676
O O10 0.500000 0.964032 0.250000
O O11 0.500000 0.000000 0.500000
#
# Coordination Sequence:
#
# PCOD9422904 Si02
#       6
#     4   8   8   4   8   8
#     4  10  24  38  70 100 126 172 234 292 350 416
#     4  10  24  41  67  99 134 174 234 288 351 429
#     4  10  23  46  64  98 139 183 229 287 360 423
#     4  10  22  42  70  98 142 184 236 286 356 416
#     4  11  22  42  65  98 134 181 231 289 352 415
#     4  10  22  39  66  99 138 182 238 294 340 418
#
# _framework density 21.212129999999998
#
# number of rings (size 3 to 8) (size 9 to 14) (size 15 to 20)
#    0.600    1.200    2.000    0.600   11.200    6.400 
#    1.800    1.000    0.000    0.000    0.000    0.000 
#    0.000    0.000    0.000    0.000    0.000    0.000 
#
# Total GULP energy -222745.693464 kJ/mol
# GULP energy per Si atom -5568.642337 kJ/mol
# Density = 2.116385 g / cm^3
# Si number density = 21.212130 Si / 1000 Ang^3
#
#
#
# Elastic Constant Matrix: (Units=GPa)
#
#
# Indices 1 2 3 4 5 6 
#
# 1 57.3664 -6.3514 3.0433 0.0000 0.0000 0.0000
# 2 -6.3514 63.9307 -12.8130 0.0000 0.0000 0.0000
# 3 3.0433 -12.8130 65.4033 0.0000 0.0000 0.0000
# 4 0.0000 0.0000 0.0000 14.2610 0.0000 0.0000
# 5 0.0000 0.0000 0.0000 0.0000 23.2845 0.0000
# 6 0.0000 0.0000 0.0000 0.0000 0.0000 26.7448
#
#
#
# Elastic Compliance Matrix: (Units=1/GPa)
#
#
# Indices 1 2 3 4 5 6 
#
# 1 0.017641 0.001653 -0.000497 0.000000 0.000000 0.000000
# 2 0.001653 0.016436 0.003143 0.000000 0.000000 0.000000
# 3 -0.000497 0.003143 0.015929 0.000000 0.000000 0.000000
# 4 0.000000 0.000000 0.000000 0.070121 0.000000 0.000000
# 5 0.000000 0.000000 0.000000 0.000000 0.042947 0.000000
# 6 0.000000 0.000000 0.000000 0.000000 0.000000 0.037390
#
#
# Mechanical properties :
#
#
# Convention : Reuss Voigt Hill
#
# Bulk Modulus (GPa) = 17.06372 17.16204 17.11288
# Shear Modulus (GPa) = 23.65168 26.37948 25.01558
#
# Velocity S-wave (km/s) = 3.34279 3.53030 3.43783
# Velocity P-wave (km/s) = 4.79175 4.97249 4.88295
#
# Compressibility (1/GPa) = 0.05860388
#
# Stress axis : x y z
#
# Youngs Moduli (GPa) = 56.68552 60.84175 62.78011
#
# Poissons Ratio (x) = -0.10057 0.03120
# Poissons Ratio (y) = -0.09370 -0.19732
# Poissons Ratio (z) = 0.02818 -0.19123
#
# Static dielectric constant tensor:
#      x y z
#    x 1.769000 0.000000 0.000000 
#    y 0.000000 1.796750 0.000000 
#    z 0.000000 0.000000 21.047650 
# 
# From -- ./inp_files/9450.got.cif
#   From: 2010.05.17/outbox.cif.g08.bks.cpg/sg54_5_cif.got.tgz:9450.got - 2010.06.03 13:09:01.
