data_PCOD9422123
_publ_section_title
;
Structure prediction by ZEFSAII (Michael W. Deem and Ramdas Pophale) SiO2 
 PCOD9422123
Probable space group: P C C A
;
_chemical_formula_sum "Si O2"
_cell_formula_units_Z 36
_cell_length_a 12.911130
_cell_length_b 21.915610
_cell_length_c 5.241870
_cell_angle_alpha 90.000000
_cell_angle_beta 90.000000
_cell_angle_gamma 90.000000
_cell_volume 1483.214845
_symmetry_space_group_name_H-M "P C C A"
_symmetry_group_IT_number 54
_symmetry_cell_setting 'orthorhombic'
loop_
_space_group_symop_operation_xyz
x,y,z
1/2-x,-y,z
1/2+x,-y,1/2-z
-x,y,1/2-z
-x,-y,-z
1/2+x,y,-z
1/2-x,y,1/2+z
x,-y,1/2+z
loop_
_atom_site_type_symbol
_atom_site_label
_atom_site_fract_x
_atom_site_fract_y
_atom_site_fract_z
Si Si1 0.000000 0.621142 0.250000
Si Si2 0.177674 0.702449 0.456026
Si Si3 0.316662 0.158123 0.468932
Si Si4 0.613050 0.027292 0.025473
Si Si5 0.869696 0.475268 0.069795
O O1 0.075475 0.661814 0.425840
O O2 0.086471 0.582950 0.083985
O O3 0.243111 0.692060 0.716629
O O4 0.141814 0.773264 0.442953
O O5 0.227166 0.153869 0.255318
O O6 0.385794 0.098866 0.418007
O O7 0.657508 0.984687 0.246574
O O8 0.500000 0.000000 0.000000
O O9 0.750000 0.500000 0.105221
O O10 0.906097 0.474146 0.362750
#
# Coordination Sequence:
#
# PCOD9422123 Si02
#       5
#     4   8   8   8   8
#     4  12  26  44  80  98 140 188 230 278 352 402
#     4  10  26  46  69 102 135 181 238 291 337 413
#     4  10  21  41  62  87 129 167 212 275 339 388
#     4  10  21  35  56  89 121 163 209 264 321 392
#     4  10  24  43  67 103 141 179 220 276 340 410
#
# _framework density 24.271601
#
# number of rings (size 3 to 8) (size 9 to 14) (size 15 to 20)
#    0.000    1.778    0.000    2.000    6.222    7.111 
#    0.000    4.444    0.000    0.000    0.000    0.000 
#    0.000    0.000    0.000    0.000    0.000    0.000 
#
# Total GULP energy -200496.562934 kJ/mol
# GULP energy per Si atom -5569.348970 kJ/mol
# Density = 2.421636 g / cm^3
# Si number density = 24.271601 Si / 1000 Ang^3
#
#
#
# Elastic Constant Matrix: (Units=GPa)
#
#
# Indices 1 2 3 4 5 6 
#
# 1 101.2560 62.4497 -13.5390 0.0000 0.0000 0.0000
# 2 62.4497 161.8403 6.7932 0.0000 0.0000 0.0000
# 3 -13.5390 6.7932 147.5037 0.0000 0.0000 0.0000
# 4 0.0000 0.0000 0.0000 17.4616 0.0000 0.0000
# 5 0.0000 0.0000 0.0000 0.0000 -22.3317 0.0000
# 6 0.0000 0.0000 0.0000 0.0000 0.0000 45.1017
#
#
#
# Elastic Compliance Matrix: (Units=1/GPa)
#
#
# Indices 1 2 3 4 5 6 
#
# 1 0.013265 -0.005180 0.001456 0.000000 0.000000 0.000000
# 2 -0.005180 0.008214 -0.000854 0.000000 0.000000 0.000000
# 3 0.001456 -0.000854 0.006952 0.000000 0.000000 0.000000
# 4 0.000000 0.000000 0.000000 0.057268 0.000000 0.000000
# 5 0.000000 0.000000 0.000000 0.000000 -0.044779 0.000000
# 6 0.000000 0.000000 0.000000 0.000000 0.000000 0.022172
#
#
# Mechanical properties :
#
#
# Convention : Reuss Voigt Hill
#
# Bulk Modulus (GPa) = 51.87667 58.00088 54.93878
# Shear Modulus (GPa) = 63.55452 31.70608 47.63030
#
# Velocity S-wave (km/s) = 5.12265 3.61820 4.43469
# Velocity P-wave (km/s) = 7.51056 6.43457 6.99329
#
# Compressibility (1/GPa) = 0.01927649
#
# Stress axis : x y z
#
# Youngs Moduli (GPa) = 75.38450 121.75044 143.83385
#
# Poissons Ratio (x) = 0.63065 -0.20944
# Poissons Ratio (y) = 0.39048 0.12279
# Poissons Ratio (z) = -0.10977 0.10394
#
# Static dielectric constant tensor:
#      x y z
#    x -35.202920 0.000000 0.000000 
#    y 0.000000 1.938830 0.000000 
#    z 0.000000 0.000000 1.883840 
# 
# From -- ./inp_files/470.got.cif
#   From: 2010.05.17/outbox.cif.g08.bks.cpg/sg54_1_cif.got.tgz:470.got - 2010.06.03 13:09:01.
