data_PCOD9422437
_publ_section_title
;
Structure prediction by ZEFSAII (Michael W. Deem and Ramdas Pophale) SiO2 
 PCOD9422437
Probable space group: P C C A
;
_chemical_formula_sum "Si O2"
_cell_formula_units_Z 48
_cell_length_a 10.793969
_cell_length_b 14.061965
_cell_length_c 14.724494
_cell_angle_alpha 90.000000
_cell_angle_beta 90.000000
_cell_angle_gamma 90.000000
_cell_volume 2234.948697
_symmetry_space_group_name_H-M "P C C A"
_symmetry_group_IT_number 54
_symmetry_cell_setting 'orthorhombic'
loop_
_space_group_symop_operation_xyz
x,y,z
1/2-x,-y,z
1/2+x,-y,1/2-z
-x,y,1/2-z
-x,-y,-z
1/2+x,y,-z
1/2-x,y,1/2+z
x,-y,1/2+z
loop_
_atom_site_type_symbol
_atom_site_label
_atom_site_fract_x
_atom_site_fract_y
_atom_site_fract_z
Si Si1 0.000000 0.547092 0.750000
Si Si2 0.661176 0.281239 0.695032
Si Si3 0.599097 0.987960 0.583458
Si Si4 0.119059 0.508130 0.582747
Si Si5 0.532852 0.333578 0.515470
Si Si6 0.500000 0.119408 0.750000
Si Si7 0.066140 0.774544 0.346054
O O1 0.113778 0.620132 0.762892
O O2 0.017647 0.487882 0.659593
O O3 0.588239 0.275069 0.598618
O O4 0.614953 0.194375 0.758738
O O5 0.803752 0.277087 0.671535
O O6 0.591218 0.880666 0.619345
O O7 0.750000 0.000000 0.564286
O O8 0.500000 0.000000 0.500000
O O9 0.545036 0.055304 0.664882
O O10 0.250000 0.500000 0.628065
O O11 0.113506 0.427813 0.506264
O O12 0.093086 0.613680 0.546549
O O13 0.512875 0.275236 0.424929
O O14 0.000000 0.777317 0.250000
#
# Coordination Sequence:
#
# PCOD9422437 Si02
#       7
#     4   8   8   8   8   4   8
#     4   9  22  36  63  96 126 186 219 274 342 401
#     4  10  22  44  65  93 134 176 229 274 343 415
#     4  12  27  48  73 108 143 187 234 289 360 424
#     4  10  21  39  63  92 133 174 223 273 343 404
#     4  10  23  42  63  97 132 175 223 281 341 411
#     4  11  22  48  71  94 140 180 223 282 344 421
#     4  12  26  41  67 104 130 173 230 286 340 410
#
# _framework density 21.477001999999999
#
# number of rings (size 3 to 8) (size 9 to 14) (size 15 to 20)
#    0.000    1.333    2.500    2.000    3.500    2.000 
#    3.000    1.667    0.000    0.000    0.000    0.000 
#    0.000    0.000    0.000    0.000    0.000    0.000 
#
# Total GULP energy -267723.805823 kJ/mol
# GULP energy per Si atom -5577.579288 kJ/mol
# Density = 2.142812 g / cm^3
# Si number density = 21.477002 Si / 1000 Ang^3
#
#
#
# Elastic Constant Matrix: (Units=GPa)
#
#
# Indices 1 2 3 4 5 6 
#
# 1 115.2727 33.1728 60.9234 0.0000 0.0000 0.0000
# 2 33.1728 64.1917 31.2613 0.0000 0.0000 0.0000
# 3 60.9234 31.2613 126.2825 0.0000 0.0000 0.0000
# 4 0.0000 0.0000 0.0000 27.7135 0.0000 0.0000
# 5 0.0000 0.0000 0.0000 0.0000 25.4202 0.0000
# 6 0.0000 0.0000 0.0000 0.0000 0.0000 19.2634
#
#
#
# Elastic Compliance Matrix: (Units=1/GPa)
#
#
# Indices 1 2 3 4 5 6 
#
# 1 0.012487 -0.004002 -0.005034 0.000000 0.000000 0.000000
# 2 -0.004002 0.018996 -0.002772 0.000000 0.000000 0.000000
# 3 -0.005034 -0.002772 0.011033 0.000000 0.000000 0.000000
# 4 0.000000 0.000000 0.000000 0.036084 0.000000 0.000000
# 5 0.000000 0.000000 0.000000 0.000000 0.039339 0.000000
# 6 0.000000 0.000000 0.000000 0.000000 0.000000 0.051912
#
#
# Mechanical properties :
#
#
# Convention : Reuss Voigt Hill
#
# Bulk Modulus (GPa) = 52.90399 61.82911 57.36655
# Shear Modulus (GPa) = 25.02927 26.50536 25.76731
#
# Velocity S-wave (km/s) = 3.41750 3.51683 3.46752
# Velocity P-wave (km/s) = 6.34498 6.73363 6.54219
#
# Compressibility (1/GPa) = 0.01890216
#
# Stress axis : x y z
#
# Youngs Moduli (GPa) = 80.08338 52.64191 90.63422
#
# Poissons Ratio (x) = 0.21065 0.45622
# Poissons Ratio (y) = 0.32046 0.25124
# Poissons Ratio (z) = 0.40311 0.14592
#
# Static dielectric constant tensor:
#      x y z
#    x 1.847710 0.000000 0.000000 
#    y 0.000000 1.769760 0.000000 
#    z 0.000000 0.000000 1.830180 
# 
# From -- ./inp_files/12652.got.cif
#   From: 2010.05.17/outbox.cif.g08.bks.cpg/sg54_7_cif.got.tgz:12652.got - 2010.06.03 13:09:01.
