data_PCOD9422671
_publ_section_title
;
Structure prediction by ZEFSAII (Michael W. Deem and Ramdas Pophale) SiO2 
 PCOD9422671
Probable space group: P C C A
;
_chemical_formula_sum "Si O2"
_cell_formula_units_Z 32
_cell_length_a 11.066707
_cell_length_b 10.637599
_cell_length_c 12.202797
_cell_angle_alpha 90.000000
_cell_angle_beta 90.000000
_cell_angle_gamma 90.000000
_cell_volume 1436.552206
_symmetry_space_group_name_H-M "P C C A"
_symmetry_group_IT_number 54
_symmetry_cell_setting 'orthorhombic'
loop_
_space_group_symop_operation_xyz
x,y,z
1/2-x,-y,z
1/2+x,-y,1/2-z
-x,y,1/2-z
-x,-y,-z
1/2+x,y,-z
1/2-x,y,1/2+z
x,-y,1/2+z
loop_
_atom_site_type_symbol
_atom_site_label
_atom_site_fract_x
_atom_site_fract_y
_atom_site_fract_z
Si Si1 0.581219 0.250581 0.651240
Si Si2 0.497749 0.284249 0.096650
Si Si3 0.110391 0.980431 0.415427
Si Si4 0.685465 0.375758 0.237007
O O1 0.500000 0.298068 0.750000
O O2 0.526478 0.281923 0.532298
O O3 0.711383 0.308128 0.668072
O O4 0.596587 0.099695 0.663369
O O5 0.575116 0.158246 0.126049
O O6 0.578190 0.395984 0.148203
O O7 0.372728 0.296135 0.163549
O O8 0.250000 0.000000 0.457421
O O9 0.000000 0.000000 0.500000
O O10 0.750000 0.500000 0.281333
#
# Coordination Sequence:
#
# PCOD9422671 Si02
#       4
#     8   8   8   8
#     4  11  26  41  73 110 142 190 253 301 387 454
#     4  10  25  48  72 103 150 192 251 318 379 454
#     4  10  21  42  72 108 147 197 240 308 389 455
#     4  11  26  46  72 101 144 203 251 307 380 439
#
# _framework density 22.275556000000002
#
# number of rings (size 3 to 8) (size 9 to 14) (size 15 to 20)
#    0.000    1.500    2.500    0.000   10.500    4.000 
#    0.000    1.250    0.000    0.000    0.000    0.000 
#    0.000    0.000    0.000    0.000    0.000    0.000 
#
# Total GULP energy -178301.774161 kJ/mol
# GULP energy per Si atom -5571.930443 kJ/mol
# Density = 2.222486 g / cm^3
# Si number density = 22.275556 Si / 1000 Ang^3
#
#
#
# Elastic Constant Matrix: (Units=GPa)
#
#
# Indices 1 2 3 4 5 6 
#
# 1 131.8758 34.6593 56.4317 0.0000 0.0000 0.0000
# 2 34.6593 71.6617 24.1672 0.0000 0.0000 0.0000
# 3 56.4317 24.1672 145.5435 0.0000 0.0000 0.0000
# 4 0.0000 0.0000 0.0000 13.9542 0.0000 0.0000
# 5 0.0000 0.0000 0.0000 0.0000 33.9226 0.0000
# 6 0.0000 0.0000 0.0000 0.0000 0.0000 35.8111
#
#
#
# Elastic Compliance Matrix: (Units=1/GPa)
#
#
# Indices 1 2 3 4 5 6 
#
# 1 0.009946 -0.003718 -0.003239 0.000000 0.000000 0.000000
# 2 -0.003718 0.016172 -0.001244 0.000000 0.000000 0.000000
# 3 -0.003239 -0.001244 0.008333 0.000000 0.000000 0.000000
# 4 0.000000 0.000000 0.000000 0.071663 0.000000 0.000000
# 5 0.000000 0.000000 0.000000 0.000000 0.029479 0.000000
# 6 0.000000 0.000000 0.000000 0.000000 0.000000 0.027924
#
#
# Mechanical properties :
#
#
# Convention : Reuss Voigt Hill
#
# Bulk Modulus (GPa) = 55.40253 64.39971 59.90112
# Shear Modulus (GPa) = 26.89100 32.32577 29.60838
#
# Velocity S-wave (km/s) = 3.47824 3.81356 3.64976
# Velocity P-wave (km/s) = 6.40752 6.95444 6.68658
#
# Compressibility (1/GPa) = 0.01804972
#
# Stress axis : x y z
#
# Youngs Moduli (GPa) = 100.54179 61.83461 120.00213
#
# Poissons Ratio (x) = 0.22991 0.38869
# Poissons Ratio (y) = 0.37383 0.14925
# Poissons Ratio (z) = 0.32566 0.07691
#
# Static dielectric constant tensor:
#      x y z
#    x 1.920080 0.000000 0.000000 
#    y 0.000000 1.988200 0.000000 
#    z 0.000000 0.000000 1.771850 
# 
# From -- ./inp_files/7260.got.cif
#   From: 2010.05.17/outbox.cif.g08.bks.cpg/sg54_4_cif.got.tgz:7260.got - 2010.06.03 13:09:01.
