data_PCOD9422980
_publ_section_title
;
Structure prediction by ZEFSAII (Michael W. Deem and Ramdas Pophale) SiO2 
 PCOD9422980
Probable space group: P C C A
;
_chemical_formula_sum "Si O2"
_cell_formula_units_Z 28
_cell_length_a 9.524138
_cell_length_b 11.335744
_cell_length_c 12.045746
_cell_angle_alpha 90.000000
_cell_angle_beta 90.000000
_cell_angle_gamma 90.000000
_cell_volume 1300.497166
_symmetry_space_group_name_H-M "P C C A"
_symmetry_group_IT_number 54
_symmetry_cell_setting 'orthorhombic'
loop_
_space_group_symop_operation_xyz
x,y,z
1/2-x,-y,z
1/2+x,-y,1/2-z
-x,y,1/2-z
-x,-y,-z
1/2+x,y,-z
1/2-x,y,1/2+z
x,-y,1/2+z
loop_
_atom_site_type_symbol
_atom_site_label
_atom_site_fract_x
_atom_site_fract_y
_atom_site_fract_z
Si Si1 0.250000 0.000000 0.874954
Si Si2 0.937318 0.866489 0.490229
Si Si3 0.997385 0.640495 0.881876
Si Si4 0.250000 0.500000 0.498200
Si Si5 0.500000 0.887439 0.750000
O O1 0.214491 0.890217 0.955009
O O2 0.375060 0.967681 0.793770
O O3 0.008508 0.771413 0.568050
O O4 0.946227 0.824532 0.362489
O O5 0.000000 0.000000 0.500000
O O6 0.000000 0.641543 0.750000
O O7 0.860084 0.573180 0.927271
O O8 0.142867 0.580833 0.926122
#
# Coordination Sequence:
#
# PCOD9422980 Si02
#       5
#     4   8   8   4   4
#     4  10  22  40  64  98 144 184 238 272 356 420
#     4  10  24  40  67 105 139 187 227 282 357 423
#     4  11  25  48  77 101 143 182 239 299 353 416
#     4  10  26  50  72 108 128 188 248 294 358 408
#     4  10  22  42  62  96 144 180 230 288 336 436
#
# _framework density 21.530228000000001
#
# number of rings (size 3 to 8) (size 9 to 14) (size 15 to 20)
#    0.000    1.714    0.000    1.714   16.000    2.286 
#   10.286    0.000    0.000    0.000    0.000    0.000 
#    0.000    0.000    0.000    0.000    0.000    0.000 
#
# Total GULP energy -156193.745536 kJ/mol
# GULP energy per Si atom -5578.348055 kJ/mol
# Density = 2.148122 g / cm^3
# Si number density = 21.530228 Si / 1000 Ang^3
#
#
#
# Elastic Constant Matrix: (Units=GPa)
#
#
# Indices 1 2 3 4 5 6 
#
# 1 151.7384 52.8877 77.2104 0.0000 0.0000 0.0000
# 2 52.8877 117.2184 66.1981 0.0000 0.0000 0.0000
# 3 77.2104 66.1981 225.4554 0.0000 0.0000 0.0000
# 4 0.0000 0.0000 0.0000 24.2792 0.0000 0.0000
# 5 0.0000 0.0000 0.0000 0.0000 40.0512 0.0000
# 6 0.0000 0.0000 0.0000 0.0000 0.0000 26.0118
#
#
#
# Elastic Compliance Matrix: (Units=1/GPa)
#
#
# Indices 1 2 3 4 5 6 
#
# 1 0.008624 -0.002665 -0.002171 0.000000 0.000000 0.000000
# 2 -0.002665 0.011050 -0.002332 0.000000 0.000000 0.000000
# 3 -0.002171 -0.002332 0.005864 0.000000 0.000000 0.000000
# 4 0.000000 0.000000 0.000000 0.041188 0.000000 0.000000
# 5 0.000000 0.000000 0.000000 0.000000 0.024968 0.000000
# 6 0.000000 0.000000 0.000000 0.000000 0.000000 0.038444
#
#
# Mechanical properties :
#
#
# Convention : Reuss Voigt Hill
#
# Bulk Modulus (GPa) = 89.26782 98.55608 93.91195
# Shear Modulus (GPa) = 33.73656 37.94284 35.83970
#
# Velocity S-wave (km/s) = 3.96275 4.20254 4.08440
# Velocity P-wave (km/s) = 7.90503 8.33207 8.12136
#
# Compressibility (1/GPa) = 0.01120225
#
# Stress axis : x y z
#
# Youngs Moduli (GPa) = 115.95859 90.49399 170.54334
#
# Poissons Ratio (x) = 0.24117 0.37022
# Poissons Ratio (y) = 0.30903 0.39770
# Poissons Ratio (z) = 0.25173 0.21103
#
# Static dielectric constant tensor:
#      x y z
#    x 1.929690 0.000000 0.000000 
#    y 0.000000 1.782340 0.000000 
#    z 0.000000 0.000000 1.775270 
# 
# From -- ./inp_files/7218.got.cif
#   From: 2010.05.17/outbox.cif.g08.bks.cpg/sg54_4_cif.got.tgz:7218.got - 2010.06.03 13:09:01.
