data_PCOD9422013
_publ_section_title
;
Structure prediction by ZEFSAII (Michael W. Deem and Ramdas Pophale) SiO2 
 PCOD9422013
Probable space group: P C C A
;
_chemical_formula_sum "Si O2"
_cell_formula_units_Z 36
_cell_length_a 11.528860
_cell_length_b 5.665215
_cell_length_c 23.921397
_cell_angle_alpha 90.000000
_cell_angle_beta 90.000000
_cell_angle_gamma 90.000000
_cell_volume 1562.389460
_symmetry_space_group_name_H-M "P C C A"
_symmetry_group_IT_number 54
_symmetry_cell_setting 'orthorhombic'
loop_
_space_group_symop_operation_xyz
x,y,z
1/2-x,-y,z
1/2+x,-y,1/2-z
-x,y,1/2-z
-x,-y,-z
1/2+x,y,-z
1/2-x,y,1/2+z
x,-y,1/2+z
loop_
_atom_site_type_symbol
_atom_site_label
_atom_site_fract_x
_atom_site_fract_y
_atom_site_fract_z
Si Si1 0.068168 0.750252 0.992689
Si Si2 0.250000 0.500000 0.192388
Si Si3 0.410469 0.214102 0.110393
Si Si4 0.117798 0.547975 0.875474
Si Si5 0.556883 0.829946 0.301970
O O1 0.118744 0.717569 0.930718
O O2 0.144703 0.765209 0.048957
O O3 0.000000 0.500000 0.000000
O O4 0.000000 0.000000 0.000000
O O5 0.341443 0.377224 0.152236
O O6 0.171504 0.301650 0.220720
O O7 0.542668 0.313662 0.108780
O O8 0.407899 0.966634 0.141826
O O9 0.250000 0.500000 0.860484
O O10 0.044440 0.661630 0.825356
O O11 0.500000 0.971266 0.250000
#
# Coordination Sequence:
#
# PCOD9422013 Si02
#       5
#     8   4   8   8   8
#     4  10  20  41  68  98 142 181 229 290 349 421
#     4  10  24  44  66  94 128 178 232 288 352 424
#     4  10  22  43  66  98 134 177 231 281 353 425
#     4  10  23  42  66 103 140 178 227 290 355 421
#     4  11  24  44  68  95 135 180 239 293 348 421
#
# _framework density 23.041630000000001
#
# number of rings (size 3 to 8) (size 9 to 14) (size 15 to 20)
#    0.000    1.778    2.222    0.667    3.111    4.444 
#    4.000    0.000    0.000    0.000    0.000    0.000 
#    0.000    0.000    0.000    0.000    0.000    0.000 
#
# Total GULP energy -200456.129183 kJ/mol
# GULP energy per Si atom -5568.225811 kJ/mol
# Density = 2.298919 g / cm^3
# Si number density = 23.041630 Si / 1000 Ang^3
#
#
#
# Elastic Constant Matrix: (Units=GPa)
#
#
# Indices 1 2 3 4 5 6 
#
# 1 112.2695 24.3534 8.3879 0.0000 0.0000 0.0000
# 2 24.3534 81.3797 0.4944 0.0000 0.0000 0.0000
# 3 8.3879 0.4944 86.8334 0.0000 0.0000 0.0000
# 4 0.0000 0.0000 0.0000 12.9052 0.0000 0.0000
# 5 0.0000 0.0000 0.0000 0.0000 17.0909 0.0000
# 6 0.0000 0.0000 0.0000 0.0000 0.0000 18.9853
#
#
#
# Elastic Compliance Matrix: (Units=1/GPa)
#
#
# Indices 1 2 3 4 5 6 
#
# 1 0.009597 -0.002866 -0.000911 0.000000 0.000000 0.000000
# 2 -0.002866 0.013145 0.000202 0.000000 0.000000 0.000000
# 3 -0.000911 0.000202 0.011603 0.000000 0.000000 0.000000
# 4 0.000000 0.000000 0.000000 0.077488 0.000000 0.000000
# 5 0.000000 0.000000 0.000000 0.000000 0.058511 0.000000
# 6 0.000000 0.000000 0.000000 0.000000 0.000000 0.052672
#
#
# Mechanical properties :
#
#
# Convention : Reuss Voigt Hill
#
# Bulk Modulus (GPa) = 36.77210 38.55046 37.66128
# Shear Modulus (GPa) = 20.90031 26.27941 23.58986
#
# Velocity S-wave (km/s) = 3.01502 3.38082 3.20315
# Velocity P-wave (km/s) = 5.30227 5.65748 5.48275
#
# Compressibility (1/GPa) = 0.02719453
#
# Stress axis : x y z
#
# Youngs Moduli (GPa) = 104.19970 76.07668 86.18369
#
# Poissons Ratio (x) = 0.21807 0.07849
# Poissons Ratio (y) = 0.29868 -0.01741
# Poissons Ratio (z) = 0.09490 -0.01537
#
# Static dielectric constant tensor:
#      x y z
#    x 1.937370 0.000000 0.000000 
#    y 0.000000 1.928910 0.000000 
#    z 0.000000 0.000000 1.904840 
# 
# From -- ./inp_files/23806.got.cif
#   From: 2010.05.17/outbox.cif.g08.bks.cpg/sg54_12_cif.got.tgz:23806.got - 2010.06.03 13:09:01.
