data_PCOD9422108
_publ_section_title
;
Structure prediction by ZEFSAII (Michael W. Deem and Ramdas Pophale) SiO2 
 PCOD9422108
Probable space group: P C C A
;
_chemical_formula_sum "Si O2"
_cell_formula_units_Z 48
_cell_length_a 14.315803
_cell_length_b 12.028515
_cell_length_c 12.362601
_cell_angle_alpha 90.000000
_cell_angle_beta 90.000000
_cell_angle_gamma 90.000000
_cell_volume 2128.813326
_symmetry_space_group_name_H-M "P C C A"
_symmetry_group_IT_number 54
_symmetry_cell_setting 'orthorhombic'
loop_
_space_group_symop_operation_xyz
x,y,z
1/2-x,-y,z
1/2+x,-y,1/2-z
-x,y,1/2-z
-x,-y,-z
1/2+x,y,-z
1/2-x,y,1/2+z
x,-y,1/2+z
loop_
_atom_site_type_symbol
_atom_site_label
_atom_site_fract_x
_atom_site_fract_y
_atom_site_fract_z
Si Si1 0.404257 0.826889 0.859494
Si Si2 0.115623 0.598813 0.971652
Si Si3 0.112391 0.730810 0.765771
Si Si4 0.121716 0.208557 0.623424
Si Si5 0.611050 0.649171 0.468675
Si Si6 0.150897 0.059704 0.414043
O O1 0.349061 0.818560 0.745942
O O2 0.510288 0.783952 0.858538
O O3 0.415617 0.954479 0.895396
O O4 0.359985 0.745481 0.947814
O O5 0.145657 0.641214 0.854135
O O6 0.002757 0.626323 0.967129
O O7 0.152066 0.676512 0.068474
O O8 0.141977 0.472598 0.994545
O O9 0.144041 0.694113 0.647275
O O10 0.136442 0.848710 0.820937
O O11 0.000000 0.731798 0.750000
O O12 0.140344 0.117053 0.531034
O O13 0.250000 0.000000 0.407096
#
# Coordination Sequence:
#
# PCOD9422108 Si02
#       6
#     8   8   8   8   8   8
#     4  10  21  34  58  88 113 155 197 245 305 364
#     4   8  16  31  53  86 117 148 190 248 304 354
#     4   9  19  34  57  86 122 159 197 250 306 354
#     4   9  20  37  57  84 118 150 196 252 299 353
#     4   9  17  30  54  86 117 147 194 246 302 357
#     4  11  24  39  58  84 119 162 203 251 297 364
#
# _framework density 22.547772999999999
#
# number of rings (size 3 to 8) (size 9 to 14) (size 15 to 20)
#    0.000    2.667    0.000    1.500    7.000    0.667 
#    0.000    0.000    0.000    4.000    0.000    0.000 
#    0.000    0.000    0.000    0.000    0.000    0.000 
#
# Total GULP energy -267770.350353 kJ/mol
# GULP energy per Si atom -5578.548966 kJ/mol
# Density = 2.249645 g / cm^3
# Si number density = 22.547773 Si / 1000 Ang^3
#
#
#
# Elastic Constant Matrix: (Units=GPa)
#
#
# Indices 1 2 3 4 5 6 
#
# 1 49.9100 -9.8970 26.1425 0.0000 0.0000 0.0000
# 2 -9.8970 206.2324 151.6271 0.0000 0.0000 0.0000
# 3 26.1425 151.6271 231.0226 0.0000 0.0000 0.0000
# 4 0.0000 0.0000 0.0000 72.3085 0.0000 0.0000
# 5 0.0000 0.0000 0.0000 0.0000 11.6018 0.0000
# 6 0.0000 0.0000 0.0000 0.0000 0.0000 -91.2019
#
#
#
# Elastic Compliance Matrix: (Units=1/GPa)
#
#
# Indices 1 2 3 4 5 6 
#
# 1 0.024942 0.006324 -0.006973 0.000000 0.000000 0.000000
# 2 0.006324 0.010974 -0.007918 0.000000 0.000000 0.000000
# 3 -0.006973 -0.007918 0.010315 0.000000 0.000000 0.000000
# 4 0.000000 0.000000 0.000000 0.013830 0.000000 0.000000
# 5 0.000000 0.000000 0.000000 0.000000 0.086193 0.000000
# 6 0.000000 0.000000 0.000000 0.000000 0.000000 -0.010965
#
#
# Mechanical properties :
#
#
# Convention : Reuss Voigt Hill
#
# Bulk Modulus (GPa) = 34.36889 91.43446 62.90168
# Shear Modulus (GPa) = 30.84088 19.82784 25.33436
#
# Velocity S-wave (km/s) = 3.70239 2.96863 3.35563
# Velocity P-wave (km/s) = 5.79247 7.23808 6.55525
#
# Compressibility (1/GPa) = 0.02909608
#
# Stress axis : x y z
#
# Youngs Moduli (GPa) = 40.09248 91.12482 96.95070
#
# Poissons Ratio (x) = -0.57623 0.67602
# Poissons Ratio (y) = -0.25353 0.76767
# Poissons Ratio (z) = 0.27956 0.72154
#
# Static dielectric constant tensor:
#      x y z
#    x 2.063490 0.000000 0.000000 
#    y 0.000000 1.842060 0.000000 
#    z 0.000000 0.000000 1.864430 
# 
# From -- ./inp_files/8931.got.cif
#   From: 2010.05.17/outbox.cif.g08.bks.cpg/sg54_5_cif.got.tgz:8931.got - 2010.06.03 13:09:01.
