data_PCOD9422324
_publ_section_title
;
Structure prediction by ZEFSAII (Michael W. Deem and Ramdas Pophale) SiO2 
 PCOD9422324
Probable space group: P C C A
;
_chemical_formula_sum "Si O2"
_cell_formula_units_Z 40
_cell_length_a 5.175833
_cell_length_b 27.246426
_cell_length_c 12.488540
_cell_angle_alpha 90.000000
_cell_angle_beta 90.000000
_cell_angle_gamma 90.000000
_cell_volume 1761.170762
_symmetry_space_group_name_H-M "P C C A"
_symmetry_group_IT_number 54
_symmetry_cell_setting 'orthorhombic'
loop_
_space_group_symop_operation_xyz
x,y,z
1/2-x,-y,z
1/2+x,-y,1/2-z
-x,y,1/2-z
-x,-y,-z
1/2+x,y,-z
1/2-x,y,1/2+z
x,-y,1/2+z
loop_
_atom_site_type_symbol
_atom_site_label
_atom_site_fract_x
_atom_site_fract_y
_atom_site_fract_z
Si Si1 0.649038 0.744681 0.424527
Si Si2 0.965273 0.444433 0.960005
Si Si3 0.750000 0.000000 0.574783
Si Si4 0.750590 0.108844 0.578022
Si Si5 0.500000 0.823095 0.250000
Si Si6 0.000000 0.599060 0.250000
Si Si7 0.000000 0.335666 0.250000
O O1 0.418618 0.746562 0.511964
O O2 0.637662 0.788804 0.338371
O O3 0.590597 0.697307 0.350728
O O4 0.893737 0.437987 0.839071
O O5 0.739526 0.419904 0.024970
O O6 0.000000 0.500000 0.000000
O O7 0.748014 0.053497 0.627752
O O8 0.500000 0.000000 0.500000
O O9 0.514415 0.114631 0.491262
O O10 0.694682 0.144871 0.676946
O O11 0.754956 0.632847 0.223291
#
# Coordination Sequence:
#
# PCOD9422324 Si02
#       7
#     8   8   4   8   4   4   4
#     4  11  25  45  67  93 131 165 206 268 328 386
#     4  10  23  40  62  92 128 171 211 255 311 362
#     4   8  16  34  56  80 116 160 200 252 306 352
#     4  10  21  38  60  88 125 164 210 260 309 371
#     4  11  24  40  66  98 124 168 216 258 328 391
#     4  12  24  42  67  98 130 164 217 264 304 378
#     4  11  26  42  67  98 124 168 217 262 320 381
#
# _framework density 22.712166
#
# number of rings (size 3 to 8) (size 9 to 14) (size 15 to 20)
#    0.000    1.600    0.000    3.600    0.000   12.800 
#    0.000    6.000    0.000    0.000    0.000    0.000 
#    0.000    0.000    0.000    0.000    0.000    0.000 
#
# Total GULP energy -223190.875544 kJ/mol
# GULP energy per Si atom -5579.771889 kJ/mol
# Density = 2.266047 g / cm^3
# Si number density = 22.712166 Si / 1000 Ang^3
#
#
#
# Elastic Constant Matrix: (Units=GPa)
#
#
# Indices 1 2 3 4 5 6 
#
# 1 138.1543 20.7718 1.1464 0.0000 0.0000 0.0000
# 2 20.7718 105.3032 64.0684 0.0000 0.0000 0.0000
# 3 1.1464 64.0684 90.9229 0.0000 0.0000 0.0000
# 4 0.0000 0.0000 0.0000 50.0086 0.0000 0.0000
# 5 0.0000 0.0000 0.0000 0.0000 16.2190 0.0000
# 6 0.0000 0.0000 0.0000 0.0000 0.0000 30.5635
#
#
#
# Elastic Compliance Matrix: (Units=1/GPa)
#
#
# Indices 1 2 3 4 5 6 
#
# 1 0.007604 -0.002523 0.001682 0.000000 0.000000 0.000000
# 2 -0.002523 0.017460 -0.012272 0.000000 0.000000 0.000000
# 3 0.001682 -0.012272 0.019624 0.000000 0.000000 0.000000
# 4 0.000000 0.000000 0.000000 0.019997 0.000000 0.000000
# 5 0.000000 0.000000 0.000000 0.000000 0.061656 0.000000
# 6 0.000000 0.000000 0.000000 0.000000 0.000000 0.032719
#
#
# Mechanical properties :
#
#
# Convention : Reuss Voigt Hill
#
# Bulk Modulus (GPa) = 54.16275 56.26152 55.21213
# Shear Modulus (GPa) = 26.11789 35.91780 31.01785
#
# Velocity S-wave (km/s) = 3.39477 3.98104 3.69954
# Velocity P-wave (km/s) = 6.26620 6.77915 6.52771
#
# Compressibility (1/GPa) = 0.01846287
#
# Stress axis : x y z
#
# Youngs Moduli (GPa) = 131.51454 57.27248 50.95743
#
# Poissons Ratio (x) = 0.14452 -0.08572
# Poissons Ratio (y) = 0.33186 0.62533
# Poissons Ratio (z) = -0.22124 0.70282
#
# Static dielectric constant tensor:
#      x y z
#    x 1.836040 0.000000 0.000000 
#    y 0.000000 1.887740 0.000000 
#    z 0.000000 0.000000 1.957490 
# 
# From -- ./inp_files/6479.got.cif
#   From: 2010.05.17/outbox.cif.g08.bks.cpg/sg54_4_cif.got.tgz:6479.got - 2010.06.03 13:09:01.
