data_PCOD9422136
_publ_section_title
;
Structure prediction by ZEFSAII (Michael W. Deem and Ramdas Pophale) SiO2 
 PCOD9422136
Probable space group: P C C A
;
_chemical_formula_sum "Si O2"
_cell_formula_units_Z 52
_cell_length_a 18.593114
_cell_length_b 8.488508
_cell_length_c 17.914869
_cell_angle_alpha 90.000000
_cell_angle_beta 90.000000
_cell_angle_gamma 90.000000
_cell_volume 2827.464307
_symmetry_space_group_name_H-M "P C C A"
_symmetry_group_IT_number 54
_symmetry_cell_setting 'orthorhombic'
loop_
_space_group_symop_operation_xyz
x,y,z
1/2-x,-y,z
1/2+x,-y,1/2-z
-x,y,1/2-z
-x,-y,-z
1/2+x,y,-z
1/2-x,y,1/2+z
x,-y,1/2+z
loop_
_atom_site_type_symbol
_atom_site_label
_atom_site_fract_x
_atom_site_fract_y
_atom_site_fract_z
Si Si1 0.993241 0.664680 0.665287
Si Si2 0.750000 0.500000 0.773898
Si Si3 0.852411 0.391296 0.394318
Si Si4 0.676799 0.676795 0.007819
Si Si5 0.562564 0.094874 0.541905
Si Si6 0.168812 0.817191 0.472155
Si Si7 0.144595 0.540808 0.356811
O O1 0.968555 0.810037 0.612747
O O2 0.933254 0.528251 0.661764
O O3 0.000000 0.720878 0.750000
O O4 0.068598 0.590362 0.639295
O O5 0.706138 0.382465 0.828174
O O6 0.809409 0.430874 0.717550
O O7 0.826426 0.535466 0.447598
O O8 0.860368 0.240168 0.447665
O O9 0.602566 0.768908 0.995118
O O10 0.745912 0.791587 0.011345
O O11 0.677489 0.595497 0.089465
O O12 0.500000 0.000000 0.500000
O O13 0.629362 0.975139 0.554005
O O14 0.145764 0.691471 0.409599
#
# Coordination Sequence:
#
# PCOD9422136 Si02
#       7
#     8   4   8   8   8   8   8
#     4  11  23  39  58  90 122 161 190 248 308 354
#     4  12  18  36  60  96 110 148 192 260 308 344
#     4  11  21  35  65  87 117 147 203 252 299 349
#     4  10  21  38  59  89 111 155 201 248 291 348
#     4  11  24  38  59  82 122 161 199 236 287 365
#     4  11  20  40  59  88 114 157 202 245 289 353
#     4  10  21  35  64  86 117 147 201 246 299 356
#
# _framework density 18.391038000000002
#
# number of rings (size 3 to 8) (size 9 to 14) (size 15 to 20)
#    0.000    1.231    6.154    1.385    2.154    1.846 
#    0.000    2.308    0.000    1.846    0.000    0.000 
#    0.000    0.000    0.000    0.000    0.000    0.000 
#
# Total GULP energy -289508.232605 kJ/mol
# GULP energy per Si atom -5567.466012 kJ/mol
# Density = 1.834918 g / cm^3
# Si number density = 18.391038 Si / 1000 Ang^3
#
#
#
# Elastic Constant Matrix: (Units=GPa)
#
#
# Indices 1 2 3 4 5 6 
#
# 1 137.2664 37.2964 52.6019 0.0000 0.0000 0.0000
# 2 37.2964 58.1843 24.1787 0.0000 0.0000 0.0000
# 3 52.6019 24.1787 104.3751 0.0000 0.0000 0.0000
# 4 0.0000 0.0000 0.0000 13.0561 0.0000 0.0000
# 5 0.0000 0.0000 0.0000 0.0000 29.9124 0.0000
# 6 0.0000 0.0000 0.0000 0.0000 0.0000 38.9915
#
#
#
# Elastic Compliance Matrix: (Units=1/GPa)
#
#
# Indices 1 2 3 4 5 6 
#
# 1 0.010125 -0.004835 -0.003983 0.000000 0.000000 0.000000
# 2 -0.004835 0.021327 -0.002504 0.000000 0.000000 0.000000
# 3 -0.003983 -0.002504 0.012168 0.000000 0.000000 0.000000
# 4 0.000000 0.000000 0.000000 0.076593 0.000000 0.000000
# 5 0.000000 0.000000 0.000000 0.000000 0.033431 0.000000
# 6 0.000000 0.000000 0.000000 0.000000 0.000000 0.025647
#
#
# Mechanical properties :
#
#
# Convention : Reuss Voigt Hill
#
# Bulk Modulus (GPa) = 47.67191 58.66443 53.16817
# Shear Modulus (GPa) = 23.93205 28.77524 26.35365
#
# Velocity S-wave (km/s) = 3.61125 3.95984 3.78955
# Velocity P-wave (km/s) = 6.58527 7.27150 6.93687
#
# Compressibility (1/GPa) = 0.02097671
#
# Stress axis : x y z
#
# Youngs Moduli (GPa) = 98.76482 46.89001 82.18339
#
# Poissons Ratio (x) = 0.22672 0.32731
# Poissons Ratio (y) = 0.47755 0.20575
# Poissons Ratio (z) = 0.39334 0.11739
#
# Static dielectric constant tensor:
#      x y z
#    x 1.703040 0.000000 0.000000 
#    y 0.000000 1.640650 0.000000 
#    z 0.000000 0.000000 1.628790 
# 
# From -- ./inp_files/18602.got.cif
#   From: 2010.05.17/outbox.cif.g08.bks.cpg/sg54_10_cif.got.tgz:18602.got - 2010.06.03 13:09:01.
